REMARK SMILES Cc1cccc(NS(=O)(=O)c2ccc(Br)c(C(=O)NCCCCCCNC(=O)c3ccc(-c4c5nc(c(-c6ccccc6)c6ccc([nH]6)c(-c6ccccc6)c6nc(c(-c7ccccc7)c7ccc4[nH]7)C=C6)C=C5)cc3)c2)c1
REMARK SMILES IDX 22 1 21 2 20 3 19 4 17 5 18 6 16 8 11 9 12 10 77 11 13 12
REMARK SMILES IDX 14 13 15 14 8 15 9 16 10 17 7 18 6 20 1 21 2 22 3 23 78 24
REMARK SMILES IDX 4 25 5 26 23 27 24 28 25 29 26 30 27 31 28 33 29 34 30 35
REMARK SMILES IDX 76 36 31 37 75 38 32 39 33 40 34 41 69 42 35 43 74 44 68 45
REMARK SMILES IDX 70 46 36 47 73 48 67 49 66 50 37 52 59 53 44 54 58 55 45 56
REMARK SMILES IDX 48 57 57 58 71 59 46 60 47 61 56 63 72 64 49 65 38 66 39 67
REMARK SMILES IDX 43 68 40 69 42 70 41 71 60 72 61 73 65 74 62 75 64 76 63 77
REMARK SMILES IDX 50 78 51 79 55 80 52 81 54 82 53 83
REMARK H PARENT 19 7 7 19 26 32 70 51 48 62
REMARK Flexibility Score: inf
ROOT
ATOM      1  C   UNL     1      -9.474  -4.830   1.046  1.00  0.00     0.002 C 
ENDROOT
BRANCH   1   2
ATOM      2  C   UNL     1      -8.155  -4.217   1.514  1.00  0.00     0.021 C 
BRANCH   2   3
ATOM      3  C   UNL     1      -7.356  -3.405   0.507  1.00  0.00     0.116 C 
BRANCH   3   4
ATOM      4  N   UNL     1      -7.941  -2.185  -0.006  1.00  0.00    -0.352 N 
ATOM      5  C   UNL     1      -7.307  -1.070  -0.534  1.00  0.00     0.252 C 
ATOM      6  O   UNL     1      -7.994  -0.207  -1.079  1.00  0.00    -0.269 OA
ATOM      7  H   UNL     1      -8.924  -2.140   0.023  1.00  0.00     0.163 HD
BRANCH   5   8
ATOM      8  C   UNL     1      -5.850  -0.812  -0.317  1.00  0.00     0.055 A 
ATOM      9  C   UNL     1      -4.167   0.770   0.433  1.00  0.00     0.088 A 
ATOM     10  C   UNL     1      -3.414  -0.275   0.950  1.00  0.00     0.023 A 
ATOM     11  C   UNL     1      -5.447   0.511  -0.086  1.00  0.00     0.037 A 
ATOM     12  C   UNL     1      -3.718  -1.565   0.521  1.00  0.00     0.018 A 
ATOM     13  C   UNL     1      -4.860  -1.788  -0.250  1.00  0.00     0.030 A 
ATOM     14  Br  UNL     1      -4.779  -3.239  -1.485  1.00  0.00    -0.050 Br
BRANCH   9  15
ATOM     15  S   UNL     1      -3.483   2.400   0.245  1.00  0.00     0.261 S 
ATOM     16  O   UNL     1      -3.515   3.003   1.565  1.00  0.00    -0.201 OA
ATOM     17  O   UNL     1      -4.175   3.021  -0.862  1.00  0.00    -0.201 OA
BRANCH  15  18
ATOM     18  N   UNL     1      -1.841   2.387  -0.195  1.00  0.00    -0.280 N 
ATOM     19  H   UNL     1      -1.418   3.265  -0.333  1.00  0.00     0.180 HD
BRANCH  18  20
ATOM     20  C   UNL     1      -1.003   1.240  -0.387  1.00  0.00     0.049 A 
ATOM     21  C   UNL     1       2.655   0.355   0.308  1.00  0.00     0.044 C 
ATOM     22  C   UNL     1       1.208   0.239  -0.075  1.00  0.00    -0.049 A 
ATOM     23  C   UNL     1       0.718  -0.969  -0.573  1.00  0.00     0.003 A 
ATOM     24  C   UNL     1       0.330   1.328   0.045  1.00  0.00     0.030 A 
ATOM     25  C   UNL     1      -0.564  -1.025  -1.113  1.00  0.00     0.002 A 
ATOM     26  C   UNL     1      -1.385   0.110  -1.103  1.00  0.00     0.027 A 
ENDBRANCH  18  20
ENDBRANCH  15  18
ENDBRANCH   9  15
ENDBRANCH   5   8
ENDBRANCH   3   4
ENDBRANCH   2   3
ENDBRANCH   1   2
BRANCH   1  27
ATOM     27  C   UNL     1      -9.512  -5.508  -0.330  1.00  0.00     0.002 C 
BRANCH  27  28
ATOM     28  C   UNL     1      -8.418  -6.520  -0.657  1.00  0.00     0.021 C 
BRANCH  28  29
ATOM     29  C   UNL     1      -8.351  -7.736   0.245  1.00  0.00     0.116 C 
BRANCH  29  30
ATOM     30  N   UNL     1      -9.341  -8.758  -0.055  1.00  0.00    -0.352 N 
ATOM     31  C   UNL     1      -9.453 -10.061   0.394  1.00  0.00     0.251 C 
ATOM     32  H   UNL     1     -10.048  -8.475  -0.679  1.00  0.00     0.163 HD
ATOM     33  O   UNL     1     -10.315 -10.789  -0.094  1.00  0.00    -0.269 OA
BRANCH  31  34
ATOM     34  C   UNL     1      -8.699 -10.524   1.591  1.00  0.00     0.039 A 
ATOM     35  C   UNL     1      -9.416 -11.329   2.489  1.00  0.00     0.014 A 
ATOM     36  C   UNL     1      -7.566  -9.854   2.024  1.00  0.00     0.014 A 
ATOM     37  C   UNL     1      -9.234 -11.145   3.850  1.00  0.00     0.010 A 
ATOM     38  C   UNL     1      -7.493  -9.532   3.351  1.00  0.00     0.010 A 
ATOM     39  C   UNL     1      -8.387 -10.122   4.244  1.00  0.00    -0.014 A 
BRANCH  39  40
ATOM     40  C   UNL     1      -8.283  -9.605   5.587  1.00  0.00     0.031 A 
ATOM     41  C   UNL     1      -7.191 -10.132   6.410  1.00  0.00     0.074 A 
ATOM     42  C   UNL     1      -9.034  -8.532   5.912  1.00  0.00     0.049 A 
ATOM     43  N   UNL     1      -7.084  -9.946   7.672  1.00  0.00    -0.248 NA
ATOM     44  C   UNL     1      -6.132 -10.980   5.859  1.00  0.00     0.031 C 
ATOM     45  C   UNL     1      -8.864  -7.592   7.013  1.00  0.00     0.029 A 
ATOM     46  N   UNL     1     -10.280  -8.207   5.378  1.00  0.00    -0.354 N 
ATOM     47  C   UNL     1      -5.822 -10.355   8.034  1.00  0.00     0.074 A 
ATOM     48  C   UNL     1      -5.319 -11.100   6.910  1.00  0.00     0.031 C 
ATOM     49  C   UNL     1     -10.041  -6.984   7.252  1.00  0.00     0.029 A 
ATOM     50  C   UNL     1     -11.038  -7.645   6.422  1.00  0.00     0.049 A 
ATOM     51  H   UNL     1     -10.574  -8.343   4.448  1.00  0.00     0.167 HD
ATOM     52  C   UNL     1      -5.306  -9.865   9.192  1.00  0.00     0.031 A 
ATOM     53  C   UNL     1     -12.113  -8.334   6.916  1.00  0.00     0.031 A 
ATOM     54  C   UNL     1      -6.339  -9.145   9.935  1.00  0.00     0.049 A 
ATOM     55  C   UNL     1     -11.894  -8.788   8.346  1.00  0.00     0.074 A 
ATOM     56  C   UNL     1      -6.651  -7.800  10.043  1.00  0.00     0.029 A 
ATOM     57  N   UNL     1      -7.463  -9.848  10.355  1.00  0.00    -0.354 N 
ATOM     58  N   UNL     1     -10.718  -8.985   8.883  1.00  0.00    -0.248 NA
ATOM     59  C   UNL     1     -12.983  -9.013   9.290  1.00  0.00     0.031 C 
ATOM     60  C   UNL     1      -8.019  -7.706  10.428  1.00  0.00     0.029 A 
ATOM     61  C   UNL     1      -8.516  -8.988  10.599  1.00  0.00     0.049 A 
ATOM     62  H   UNL     1      -7.503 -10.826  10.464  1.00  0.00     0.167 HD
ATOM     63  C   UNL     1     -10.866  -9.303  10.209  1.00  0.00     0.074 A 
ATOM     64  C   UNL     1     -12.305  -9.319  10.411  1.00  0.00     0.031 C 
ATOM     65  C   UNL     1      -9.803  -9.515  11.041  1.00  0.00     0.031 A 
BRANCH  52  66
ATOM     66  C   UNL     1      -3.838  -9.810   9.527  1.00  0.00    -0.014 A 
ATOM     67  C   UNL     1      -3.421  -9.005  10.603  1.00  0.00     0.009 A 
ATOM     68  C   UNL     1      -2.810 -10.431   8.795  1.00  0.00     0.009 A 
ATOM     69  C   UNL     1      -2.067  -8.804  10.903  1.00  0.00     0.001 A 
ATOM     70  C   UNL     1      -1.453 -10.237   9.089  1.00  0.00     0.001 A 
ATOM     71  C   UNL     1      -1.081  -9.416  10.141  1.00  0.00     0.000 A 
ENDBRANCH  52  66
BRANCH  53  72
ATOM     72  C   UNL     1     -12.820  -9.113   5.849  1.00  0.00    -0.014 A 
ATOM     73  C   UNL     1     -13.414  -8.377   4.799  1.00  0.00     0.009 A 
ATOM     74  C   UNL     1     -12.503 -10.460   5.619  1.00  0.00     0.009 A 
ATOM     75  C   UNL     1     -13.495  -8.909   3.507  1.00  0.00     0.001 A 
ATOM     76  C   UNL     1     -12.622 -10.998   4.329  1.00  0.00     0.001 A 
ATOM     77  C   UNL     1     -13.056 -10.206   3.265  1.00  0.00     0.000 A 
ENDBRANCH  53  72
BRANCH  65  78
ATOM     78  C   UNL     1      -9.859 -10.192  12.395  1.00  0.00    -0.014 A 
ATOM     79  C   UNL     1     -10.945 -10.942  12.861  1.00  0.00     0.009 A 
ATOM     80  C   UNL     1      -8.697 -10.208  13.203  1.00  0.00     0.009 A 
ATOM     81  C   UNL     1     -10.893 -11.623  14.085  1.00  0.00     0.001 A 
ATOM     82  C   UNL     1      -8.616 -10.939  14.389  1.00  0.00     0.001 A 
ATOM     83  C   UNL     1      -9.725 -11.635  14.841  1.00  0.00     0.000 A 
ENDBRANCH  65  78
ENDBRANCH  39  40
ENDBRANCH  31  34
ENDBRANCH  29  30
ENDBRANCH  28  29
ENDBRANCH  27  28
ENDBRANCH   1  27
TORSDOF 16
