REMARK SMILES CS(=O)(=O)CCC[N@H+]1[C@@H]2CC[C@H]1C[C@H](CC(=O)NCCCCCCNC(=O)c1ccc(-c3c4nc(c(-c5ccccc5)c5ccc([nH]5)c(-c5ccccc5)c5nc(c(-c6ccccc6)c6ccc3[nH]6)C=C5)C=C4)cc1)C2
REMARK SMILES IDX 20 1 19 2 18 3 16 4 17 5 15 7 14 8 8 9 9 10 12 11 10 13
REMARK SMILES IDX 76 14 11 15 13 16 7 17 6 18 5 19 2 20 1 21 3 22 4 23 21 24
REMARK SMILES IDX 22 25 23 26 24 27 25 28 26 29 27 31 28 32 29 33 75 34 30 35
REMARK SMILES IDX 74 36 31 37 32 38 33 39 68 40 34 41 73 42 67 43 69 44 35 45
REMARK SMILES IDX 72 46 66 47 65 48 36 50 58 51 43 52 57 53 44 54 47 55 56 56
REMARK SMILES IDX 70 57 45 58 46 59 55 61 71 62 48 63 37 64 38 65 42 66 39 67
REMARK SMILES IDX 41 68 40 69 59 70 60 71 64 72 61 73 63 74 62 75 49 76 50 77
REMARK SMILES IDX 54 78 51 79 53 80 52 81
REMARK H PARENT 18 6 8 12 25 30 69 49 47 60
REMARK Flexibility Score: inf
ROOT
ATOM      1  C   UNL     1       2.420   3.420  -1.058  1.00  0.00     0.021 C 
ENDROOT
BRANCH   1   2
ATOM      2  C   UNL     1       1.438   2.422  -1.699  1.00  0.00     0.116 C 
BRANCH   2   3
ATOM      3  N   UNL     1       2.116   1.490  -2.591  1.00  0.00    -0.356 N 
ATOM      4  C   UNL     1       2.408   0.163  -2.558  1.00  0.00     0.220 C 
ATOM      5  O   UNL     1       2.912  -0.308  -3.583  1.00  0.00    -0.275 OA
ATOM      6  H   UNL     1       2.440   1.926  -3.412  1.00  0.00     0.163 HD
BRANCH   4   7
ATOM      7  C   UNL     1       2.089  -0.769  -1.391  1.00  0.00     0.104 C 
BRANCH   7   8
ATOM      8  C   UNL     1       2.965  -0.705  -0.118  1.00  0.00     0.010 C 
ATOM      9  N   UNL     1       2.471  -0.252   2.824  1.00  0.00    -0.330 N 
ATOM     10  C   UNL     1       3.008  -1.542   2.343  1.00  0.00     0.184 C 
ATOM     11  C   UNL     1       3.233   0.718   2.047  1.00  0.00     0.184 C 
ATOM     12  H   UNL     1       2.609  -0.044   3.813  1.00  0.00     0.348 HD
ATOM     13  C   UNL     1       4.518  -1.287   2.451  1.00  0.00     0.071 C 
ATOM     14  C   UNL     1       2.598  -1.839   0.876  1.00  0.00     0.069 C 
ATOM     15  C   UNL     1       4.666   0.223   2.265  1.00  0.00     0.071 C 
ATOM     16  C   UNL     1       2.874   0.656   0.565  1.00  0.00     0.069 C 
BRANCH   9  17
ATOM     17  C   UNL     1       1.011  -0.197   2.898  1.00  0.00     0.263 C 
BRANCH  17  18
ATOM     18  C   UNL     1       0.330   1.121   3.316  1.00  0.00     0.077 C 
BRANCH  18  19
ATOM     19  C   UNL     1      -0.013   2.126   2.222  1.00  0.00     0.142 C 
BRANCH  19  20
ATOM     20  S   UNL     1      -1.474   1.803   1.234  1.00  0.00     0.147 S 
ATOM     21  C   UNL     1      -1.236   0.256   0.402  1.00  0.00     0.158 C 
ATOM     22  O   UNL     1      -1.483   2.820   0.192  1.00  0.00    -0.229 OA
ATOM     23  O   UNL     1      -2.606   1.649   2.119  1.00  0.00    -0.229 OA
ENDBRANCH  19  20
ENDBRANCH  18  19
ENDBRANCH  17  18
ENDBRANCH   9  17
ENDBRANCH   7   8
ENDBRANCH   4   7
ENDBRANCH   2   3
ENDBRANCH   1   2
BRANCH   1  24
ATOM     24  C   UNL     1       2.325   4.848  -1.597  1.00  0.00     0.002 C 
BRANCH  24  25
ATOM     25  C   UNL     1       1.009   5.568  -1.290  1.00  0.00     0.002 C 
BRANCH  25  26
ATOM     26  C   UNL     1       0.688   5.766   0.194  1.00  0.00     0.021 C 
BRANCH  26  27
ATOM     27  C   UNL     1       1.752   6.502   1.004  1.00  0.00     0.116 C 
BRANCH  27  28
ATOM     28  N   UNL     1       2.094   7.792   0.428  1.00  0.00    -0.352 N 
ATOM     29  C   UNL     1       2.026   9.049   0.970  1.00  0.00     0.251 C 
ATOM     30  H   UNL     1       2.427   7.757  -0.498  1.00  0.00     0.163 HD
ATOM     31  O   UNL     1       2.159  10.035   0.250  1.00  0.00    -0.269 OA
BRANCH  29  32
ATOM     32  C   UNL     1       1.790   9.228   2.417  1.00  0.00     0.039 A 
ATOM     33  C   UNL     1       0.925  10.241   2.839  1.00  0.00     0.014 A 
ATOM     34  C   UNL     1       2.448   8.431   3.359  1.00  0.00     0.014 A 
ATOM     35  C   UNL     1       0.683  10.423   4.201  1.00  0.00     0.010 A 
ATOM     36  C   UNL     1       2.146   8.562   4.711  1.00  0.00     0.010 A 
ATOM     37  C   UNL     1       1.269   9.566   5.147  1.00  0.00    -0.014 A 
BRANCH  37  38
ATOM     38  C   UNL     1       0.977   9.714   6.595  1.00  0.00     0.031 A 
ATOM     39  C   UNL     1       2.073  10.075   7.560  1.00  0.00     0.074 A 
ATOM     40  C   UNL     1      -0.270   9.478   7.047  1.00  0.00     0.049 A 
ATOM     41  N   UNL     1       2.014  10.223   8.859  1.00  0.00    -0.248 NA
ATOM     42  C   UNL     1       3.418  10.275   6.995  1.00  0.00     0.031 C 
ATOM     43  C   UNL     1      -1.412   9.085   6.218  1.00  0.00     0.029 A 
ATOM     44  N   UNL     1      -0.786   9.535   8.317  1.00  0.00    -0.354 N 
ATOM     45  C   UNL     1       3.309  10.518   9.266  1.00  0.00     0.074 A 
ATOM     46  C   UNL     1       4.143  10.474   8.085  1.00  0.00     0.031 C 
ATOM     47  C   UNL     1      -2.500   8.970   6.996  1.00  0.00     0.029 A 
ATOM     48  C   UNL     1      -2.126   9.236   8.380  1.00  0.00     0.049 A 
ATOM     49  H   UNL     1      -0.247   9.767   9.108  1.00  0.00     0.167 HD
ATOM     50  C   UNL     1       3.761  10.820  10.507  1.00  0.00     0.031 A 
ATOM     51  C   UNL     1      -2.959   9.178   9.436  1.00  0.00     0.031 A 
ATOM     52  C   UNL     1       2.929  10.864  11.680  1.00  0.00     0.049 A 
ATOM     53  C   UNL     1      -2.426   9.492  10.807  1.00  0.00     0.074 A 
ATOM     54  C   UNL     1       3.281  11.207  12.974  1.00  0.00     0.029 A 
ATOM     55  N   UNL     1       1.579  10.549  11.703  1.00  0.00    -0.354 N 
ATOM     56  N   UNL     1      -1.213   9.838  11.164  1.00  0.00    -0.248 NA
ATOM     57  C   UNL     1      -3.384   9.419  11.918  1.00  0.00     0.031 C 
ATOM     58  C   UNL     1       2.159  11.038  13.791  1.00  0.00     0.029 A 
ATOM     59  C   UNL     1       1.090  10.660  12.994  1.00  0.00     0.049 A 
ATOM     60  H   UNL     1       1.047  10.285  10.918  1.00  0.00     0.167 HD
ATOM     61  C   UNL     1      -1.269  10.055  12.535  1.00  0.00     0.074 A 
ATOM     62  C   UNL     1      -2.640   9.820  12.939  1.00  0.00     0.031 C 
ATOM     63  C   UNL     1      -0.276  10.418  13.383  1.00  0.00     0.031 A 
BRANCH  50  64
ATOM     64  C   UNL     1       5.230  11.113  10.658  1.00  0.00    -0.014 A 
ATOM     65  C   UNL     1       5.805  12.271  10.109  1.00  0.00     0.009 A 
ATOM     66  C   UNL     1       6.045  10.237  11.391  1.00  0.00     0.009 A 
ATOM     67  C   UNL     1       7.171  12.523  10.255  1.00  0.00     0.001 A 
ATOM     68  C   UNL     1       7.404  10.508  11.565  1.00  0.00     0.001 A 
ATOM     69  C   UNL     1       7.968  11.644  10.988  1.00  0.00     0.000 A 
ENDBRANCH  50  64
BRANCH  51  70
ATOM     70  C   UNL     1      -4.389   8.820   9.240  1.00  0.00    -0.014 A 
ATOM     71  C   UNL     1      -5.399   9.773   9.445  1.00  0.00     0.009 A 
ATOM     72  C   UNL     1      -4.753   7.520   8.855  1.00  0.00     0.009 A 
ATOM     73  C   UNL     1      -6.744   9.423   9.301  1.00  0.00     0.001 A 
ATOM     74  C   UNL     1      -6.096   7.182   8.679  1.00  0.00     0.001 A 
ATOM     75  C   UNL     1      -7.091   8.130   8.914  1.00  0.00     0.000 A 
ENDBRANCH  51  70
BRANCH  63  76
ATOM     76  C   UNL     1      -0.646  10.622  14.826  1.00  0.00    -0.014 A 
ATOM     77  C   UNL     1      -0.996   9.545  15.655  1.00  0.00     0.009 A 
ATOM     78  C   UNL     1      -0.614  11.916  15.372  1.00  0.00     0.009 A 
ATOM     79  C   UNL     1      -1.349   9.765  16.988  1.00  0.00     0.001 A 
ATOM     80  C   UNL     1      -0.932  12.128  16.714  1.00  0.00     0.001 A 
ATOM     81  C   UNL     1      -1.311  11.054  17.518  1.00  0.00     0.000 A 
ENDBRANCH  63  76
ENDBRANCH  37  38
ENDBRANCH  29  32
ENDBRANCH  27  28
ENDBRANCH  26  27
ENDBRANCH  25  26
ENDBRANCH  24  25
ENDBRANCH   1  24
TORSDOF 18
