REMARK SMILES O=C(Cc1ccc(NC(=O)C2CCCC2)cc1)NCCCCCCNC(=O)c1ccc(-c2c3nc(c(-c4ccccc4)c4ccc([nH]4)c(-c4ccccc4)c4nc(c(-c5ccccc5)c5ccc2[nH]5)C=C4)C=C3)cc1
REMARK SMILES IDX 21 1 20 2 19 3 18 4 1 5 2 6 3 8 4 9 5 10 17 11 6 12 16 13
REMARK SMILES IDX 7 14 8 15 9 16 10 18 11 19 12 20 15 21 13 22 14 23 22 24
REMARK SMILES IDX 23 25 24 26 25 27 26 28 27 30 28 31 29 32 75 33 30 34 74 35
REMARK SMILES IDX 31 36 32 37 33 38 68 39 34 40 73 41 67 42 69 43 35 44 72 45
REMARK SMILES IDX 66 46 65 47 36 49 58 50 43 51 57 52 44 53 47 54 56 55 70 56
REMARK SMILES IDX 45 57 46 58 55 60 71 61 48 62 37 63 38 64 42 65 39 66 41 67
REMARK SMILES IDX 40 68 59 69 60 70 64 71 61 72 63 73 62 74 49 75 50 76 54 77
REMARK SMILES IDX 51 78 53 79 52 80
REMARK H PARENT 18 7 8 17 25 29 69 48 47 59
REMARK Flexibility Score: inf
ROOT
ATOM      1  C   UNL     1       4.206  -2.773   2.498  1.00  0.00     0.002 C 
ENDROOT
BRANCH   1   2
ATOM      2  C   UNL     1       2.701  -2.833   2.202  1.00  0.00     0.021 C 
BRANCH   2   3
ATOM      3  C   UNL     1       2.054  -1.501   1.839  1.00  0.00     0.116 C 
BRANCH   3   4
ATOM      4  N   UNL     1       2.557  -0.951   0.597  1.00  0.00    -0.356 N 
ATOM      5  O   UNL     1       0.630   0.196   0.072  1.00  0.00    -0.275 OA
ATOM      6  C   UNL     1       1.821  -0.022  -0.121  1.00  0.00     0.224 C 
ATOM      7  H   UNL     1       3.434  -1.242   0.258  1.00  0.00     0.163 HD
BRANCH   6   8
ATOM      8  C   UNL     1       2.654   0.791  -1.099  1.00  0.00     0.135 C 
BRANCH   8   9
ATOM      9  C   UNL     1       3.344   1.980  -0.458  1.00  0.00    -0.039 A 
ATOM     10  C   UNL     1       3.754   1.961   0.881  1.00  0.00     0.006 A 
ATOM     11  C   UNL     1       3.679   3.100  -1.230  1.00  0.00     0.006 A 
ATOM     12  C   UNL     1       4.563   2.966   1.398  1.00  0.00     0.026 A 
ATOM     13  C   UNL     1       4.525   4.089  -0.714  1.00  0.00     0.026 A 
ATOM     14  C   UNL     1       5.069   3.944   0.563  1.00  0.00     0.041 A 
BRANCH  14  15
ATOM     15  N   UNL     1       6.092   4.800   0.964  1.00  0.00    -0.326 N 
ATOM     16  C   UNL     1       7.152   4.638   1.801  1.00  0.00     0.227 C 
ATOM     17  H   UNL     1       6.037   5.698   0.565  1.00  0.00     0.169 HD
ATOM     18  O   UNL     1       7.739   5.684   2.122  1.00  0.00    -0.274 OA
BRANCH  16  19
ATOM     19  C   UNL     1       7.790   3.302   2.237  1.00  0.00     0.079 C 
ATOM     20  C   UNL     1       7.208   1.911   2.030  1.00  0.00     0.013 C 
ATOM     21  C   UNL     1       9.154   3.164   1.528  1.00  0.00     0.013 C 
ATOM     22  C   UNL     1       8.386   0.977   2.264  1.00  0.00     0.001 C 
ATOM     23  C   UNL     1       9.559   1.692   1.620  1.00  0.00     0.001 C 
ENDBRANCH  16  19
ENDBRANCH  14  15
ENDBRANCH   8   9
ENDBRANCH   6   8
ENDBRANCH   3   4
ENDBRANCH   2   3
ENDBRANCH   1   2
BRANCH   1  24
ATOM     24  C   UNL     1       4.619  -1.980   3.743  1.00  0.00     0.002 C 
BRANCH  24  25
ATOM     25  C   UNL     1       3.982  -2.427   5.061  1.00  0.00     0.021 C 
BRANCH  25  26
ATOM     26  C   UNL     1       4.149  -3.905   5.406  1.00  0.00     0.116 C 
BRANCH  26  27
ATOM     27  N   UNL     1       5.534  -4.282   5.636  1.00  0.00    -0.352 N 
ATOM     28  C   UNL     1       6.078  -5.026   6.657  1.00  0.00     0.251 C 
ATOM     29  H   UNL     1       6.176  -3.957   4.964  1.00  0.00     0.163 HD
ATOM     30  O   UNL     1       7.296  -5.129   6.759  1.00  0.00    -0.269 OA
BRANCH  28  31
ATOM     31  C   UNL     1       5.201  -5.684   7.654  1.00  0.00     0.039 A 
ATOM     32  C   UNL     1       5.555  -5.625   9.005  1.00  0.00     0.014 A 
ATOM     33  C   UNL     1       4.048  -6.373   7.266  1.00  0.00     0.014 A 
ATOM     34  C   UNL     1       4.728  -6.208   9.969  1.00  0.00     0.010 A 
ATOM     35  C   UNL     1       3.187  -6.889   8.233  1.00  0.00     0.010 A 
ATOM     36  C   UNL     1       3.520  -6.820   9.595  1.00  0.00    -0.014 A 
BRANCH  36  37
ATOM     37  C   UNL     1       2.609  -7.408  10.612  1.00  0.00     0.031 A 
ATOM     38  C   UNL     1       2.336  -8.889  10.618  1.00  0.00     0.074 A 
ATOM     39  C   UNL     1       1.993  -6.609  11.505  1.00  0.00     0.049 A 
ATOM     40  N   UNL     1       1.538  -9.579  11.395  1.00  0.00    -0.248 NA
ATOM     41  C   UNL     1       3.033  -9.698   9.606  1.00  0.00     0.031 C 
ATOM     42  C   UNL     1       2.140  -5.155  11.588  1.00  0.00     0.029 A 
ATOM     43  N   UNL     1       1.112  -6.911  12.515  1.00  0.00    -0.354 N 
ATOM     44  C   UNL     1       1.635 -10.896  10.962  1.00  0.00     0.074 A 
ATOM     45  C   UNL     1       2.519 -10.900   9.818  1.00  0.00     0.031 C 
ATOM     46  C   UNL     1       1.396  -4.695  12.607  1.00  0.00     0.029 A 
ATOM     47  C   UNL     1       0.691  -5.813  13.226  1.00  0.00     0.049 A 
ATOM     48  H   UNL     1       0.811  -7.827  12.711  1.00  0.00     0.167 HD
ATOM     49  C   UNL     1       1.065 -12.008  11.484  1.00  0.00     0.031 A 
ATOM     50  C   UNL     1      -0.171  -5.715  14.256  1.00  0.00     0.031 A 
ATOM     51  C   UNL     1       0.185 -12.012  12.623  1.00  0.00     0.049 A 
ATOM     52  C   UNL     1      -0.810  -6.963  14.802  1.00  0.00     0.074 A 
ATOM     53  C   UNL     1      -0.428 -13.090  13.237  1.00  0.00     0.029 A 
ATOM     54  N   UNL     1      -0.204 -10.880  13.321  1.00  0.00    -0.354 N 
ATOM     55  N   UNL     1      -0.666  -8.206  14.411  1.00  0.00    -0.248 NA
ATOM     56  C   UNL     1      -1.716  -6.794  15.947  1.00  0.00     0.031 C 
ATOM     57  C   UNL     1      -1.220 -12.606  14.283  1.00  0.00     0.029 A 
ATOM     58  C   UNL     1      -1.054 -11.233  14.355  1.00  0.00     0.049 A 
ATOM     59  H   UNL     1       0.081  -9.961  13.112  1.00  0.00     0.167 HD
ATOM     60  C   UNL     1      -1.432  -8.969  15.285  1.00  0.00     0.074 A 
ATOM     61  C   UNL     1      -2.023  -8.050  16.235  1.00  0.00     0.031 C 
ATOM     62  C   UNL     1      -1.627 -10.310  15.300  1.00  0.00     0.031 A 
BRANCH  49  63
ATOM     63  C   UNL     1       1.386 -13.323  10.826  1.00  0.00    -0.014 A 
ATOM     64  C   UNL     1       2.668 -13.886  10.928  1.00  0.00     0.009 A 
ATOM     65  C   UNL     1       0.391 -14.024  10.129  1.00  0.00     0.009 A 
ATOM     66  C   UNL     1       2.957 -15.107  10.316  1.00  0.00     0.001 A 
ATOM     67  C   UNL     1       0.673 -15.260   9.544  1.00  0.00     0.001 A 
ATOM     68  C   UNL     1       1.958 -15.796   9.629  1.00  0.00     0.000 A 
ENDBRANCH  49  63
BRANCH  50  69
ATOM     69  C   UNL     1      -0.482  -4.389  14.853  1.00  0.00    -0.014 A 
ATOM     70  C   UNL     1      -0.060  -4.073  16.155  1.00  0.00     0.009 A 
ATOM     71  C   UNL     1      -1.234  -3.444  14.138  1.00  0.00     0.009 A 
ATOM     72  C   UNL     1      -0.420  -2.858  16.742  1.00  0.00     0.001 A 
ATOM     73  C   UNL     1      -1.564  -2.216  14.715  1.00  0.00     0.001 A 
ATOM     74  C   UNL     1      -1.170  -1.930  16.021  1.00  0.00     0.000 A 
ENDBRANCH  50  69
BRANCH  62  75
ATOM     75  C   UNL     1      -2.470 -10.869  16.413  1.00  0.00    -0.014 A 
ATOM     76  C   UNL     1      -3.856 -10.659  16.463  1.00  0.00     0.009 A 
ATOM     77  C   UNL     1      -1.863 -11.641  17.416  1.00  0.00     0.009 A 
ATOM     78  C   UNL     1      -4.610 -11.174  17.519  1.00  0.00     0.001 A 
ATOM     79  C   UNL     1      -2.623 -12.182  18.453  1.00  0.00     0.001 A 
ATOM     80  C   UNL     1      -3.994 -11.938  18.511  1.00  0.00     0.000 A 
ENDBRANCH  62  75
ENDBRANCH  36  37
ENDBRANCH  28  31
ENDBRANCH  26  27
ENDBRANCH  25  26
ENDBRANCH  24  25
ENDBRANCH   1  24
TORSDOF 16
