REMARK SMILES O=C(NCCCCCCNC(=O)[C@@H]1C[C@@H](O)CN1C(=O)c1ccccc1)c1ccc(-c2c3nc(c(-c4ccccc4)c4ccc([nH]4)c(-c4ccccc4)c4nc(c(-c5ccccc5)c5ccc2[nH]5)C=C4)C=C3)cc1
REMARK SMILES IDX 6 1 5 2 4 3 3 4 1 5 2 6 27 8 28 9 74 10 29 11 73 12 30 13
REMARK SMILES IDX 31 14 32 15 67 16 33 17 72 18 66 19 68 20 34 21 71 22 65 23
REMARK SMILES IDX 64 24 35 26 57 27 42 28 56 29 43 30 46 31 55 32 69 33 44 34
REMARK SMILES IDX 45 35 54 37 70 38 47 39 36 40 37 41 41 42 38 43 40 44 39 45
REMARK SMILES IDX 58 46 59 47 63 48 60 49 62 50 61 51 48 52 49 53 53 54 50 55
REMARK SMILES IDX 52 56 51 57 7 58 8 59 9 60 10 61 11 62 12 64 13 65 14 66
REMARK SMILES IDX 18 67 15 68 17 69 19 70 20 71 21 72 22 73 26 74 23 75 25 76
REMARK SMILES IDX 24 77 16 78
REMARK H PARENT 3 7 68 25 46 36 10 63 16 79
REMARK Flexibility Score: inf
ROOT
ATOM      1  C   UNL     1      12.987  -3.886   5.659  1.00  0.00     0.002 C 
ENDROOT
BRANCH   1   2
ATOM      2  C   UNL     1      13.899  -4.921   6.316  1.00  0.00     0.021 C 
BRANCH   2   3
ATOM      3  C   UNL     1      15.368  -4.846   5.920  1.00  0.00     0.116 C 
BRANCH   3   4
ATOM      4  N   UNL     1      16.004  -3.602   6.317  1.00  0.00    -0.352 N 
ATOM      5  O   UNL     1      17.489  -2.281   7.386  1.00  0.00    -0.269 OA
ATOM      6  C   UNL     1      17.161  -3.405   7.035  1.00  0.00     0.251 C 
ATOM      7  H   UNL     1      15.541  -2.781   6.030  1.00  0.00     0.163 HD
BRANCH   6   8
ATOM      8  C   UNL     1      17.996  -4.568   7.410  1.00  0.00     0.039 A 
ATOM      9  C   UNL     1      18.302  -5.562   6.478  1.00  0.00     0.014 A 
ATOM     10  C   UNL     1      18.482  -4.659   8.718  1.00  0.00     0.014 A 
ATOM     11  C   UNL     1      18.970  -6.711   6.886  1.00  0.00     0.010 A 
ATOM     12  C   UNL     1      19.229  -5.776   9.105  1.00  0.00     0.010 A 
ATOM     13  C   UNL     1      19.454  -6.824   8.200  1.00  0.00    -0.014 A 
BRANCH  13  14
ATOM     14  C   UNL     1      20.252  -8.016   8.584  1.00  0.00     0.031 A 
ATOM     15  C   UNL     1      19.761  -8.982   9.626  1.00  0.00     0.074 A 
ATOM     16  C   UNL     1      21.430  -8.230   7.968  1.00  0.00     0.049 A 
ATOM     17  N   UNL     1      20.334 -10.074  10.069  1.00  0.00    -0.248 NA
ATOM     18  C   UNL     1      18.465  -8.687  10.256  1.00  0.00     0.031 C 
ATOM     19  C   UNL     1      22.015  -7.362   6.941  1.00  0.00     0.029 A 
ATOM     20  N   UNL     1      22.341  -9.246   8.100  1.00  0.00    -0.354 N 
ATOM     21  C   UNL     1      19.482 -10.584  11.041  1.00  0.00     0.074 A 
ATOM     22  C   UNL     1      18.364  -9.670  11.140  1.00  0.00     0.031 C 
ATOM     23  C   UNL     1      23.161  -7.904   6.507  1.00  0.00     0.029 A 
ATOM     24  C   UNL     1      23.427  -9.118   7.269  1.00  0.00     0.049 A 
ATOM     25  H   UNL     1      22.227  -9.994   8.730  1.00  0.00     0.167 HD
ATOM     26  C   UNL     1      19.619 -11.712  11.780  1.00  0.00     0.031 A 
ATOM     27  C   UNL     1      24.529  -9.879   7.145  1.00  0.00     0.031 A 
ATOM     28  C   UNL     1      20.738 -12.614  11.685  1.00  0.00     0.049 A 
ATOM     29  C   UNL     1      24.676 -11.096   8.010  1.00  0.00     0.074 A 
ATOM     30  C   UNL     1      20.952 -13.798  12.370  1.00  0.00     0.029 A 
ATOM     31  N   UNL     1      21.837 -12.428  10.859  1.00  0.00    -0.354 N 
ATOM     32  N   UNL     1      23.842 -11.584   8.896  1.00  0.00    -0.248 NA
ATOM     33  C   UNL     1      25.916 -11.867   7.856  1.00  0.00     0.031 C 
ATOM     34  C   UNL     1      22.206 -14.298  12.001  1.00  0.00     0.029 A 
ATOM     35  C   UNL     1      22.745 -13.459  11.039  1.00  0.00     0.049 A 
ATOM     36  H   UNL     1      21.955 -11.674  10.237  1.00  0.00     0.167 HD
ATOM     37  C   UNL     1      24.447 -12.731   9.391  1.00  0.00     0.074 A 
ATOM     38  C   UNL     1      25.707 -12.876   8.690  1.00  0.00     0.031 C 
ATOM     39  C   UNL     1      23.998 -13.587  10.341  1.00  0.00     0.031 A 
BRANCH  26  40
ATOM     40  C   UNL     1      18.543 -12.021  12.786  1.00  0.00    -0.014 A 
ATOM     41  C   UNL     1      17.264 -12.440  12.386  1.00  0.00     0.009 A 
ATOM     42  C   UNL     1      18.829 -11.937  14.159  1.00  0.00     0.009 A 
ATOM     43  C   UNL     1      16.285 -12.734  13.338  1.00  0.00     0.001 A 
ATOM     44  C   UNL     1      17.857 -12.259  15.108  1.00  0.00     0.001 A 
ATOM     45  C   UNL     1      16.584 -12.648  14.698  1.00  0.00     0.000 A 
ENDBRANCH  26  40
BRANCH  27  46
ATOM     46  C   UNL     1      25.585  -9.496   6.173  1.00  0.00    -0.014 A 
ATOM     47  C   UNL     1      25.816 -10.268   5.026  1.00  0.00     0.009 A 
ATOM     48  C   UNL     1      26.359  -8.343   6.384  1.00  0.00     0.009 A 
ATOM     49  C   UNL     1      26.815  -9.906   4.120  1.00  0.00     0.001 A 
ATOM     50  C   UNL     1      27.334  -7.965   5.460  1.00  0.00     0.001 A 
ATOM     51  C   UNL     1      27.568  -8.752   4.334  1.00  0.00     0.000 A 
ENDBRANCH  27  46
BRANCH  39  52
ATOM     52  C   UNL     1      24.864 -14.775  10.652  1.00  0.00    -0.014 A 
ATOM     53  C   UNL     1      26.072 -14.635  11.352  1.00  0.00     0.009 A 
ATOM     54  C   UNL     1      24.449 -16.057  10.259  1.00  0.00     0.009 A 
ATOM     55  C   UNL     1      26.865 -15.753  11.620  1.00  0.00     0.001 A 
ATOM     56  C   UNL     1      25.228 -17.176  10.555  1.00  0.00     0.001 A 
ATOM     57  C   UNL     1      26.440 -17.022  11.226  1.00  0.00     0.000 A 
ENDBRANCH  39  52
ENDBRANCH  13  14
ENDBRANCH   6   8
ENDBRANCH   3   4
ENDBRANCH   2   3
ENDBRANCH   1   2
BRANCH   1  58
ATOM     58  C   UNL     1      13.059  -3.800   4.132  1.00  0.00     0.002 C 
BRANCH  58  59
ATOM     59  C   UNL     1      12.851  -5.109   3.362  1.00  0.00     0.021 C 
BRANCH  59  60
ATOM     60  C   UNL     1      11.569  -5.872   3.677  1.00  0.00     0.116 C 
BRANCH  60  61
ATOM     61  N   UNL     1      10.369  -5.096   3.464  1.00  0.00    -0.354 N 
ATOM     62  C   UNL     1       9.128  -5.479   3.050  1.00  0.00     0.242 C 
ATOM     63  H   UNL     1      10.463  -4.134   3.648  1.00  0.00     0.163 HD
ATOM     64  O   UNL     1       8.195  -4.730   3.360  1.00  0.00    -0.273 OA
BRANCH  62  65
ATOM     65  C   UNL     1       8.841  -6.833   2.361  1.00  0.00     0.177 C 
ATOM     66  C   UNL     1       9.071  -8.032   3.291  1.00  0.00     0.069 C 
ATOM     67  N   UNL     1       9.612  -7.127   1.146  1.00  0.00    -0.324 N 
ATOM     68  C   UNL     1       9.572  -9.137   2.365  1.00  0.00     0.136 C 
ATOM     69  C   UNL     1      10.305  -8.406   1.241  1.00  0.00     0.152 C 
BRANCH  67  70
ATOM     70  C   UNL     1       9.431  -6.334   0.026  1.00  0.00     0.254 C 
ATOM     71  O   UNL     1       8.802  -5.280   0.053  1.00  0.00    -0.269 OA
BRANCH  70  72
ATOM     72  C   UNL     1      10.013  -6.742  -1.269  1.00  0.00     0.040 A 
ATOM     73  C   UNL     1      10.936  -5.891  -1.884  1.00  0.00     0.014 A 
ATOM     74  C   UNL     1       9.549  -7.880  -1.938  1.00  0.00     0.014 A 
ATOM     75  C   UNL     1      11.434  -6.206  -3.148  1.00  0.00     0.001 A 
ATOM     76  C   UNL     1      10.055  -8.195  -3.200  1.00  0.00     0.001 A 
ATOM     77  C   UNL     1      10.999  -7.361  -3.801  1.00  0.00     0.000 A 
ENDBRANCH  70  72
ENDBRANCH  67  70
BRANCH  68  78
ATOM     78  O   UNL     1       8.463  -9.867   1.843  1.00  0.00    -0.391 OA
ATOM     79  H   UNL     1       7.866  -9.260   1.379  1.00  0.00     0.211 HD
ENDBRANCH  68  78
ENDBRANCH  62  65
ENDBRANCH  60  61
ENDBRANCH  59  60
ENDBRANCH  58  59
ENDBRANCH   1  58
TORSDOF 16
