REMARK SMILES Cc1[nH]c2c(C(=O)N3CC[C@H](O)C[C@@H]3C(=O)NCCCCCCNC(=O)c3ccc(-c4c5nc(c(-c6ccccc6)c6ccc([nH]6)c(-c6ccccc6)c6nc(c(-c7ccccc7)c7ccc4[nH]7)C=C6)C=C5)cc3)cccc2c1C
REMARK SMILES IDX 20 1 19 2 18 3 17 4 15 5 16 6 14 8 8 9 9 10 10 11 13 12
REMARK SMILES IDX 11 13 6 14 7 15 5 16 1 17 2 18 3 19 79 20 4 21 78 23 80 24
REMARK SMILES IDX 77 25 75 26 76 27 12 28 21 30 22 31 23 32 24 33 25 34 26 36
REMARK SMILES IDX 27 37 28 38 74 39 29 40 73 41 30 42 31 43 32 44 67 45 33 46
REMARK SMILES IDX 72 47 66 48 68 49 34 50 71 51 65 52 64 53 35 55 57 56 42 57
REMARK SMILES IDX 56 58 43 59 46 60 55 61 69 62 44 63 45 64 54 66 70 67 47 68
REMARK SMILES IDX 36 69 37 70 41 71 38 72 40 73 39 74 58 75 59 76 63 77 60 78
REMARK SMILES IDX 62 79 61 80 48 81 49 82 53 83 50 84 52 85 51 86
REMARK H PARENT 17 7 3 22 12 29 24 35 68 54 46 65
REMARK Flexibility Score: inf
ROOT
ATOM      1  C   UNL     1      -4.903  -4.082  -0.981  1.00  0.00     0.002 C 
ENDROOT
BRANCH   1   2
ATOM      2  C   UNL     1      -3.542  -4.753  -1.134  1.00  0.00     0.021 C 
BRANCH   2   3
ATOM      3  C   UNL     1      -2.368  -3.989  -0.531  1.00  0.00     0.116 C 
BRANCH   3   4
ATOM      4  N   UNL     1      -2.178  -4.212   0.882  1.00  0.00    -0.354 N 
ATOM      5  C   UNL     1      -1.063  -4.541   1.591  1.00  0.00     0.242 C 
ATOM      6  O   UNL     1      -1.268  -4.879   2.765  1.00  0.00    -0.273 OA
ATOM      7  H   UNL     1      -2.993  -4.110   1.425  1.00  0.00     0.163 HD
BRANCH   5   8
ATOM      8  C   UNL     1       0.380  -4.646   1.006  1.00  0.00     0.177 C 
ATOM      9  N   UNL     1       0.847  -3.644   0.036  1.00  0.00    -0.326 N 
ATOM     10  C   UNL     1       0.820  -3.929  -1.398  1.00  0.00     0.123 C 
ATOM     11  C   UNL     1       0.666  -5.401  -1.835  1.00  0.00     0.053 C 
ATOM     12  C   UNL     1       0.770  -6.065   0.613  1.00  0.00     0.067 C 
ATOM     13  C   UNL     1       0.282  -6.432  -0.771  1.00  0.00     0.118 C 
BRANCH   9  14
ATOM     14  C   UNL     1       1.848  -2.768   0.478  1.00  0.00     0.256 C 
ATOM     15  O   UNL     1       2.818  -3.158   1.123  1.00  0.00    -0.269 OA
BRANCH  14  16
ATOM     16  C   UNL     1       1.708  -1.324   0.168  1.00  0.00     0.064 A 
ATOM     17  C   UNL     1      -3.127  -0.269   0.824  1.00  0.00     0.064 C 
ATOM     18  C   UNL     1      -1.694  -0.066   0.500  1.00  0.00     0.016 A 
ATOM     19  N   UNL     1      -0.785  -1.092   0.541  1.00  0.00    -0.358 N 
ATOM     20  C   UNL     1      -1.013   1.086   0.152  1.00  0.00    -0.023 A 
ATOM     21  C   UNL     1       0.476  -0.647   0.226  1.00  0.00     0.059 A 
ATOM     22  H   UNL     1      -1.007  -2.024   0.767  1.00  0.00     0.166 HD
ATOM     23  C   UNL     1       0.369   0.732   0.030  1.00  0.00     0.003 A 
ATOM     24  C   UNL     1      -1.598   2.445  -0.007  1.00  0.00     0.047 C 
ATOM     25  C   UNL     1       1.543   1.476  -0.206  1.00  0.00     0.010 A 
ATOM     26  C   UNL     1       2.862  -0.551  -0.037  1.00  0.00     0.016 A 
ATOM     27  C   UNL     1       2.782   0.828  -0.223  1.00  0.00     0.002 A 
ENDBRANCH  14  16
ENDBRANCH   9  14
BRANCH  13  28
ATOM     28  O   UNL     1      -1.127  -6.637  -0.773  1.00  0.00    -0.393 OA
ATOM     29  H   UNL     1      -1.575  -5.809  -0.538  1.00  0.00     0.210 HD
ENDBRANCH  13  28
ENDBRANCH   5   8
ENDBRANCH   3   4
ENDBRANCH   2   3
ENDBRANCH   1   2
BRANCH   1  30
ATOM     30  C   UNL     1      -4.966  -2.620  -1.424  1.00  0.00     0.002 C 
BRANCH  30  31
ATOM     31  C   UNL     1      -4.407  -2.309  -2.812  1.00  0.00     0.021 C 
BRANCH  31  32
ATOM     32  C   UNL     1      -5.053  -3.101  -3.939  1.00  0.00     0.116 C 
BRANCH  32  33
ATOM     33  N   UNL     1      -6.499  -2.945  -3.948  1.00  0.00    -0.352 N 
ATOM     34  C   UNL     1      -7.312  -2.435  -4.924  1.00  0.00     0.251 C 
ATOM     35  H   UNL     1      -6.960  -3.250  -3.134  1.00  0.00     0.163 HD
ATOM     36  O   UNL     1      -8.483  -2.151  -4.675  1.00  0.00    -0.269 OA
BRANCH  34  37
ATOM     37  C   UNL     1      -6.770  -2.217  -6.277  1.00  0.00     0.039 A 
ATOM     38  C   UNL     1      -7.056  -1.025  -6.943  1.00  0.00     0.014 A 
ATOM     39  C   UNL     1      -5.970  -3.193  -6.877  1.00  0.00     0.014 A 
ATOM     40  C   UNL     1      -6.485  -0.783  -8.192  1.00  0.00     0.010 A 
ATOM     41  C   UNL     1      -5.333  -2.914  -8.079  1.00  0.00     0.010 A 
ATOM     42  C   UNL     1      -5.590  -1.710  -8.751  1.00  0.00    -0.014 A 
BRANCH  42  43
ATOM     43  C   UNL     1      -4.905  -1.444 -10.038  1.00  0.00     0.031 A 
ATOM     44  C   UNL     1      -5.146  -2.347 -11.216  1.00  0.00     0.074 A 
ATOM     45  C   UNL     1      -4.009  -0.442 -10.119  1.00  0.00     0.049 A 
ATOM     46  N   UNL     1      -4.577  -2.334 -12.394  1.00  0.00    -0.248 NA
ATOM     47  C   UNL     1      -6.134  -3.424 -11.037  1.00  0.00     0.031 C 
ATOM     48  C   UNL     1      -3.661   0.476  -9.032  1.00  0.00     0.029 A 
ATOM     49  N   UNL     1      -3.217  -0.035 -11.163  1.00  0.00    -0.354 N 
ATOM     50  C   UNL     1      -5.120  -3.410 -13.085  1.00  0.00     0.074 A 
ATOM     51  C   UNL     1      -6.024  -4.084 -12.180  1.00  0.00     0.031 C 
ATOM     52  C   UNL     1      -2.743   1.351  -9.472  1.00  0.00     0.029 A 
ATOM     53  C   UNL     1      -2.402   1.027 -10.853  1.00  0.00     0.049 A 
ATOM     54  H   UNL     1      -3.231  -0.463 -12.049  1.00  0.00     0.167 HD
ATOM     55  C   UNL     1      -4.897  -3.793 -14.364  1.00  0.00     0.031 A 
ATOM     56  C   UNL     1      -1.472   1.659 -11.594  1.00  0.00     0.031 A 
ATOM     57  C   UNL     1      -4.004  -3.113 -15.262  1.00  0.00     0.049 A 
ATOM     58  C   UNL     1      -1.229   1.199 -13.005  1.00  0.00     0.074 A 
ATOM     59  C   UNL     1      -3.758  -3.380 -16.597  1.00  0.00     0.029 A 
ATOM     60  N   UNL     1      -3.204  -2.035 -14.914  1.00  0.00    -0.354 N 
ATOM     61  N   UNL     1      -1.809   0.230 -13.670  1.00  0.00    -0.248 NA
ATOM     62  C   UNL     1      -0.207   1.928 -13.770  1.00  0.00     0.031 C 
ATOM     63  C   UNL     1      -2.760  -2.506 -17.039  1.00  0.00     0.029 A 
ATOM     64  C   UNL     1      -2.436  -1.649 -15.999  1.00  0.00     0.049 A 
ATOM     65  H   UNL     1      -3.185  -1.608 -14.027  1.00  0.00     0.167 HD
ATOM     66  C   UNL     1      -1.244   0.249 -14.939  1.00  0.00     0.074 A 
ATOM     67  C   UNL     1      -0.290   1.339 -14.955  1.00  0.00     0.031 C 
ATOM     68  C   UNL     1      -1.490  -0.563 -15.995  1.00  0.00     0.031 A 
BRANCH  55  69
ATOM     69  C   UNL     1      -5.621  -5.013 -14.863  1.00  0.00    -0.014 A 
ATOM     70  C   UNL     1      -7.011  -5.010 -15.062  1.00  0.00     0.009 A 
ATOM     71  C   UNL     1      -4.894  -6.173 -15.177  1.00  0.00     0.009 A 
ATOM     72  C   UNL     1      -7.662  -6.154 -15.531  1.00  0.00     0.001 A 
ATOM     73  C   UNL     1      -5.543  -7.303 -15.677  1.00  0.00     0.001 A 
ATOM     74  C   UNL     1      -6.926  -7.296 -15.844  1.00  0.00     0.000 A 
ENDBRANCH  55  69
BRANCH  56  75
ATOM     75  C   UNL     1      -0.696   2.788 -11.017  1.00  0.00    -0.014 A 
ATOM     76  C   UNL     1      -0.875   4.096 -11.493  1.00  0.00     0.009 A 
ATOM     77  C   UNL     1       0.239   2.563  -9.994  1.00  0.00     0.009 A 
ATOM     78  C   UNL     1      -0.110   5.148 -10.981  1.00  0.00     0.001 A 
ATOM     79  C   UNL     1       0.977   3.621  -9.460  1.00  0.00     0.001 A 
ATOM     80  C   UNL     1       0.811   4.910  -9.963  1.00  0.00     0.000 A 
ENDBRANCH  56  75
BRANCH  68  81
ATOM     81  C   UNL     1      -0.741  -0.283 -17.268  1.00  0.00    -0.014 A 
ATOM     82  C   UNL     1       0.633  -0.546 -17.381  1.00  0.00     0.009 A 
ATOM     83  C   UNL     1      -1.435   0.205 -18.387  1.00  0.00     0.009 A 
ATOM     84  C   UNL     1       1.303  -0.293 -18.579  1.00  0.00     0.001 A 
ATOM     85  C   UNL     1      -0.769   0.424 -19.593  1.00  0.00     0.001 A 
ATOM     86  C   UNL     1       0.601   0.184 -19.686  1.00  0.00     0.000 A 
ENDBRANCH  68  81
ENDBRANCH  42  43
ENDBRANCH  34  37
ENDBRANCH  32  33
ENDBRANCH  31  32
ENDBRANCH  30  31
ENDBRANCH   1  30
TORSDOF 16
