REMARK SMILES C[C@@H]1[C@@H](C(=O)NCCCCCCNC(=O)c2ccc(-c3c4nc(c(-c5ccccc5)c5ccc([nH]5)c(-c5ccccc5)c5nc(c(-c6ccccc6)c6ccc3[nH]6)C=C5)C=C4)cc2)CCN1C(=O)[C@]1([NH3+])CCOC1
REMARK SMILES IDX 9 1 8 2 7 3 6 4 4 5 5 6 3 8 1 9 2 10 66 11 64 12 65 13 67 14
REMARK SMILES IDX 68 15 69 16 71 17 74 18 72 19 73 20 70 21 10 25 11 26 12 27
REMARK SMILES IDX 13 28 14 29 15 31 16 32 17 33 63 34 18 35 62 36 19 37 20 38
REMARK SMILES IDX 21 39 56 40 22 41 61 42 55 43 57 44 23 45 60 46 54 47 53 48
REMARK SMILES IDX 24 50 46 51 31 52 45 53 32 54 35 55 44 56 58 57 33 58 34 59
REMARK SMILES IDX 43 61 59 62 36 63 25 64 26 65 30 66 27 67 29 68 28 69 47 70
REMARK SMILES IDX 48 71 52 72 49 73 51 74 50 75 37 76 38 77 42 78 39 79 41 80
REMARK SMILES IDX 40 81
REMARK H PARENT 6 7 70 22 70 23 70 24 13 30 57 49 35 60
REMARK Flexibility Score: inf
ROOT
ATOM      1  C   UNL     1       7.729  -4.073   1.480  1.00  0.00     0.002 C 
ENDROOT
BRANCH   1   2
ATOM      2  C   UNL     1       7.109  -3.829   0.097  1.00  0.00     0.021 C 
BRANCH   2   3
ATOM      3  C   UNL     1       6.946  -5.081  -0.765  1.00  0.00     0.116 C 
BRANCH   3   4
ATOM      4  N   UNL     1       6.076  -6.050  -0.127  1.00  0.00    -0.356 N 
ATOM      5  C   UNL     1       4.975  -6.695  -0.599  1.00  0.00     0.225 C 
ATOM      6  O   UNL     1       4.410  -7.487   0.155  1.00  0.00    -0.275 OA
ATOM      7  H   UNL     1       6.322  -6.277   0.799  1.00  0.00     0.163 HD
BRANCH   5   8
ATOM      8  C   UNL     1       4.522  -6.459  -2.032  1.00  0.00     0.102 C 
ATOM      9  C   UNL     1       3.992  -4.645  -3.673  1.00  0.00     0.032 C 
ATOM     10  C   UNL     1       3.820  -5.101  -2.219  1.00  0.00     0.094 C 
ATOM     11  N   UNL     1       2.411  -5.369  -1.911  1.00  0.00    -0.334 N 
ATOM     12  C   UNL     1       3.436  -7.455  -2.450  1.00  0.00     0.037 C 
ATOM     13  C   UNL     1       2.150  -6.807  -1.959  1.00  0.00     0.121 C 
BRANCH  11  14
ATOM     14  C   UNL     1       1.393  -4.548  -1.474  1.00  0.00     0.286 C 
ATOM     15  O   UNL     1       0.259  -5.039  -1.331  1.00  0.00    -0.267 OA
BRANCH  14  16
ATOM     16  C   UNL     1       1.573  -3.027  -1.101  1.00  0.00     0.199 C 
ATOM     17  C   UNL     1       1.921  -2.105  -2.251  1.00  0.00     0.110 C 
ATOM     18  C   UNL     1       2.671  -2.782  -0.071  1.00  0.00     0.239 C 
ATOM     19  C   UNL     1       3.343  -1.650  -1.997  1.00  0.00     0.167 C 
ATOM     20  O   UNL     1       3.782  -2.161  -0.739  1.00  0.00    -0.374 OA
BRANCH  16  21
ATOM     21  N   UNL     1       0.255  -2.566  -0.548  1.00  0.00    -0.343 N 
ATOM     22  H   UNL     1       0.320  -1.581  -0.290  1.00  0.00     0.345 HD
ATOM     23  H   UNL     1       0.020  -3.119   0.276  1.00  0.00     0.345 HD
ATOM     24  H   UNL     1      -0.471  -2.685  -1.255  1.00  0.00     0.345 HD
ENDBRANCH  16  21
ENDBRANCH  14  16
ENDBRANCH  11  14
ENDBRANCH   5   8
ENDBRANCH   3   4
ENDBRANCH   2   3
ENDBRANCH   1   2
BRANCH   1  25
ATOM     25  C   UNL     1       9.110  -4.734   1.477  1.00  0.00     0.002 C 
BRANCH  25  26
ATOM     26  C   UNL     1      10.191  -3.986   0.694  1.00  0.00     0.021 C 
BRANCH  26  27
ATOM     27  C   UNL     1      10.434  -2.545   1.135  1.00  0.00     0.116 C 
BRANCH  27  28
ATOM     28  N   UNL     1      10.899  -2.451   2.508  1.00  0.00    -0.352 N 
ATOM     29  C   UNL     1      11.950  -1.743   3.034  1.00  0.00     0.251 C 
ATOM     30  H   UNL     1      10.380  -2.974   3.161  1.00  0.00     0.163 HD
ATOM     31  O   UNL     1      12.275  -1.912   4.205  1.00  0.00    -0.269 OA
BRANCH  29  32
ATOM     32  C   UNL     1      12.714  -0.792   2.194  1.00  0.00     0.039 A 
ATOM     33  C   UNL     1      14.106  -0.759   2.321  1.00  0.00     0.014 A 
ATOM     34  C   UNL     1      12.074   0.088   1.316  1.00  0.00     0.014 A 
ATOM     35  C   UNL     1      14.857   0.117   1.534  1.00  0.00     0.010 A 
ATOM     36  C   UNL     1      12.829   0.913   0.482  1.00  0.00     0.010 A 
ATOM     37  C   UNL     1      14.227   0.942   0.588  1.00  0.00    -0.014 A 
BRANCH  37  38
ATOM     38  C   UNL     1      15.022   1.843  -0.286  1.00  0.00     0.031 A 
ATOM     39  C   UNL     1      14.889   3.336  -0.163  1.00  0.00     0.074 A 
ATOM     40  C   UNL     1      15.838   1.316  -1.220  1.00  0.00     0.049 A 
ATOM     41  N   UNL     1      15.491   4.277  -0.847  1.00  0.00    -0.248 NA
ATOM     42  C   UNL     1      13.943   3.840   0.846  1.00  0.00     0.031 C 
ATOM     43  C   UNL     1      16.030  -0.114  -1.470  1.00  0.00     0.029 A 
ATOM     44  N   UNL     1      16.660   1.927  -2.134  1.00  0.00    -0.354 N 
ATOM     45  C   UNL     1      14.988   5.478  -0.362  1.00  0.00     0.074 A 
ATOM     46  C   UNL     1      13.997   5.147   0.638  1.00  0.00     0.031 C 
ATOM     47  C   UNL     1      16.937  -0.270  -2.447  1.00  0.00     0.029 A 
ATOM     48  C   UNL     1      17.363   1.044  -2.917  1.00  0.00     0.049 A 
ATOM     49  H   UNL     1      16.738   2.904  -2.220  1.00  0.00     0.167 HD
ATOM     50  C   UNL     1      15.333   6.743  -0.702  1.00  0.00     0.031 A 
ATOM     51  C   UNL     1      18.253   1.266  -3.902  1.00  0.00     0.031 A 
ATOM     52  C   UNL     1      16.326   7.077  -1.688  1.00  0.00     0.049 A 
ATOM     53  C   UNL     1      18.611   2.680  -4.269  1.00  0.00     0.074 A 
ATOM     54  C   UNL     1      16.785   8.329  -2.060  1.00  0.00     0.029 A 
ATOM     55  N   UNL     1      17.013   6.153  -2.460  1.00  0.00    -0.354 N 
ATOM     56  N   UNL     1      18.176   3.802  -3.751  1.00  0.00    -0.248 NA
ATOM     57  C   UNL     1      19.592   2.853  -5.349  1.00  0.00     0.031 C 
ATOM     58  C   UNL     1      17.715   8.165  -3.092  1.00  0.00     0.029 A 
ATOM     59  C   UNL     1      17.873   6.809  -3.325  1.00  0.00     0.049 A 
ATOM     60  H   UNL     1      16.905   5.176  -2.401  1.00  0.00     0.167 HD
ATOM     61  C   UNL     1      18.848   4.814  -4.425  1.00  0.00     0.074 A 
ATOM     62  C   UNL     1      19.732   4.171  -5.375  1.00  0.00     0.031 C 
ATOM     63  C   UNL     1      18.742   6.156  -4.269  1.00  0.00     0.031 A 
BRANCH  50  64
ATOM     64  C   UNL     1      14.622   7.866   0.002  1.00  0.00    -0.014 A 
ATOM     65  C   UNL     1      14.866   8.145   1.356  1.00  0.00     0.009 A 
ATOM     66  C   UNL     1      13.723   8.677  -0.707  1.00  0.00     0.009 A 
ATOM     67  C   UNL     1      14.196   9.190   1.995  1.00  0.00     0.001 A 
ATOM     68  C   UNL     1      13.075   9.739  -0.073  1.00  0.00     0.001 A 
ATOM     69  C   UNL     1      13.305   9.989   1.280  1.00  0.00     0.000 A 
ENDBRANCH  50  64
BRANCH  51  70
ATOM     70  C   UNL     1      18.888   0.121  -4.604  1.00  0.00    -0.014 A 
ATOM     71  C   UNL     1      20.245  -0.175  -4.398  1.00  0.00     0.009 A 
ATOM     72  C   UNL     1      18.146  -0.675  -5.490  1.00  0.00     0.009 A 
ATOM     73  C   UNL     1      20.851  -1.229  -5.086  1.00  0.00     0.001 A 
ATOM     74  C   UNL     1      18.748  -1.745  -6.154  1.00  0.00     0.001 A 
ATOM     75  C   UNL     1      20.102  -2.015  -5.960  1.00  0.00     0.000 A 
ENDBRANCH  51  70
BRANCH  63  76
ATOM     76  C   UNL     1      19.622   7.017  -5.130  1.00  0.00    -0.014 A 
ATOM     77  C   UNL     1      19.371   7.172  -6.502  1.00  0.00     0.009 A 
ATOM     78  C   UNL     1      20.699   7.708  -4.553  1.00  0.00     0.009 A 
ATOM     79  C   UNL     1      20.202   7.976  -7.285  1.00  0.00     0.001 A 
ATOM     80  C   UNL     1      21.511   8.533  -5.332  1.00  0.00     0.001 A 
ATOM     81  C   UNL     1      21.267   8.659  -6.699  1.00  0.00     0.000 A 
ENDBRANCH  63  76
ENDBRANCH  37  38
ENDBRANCH  29  32
ENDBRANCH  27  28
ENDBRANCH  26  27
ENDBRANCH  25  26
ENDBRANCH   1  25
TORSDOF 16
