REMARK SMILES O=C(NCCCCCCNC(=O)c1ccc(-c2cccc(F)c2)o1)c1ccc(-c2c3nc(c(-c4ccccc4)c4ccc([nH]4)c(-c4ccccc4)c4nc(c(-c5ccccc5)c5ccc2[nH]5)C=C4)C=C3)cc1
REMARK SMILES IDX 6 1 5 2 4 3 3 4 1 5 2 6 25 8 26 9 72 10 27 11 71 12 28 13
REMARK SMILES IDX 29 14 30 15 65 16 31 17 70 18 64 19 66 20 32 21 69 22 63 23
REMARK SMILES IDX 62 24 33 26 55 27 40 28 54 29 41 30 44 31 53 32 67 33 42 34
REMARK SMILES IDX 43 35 52 37 68 38 45 39 34 40 35 41 39 42 36 43 38 44 37 45
REMARK SMILES IDX 56 46 57 47 61 48 58 49 60 50 59 51 46 52 47 53 51 54 48 55
REMARK SMILES IDX 50 56 49 57 7 58 8 59 9 60 10 61 11 62 12 64 13 65 14 66
REMARK SMILES IDX 24 67 15 68 16 69 17 70 18 71 23 72 19 73 21 74 20 75 22 76
REMARK H PARENT 3 7 66 25 44 36 10 63
REMARK Flexibility Score: inf
ROOT
ATOM      1  C   UNL     1       4.266   3.379  -1.802  1.00  0.00     0.002 C 
ENDROOT
BRANCH   1   2
ATOM      2  C   UNL     1       4.731   1.925  -1.743  1.00  0.00     0.021 C 
BRANCH   2   3
ATOM      3  C   UNL     1       4.476   1.232  -0.412  1.00  0.00     0.116 C 
BRANCH   3   4
ATOM      4  N   UNL     1       3.058   1.083  -0.126  1.00  0.00    -0.352 N 
ATOM      5  O   UNL     1       1.122  -0.034   0.204  1.00  0.00    -0.269 OA
ATOM      6  C   UNL     1       2.348  -0.059   0.153  1.00  0.00     0.251 C 
ATOM      7  H   UNL     1       2.534   1.917  -0.132  1.00  0.00     0.163 HD
BRANCH   6   8
ATOM      8  C   UNL     1       3.071  -1.329   0.370  1.00  0.00     0.039 A 
ATOM      9  C   UNL     1       4.211  -1.363   1.177  1.00  0.00     0.014 A 
ATOM     10  C   UNL     1       2.605  -2.497  -0.239  1.00  0.00     0.014 A 
ATOM     11  C   UNL     1       4.963  -2.527   1.258  1.00  0.00     0.010 A 
ATOM     12  C   UNL     1       3.310  -3.692  -0.075  1.00  0.00     0.010 A 
ATOM     13  C   UNL     1       4.507  -3.712   0.656  1.00  0.00    -0.014 A 
BRANCH  13  14
ATOM     14  C   UNL     1       5.256  -4.972   0.890  1.00  0.00     0.031 A 
ATOM     15  C   UNL     1       5.919  -5.714  -0.236  1.00  0.00     0.074 A 
ATOM     16  C   UNL     1       5.352  -5.430   2.154  1.00  0.00     0.049 A 
ATOM     17  N   UNL     1       6.632  -6.811  -0.186  1.00  0.00    -0.248 NA
ATOM     18  C   UNL     1       5.760  -5.163  -1.590  1.00  0.00     0.031 C 
ATOM     19  C   UNL     1       4.744  -4.797   3.328  1.00  0.00     0.029 A 
ATOM     20  N   UNL     1       6.011  -6.516   2.668  1.00  0.00    -0.354 N 
ATOM     21  C   UNL     1       6.994  -7.091  -1.498  1.00  0.00     0.074 A 
ATOM     22  C   UNL     1       6.399  -6.063  -2.325  1.00  0.00     0.031 C 
ATOM     23  C   UNL     1       5.102  -5.473   4.428  1.00  0.00     0.029 A 
ATOM     24  C   UNL     1       5.900  -6.627   4.032  1.00  0.00     0.049 A 
ATOM     25  H   UNL     1       6.515  -7.154   2.113  1.00  0.00     0.167 HD
ATOM     26  C   UNL     1       7.754  -8.111  -1.966  1.00  0.00     0.031 A 
ATOM     27  C   UNL     1       6.367  -7.564   4.876  1.00  0.00     0.031 A 
ATOM     28  C   UNL     1       8.333  -9.138  -1.137  1.00  0.00     0.049 A 
ATOM     29  C   UNL     1       7.163  -8.707   4.320  1.00  0.00     0.074 A 
ATOM     30  C   UNL     1       9.142 -10.196  -1.515  1.00  0.00     0.029 A 
ATOM     31  N   UNL     1       8.158  -9.242   0.235  1.00  0.00    -0.354 N 
ATOM     32  N   UNL     1       7.531  -8.932   3.083  1.00  0.00    -0.248 NA
ATOM     33  C   UNL     1       7.609  -9.724   5.280  1.00  0.00     0.031 C 
ATOM     34  C   UNL     1       9.405 -10.974  -0.383  1.00  0.00     0.029 A 
ATOM     35  C   UNL     1       8.817 -10.363   0.713  1.00  0.00     0.049 A 
ATOM     36  H   UNL     1       7.641  -8.611   0.788  1.00  0.00     0.167 HD
ATOM     37  C   UNL     1       8.268 -10.107   3.117  1.00  0.00     0.074 A 
ATOM     38  C   UNL     1       8.317 -10.530   4.502  1.00  0.00     0.031 C 
ATOM     39  C   UNL     1       8.850 -10.777   2.092  1.00  0.00     0.031 A 
BRANCH  26  40
ATOM     40  C   UNL     1       7.982  -8.189  -3.451  1.00  0.00    -0.014 A 
ATOM     41  C   UNL     1       8.809  -7.269  -4.115  1.00  0.00     0.009 A 
ATOM     42  C   UNL     1       7.407  -9.236  -4.190  1.00  0.00     0.009 A 
ATOM     43  C   UNL     1       9.031  -7.379  -5.490  1.00  0.00     0.001 A 
ATOM     44  C   UNL     1       7.653  -9.361  -5.559  1.00  0.00     0.001 A 
ATOM     45  C   UNL     1       8.458  -8.428  -6.209  1.00  0.00     0.000 A 
ENDBRANCH  26  40
BRANCH  27  46
ATOM     46  C   UNL     1       6.069  -7.469   6.328  1.00  0.00    -0.014 A 
ATOM     47  C   UNL     1       7.092  -7.222   7.256  1.00  0.00     0.009 A 
ATOM     48  C   UNL     1       4.753  -7.625   6.794  1.00  0.00     0.009 A 
ATOM     49  C   UNL     1       6.806  -7.161   8.622  1.00  0.00     0.001 A 
ATOM     50  C   UNL     1       4.466  -7.527   8.156  1.00  0.00     0.001 A 
ATOM     51  C   UNL     1       5.494  -7.307   9.070  1.00  0.00     0.000 A 
ENDBRANCH  27  46
BRANCH  39  52
ATOM     52  C   UNL     1       9.617 -12.021   2.443  1.00  0.00    -0.014 A 
ATOM     53  C   UNL     1       8.962 -13.190   2.859  1.00  0.00     0.009 A 
ATOM     54  C   UNL     1      11.017 -12.026   2.337  1.00  0.00     0.009 A 
ATOM     55  C   UNL     1       9.697 -14.327   3.202  1.00  0.00     0.001 A 
ATOM     56  C   UNL     1      11.746 -13.174   2.648  1.00  0.00     0.001 A 
ATOM     57  C   UNL     1      11.087 -14.319   3.091  1.00  0.00     0.000 A 
ENDBRANCH  39  52
ENDBRANCH  13  14
ENDBRANCH   6   8
ENDBRANCH   3   4
ENDBRANCH   2   3
ENDBRANCH   1   2
BRANCH   1  58
ATOM     58  C   UNL     1       4.839   4.289  -0.711  1.00  0.00     0.002 C 
BRANCH  58  59
ATOM     59  C   UNL     1       6.366   4.281  -0.587  1.00  0.00     0.021 C 
BRANCH  59  60
ATOM     60  C   UNL     1       7.109   4.657  -1.867  1.00  0.00     0.116 C 
BRANCH  60  61
ATOM     61  N   UNL     1       6.871   6.043  -2.225  1.00  0.00    -0.349 N 
ATOM     62  C   UNL     1       7.795   7.049  -2.373  1.00  0.00     0.287 C 
ATOM     63  H   UNL     1       5.932   6.293  -2.382  1.00  0.00     0.163 HD
ATOM     64  O   UNL     1       7.379   8.212  -2.403  1.00  0.00    -0.266 OA
BRANCH  62  65
ATOM     65  C   UNL     1       9.185   6.688  -2.512  1.00  0.00     0.192 A 
ATOM     66  C   UNL     1       9.812   5.743  -3.306  1.00  0.00     0.057 A 
ATOM     67  O   UNL     1      10.122   7.357  -1.772  1.00  0.00    -0.451 OA
ATOM     68  C   UNL     1      11.194   5.834  -3.032  1.00  0.00     0.052 A 
ATOM     69  C   UNL     1      11.338   6.832  -2.092  1.00  0.00     0.135 A 
BRANCH  69  70
ATOM     70  C   UNL     1      12.492   7.415  -1.435  1.00  0.00     0.020 A 
ATOM     71  C   UNL     1      13.614   7.778  -2.195  1.00  0.00     0.012 A 
ATOM     72  C   UNL     1      12.526   7.580  -0.047  1.00  0.00     0.051 A 
ATOM     73  C   UNL     1      14.759   8.288  -1.579  1.00  0.00     0.004 A 
ATOM     74  C   UNL     1      13.677   8.075   0.558  1.00  0.00     0.123 A 
ATOM     75  C   UNL     1      14.793   8.428  -0.194  1.00  0.00     0.039 A 
ATOM     76  F   UNL     1      13.720   8.200   1.891  1.00  0.00    -0.207 F 
ENDBRANCH  69  70
ENDBRANCH  62  65
ENDBRANCH  60  61
ENDBRANCH  59  60
ENDBRANCH  58  59
ENDBRANCH   1  58
TORSDOF 14
