REMARK SMILES O=C(C[C@@H]1C=CS(=O)(=O)C1)NCCCCCCNC(=O)c1ccc(-c2c3nc(c(-c4ccccc4)c4ccc([nH]4)c(-c4ccccc4)c4nc(c(-c5ccccc5)c5ccc2[nH]5)C=C4)C=C3)cc1
REMARK SMILES IDX 15 1 14 2 13 3 12 4 11 5 1 6 2 7 3 9 4 10 5 11 10 12 6 13
REMARK SMILES IDX 7 14 8 15 9 16 16 17 17 18 18 19 19 20 20 22 21 23 22 24
REMARK SMILES IDX 68 25 23 26 67 27 24 28 25 29 26 30 61 31 27 32 66 33 60 34
REMARK SMILES IDX 62 35 28 36 65 37 59 38 58 39 29 41 51 42 36 43 50 44 37 45
REMARK SMILES IDX 40 46 49 47 63 48 38 49 39 50 48 52 64 53 41 54 30 55 31 56
REMARK SMILES IDX 35 57 32 58 34 59 33 60 52 61 53 62 57 63 54 64 56 65 55 66
REMARK SMILES IDX 42 67 43 68 47 69 44 70 46 71 45 72
REMARK H PARENT 11 8 18 21 62 40 40 51
REMARK Flexibility Score: inf
ROOT
ATOM      1  C   UNL     1      -0.182  -3.852   3.364  1.00  0.00     0.002 C 
ENDROOT
BRANCH   1   2
ATOM      2  C   UNL     1      -0.333  -2.653   4.304  1.00  0.00     0.002 C 
BRANCH   2   3
ATOM      3  C   UNL     1       0.670  -2.591   5.467  1.00  0.00     0.021 C 
BRANCH   3   4
ATOM      4  C   UNL     1       2.140  -2.545   5.048  1.00  0.00     0.116 C 
BRANCH   4   5
ATOM      5  N   UNL     1       2.397  -1.424   4.170  1.00  0.00    -0.356 N 
ATOM      6  O   UNL     1       4.234  -0.576   5.265  1.00  0.00    -0.275 OA
ATOM      7  C   UNL     1       3.437  -0.539   4.339  1.00  0.00     0.220 C 
ATOM      8  H   UNL     1       1.792  -1.287   3.406  1.00  0.00     0.163 HD
BRANCH   7   9
ATOM      9  C   UNL     1       3.475   0.539   3.271  1.00  0.00     0.108 C 
BRANCH   9  10
ATOM     10  C   UNL     1       4.030   0.130   1.892  1.00  0.00     0.037 C 
ATOM     11  C   UNL     1       3.796  -1.304   1.480  1.00  0.00    -0.010 C 
ATOM     12  C   UNL     1       5.541   0.380   1.758  1.00  0.00     0.150 C 
ATOM     13  C   UNL     1       4.876  -2.097   1.436  1.00  0.00     0.102 C 
ATOM     14  S   UNL     1       6.325  -1.228   1.812  1.00  0.00     0.171 S 
ATOM     15  O   UNL     1       7.246  -1.332   0.695  1.00  0.00    -0.224 OA
ATOM     16  O   UNL     1       6.731  -1.515   3.165  1.00  0.00    -0.224 OA
ENDBRANCH   9  10
ENDBRANCH   7   9
ENDBRANCH   4   5
ENDBRANCH   3   4
ENDBRANCH   2   3
ENDBRANCH   1   2
BRANCH   1  17
ATOM     17  C   UNL     1      -0.299  -5.221   4.035  1.00  0.00     0.021 C 
BRANCH  17  18
ATOM     18  C   UNL     1      -1.594  -5.451   4.808  1.00  0.00     0.116 C 
BRANCH  18  19
ATOM     19  N   UNL     1      -2.769  -5.457   3.950  1.00  0.00    -0.352 N 
ATOM     20  C   UNL     1      -3.809  -6.355   3.922  1.00  0.00     0.251 C 
ATOM     21  H   UNL     1      -2.828  -4.717   3.303  1.00  0.00     0.163 HD
ATOM     22  O   UNL     1      -4.657  -6.300   3.038  1.00  0.00    -0.269 OA
BRANCH  20  23
ATOM     23  C   UNL     1      -3.882  -7.414   4.952  1.00  0.00     0.039 A 
ATOM     24  C   UNL     1      -4.095  -8.736   4.553  1.00  0.00     0.014 A 
ATOM     25  C   UNL     1      -3.717  -7.103   6.304  1.00  0.00     0.014 A 
ATOM     26  C   UNL     1      -4.071  -9.758   5.506  1.00  0.00     0.010 A 
ATOM     27  C   UNL     1      -3.624  -8.128   7.240  1.00  0.00     0.010 A 
ATOM     28  C   UNL     1      -3.798  -9.466   6.852  1.00  0.00    -0.014 A 
BRANCH  28  29
ATOM     29  C   UNL     1      -3.691 -10.536   7.878  1.00  0.00     0.031 A 
ATOM     30  C   UNL     1      -4.665 -10.575   9.024  1.00  0.00     0.074 A 
ATOM     31  C   UNL     1      -2.670 -11.415   7.830  1.00  0.00     0.049 A 
ATOM     32  N   UNL     1      -4.667 -11.348  10.080  1.00  0.00    -0.248 NA
ATOM     33  C   UNL     1      -5.769  -9.600   8.992  1.00  0.00     0.031 C 
ATOM     34  C   UNL     1      -1.640 -11.469   6.790  1.00  0.00     0.029 A 
ATOM     35  N   UNL     1      -2.322 -12.427   8.691  1.00  0.00    -0.354 N 
ATOM     36  C   UNL     1      -5.747 -10.932  10.850  1.00  0.00     0.074 A 
ATOM     37  C   UNL     1      -6.358  -9.819  10.159  1.00  0.00     0.031 C 
ATOM     38  C   UNL     1      -0.786 -12.468   7.067  1.00  0.00     0.029 A 
ATOM     39  C   UNL     1      -1.178 -13.096   8.325  1.00  0.00     0.049 A 
ATOM     40  H   UNL     1      -2.842 -12.651   9.496  1.00  0.00     0.167 HD
ATOM     41  C   UNL     1      -6.197 -11.441  12.021  1.00  0.00     0.031 A 
ATOM     42  C   UNL     1      -0.510 -14.090   8.941  1.00  0.00     0.031 A 
ATOM     43  C   UNL     1      -5.610 -12.568  12.693  1.00  0.00     0.049 A 
ATOM     44  C   UNL     1      -1.029 -14.625  10.249  1.00  0.00     0.074 A 
ATOM     45  C   UNL     1      -6.042 -13.200  13.847  1.00  0.00     0.029 A 
ATOM     46  N   UNL     1      -4.468 -13.230  12.274  1.00  0.00    -0.354 N 
ATOM     47  N   UNL     1      -2.095 -14.269  10.924  1.00  0.00    -0.248 NA
ATOM     48  C   UNL     1      -0.255 -15.708  10.876  1.00  0.00     0.031 C 
ATOM     49  C   UNL     1      -5.131 -14.213  14.155  1.00  0.00     0.029 A 
ATOM     50  C   UNL     1      -4.166 -14.249  13.161  1.00  0.00     0.049 A 
ATOM     51  H   UNL     1      -3.950 -13.010  11.467  1.00  0.00     0.167 HD
ATOM     52  C   UNL     1      -2.140 -15.109  12.030  1.00  0.00     0.074 A 
ATOM     53  C   UNL     1      -1.003 -15.999  11.931  1.00  0.00     0.031 C 
ATOM     54  C   UNL     1      -3.045 -15.142  13.037  1.00  0.00     0.031 A 
BRANCH  41  55
ATOM     55  C   UNL     1      -7.384 -10.782  12.663  1.00  0.00    -0.014 A 
ATOM     56  C   UNL     1      -8.674 -10.922  12.128  1.00  0.00     0.009 A 
ATOM     57  C   UNL     1      -7.220 -10.074  13.864  1.00  0.00     0.009 A 
ATOM     58  C   UNL     1      -9.772 -10.347  12.771  1.00  0.00     0.001 A 
ATOM     59  C   UNL     1      -8.322  -9.524  14.520  1.00  0.00     0.001 A 
ATOM     60  C   UNL     1      -9.596  -9.656  13.970  1.00  0.00     0.000 A 
ENDBRANCH  41  55
BRANCH  42  61
ATOM     61  C   UNL     1       0.730 -14.654   8.344  1.00  0.00    -0.014 A 
ATOM     62  C   UNL     1       0.752 -15.971   7.859  1.00  0.00     0.009 A 
ATOM     63  C   UNL     1       1.912 -13.897   8.302  1.00  0.00     0.009 A 
ATOM     64  C   UNL     1       1.940 -16.532   7.384  1.00  0.00     0.001 A 
ATOM     65  C   UNL     1       3.091 -14.451   7.796  1.00  0.00     0.001 A 
ATOM     66  C   UNL     1       3.108 -15.772   7.352  1.00  0.00     0.000 A 
ENDBRANCH  42  61
BRANCH  54  67
ATOM     67  C   UNL     1      -2.884 -16.209  14.081  1.00  0.00    -0.014 A 
ATOM     68  C   UNL     1      -1.866 -16.146  15.044  1.00  0.00     0.009 A 
ATOM     69  C   UNL     1      -3.808 -17.265  14.135  1.00  0.00     0.009 A 
ATOM     70  C   UNL     1      -1.760 -17.135  16.023  1.00  0.00     0.001 A 
ATOM     71  C   UNL     1      -3.718 -18.236  15.132  1.00  0.00     0.001 A 
ATOM     72  C   UNL     1      -2.689 -18.175  16.071  1.00  0.00     0.000 A 
ENDBRANCH  54  67
ENDBRANCH  28  29
ENDBRANCH  20  23
ENDBRANCH  18  19
ENDBRANCH  17  18
ENDBRANCH   1  17
TORSDOF 14
