REMARK SMILES O=C1NC(=O)/C(=C/c2ccc(OCc3cn(-c4ccc(C(=O)NCCCCCCNC(=O)c5ccc(-c6c7nc(c(-c8ccccc8)c8ccc([nH]8)c(-c8ccccc8)c8nc(c(-c9ccccc9)c9ccc6[nH]9)C=C8)C=C7)cc5)cc4)nn3)cc2)S1
REMARK SMILES IDX 25 1 24 2 23 3 21 4 22 5 20 7 17 8 18 9 82 10 19 11 81 12
REMARK SMILES IDX 16 13 14 14 15 15 84 16 83 17 13 18 12 19 11 20 8 21 9 22
REMARK SMILES IDX 86 23 10 24 85 25 7 26 1 27 2 28 3 29 87 30 4 31 6 33 5 34
REMARK SMILES IDX 26 35 27 36 28 37 29 38 30 39 31 40 32 42 33 43 34 44 80 45
REMARK SMILES IDX 35 46 79 47 36 48 37 49 38 50 73 51 39 52 78 53 72 54 74 55
REMARK SMILES IDX 40 56 77 57 71 58 70 59 41 61 63 62 48 63 62 64 49 65 52 66
REMARK SMILES IDX 61 67 75 68 50 69 51 70 60 72 76 73 53 74 42 75 43 76 47 77
REMARK SMILES IDX 44 78 46 79 45 80 64 81 65 82 69 83 66 84 68 85 67 86 54 87
REMARK SMILES IDX 55 88 59 89 56 90 58 91 57 92
REMARK H PARENT 23 6 3 32 30 41 74 60 52 71
REMARK Flexibility Score: inf
ROOT
ATOM      1  C   UNL     1      -8.100  10.065  -2.418  1.00  0.00     0.021 C 
ENDROOT
BRANCH   1   2
ATOM      2  C   UNL     1      -7.686  10.497  -1.009  1.00  0.00     0.116 C 
BRANCH   2   3
ATOM      3  N   UNL     1      -8.304   9.624  -0.033  1.00  0.00    -0.352 N 
ATOM      4  C   UNL     1      -7.838   8.568   0.703  1.00  0.00     0.251 C 
ATOM      5  O   UNL     1      -8.647   7.975   1.416  1.00  0.00    -0.269 OA
ATOM      6  H   UNL     1      -9.252   9.832   0.135  1.00  0.00     0.163 HD
BRANCH   4   7
ATOM      7  C   UNL     1      -6.403   8.171   0.744  1.00  0.00     0.039 A 
ATOM      8  C   UNL     1      -3.689   7.591   1.120  1.00  0.00     0.066 A 
ATOM      9  C   UNL     1      -4.625   7.190   2.080  1.00  0.00     0.029 A 
ATOM     10  C   UNL     1      -4.108   8.203  -0.060  1.00  0.00     0.029 A 
ATOM     11  C   UNL     1      -5.970   7.514   1.905  1.00  0.00     0.016 A 
ATOM     12  C   UNL     1      -5.473   8.419  -0.271  1.00  0.00     0.016 A 
BRANCH   8  13
ATOM     13  N   UNL     1      -2.322   7.345   1.347  1.00  0.00    -0.220 N 
ATOM     14  C   UNL     1      -0.143   7.367   1.391  1.00  0.00     0.120 A 
ATOM     15  C   UNL     1      -1.232   8.061   0.906  1.00  0.00     0.144 A 
ATOM     16  N   UNL     1      -0.600   6.303   2.123  1.00  0.00    -0.131 NA
ATOM     17  N   UNL     1      -1.918   6.318   2.120  1.00  0.00    -0.062 NA
BRANCH  14  18
ATOM     18  C   UNL     1       1.320   7.662   1.328  1.00  0.00     0.289 C 
BRANCH  18  19
ATOM     19  O   UNL     1       2.045   6.987   0.285  1.00  0.00    -0.487 OA
BRANCH  19  20
ATOM     20  C   UNL     1       2.174   5.626   0.352  1.00  0.00     0.119 A 
ATOM     21  C   UNL     1       2.215   2.824   0.124  1.00  0.00    -0.024 A 
ATOM     22  C   UNL     1       2.680   3.620  -0.924  1.00  0.00     0.012 A 
ATOM     23  C   UNL     1       1.826   3.434   1.318  1.00  0.00     0.012 A 
ATOM     24  C   UNL     1       2.651   5.016  -0.810  1.00  0.00     0.047 A 
ATOM     25  C   UNL     1       1.840   4.825   1.441  1.00  0.00     0.047 A 
BRANCH  21  26
ATOM     26  C   UNL     1       2.147   1.367  -0.008  1.00  0.00     0.029 C 
ATOM     27  O   UNL     1      -2.447  -0.712   0.009  1.00  0.00    -0.261 OA
ATOM     28  C   UNL     1      -1.250  -0.433  -0.007  1.00  0.00     0.290 C 
ATOM     29  N   UNL     1      -0.235  -1.325  -0.048  1.00  0.00    -0.282 N 
ATOM     30  S   UNL     1      -0.617   1.196   0.013  1.00  0.00    -0.022 SA
ATOM     31  C   UNL     1       1.042  -0.844  -0.077  1.00  0.00     0.265 C 
ATOM     32  H   UNL     1      -0.412  -2.293  -0.057  1.00  0.00     0.174 HD
ATOM     33  C   UNL     1       1.018   0.643  -0.029  1.00  0.00     0.083 C 
ATOM     34  O   UNL     1       2.044  -1.533  -0.123  1.00  0.00    -0.268 OA
ENDBRANCH  21  26
ENDBRANCH  19  20
ENDBRANCH  18  19
ENDBRANCH  14  18
ENDBRANCH   8  13
ENDBRANCH   4   7
ENDBRANCH   2   3
ENDBRANCH   1   2
BRANCH   1  35
ATOM     35  C   UNL     1      -9.508  10.546  -2.793  1.00  0.00     0.002 C 
BRANCH  35  36
ATOM     36  C   UNL     1      -9.731  12.064  -2.681  1.00  0.00     0.002 C 
BRANCH  36  37
ATOM     37  C   UNL     1      -8.688  12.955  -3.375  1.00  0.00     0.021 C 
BRANCH  37  38
ATOM     38  C   UNL     1      -8.755  12.890  -4.891  1.00  0.00     0.116 C 
BRANCH  38  39
ATOM     39  N   UNL     1     -10.013  13.444  -5.407  1.00  0.00    -0.352 N 
ATOM     40  C   UNL     1     -10.522  13.438  -6.693  1.00  0.00     0.251 C 
ATOM     41  H   UNL     1     -10.580  13.888  -4.736  1.00  0.00     0.163 HD
ATOM     42  O   UNL     1     -11.382  14.240  -7.035  1.00  0.00    -0.269 OA
BRANCH  40  43
ATOM     43  C   UNL     1     -10.029  12.428  -7.641  1.00  0.00     0.039 A 
ATOM     44  C   UNL     1      -9.897  12.664  -9.013  1.00  0.00     0.014 A 
ATOM     45  C   UNL     1      -9.677  11.201  -7.100  1.00  0.00     0.014 A 
ATOM     46  C   UNL     1      -9.389  11.643  -9.814  1.00  0.00     0.010 A 
ATOM     47  C   UNL     1      -8.897  10.352  -7.816  1.00  0.00     0.010 A 
ATOM     48  C   UNL     1      -8.906  10.486  -9.192  1.00  0.00    -0.014 A 
BRANCH  48  49
ATOM     49  C   UNL     1      -8.356   9.354  -9.909  1.00  0.00     0.031 A 
ATOM     50  C   UNL     1      -7.051   9.627 -10.544  1.00  0.00     0.074 A 
ATOM     51  C   UNL     1      -8.821   8.100  -9.704  1.00  0.00     0.049 A 
ATOM     52  N   UNL     1      -6.807   9.756 -11.803  1.00  0.00    -0.248 NA
ATOM     53  C   UNL     1      -5.915   9.975  -9.672  1.00  0.00     0.031 C 
ATOM     54  C   UNL     1      -9.852   7.644  -8.759  1.00  0.00     0.029 A 
ATOM     55  N   UNL     1      -8.348   6.931 -10.199  1.00  0.00    -0.354 N 
ATOM     56  C   UNL     1      -5.438   9.973 -11.895  1.00  0.00     0.074 A 
ATOM     57  C   UNL     1      -5.005  10.347 -10.573  1.00  0.00     0.031 C 
ATOM     58  C   UNL     1      -9.735   6.309  -8.574  1.00  0.00     0.029 A 
ATOM     59  C   UNL     1      -8.730   5.799  -9.491  1.00  0.00     0.049 A 
ATOM     60  H   UNL     1      -7.777   6.887 -11.000  1.00  0.00     0.167 HD
ATOM     61  C   UNL     1      -4.726   9.532 -12.969  1.00  0.00     0.031 A 
ATOM     62  C   UNL     1      -8.199   4.555  -9.615  1.00  0.00     0.031 A 
ATOM     63  C   UNL     1      -5.600   9.086 -14.029  1.00  0.00     0.049 A 
ATOM     64  C   UNL     1      -7.453   4.525 -10.901  1.00  0.00     0.074 A 
ATOM     65  C   UNL     1      -6.630   9.668 -14.743  1.00  0.00     0.029 A 
ATOM     66  N   UNL     1      -5.766   7.726 -14.168  1.00  0.00    -0.354 N 
ATOM     67  N   UNL     1      -8.032   4.609 -12.066  1.00  0.00    -0.248 NA
ATOM     68  C   UNL     1      -6.050   4.916 -10.876  1.00  0.00     0.031 C 
ATOM     69  C   UNL     1      -7.629   8.652 -14.827  1.00  0.00     0.029 A 
ATOM     70  C   UNL     1      -7.114   7.486 -14.259  1.00  0.00     0.049 A 
ATOM     71  H   UNL     1      -5.051   7.051 -14.198  1.00  0.00     0.167 HD
ATOM     72  C   UNL     1      -7.229   5.473 -12.800  1.00  0.00     0.074 A 
ATOM     73  C   UNL     1      -5.976   5.558 -12.047  1.00  0.00     0.031 C 
ATOM     74  C   UNL     1      -7.753   6.283 -13.770  1.00  0.00     0.031 A 
BRANCH  61  75
ATOM     75  C   UNL     1      -3.285   9.086 -12.899  1.00  0.00    -0.014 A 
ATOM     76  C   UNL     1      -2.661   8.672 -14.089  1.00  0.00     0.009 A 
ATOM     77  C   UNL     1      -2.608   8.797 -11.699  1.00  0.00     0.009 A 
ATOM     78  C   UNL     1      -1.476   7.929 -14.070  1.00  0.00     0.001 A 
ATOM     79  C   UNL     1      -1.401   8.095 -11.678  1.00  0.00     0.001 A 
ATOM     80  C   UNL     1      -0.852   7.632 -12.863  1.00  0.00     0.000 A 
ENDBRANCH  61  75
BRANCH  62  81
ATOM     81  C   UNL     1      -8.039   3.509  -8.575  1.00  0.00    -0.014 A 
ATOM     82  C   UNL     1      -7.736   2.181  -8.921  1.00  0.00     0.009 A 
ATOM     83  C   UNL     1      -7.932   3.863  -7.217  1.00  0.00     0.009 A 
ATOM     84  C   UNL     1      -7.312   1.259  -7.951  1.00  0.00     0.001 A 
ATOM     85  C   UNL     1      -7.513   2.943  -6.248  1.00  0.00     0.001 A 
ATOM     86  C   UNL     1      -7.188   1.643  -6.618  1.00  0.00     0.000 A 
ENDBRANCH  62  81
BRANCH  74  87
ATOM     87  C   UNL     1      -9.189   6.075 -14.190  1.00  0.00    -0.014 A 
ATOM     88  C   UNL     1     -10.279   6.150 -13.303  1.00  0.00     0.009 A 
ATOM     89  C   UNL     1      -9.463   5.975 -15.563  1.00  0.00     0.009 A 
ATOM     90  C   UNL     1     -11.595   6.096 -13.776  1.00  0.00     0.001 A 
ATOM     91  C   UNL     1     -10.775   5.944 -16.037  1.00  0.00     0.001 A 
ATOM     92  C   UNL     1     -11.842   5.998 -15.143  1.00  0.00     0.000 A 
ENDBRANCH  74  87
ENDBRANCH  48  49
ENDBRANCH  40  43
ENDBRANCH  38  39
ENDBRANCH  37  38
ENDBRANCH  36  37
ENDBRANCH  35  36
ENDBRANCH   1  35
TORSDOF 18
