REMARK SMILES O=C(NCCCCCCNC(=O)[C@H]1CCCN(c2cc(-c3ccccn3)nc(-c3ccccc3F)n2)C1)c1ccc(-c2c3nc(c(-c4ccccc4)c4ccc([nH]4)c(-c4ccccc4)c4nc(c(-c5ccccc5)c5ccc2[nH]5)C=C4)C=C3)cc1
REMARK SMILES IDX 6 1 5 2 4 3 3 4 1 5 2 6 38 8 39 9 85 10 40 11 84 12 41 13
REMARK SMILES IDX 42 14 43 15 78 16 44 17 83 18 77 19 79 20 45 21 82 22 76 23
REMARK SMILES IDX 75 24 46 26 68 27 53 28 67 29 54 30 57 31 66 32 80 33 55 34
REMARK SMILES IDX 56 35 65 37 81 38 58 39 47 40 48 41 52 42 49 43 51 44 50 45
REMARK SMILES IDX 69 46 70 47 74 48 71 49 73 50 72 51 59 52 60 53 64 54 61 55
REMARK SMILES IDX 63 56 62 57 7 58 8 59 9 60 10 61 11 62 12 64 13 65 14 66
REMARK SMILES IDX 37 67 15 68 17 69 16 70 18 71 19 72 36 73 20 74 28 75 27 76
REMARK SMILES IDX 21 77 22 78 26 79 23 80 25 81 24 82 29 83 30 84 34 85 31 86
REMARK SMILES IDX 33 87 35 88 32 89
REMARK H PARENT 3 7 79 25 57 36 10 63
REMARK Flexibility Score: inf
ROOT
ATOM      1  C   UNL     1       6.972 -12.571  -1.162  1.00  0.00     0.002 C 
ENDROOT
BRANCH   1   2
ATOM      2  C   UNL     1       5.445 -12.516  -1.196  1.00  0.00     0.021 C 
BRANCH   2   3
ATOM      3  C   UNL     1       4.807 -13.104  -2.448  1.00  0.00     0.116 C 
BRANCH   3   4
ATOM      4  N   UNL     1       5.034 -14.534  -2.579  1.00  0.00    -0.352 N 
ATOM      5  O   UNL     1       4.470 -16.716  -2.730  1.00  0.00    -0.269 OA
ATOM      6  C   UNL     1       4.122 -15.540  -2.787  1.00  0.00     0.251 C 
ATOM      7  H   UNL     1       5.973 -14.821  -2.510  1.00  0.00     0.163 HD
BRANCH   6   8
ATOM      8  C   UNL     1       2.706 -15.203  -3.047  1.00  0.00     0.039 A 
ATOM      9  C   UNL     1       2.366 -14.198  -3.956  1.00  0.00     0.014 A 
ATOM     10  C   UNL     1       1.705 -15.898  -2.362  1.00  0.00     0.014 A 
ATOM     11  C   UNL     1       1.042 -13.789  -4.069  1.00  0.00     0.010 A 
ATOM     12  C   UNL     1       0.366 -15.541  -2.540  1.00  0.00     0.010 A 
ATOM     13  C   UNL     1       0.027 -14.458  -3.366  1.00  0.00    -0.014 A 
BRANCH  13  14
ATOM     14  C   UNL     1      -1.384 -14.029  -3.538  1.00  0.00     0.031 A 
ATOM     15  C   UNL     1      -2.164 -13.442  -2.394  1.00  0.00     0.074 A 
ATOM     16  C   UNL     1      -1.956 -14.146  -4.752  1.00  0.00     0.049 A 
ATOM     17  N   UNL     1      -3.389 -12.977  -2.386  1.00  0.00    -0.248 NA
ATOM     18  C   UNL     1      -1.487 -13.371  -1.090  1.00  0.00     0.031 C 
ATOM     19  C   UNL     1      -1.304 -14.701  -5.941  1.00  0.00     0.029 A 
ATOM     20  N   UNL     1      -3.202 -13.784  -5.193  1.00  0.00    -0.354 N 
ATOM     21  C   UNL     1      -3.639 -12.586  -1.077  1.00  0.00     0.074 A 
ATOM     22  C   UNL     1      -2.446 -12.885  -0.314  1.00  0.00     0.031 C 
ATOM     23  C   UNL     1      -2.134 -14.590  -6.988  1.00  0.00     0.029 A 
ATOM     24  C   UNL     1      -3.394 -14.013  -6.533  1.00  0.00     0.049 A 
ATOM     25  H   UNL     1      -3.891 -13.397  -4.607  1.00  0.00     0.167 HD
ATOM     26  C   UNL     1      -4.759 -12.025  -0.558  1.00  0.00     0.031 A 
ATOM     27  C   UNL     1      -4.467 -13.789  -7.314  1.00  0.00     0.031 A 
ATOM     28  C   UNL     1      -5.944 -11.724  -1.317  1.00  0.00     0.049 A 
ATOM     29  C   UNL     1      -5.701 -13.191  -6.709  1.00  0.00     0.074 A 
ATOM     30  C   UNL     1      -7.114 -11.119  -0.889  1.00  0.00     0.029 A 
ATOM     31  N   UNL     1      -6.114 -12.011  -2.663  1.00  0.00    -0.354 N 
ATOM     32  N   UNL     1      -5.906 -12.791  -5.478  1.00  0.00    -0.248 NA
ATOM     33  C   UNL     1      -6.851 -13.011  -7.604  1.00  0.00     0.031 C 
ATOM     34  C   UNL     1      -8.010 -11.086  -1.963  1.00  0.00     0.029 A 
ATOM     35  C   UNL     1      -7.378 -11.619  -3.075  1.00  0.00     0.049 A 
ATOM     36  H   UNL     1      -5.437 -12.431  -3.241  1.00  0.00     0.167 HD
ATOM     37  C   UNL     1      -7.200 -12.290  -5.455  1.00  0.00     0.074 A 
ATOM     38  C   UNL     1      -7.726 -12.424  -6.799  1.00  0.00     0.031 C 
ATOM     39  C   UNL     1      -7.889 -11.763  -4.414  1.00  0.00     0.031 A 
BRANCH  26  40
ATOM     40  C   UNL     1      -4.766 -11.734   0.918  1.00  0.00    -0.014 A 
ATOM     41  C   UNL     1      -3.999 -10.694   1.466  1.00  0.00     0.009 A 
ATOM     42  C   UNL     1      -5.576 -12.500   1.772  1.00  0.00     0.009 A 
ATOM     43  C   UNL     1      -4.014 -10.451   2.842  1.00  0.00     0.001 A 
ATOM     44  C   UNL     1      -5.610 -12.238   3.143  1.00  0.00     0.001 A 
ATOM     45  C   UNL     1      -4.821 -11.222   3.678  1.00  0.00     0.000 A 
ENDBRANCH  26  40
BRANCH  27  46
ATOM     46  C   UNL     1      -4.407 -14.125  -8.758  1.00  0.00    -0.014 A 
ATOM     47  C   UNL     1      -4.354 -13.107  -9.722  1.00  0.00     0.009 A 
ATOM     48  C   UNL     1      -4.377 -15.464  -9.179  1.00  0.00     0.009 A 
ATOM     49  C   UNL     1      -4.287 -13.424 -11.080  1.00  0.00     0.001 A 
ATOM     50  C   UNL     1      -4.282 -15.777 -10.536  1.00  0.00     0.001 A 
ATOM     51  C   UNL     1      -4.244 -14.758 -11.486  1.00  0.00     0.000 A 
ENDBRANCH  27  46
BRANCH  39  52
ATOM     52  C   UNL     1      -9.274 -11.257  -4.701  1.00  0.00    -0.014 A 
ATOM     53  C   UNL     1     -10.341 -12.139  -4.936  1.00  0.00     0.009 A 
ATOM     54  C   UNL     1      -9.517  -9.874  -4.719  1.00  0.00     0.009 A 
ATOM     55  C   UNL     1     -11.615 -11.644  -5.218  1.00  0.00     0.001 A 
ATOM     56  C   UNL     1     -10.797  -9.383  -4.974  1.00  0.00     0.001 A 
ATOM     57  C   UNL     1     -11.843 -10.268  -5.234  1.00  0.00     0.000 A 
ENDBRANCH  39  52
ENDBRANCH  13  14
ENDBRANCH   6   8
ENDBRANCH   3   4
ENDBRANCH   2   3
ENDBRANCH   1   2
BRANCH   1  58
ATOM     58  C   UNL     1       7.680 -11.941  -2.365  1.00  0.00     0.002 C 
BRANCH  58  59
ATOM     59  C   UNL     1       7.279 -10.498  -2.696  1.00  0.00     0.021 C 
BRANCH  59  60
ATOM     60  C   UNL     1       7.436  -9.498  -1.552  1.00  0.00     0.116 C 
BRANCH  60  61
ATOM     61  N   UNL     1       8.813  -9.411  -1.107  1.00  0.00    -0.356 N 
ATOM     62  C   UNL     1       9.581  -8.317  -0.861  1.00  0.00     0.224 C 
ATOM     63  H   UNL     1       9.260 -10.276  -0.961  1.00  0.00     0.163 HD
ATOM     64  O   UNL     1      10.742  -8.501  -0.492  1.00  0.00    -0.275 OA
BRANCH  62  65
ATOM     65  C   UNL     1       9.014  -6.927  -1.082  1.00  0.00     0.098 C 
ATOM     66  C   UNL     1       9.611  -5.947  -0.059  1.00  0.00     0.017 C 
ATOM     67  C   UNL     1       9.337  -6.498  -2.513  1.00  0.00     0.131 C 
ATOM     68  C   UNL     1       9.174  -4.516  -0.357  1.00  0.00     0.022 C 
ATOM     69  N   UNL     1       9.022  -5.086  -2.709  1.00  0.00    -0.356 N 
ATOM     70  C   UNL     1       9.569  -4.113  -1.777  1.00  0.00     0.118 C 
BRANCH  69  71
ATOM     71  C   UNL     1       8.229  -4.700  -3.765  1.00  0.00     0.133 A 
ATOM     72  C   UNL     1       8.614  -3.657  -4.581  1.00  0.00     0.077 A 
ATOM     73  N   UNL     1       7.079  -5.357  -3.976  1.00  0.00    -0.211 NA
ATOM     74  C   UNL     1       7.787  -3.328  -5.637  1.00  0.00     0.095 A 
ATOM     75  C   UNL     1       6.310  -4.945  -5.004  1.00  0.00     0.165 A 
ATOM     76  N   UNL     1       6.621  -3.962  -5.862  1.00  0.00    -0.226 NA
BRANCH  74  77
ATOM     77  C   UNL     1       8.179  -2.276  -6.582  1.00  0.00     0.089 A 
ATOM     78  C   UNL     1       9.224  -2.475  -7.487  1.00  0.00     0.030 A 
ATOM     79  N   UNL     1       7.540  -1.083  -6.466  1.00  0.00    -0.255 NA
ATOM     80  C   UNL     1       9.626  -1.419  -8.300  1.00  0.00     0.004 A 
ATOM     81  C   UNL     1       7.941  -0.082  -7.280  1.00  0.00     0.112 A 
ATOM     82  C   UNL     1       8.973  -0.198  -8.197  1.00  0.00     0.020 A 
ENDBRANCH  74  77
BRANCH  75  83
ATOM     83  C   UNL     1       4.983  -5.543  -5.121  1.00  0.00     0.055 A 
ATOM     84  C   UNL     1       4.076  -5.501  -4.045  1.00  0.00     0.015 A 
ATOM     85  C   UNL     1       4.558  -6.153  -6.305  1.00  0.00     0.134 A 
ATOM     86  C   UNL     1       2.789  -6.035  -4.162  1.00  0.00     0.001 A 
ATOM     87  C   UNL     1       3.278  -6.697  -6.426  1.00  0.00     0.040 A 
ATOM     88  F   UNL     1       5.388  -6.255  -7.354  1.00  0.00    -0.206 F 
ATOM     89  C   UNL     1       2.389  -6.633  -5.355  1.00  0.00     0.003 A 
ENDBRANCH  75  83
ENDBRANCH  69  71
ENDBRANCH  62  65
ENDBRANCH  60  61
ENDBRANCH  59  60
ENDBRANCH  58  59
ENDBRANCH   1  58
TORSDOF 16
