REMARK SMILES O=C(CC[NH+]1CCN(C(=O)c2n[nH]c3ccccc23)CC1)NCCCCCCNC(=O)c1ccc(-c2c3nc(c(-c4ccccc4)c4ccc([nH]4)c(-c4ccccc4)c4nc(c(-c5ccccc5)c5ccc2[nH]5)C=C4)C=C3)cc1
REMARK SMILES IDX 25 1 24 2 23 3 22 4 1 5 2 6 3 8 4 9 5 10 6 11 21 12 7 14
REMARK SMILES IDX 20 15 8 16 9 17 10 18 11 19 12 20 19 21 13 22 14 23 18 24
REMARK SMILES IDX 15 26 17 27 16 28 26 29 27 30 28 31 29 32 30 33 31 35 32 36
REMARK SMILES IDX 33 37 79 38 34 39 78 40 35 41 36 42 37 43 72 44 38 45 77 46
REMARK SMILES IDX 71 47 73 48 39 49 76 50 70 51 69 52 40 54 62 55 47 56 61 57
REMARK SMILES IDX 48 58 51 59 60 60 74 61 49 62 50 63 59 65 75 66 52 67 41 68
REMARK SMILES IDX 42 69 46 70 43 71 45 72 44 73 63 74 64 75 68 76 65 77 67 78
REMARK SMILES IDX 66 79 53 80 54 81 58 82 55 83 57 84 56 85
REMARK H PARENT 22 7 5 13 13 25 29 34 73 53 51 64
REMARK Flexibility Score: inf
ROOT
ATOM      1  C   UNL     1       3.926   3.443  -1.473  1.00  0.00     0.002 C 
ENDROOT
BRANCH   1   2
ATOM      2  C   UNL     1       2.413   3.245  -1.311  1.00  0.00     0.021 C 
BRANCH   2   3
ATOM      3  C   UNL     1       1.842   1.964  -1.930  1.00  0.00     0.116 C 
BRANCH   3   4
ATOM      4  N   UNL     1       2.334   0.777  -1.262  1.00  0.00    -0.356 N 
ATOM      5  O   UNL     1       0.485   0.494   0.048  1.00  0.00    -0.275 OA
ATOM      6  C   UNL     1       1.633   0.170  -0.252  1.00  0.00     0.225 C 
ATOM      7  H   UNL     1       3.197   0.395  -1.542  1.00  0.00     0.163 HD
BRANCH   6   8
ATOM      8  C   UNL     1       2.387  -0.833   0.598  1.00  0.00     0.161 C 
BRANCH   8   9
ATOM      9  C   UNL     1       3.569  -1.592  -0.007  1.00  0.00     0.272 C 
BRANCH   9  10
ATOM     10  N   UNL     1       4.790  -0.858  -0.398  1.00  0.00    -0.332 N 
ATOM     11  C   UNL     1       5.100   0.369   0.366  1.00  0.00     0.284 C 
ATOM     12  C   UNL     1       5.976  -1.762  -0.341  1.00  0.00     0.284 C 
ATOM     13  H   UNL     1       4.586  -0.543  -1.347  1.00  0.00     0.348 HD
ATOM     14  C   UNL     1       5.639   0.173   1.783  1.00  0.00     0.181 C 
ATOM     15  C   UNL     1       6.547  -1.991   1.087  1.00  0.00     0.181 C 
ATOM     16  N   UNL     1       6.788  -0.715   1.771  1.00  0.00    -0.326 N 
ATOM     17  C   UNL     1       7.926  -0.333   2.485  1.00  0.00     0.275 C 
ATOM     18  O   UNL     1       7.975   0.742   3.087  1.00  0.00    -0.267 OA
BRANCH  17  19
ATOM     19  C   UNL     1       9.068  -1.251   2.505  1.00  0.00     0.157 A 
ATOM     20  N   UNL     1       9.517  -1.772   3.663  1.00  0.00    -0.169 NA
ATOM     21  C   UNL     1       9.843  -1.708   1.397  1.00  0.00     0.033 A 
ATOM     22  N   UNL     1      10.553  -2.538   3.296  1.00  0.00    -0.277 N 
ATOM     23  C   UNL     1      10.769  -2.585   1.947  1.00  0.00     0.066 A 
ATOM     24  C   UNL     1       9.847  -1.497   0.004  1.00  0.00     0.013 A 
ATOM     25  H   UNL     1      11.111  -3.027   3.944  1.00  0.00     0.190 HD
ATOM     26  C   UNL     1      11.688  -3.305   1.180  1.00  0.00     0.028 A 
ATOM     27  C   UNL     1      10.746  -2.221  -0.786  1.00  0.00     0.001 A 
ATOM     28  C   UNL     1      11.646  -3.115  -0.205  1.00  0.00     0.002 A 
ENDBRANCH  17  19
ENDBRANCH   9  10
ENDBRANCH   8   9
ENDBRANCH   6   8
ENDBRANCH   3   4
ENDBRANCH   2   3
ENDBRANCH   1   2
BRANCH   1  29
ATOM     29  C   UNL     1       4.470   3.314  -2.897  1.00  0.00     0.002 C 
BRANCH  29  30
ATOM     30  C   UNL     1       3.840   4.267  -3.910  1.00  0.00     0.021 C 
BRANCH  30  31
ATOM     31  C   UNL     1       4.001   5.746  -3.576  1.00  0.00     0.116 C 
BRANCH  31  32
ATOM     32  N   UNL     1       5.389   6.181  -3.623  1.00  0.00    -0.352 N 
ATOM     33  C   UNL     1       5.962   7.196  -4.350  1.00  0.00     0.251 C 
ATOM     34  H   UNL     1       6.008   5.673  -3.049  1.00  0.00     0.163 HD
ATOM     35  O   UNL     1       7.182   7.315  -4.395  1.00  0.00    -0.269 OA
BRANCH  33  36
ATOM     36  C   UNL     1       5.104   8.129  -5.112  1.00  0.00     0.039 A 
ATOM     37  C   UNL     1       5.440   8.425  -6.435  1.00  0.00     0.014 A 
ATOM     38  C   UNL     1       3.961   8.690  -4.534  1.00  0.00     0.014 A 
ATOM     39  C   UNL     1       4.584   9.214  -7.206  1.00  0.00     0.010 A 
ATOM     40  C   UNL     1       3.071   9.412  -5.324  1.00  0.00     0.010 A 
ATOM     41  C   UNL     1       3.368   9.671  -6.671  1.00  0.00    -0.014 A 
BRANCH  41  42
ATOM     42  C   UNL     1       2.373  10.376  -7.519  1.00  0.00     0.031 A 
ATOM     43  C   UNL     1       1.981  11.795  -7.222  1.00  0.00     0.074 A 
ATOM     44  C   UNL     1       1.761   9.706  -8.515  1.00  0.00     0.049 A 
ATOM     45  N   UNL     1       1.085  12.545  -7.814  1.00  0.00    -0.248 NA
ATOM     46  C   UNL     1       2.669  12.450  -6.099  1.00  0.00     0.031 C 
ATOM     47  C   UNL     1       2.015   8.309  -8.876  1.00  0.00     0.029 A 
ATOM     48  N   UNL     1       0.787  10.105  -9.396  1.00  0.00    -0.354 N 
ATOM     49  C   UNL     1       1.097  13.755  -7.133  1.00  0.00     0.074 A 
ATOM     50  C   UNL     1       2.047  13.619  -6.049  1.00  0.00     0.031 C 
ATOM     51  C   UNL     1       1.230   7.975  -9.912  1.00  0.00     0.029 A 
ATOM     52  C   UNL     1       0.387   9.114 -10.258  1.00  0.00     0.049 A 
ATOM     53  H   UNL     1       0.411  11.015  -9.408  1.00  0.00     0.167 HD
ATOM     54  C   UNL     1       0.393  14.883  -7.394  1.00  0.00     0.031 A 
ATOM     55  C   UNL     1      -0.565   9.111 -11.211  1.00  0.00     0.031 A 
ATOM     56  C   UNL     1      -0.565  15.012  -8.460  1.00  0.00     0.049 A 
ATOM     57  C   UNL     1      -1.361  10.361 -11.460  1.00  0.00     0.074 A 
ATOM     58  C   UNL     1      -1.292  16.128  -8.837  1.00  0.00     0.029 A 
ATOM     59  N   UNL     1      -0.941  13.985  -9.313  1.00  0.00    -0.354 N 
ATOM     60  N   UNL     1      -1.282  11.522 -10.858  1.00  0.00    -0.248 NA
ATOM     61  C   UNL     1      -2.369  10.301 -12.527  1.00  0.00     0.031 C 
ATOM     62  C   UNL     1      -2.154  15.760  -9.875  1.00  0.00     0.029 A 
ATOM     63  C   UNL     1      -1.917  14.431 -10.190  1.00  0.00     0.049 A 
ATOM     64  H   UNL     1      -0.570  13.073  -9.298  1.00  0.00     0.167 HD
ATOM     65  C   UNL     1      -2.219  12.336 -11.481  1.00  0.00     0.074 A 
ATOM     66  C   UNL     1      -2.837  11.542 -12.523  1.00  0.00     0.031 C 
ATOM     67  C   UNL     1      -2.538  13.626 -11.212  1.00  0.00     0.031 A 
BRANCH  54  68
ATOM     68  C   UNL     1       0.628  16.063  -6.489  1.00  0.00    -0.014 A 
ATOM     69  C   UNL     1       1.856  16.746  -6.487  1.00  0.00     0.009 A 
ATOM     70  C   UNL     1      -0.394  16.507  -5.637  1.00  0.00     0.009 A 
ATOM     71  C   UNL     1       2.071  17.815  -5.614  1.00  0.00     0.001 A 
ATOM     72  C   UNL     1      -0.188  17.598  -4.790  1.00  0.00     0.001 A 
ATOM     73  C   UNL     1       1.048  18.242  -4.769  1.00  0.00     0.000 A 
ENDBRANCH  54  68
BRANCH  55  74
ATOM     74  C   UNL     1      -0.818   7.873 -11.992  1.00  0.00    -0.014 A 
ATOM     75  C   UNL     1      -0.452   7.791 -13.344  1.00  0.00     0.009 A 
ATOM     76  C   UNL     1      -1.406   6.754 -11.380  1.00  0.00     0.009 A 
ATOM     77  C   UNL     1      -0.686   6.620 -14.070  1.00  0.00     0.001 A 
ATOM     78  C   UNL     1      -1.610   5.576 -12.099  1.00  0.00     0.001 A 
ATOM     79  C   UNL     1      -1.257   5.512 -13.446  1.00  0.00     0.000 A 
ENDBRANCH  55  74
BRANCH  67  80
ATOM     80  C   UNL     1      -3.598  14.265 -12.067  1.00  0.00    -0.014 A 
ATOM     81  C   UNL     1      -4.949  13.904 -11.944  1.00  0.00     0.009 A 
ATOM     82  C   UNL     1      -3.244  15.272 -12.979  1.00  0.00     0.009 A 
ATOM     83  C   UNL     1      -5.919  14.518 -12.738  1.00  0.00     0.001 A 
ATOM     84  C   UNL     1      -4.220  15.906 -13.749  1.00  0.00     0.001 A 
ATOM     85  C   UNL     1      -5.555  15.522 -13.635  1.00  0.00     0.000 A 
ENDBRANCH  67  80
ENDBRANCH  41  42
ENDBRANCH  33  36
ENDBRANCH  31  32
ENDBRANCH  30  31
ENDBRANCH  29  30
ENDBRANCH   1  29
TORSDOF 16
