REMARK SMILES C[C@@H](C(=O)NCCCCCCNC(=O)c1ccc(-c2c3nc(c(-c4ccccc4)c4ccc([nH]4)c(-c4ccccc4)c4nc(c(-c5ccccc5)c5ccc2[nH]5)C=C4)C=C3)cc1)c1ccc(=O)n(C(F)F)c1
REMARK SMILES IDX 8 1 7 2 6 3 5 4 3 5 4 6 2 8 1 9 63 10 64 11 72 12 65 13
REMARK SMILES IDX 68 14 66 15 67 16 69 17 70 18 71 19 9 20 10 21 11 22 12 23
REMARK SMILES IDX 13 24 14 26 15 27 16 28 62 29 17 30 61 31 18 32 19 33 20 34
REMARK SMILES IDX 55 35 21 36 60 37 54 38 56 39 22 40 59 41 53 42 52 43 23 45
REMARK SMILES IDX 45 46 30 47 44 48 31 49 34 50 43 51 57 52 32 53 33 54 42 56
REMARK SMILES IDX 58 57 35 58 24 59 25 60 29 61 26 62 28 63 27 64 46 65 47 66
REMARK SMILES IDX 51 67 48 68 50 69 49 70 36 71 37 72 41 73 38 74 40 75 39 76
REMARK H PARENT 5 7 12 25 56 44 34 55
REMARK Flexibility Score: inf
ROOT
ATOM      1  C   UNL     1       4.972  -2.105  -1.888  1.00  0.00     0.002 C 
ENDROOT
BRANCH   1   2
ATOM      2  C   UNL     1       4.255  -1.052  -1.031  1.00  0.00     0.021 C 
BRANCH   2   3
ATOM      3  C   UNL     1       3.407  -0.052  -1.821  1.00  0.00     0.116 C 
BRANCH   3   4
ATOM      4  N   UNL     1       2.339  -0.722  -2.533  1.00  0.00    -0.356 N 
ATOM      5  C   UNL     1       0.998  -0.766  -2.295  1.00  0.00     0.227 C 
ATOM      6  O   UNL     1       0.337  -1.507  -3.025  1.00  0.00    -0.274 OA
ATOM      7  H   UNL     1       2.631  -1.232  -3.323  1.00  0.00     0.163 HD
BRANCH   5   8
ATOM      8  C   UNL     1       0.377   0.103  -1.180  1.00  0.00     0.107 C 
ATOM      9  C   UNL     1       0.728  -0.402   0.222  1.00  0.00     0.023 C 
BRANCH   8  10
ATOM     10  C   UNL     1      -1.135   0.231  -1.335  1.00  0.00    -0.019 A 
ATOM     11  C   UNL     1      -1.962  -0.961  -1.253  1.00  0.00     0.012 A 
ATOM     12  C   UNL     1      -1.745   1.413  -1.534  1.00  0.00     0.099 A 
ATOM     13  C   UNL     1      -3.291  -0.897  -1.389  1.00  0.00     0.072 A 
ATOM     14  N   UNL     1      -3.123   1.512  -1.657  1.00  0.00    -0.258 N 
ATOM     15  C   UNL     1      -3.961   0.409  -1.609  1.00  0.00     0.254 A 
ATOM     16  O   UNL     1      -5.184   0.431  -1.723  1.00  0.00    -0.269 OA
BRANCH  14  17
ATOM     17  C   UNL     1      -3.751   2.791  -1.855  1.00  0.00     0.451 C 
ATOM     18  F   UNL     1      -4.397   2.841  -3.045  1.00  0.00    -0.185 F 
ATOM     19  F   UNL     1      -4.652   3.051  -0.876  1.00  0.00    -0.185 F 
ENDBRANCH  14  17
ENDBRANCH   8  10
ENDBRANCH   5   8
ENDBRANCH   3   4
ENDBRANCH   2   3
ENDBRANCH   1   2
BRANCH   1  20
ATOM     20  C   UNL     1       5.891  -1.554  -2.982  1.00  0.00     0.002 C 
BRANCH  20  21
ATOM     21  C   UNL     1       6.959  -0.567  -2.506  1.00  0.00     0.021 C 
BRANCH  21  22
ATOM     22  C   UNL     1       7.913  -1.111  -1.447  1.00  0.00     0.116 C 
BRANCH  22  23
ATOM     23  N   UNL     1       8.739  -2.196  -1.948  1.00  0.00    -0.352 N 
ATOM     24  C   UNL     1      10.086  -2.401  -1.798  1.00  0.00     0.251 C 
ATOM     25  H   UNL     1       8.263  -2.881  -2.471  1.00  0.00     0.163 HD
ATOM     26  O   UNL     1      10.643  -3.298  -2.431  1.00  0.00    -0.269 OA
BRANCH  24  27
ATOM     27  C   UNL     1      10.882  -1.543  -0.893  1.00  0.00     0.039 A 
ATOM     28  C   UNL     1      12.147  -1.118  -1.312  1.00  0.00     0.014 A 
ATOM     29  C   UNL     1      10.415  -1.194   0.378  1.00  0.00     0.014 A 
ATOM     30  C   UNL     1      12.929  -0.323  -0.472  1.00  0.00     0.010 A 
ATOM     31  C   UNL     1      11.168  -0.348   1.189  1.00  0.00     0.010 A 
ATOM     32  C   UNL     1      12.441   0.079   0.781  1.00  0.00    -0.014 A 
BRANCH  32  33
ATOM     33  C   UNL     1      13.273   0.899   1.697  1.00  0.00     0.031 A 
ATOM     34  C   UNL     1      13.767   0.312   2.992  1.00  0.00     0.074 A 
ATOM     35  C   UNL     1      13.552   2.180   1.389  1.00  0.00     0.049 A 
ATOM     36  N   UNL     1      14.483   0.874   3.934  1.00  0.00    -0.248 NA
ATOM     37  C   UNL     1      13.387  -1.081   3.277  1.00  0.00     0.031 C 
ATOM     38  C   UNL     1      13.105   2.880   0.184  1.00  0.00     0.029 A 
ATOM     39  N   UNL     1      14.283   3.120   2.070  1.00  0.00    -0.354 N 
ATOM     40  C   UNL     1      14.614  -0.086   4.930  1.00  0.00     0.074 A 
ATOM     41  C   UNL     1      13.870  -1.249   4.499  1.00  0.00     0.031 C 
ATOM     42  C   UNL     1      13.598   4.130   0.196  1.00  0.00     0.029 A 
ATOM     43  C   UNL     1      14.370   4.326   1.419  1.00  0.00     0.049 A 
ATOM     44  H   UNL     1      14.706   2.947   2.942  1.00  0.00     0.167 HD
ATOM     45  C   UNL     1      15.306  -0.015   6.092  1.00  0.00     0.031 A 
ATOM     46  C   UNL     1      15.007   5.460   1.766  1.00  0.00     0.031 A 
ATOM     47  C   UNL     1      16.072   1.127   6.511  1.00  0.00     0.049 A 
ATOM     48  C   UNL     1      15.790   5.505   3.049  1.00  0.00     0.074 A 
ATOM     49  C   UNL     1      16.859   1.271   7.641  1.00  0.00     0.029 A 
ATOM     50  N   UNL     1      16.152   2.319   5.811  1.00  0.00    -0.354 N 
ATOM     51  N   UNL     1      15.956   4.568   3.949  1.00  0.00    -0.248 NA
ATOM     52  C   UNL     1      16.487   6.763   3.351  1.00  0.00     0.031 C 
ATOM     53  C   UNL     1      17.388   2.566   7.641  1.00  0.00     0.029 A 
ATOM     54  C   UNL     1      16.965   3.211   6.490  1.00  0.00     0.049 A 
ATOM     55  H   UNL     1      15.698   2.506   4.958  1.00  0.00     0.167 HD
ATOM     56  C   UNL     1      16.804   5.109   4.906  1.00  0.00     0.074 A 
ATOM     57  C   UNL     1      17.124   6.453   4.472  1.00  0.00     0.031 C 
ATOM     58  C   UNL     1      17.280   4.541   6.040  1.00  0.00     0.031 A 
BRANCH  45  59
ATOM     59  C   UNL     1      15.256  -1.215   6.997  1.00  0.00    -0.014 A 
ATOM     60  C   UNL     1      15.922  -2.405   6.665  1.00  0.00     0.009 A 
ATOM     61  C   UNL     1      14.549  -1.146   8.207  1.00  0.00     0.009 A 
ATOM     62  C   UNL     1      15.847  -3.516   7.508  1.00  0.00     0.001 A 
ATOM     63  C   UNL     1      14.499  -2.249   9.062  1.00  0.00     0.001 A 
ATOM     64  C   UNL     1      15.139  -3.436   8.706  1.00  0.00     0.000 A 
ENDBRANCH  45  59
BRANCH  46  65
ATOM     65  C   UNL     1      14.973   6.638   0.863  1.00  0.00    -0.014 A 
ATOM     66  C   UNL     1      16.113   6.999   0.128  1.00  0.00     0.009 A 
ATOM     67  C   UNL     1      13.809   7.411   0.736  1.00  0.00     0.009 A 
ATOM     68  C   UNL     1      16.096   8.127  -0.696  1.00  0.00     0.001 A 
ATOM     69  C   UNL     1      13.788   8.524  -0.107  1.00  0.00     0.001 A 
ATOM     70  C   UNL     1      14.933   8.886  -0.815  1.00  0.00     0.000 A 
ENDBRANCH  46  65
BRANCH  58  71
ATOM     71  C   UNL     1      18.233   5.355   6.866  1.00  0.00    -0.014 A 
ATOM     72  C   UNL     1      17.788   6.435   7.644  1.00  0.00     0.009 A 
ATOM     73  C   UNL     1      19.595   5.013   6.889  1.00  0.00     0.009 A 
ATOM     74  C   UNL     1      18.695   7.177   8.403  1.00  0.00     0.001 A 
ATOM     75  C   UNL     1      20.494   5.741   7.669  1.00  0.00     0.001 A 
ATOM     76  C   UNL     1      20.045   6.827   8.417  1.00  0.00     0.000 A 
ENDBRANCH  58  71
ENDBRANCH  32  33
ENDBRANCH  24  27
ENDBRANCH  22  23
ENDBRANCH  21  22
ENDBRANCH  20  21
ENDBRANCH   1  20
TORSDOF 15
