REMARK SMILES C[NH2+][C@@]1(C(=O)NCCCCCCNC(=O)c2ccc(-c3c4nc(c(-c5ccccc5)c5ccc([nH]5)c(-c5ccccc5)c5nc(c(-c6ccccc6)c6ccc3[nH]6)C=C5)C=C4)cc2)CC[C@H](Oc2cc(C)cc(C)c2C)C1
REMARK SMILES IDX 9 1 8 2 7 3 6 4 4 5 5 6 3 8 64 9 77 10 65 11 66 12 2 13 1 14
REMARK SMILES IDX 67 17 68 18 69 19 75 20 70 21 73 22 76 23 71 24 72 25 74 26
REMARK SMILES IDX 10 27 11 28 12 29 13 30 14 31 15 33 16 34 17 35 63 36 18 37
REMARK SMILES IDX 62 38 19 39 20 40 21 41 56 42 22 43 61 44 55 45 57 46 23 47
REMARK SMILES IDX 60 48 54 49 53 50 24 52 46 53 31 54 45 55 32 56 35 57 44 58
REMARK SMILES IDX 58 59 33 60 34 61 43 63 59 64 36 65 25 66 26 67 30 68 27 69
REMARK SMILES IDX 29 70 28 71 47 72 48 73 52 74 49 75 51 76 50 77 37 78 38 79
REMARK SMILES IDX 42 80 39 81 41 82 40 83
REMARK H PARENT 6 7 2 15 2 16 13 32 57 51 35 62
REMARK Flexibility Score: inf
ROOT
ATOM      1  C   UNL     1      -5.462  -0.694   4.899  1.00  0.00     0.002 C 
ENDROOT
BRANCH   1   2
ATOM      2  C   UNL     1      -4.749  -0.973   3.574  1.00  0.00     0.021 C 
BRANCH   2   3
ATOM      3  C   UNL     1      -3.766   0.105   3.105  1.00  0.00     0.116 C 
BRANCH   3   4
ATOM      4  N   UNL     1      -2.405  -0.210   3.497  1.00  0.00    -0.351 N 
ATOM      5  C   UNL     1      -1.252  -0.466   2.828  1.00  0.00     0.281 C 
ATOM      6  O   UNL     1      -0.329  -0.875   3.556  1.00  0.00    -0.268 OA
ATOM      7  H   UNL     1      -2.291  -0.246   4.474  1.00  0.00     0.163 HD
BRANCH   5   8
ATOM      8  C   UNL     1      -1.002  -0.341   1.258  1.00  0.00     0.179 C 
ATOM      9  C   UNL     1      -1.693   0.854   0.609  1.00  0.00     0.083 C 
ATOM     10  C   UNL     1      -1.514  -1.602   0.534  1.00  0.00     0.124 C 
ATOM     11  C   UNL     1      -2.805   0.306  -0.278  1.00  0.00     0.052 C 
ATOM     12  C   UNL     1      -2.815  -1.223  -0.184  1.00  0.00     0.180 C 
BRANCH   8  13
ATOM     13  N   UNL     1       0.480  -0.183   1.149  1.00  0.00    -0.336 N 
ATOM     14  C   UNL     1       1.101  -0.149  -0.162  1.00  0.00     0.331 C 
ATOM     15  H   UNL     1       0.720   0.692   1.614  1.00  0.00     0.346 HD
ATOM     16  H   UNL     1       0.844  -1.042   1.563  1.00  0.00     0.346 HD
ENDBRANCH   8  13
BRANCH  12  17
ATOM     17  O   UNL     1      -3.852  -1.801   0.600  1.00  0.00    -0.490 OA
BRANCH  17  18
ATOM     18  C   UNL     1      -5.146  -1.865   0.165  1.00  0.00     0.123 A 
ATOM     19  C   UNL     1      -5.756  -0.873  -0.601  1.00  0.00     0.050 A 
ATOM     20  C   UNL     1      -5.922  -2.896   0.734  1.00  0.00    -0.006 A 
ATOM     21  C   UNL     1      -7.150  -0.783  -0.672  1.00  0.00    -0.047 A 
ATOM     22  C   UNL     1      -7.325  -2.841   0.621  1.00  0.00    -0.044 A 
ATOM     23  C   UNL     1      -5.262  -4.006   1.517  1.00  0.00     0.049 C 
ATOM     24  C   UNL     1      -7.786   0.393  -1.353  1.00  0.00     0.044 C 
ATOM     25  C   UNL     1      -7.925  -1.774  -0.069  1.00  0.00     0.007 A 
ATOM     26  C   UNL     1      -8.221  -3.880   1.227  1.00  0.00     0.045 C 
ENDBRANCH  17  18
ENDBRANCH  12  17
ENDBRANCH   5   8
ENDBRANCH   3   4
ENDBRANCH   2   3
ENDBRANCH   1   2
BRANCH   1  27
ATOM     27  C   UNL     1      -6.469   0.466   4.882  1.00  0.00     0.002 C 
BRANCH  27  28
ATOM     28  C   UNL     1      -7.539   0.449   3.777  1.00  0.00     0.021 C 
BRANCH  28  29
ATOM     29  C   UNL     1      -8.468  -0.770   3.736  1.00  0.00     0.116 C 
BRANCH  29  30
ATOM     30  N   UNL     1      -9.341  -0.855   4.900  1.00  0.00    -0.352 N 
ATOM     31  C   UNL     1     -10.704  -1.016   4.979  1.00  0.00     0.251 C 
ATOM     32  H   UNL     1      -8.881  -0.787   5.768  1.00  0.00     0.163 HD
ATOM     33  O   UNL     1     -11.268  -0.949   6.073  1.00  0.00    -0.269 OA
BRANCH  31  34
ATOM     34  C   UNL     1     -11.520  -1.256   3.768  1.00  0.00     0.039 A 
ATOM     35  C   UNL     1     -12.648  -0.473   3.526  1.00  0.00     0.014 A 
ATOM     36  C   UNL     1     -11.218  -2.301   2.898  1.00  0.00     0.014 A 
ATOM     37  C   UNL     1     -13.417  -0.689   2.374  1.00  0.00     0.010 A 
ATOM     38  C   UNL     1     -11.937  -2.465   1.704  1.00  0.00     0.010 A 
ATOM     39  C   UNL     1     -13.046  -1.655   1.418  1.00  0.00    -0.014 A 
BRANCH  39  40
ATOM     40  C   UNL     1     -13.796  -1.777   0.127  1.00  0.00     0.031 A 
ATOM     41  C   UNL     1     -14.468  -3.063  -0.297  1.00  0.00     0.074 A 
ATOM     42  C   UNL     1     -13.855  -0.721  -0.714  1.00  0.00     0.049 A 
ATOM     43  N   UNL     1     -15.170  -3.310  -1.379  1.00  0.00    -0.248 NA
ATOM     44  C   UNL     1     -14.311  -4.228   0.586  1.00  0.00     0.031 C 
ATOM     45  C   UNL     1     -13.201   0.572  -0.499  1.00  0.00     0.029 A 
ATOM     46  N   UNL     1     -14.506  -0.564  -1.916  1.00  0.00    -0.354 N 
ATOM     47  C   UNL     1     -15.509  -4.657  -1.321  1.00  0.00     0.074 A 
ATOM     48  C   UNL     1     -14.903  -5.184  -0.116  1.00  0.00     0.031 C 
ATOM     49  C   UNL     1     -13.530   1.404  -1.500  1.00  0.00     0.029 A 
ATOM     50  C   UNL     1     -14.384   0.697  -2.449  1.00  0.00     0.049 A 
ATOM     51  H   UNL     1     -15.012  -1.286  -2.353  1.00  0.00     0.167 HD
ATOM     52  C   UNL     1     -16.267  -5.391  -2.173  1.00  0.00     0.031 A 
ATOM     53  C   UNL     1     -14.900   1.241  -3.569  1.00  0.00     0.031 A 
ATOM     54  C   UNL     1     -16.919  -4.880  -3.353  1.00  0.00     0.049 A 
ATOM     55  C   UNL     1     -15.783   0.425  -4.469  1.00  0.00     0.074 A 
ATOM     56  C   UNL     1     -17.783  -5.541  -4.212  1.00  0.00     0.029 A 
ATOM     57  N   UNL     1     -16.784  -3.592  -3.839  1.00  0.00    -0.354 N 
ATOM     58  N   UNL     1     -16.158  -0.822  -4.346  1.00  0.00    -0.248 NA
ATOM     59  C   UNL     1     -16.320   1.102  -5.661  1.00  0.00     0.031 C 
ATOM     60  C   UNL     1     -18.140  -4.663  -5.242  1.00  0.00     0.029 A 
ATOM     61  C   UNL     1     -17.531  -3.444  -4.997  1.00  0.00     0.049 A 
ATOM     62  H   UNL     1     -16.238  -2.886  -3.424  1.00  0.00     0.167 HD
ATOM     63  C   UNL     1     -16.988  -1.075  -5.431  1.00  0.00     0.074 A 
ATOM     64  C   UNL     1     -17.076   0.152  -6.193  1.00  0.00     0.031 C 
ATOM     65  C   UNL     1     -17.618  -2.228  -5.761  1.00  0.00     0.031 A 
BRANCH  52  66
ATOM     66  C   UNL     1     -16.448  -6.852  -1.860  1.00  0.00    -0.014 A 
ATOM     67  C   UNL     1     -17.263  -7.272  -0.797  1.00  0.00     0.009 A 
ATOM     68  C   UNL     1     -15.845  -7.821  -2.678  1.00  0.00     0.009 A 
ATOM     69  C   UNL     1     -17.438  -8.633  -0.536  1.00  0.00     0.001 A 
ATOM     70  C   UNL     1     -16.044  -9.180  -2.431  1.00  0.00     0.001 A 
ATOM     71  C   UNL     1     -16.833  -9.585  -1.355  1.00  0.00     0.000 A 
ENDBRANCH  52  66
BRANCH  53  72
ATOM     72  C   UNL     1     -14.616   2.662  -3.895  1.00  0.00    -0.014 A 
ATOM     73  C   UNL     1     -15.610   3.639  -3.735  1.00  0.00     0.009 A 
ATOM     74  C   UNL     1     -13.352   3.045  -4.370  1.00  0.00     0.009 A 
ATOM     75  C   UNL     1     -15.350   4.971  -4.064  1.00  0.00     0.001 A 
ATOM     76  C   UNL     1     -13.088   4.381  -4.674  1.00  0.00     0.001 A 
ATOM     77  C   UNL     1     -14.088   5.341  -4.528  1.00  0.00     0.000 A 
ENDBRANCH  53  72
BRANCH  65  78
ATOM     78  C   UNL     1     -18.480  -2.216  -6.992  1.00  0.00    -0.014 A 
ATOM     79  C   UNL     1     -17.913  -2.210  -8.276  1.00  0.00     0.009 A 
ATOM     80  C   UNL     1     -19.878  -2.243  -6.865  1.00  0.00     0.009 A 
ATOM     81  C   UNL     1     -18.731  -2.203  -9.409  1.00  0.00     0.001 A 
ATOM     82  C   UNL     1     -20.692  -2.258  -8.000  1.00  0.00     0.001 A 
ATOM     83  C   UNL     1     -20.118  -2.230  -9.270  1.00  0.00     0.000 A 
ENDBRANCH  65  78
ENDBRANCH  39  40
ENDBRANCH  31  34
ENDBRANCH  29  30
ENDBRANCH  28  29
ENDBRANCH  27  28
ENDBRANCH   1  27
TORSDOF 16
