REMARK SMILES CC1(C)[C@H](C(=O)Nc2ccc(NC(=O)C[NH+]3CCCCC3)cc2)[C@@H]1C(=O)NCCCCCCNC(=O)c1ccc(-c2c3nc(c(-c4ccccc4)c4ccc([nH]4)c(-c4ccccc4)c4nc(c(-c5ccccc5)c5ccc2[nH]5)C=C4)C=C3)cc1
REMARK SMILES IDX 29 1 28 2 27 3 25 4 26 5 24 7 1 8 2 9 3 10 4 11 5 12 6 13
REMARK SMILES IDX 7 14 8 16 9 17 23 18 10 19 22 20 11 21 12 22 13 23 14 25
REMARK SMILES IDX 15 26 16 27 17 28 21 29 18 31 20 32 19 33 30 34 31 35 32 36
REMARK SMILES IDX 33 37 34 38 35 39 36 41 37 42 38 43 84 44 39 45 83 46 40 47
REMARK SMILES IDX 41 48 42 49 77 50 43 51 82 52 76 53 78 54 44 55 81 56 75 57
REMARK SMILES IDX 74 58 45 60 67 61 52 62 66 63 53 64 56 65 65 66 79 67 54 68
REMARK SMILES IDX 55 69 64 71 80 72 57 73 46 74 47 75 51 76 48 77 50 78 49 79
REMARK SMILES IDX 68 80 69 81 73 82 70 83 72 84 71 85 58 86 59 87 63 88 60 89
REMARK SMILES IDX 62 90 61 91
REMARK H PARENT 27 6 7 15 12 24 16 30 34 40 78 59 56 70
REMARK Flexibility Score: inf
ROOT
ATOM      1  C   UNL     1      -5.253   0.959   0.707  1.00  0.00     0.021 C 
ENDROOT
BRANCH   1   2
ATOM      2  C   UNL     1      -3.812   0.897   0.203  1.00  0.00     0.116 C 
BRANCH   2   3
ATOM      3  N   UNL     1      -2.848   1.165   1.247  1.00  0.00    -0.356 N 
ATOM      4  C   UNL     1      -1.579   0.669   1.385  1.00  0.00     0.224 C 
ATOM      5  O   UNL     1      -0.902   0.997   2.349  1.00  0.00    -0.275 OA
ATOM      6  H   UNL     1      -3.143   1.786   1.952  1.00  0.00     0.163 HD
BRANCH   4   7
ATOM      7  C   UNL     1      -1.118  -0.373   0.441  1.00  0.00     0.098 C 
ATOM      8  C   UNL     1       0.904  -1.914  -0.144  1.00  0.00     0.013 C 
ATOM      9  C   UNL     1       0.343  -0.506  -0.021  1.00  0.00    -0.011 C 
ATOM     10  C   UNL     1       1.401   0.458   0.415  1.00  0.00     0.013 C 
ATOM     11  C   UNL     1      -0.751  -0.173  -1.008  1.00  0.00     0.098 C 
BRANCH  11  12
ATOM     12  C   UNL     1      -1.113   0.982  -1.876  1.00  0.00     0.228 C 
ATOM     13  O   UNL     1      -1.704   0.686  -2.921  1.00  0.00    -0.274 OA
ATOM     14  N   UNL     1      -1.017   2.330  -1.654  1.00  0.00    -0.326 N 
ATOM     15  H   UNL     1      -1.409   2.874  -2.375  1.00  0.00     0.169 HD
BRANCH  14  16
ATOM     16  C   UNL     1      -0.482   3.082  -0.624  1.00  0.00     0.041 A 
ATOM     17  C   UNL     1      -1.353   3.759   0.216  1.00  0.00     0.028 A 
ATOM     18  C   UNL     1       0.882   3.309  -0.519  1.00  0.00     0.028 A 
ATOM     19  C   UNL     1      -0.862   4.473   1.305  1.00  0.00     0.028 A 
ATOM     20  C   UNL     1       1.377   4.062   0.553  1.00  0.00     0.028 A 
ATOM     21  C   UNL     1       0.507   4.639   1.487  1.00  0.00     0.041 A 
BRANCH  21  22
ATOM     22  N   UNL     1       1.079   5.313   2.579  1.00  0.00    -0.321 N 
ATOM     23  C   UNL     1       0.589   6.256   3.445  1.00  0.00     0.279 C 
ATOM     24  H   UNL     1       2.013   5.059   2.756  1.00  0.00     0.170 HD
ATOM     25  O   UNL     1       1.279   6.541   4.433  1.00  0.00    -0.268 OA
BRANCH  23  26
ATOM     26  C   UNL     1      -0.740   6.988   3.203  1.00  0.00     0.363 C 
BRANCH  26  27
ATOM     27  N   UNL     1      -0.824   7.473   1.815  1.00  0.00    -0.327 N 
ATOM     28  C   UNL     1      -2.195   7.713   1.369  1.00  0.00     0.262 C 
ATOM     29  C   UNL     1       0.033   8.639   1.577  1.00  0.00     0.262 C 
ATOM     30  H   UNL     1      -0.465   6.711   1.241  1.00  0.00     0.348 HD
ATOM     31  C   UNL     1      -2.193   7.931  -0.146  1.00  0.00     0.062 C 
ATOM     32  C   UNL     1       0.101   8.939   0.079  1.00  0.00     0.062 C 
ATOM     33  C   UNL     1      -1.288   9.097  -0.533  1.00  0.00     0.012 C 
ENDBRANCH  26  27
ENDBRANCH  23  26
ENDBRANCH  21  22
ENDBRANCH  14  16
ENDBRANCH  11  12
ENDBRANCH   4   7
ENDBRANCH   2   3
ENDBRANCH   1   2
BRANCH   1  34
ATOM     34  C   UNL     1      -5.722   2.316   1.250  1.00  0.00     0.002 C 
BRANCH  34  35
ATOM     35  C   UNL     1      -5.586   3.521   0.316  1.00  0.00     0.002 C 
BRANCH  35  36
ATOM     36  C   UNL     1      -6.164   3.359  -1.088  1.00  0.00     0.021 C 
BRANCH  36  37
ATOM     37  C   UNL     1      -7.632   2.955  -1.145  1.00  0.00     0.116 C 
BRANCH  37  38
ATOM     38  N   UNL     1      -8.514   3.932  -0.529  1.00  0.00    -0.352 N 
ATOM     39  C   UNL     1      -9.691   4.460  -1.000  1.00  0.00     0.251 C 
ATOM     40  H   UNL     1      -8.227   4.262   0.353  1.00  0.00     0.163 HD
ATOM     41  O   UNL     1     -10.245   5.371  -0.393  1.00  0.00    -0.269 OA
BRANCH  39  42
ATOM     42  C   UNL     1     -10.275   3.954  -2.262  1.00  0.00     0.039 A 
ATOM     43  C   UNL     1     -10.741   4.876  -3.204  1.00  0.00     0.014 A 
ATOM     44  C   UNL     1     -10.358   2.584  -2.522  1.00  0.00     0.014 A 
ATOM     45  C   UNL     1     -11.224   4.426  -4.435  1.00  0.00     0.010 A 
ATOM     46  C   UNL     1     -10.772   2.140  -3.775  1.00  0.00     0.010 A 
ATOM     47  C   UNL     1     -11.208   3.056  -4.744  1.00  0.00    -0.014 A 
BRANCH  47  48
ATOM     48  C   UNL     1     -11.639   2.562  -6.076  1.00  0.00     0.031 A 
ATOM     49  C   UNL     1     -12.845   1.672  -6.199  1.00  0.00     0.074 A 
ATOM     50  C   UNL     1     -10.904   2.855  -7.166  1.00  0.00     0.049 A 
ATOM     51  N   UNL     1     -13.332   1.085  -7.262  1.00  0.00    -0.248 NA
ATOM     52  C   UNL     1     -13.586   1.386  -4.960  1.00  0.00     0.031 C 
ATOM     53  C   UNL     1      -9.692   3.676  -7.178  1.00  0.00     0.029 A 
ATOM     54  N   UNL     1     -11.068   2.486  -8.478  1.00  0.00    -0.354 N 
ATOM     55  C   UNL     1     -14.422   0.346  -6.818  1.00  0.00     0.074 A 
ATOM     56  C   UNL     1     -14.496   0.522  -5.384  1.00  0.00     0.031 C 
ATOM     57  C   UNL     1      -9.236   3.768  -8.438  1.00  0.00     0.029 A 
ATOM     58  C   UNL     1     -10.098   2.982  -9.315  1.00  0.00     0.049 A 
ATOM     59  H   UNL     1     -11.810   1.918  -8.790  1.00  0.00     0.167 HD
ATOM     60  C   UNL     1     -15.293  -0.398  -7.540  1.00  0.00     0.031 A 
ATOM     61  C   UNL     1      -9.918   2.818 -10.638  1.00  0.00     0.031 A 
ATOM     62  C   UNL     1     -15.228  -0.565  -8.967  1.00  0.00     0.049 A 
ATOM     63  C   UNL     1     -10.890   1.976 -11.415  1.00  0.00     0.074 A 
ATOM     64  C   UNL     1     -16.099  -1.252  -9.795  1.00  0.00     0.029 A 
ATOM     65  N   UNL     1     -14.234  -0.039  -9.777  1.00  0.00    -0.354 N 
ATOM     66  N   UNL     1     -11.952   1.336 -10.989  1.00  0.00    -0.248 NA
ATOM     67  C   UNL     1     -10.643   1.841 -12.858  1.00  0.00     0.031 C 
ATOM     68  C   UNL     1     -15.605  -1.181 -11.102  1.00  0.00     0.029 A 
ATOM     69  C   UNL     1     -14.456  -0.406 -11.094  1.00  0.00     0.049 A 
ATOM     70  H   UNL     1     -13.482   0.513  -9.463  1.00  0.00     0.167 HD
ATOM     71  C   UNL     1     -12.514   0.746 -12.114  1.00  0.00     0.074 A 
ATOM     72  C   UNL     1     -11.683   1.115 -13.242  1.00  0.00     0.031 C 
ATOM     73  C   UNL     1     -13.620  -0.032 -12.204  1.00  0.00     0.031 A 
BRANCH  60  74
ATOM     74  C   UNL     1     -16.392  -1.096  -6.787  1.00  0.00    -0.014 A 
ATOM     75  C   UNL     1     -17.450  -0.375  -6.211  1.00  0.00     0.009 A 
ATOM     76  C   UNL     1     -16.383  -2.495  -6.676  1.00  0.00     0.009 A 
ATOM     77  C   UNL     1     -18.456  -1.038  -5.505  1.00  0.00     0.001 A 
ATOM     78  C   UNL     1     -17.406  -3.158  -5.994  1.00  0.00     0.001 A 
ATOM     79  C   UNL     1     -18.436  -2.428  -5.401  1.00  0.00     0.000 A 
ENDBRANCH  60  74
BRANCH  61  80
ATOM     80  C   UNL     1      -8.776   3.480 -11.321  1.00  0.00    -0.014 A 
ATOM     81  C   UNL     1      -8.997   4.565 -12.182  1.00  0.00     0.009 A 
ATOM     82  C   UNL     1      -7.462   3.030 -11.117  1.00  0.00     0.009 A 
ATOM     83  C   UNL     1      -7.928   5.172 -12.845  1.00  0.00     0.001 A 
ATOM     84  C   UNL     1      -6.392   3.657 -11.760  1.00  0.00     0.001 A 
ATOM     85  C   UNL     1      -6.626   4.721 -12.630  1.00  0.00     0.000 A 
ENDBRANCH  61  80
BRANCH  73  86
ATOM     86  C   UNL     1     -14.015  -0.508 -13.573  1.00  0.00    -0.014 A 
ATOM     87  C   UNL     1     -13.292  -1.516 -14.229  1.00  0.00     0.009 A 
ATOM     88  C   UNL     1     -15.151   0.032 -14.194  1.00  0.00     0.009 A 
ATOM     89  C   UNL     1     -13.685  -1.952 -15.496  1.00  0.00     0.001 A 
ATOM     90  C   UNL     1     -15.557  -0.425 -15.449  1.00  0.00     0.001 A 
ATOM     91  C   UNL     1     -14.818  -1.411 -16.102  1.00  0.00     0.000 A 
ENDBRANCH  73  86
ENDBRANCH  47  48
ENDBRANCH  39  42
ENDBRANCH  37  38
ENDBRANCH  36  37
ENDBRANCH  35  36
ENDBRANCH  34  35
ENDBRANCH   1  34
TORSDOF 18
