REMARK SMILES Cc1ccc(Cl)c(Nc2ccccc2C(=O)NCC(=O)NCCCCCCNC(=O)c2ccc(-c3c4nc(c(-c5ccccc5)c5ccc([nH]5)c(-c5ccccc5)c5nc(c(-c6ccccc6)c6ccc3[nH]6)C=C5)C=C4)cc2)c1Cl
REMARK SMILES IDX 23 1 22 2 21 3 19 4 20 5 18 7 17 8 15 9 16 10 14 12 9 13
REMARK SMILES IDX 10 14 11 15 13 16 12 17 8 18 7 20 1 21 2 22 3 23 79 24 4 25
REMARK SMILES IDX 80 26 5 27 6 28 24 29 25 30 26 31 27 32 28 33 29 34 30 36
REMARK SMILES IDX 31 37 32 38 78 39 33 40 77 41 34 42 35 43 36 44 71 45 37 46
REMARK SMILES IDX 76 47 70 48 72 49 38 50 75 51 69 52 68 53 39 55 61 56 46 57
REMARK SMILES IDX 60 58 47 59 50 60 59 61 73 62 48 63 49 64 58 66 74 67 51 68
REMARK SMILES IDX 40 69 41 70 45 71 42 72 44 73 43 74 62 75 63 76 67 77 64 78
REMARK SMILES IDX 66 79 65 80 52 81 53 82 57 83 54 84 56 85 55 86
REMARK H PARENT 21 6 17 11 8 19 28 35 72 54 50 65
REMARK Flexibility Score: inf
ROOT
ATOM      1  C   UNL     1      -1.498  -3.676   3.977  1.00  0.00     0.021 C 
ENDROOT
BRANCH   1   2
ATOM      2  C   UNL     1      -1.710  -3.490   2.479  1.00  0.00     0.116 C 
BRANCH   2   3
ATOM      3  N   UNL     1      -2.576  -2.361   2.264  1.00  0.00    -0.355 N 
ATOM      4  C   UNL     1      -2.207  -1.051   2.258  1.00  0.00     0.239 C 
ATOM      5  O   UNL     1      -3.095  -0.195   2.306  1.00  0.00    -0.273 OA
ATOM      6  H   UNL     1      -3.528  -2.555   2.106  1.00  0.00     0.163 HD
BRANCH   4   7
ATOM      7  C   UNL     1      -0.773  -0.680   1.890  1.00  0.00     0.216 C 
BRANCH   7   8
ATOM      8  N   UNL     1       0.432  -1.242   2.459  1.00  0.00    -0.343 N 
ATOM      9  C   UNL     1       1.517  -1.858   1.873  1.00  0.00     0.253 C 
ATOM     10  O   UNL     1       2.583  -1.698   2.481  1.00  0.00    -0.269 OA
ATOM     11  H   UNL     1       0.487  -1.172   3.440  1.00  0.00     0.164 HD
BRANCH   9  12
ATOM     12  C   UNL     1       1.492  -2.868   0.747  1.00  0.00     0.063 A 
ATOM     13  C   UNL     1       0.784  -2.909  -0.478  1.00  0.00     0.051 A 
ATOM     14  C   UNL     1       0.900  -4.081  -1.277  1.00  0.00     0.027 A 
ATOM     15  C   UNL     1       1.735  -5.146  -0.946  1.00  0.00     0.002 A 
ATOM     16  C   UNL     1       2.345  -3.968   1.048  1.00  0.00     0.016 A 
ATOM     17  C   UNL     1       2.481  -5.079   0.214  1.00  0.00     0.001 A 
BRANCH  13  18
ATOM     18  N   UNL     1       0.067  -1.879  -1.123  1.00  0.00    -0.352 N 
ATOM     19  H   UNL     1      -0.706  -2.209  -1.636  1.00  0.00     0.167 HD
BRANCH  18  20
ATOM     20  C   UNL     1       0.221  -0.471  -1.192  1.00  0.00     0.077 A 
ATOM     21  C   UNL     1       2.690   2.260  -0.154  1.00  0.00     0.046 C 
ATOM     22  C   UNL     1       1.430   1.569  -0.595  1.00  0.00    -0.030 A 
ATOM     23  C   UNL     1       0.224   2.286  -0.614  1.00  0.00     0.006 A 
ATOM     24  C   UNL     1       1.429   0.201  -0.932  1.00  0.00     0.069 A 
ATOM     25  C   UNL     1      -0.961   1.669  -1.007  1.00  0.00     0.023 A 
ATOM     26  Cl  UNL     1       2.952  -0.618  -1.115  1.00  0.00    -0.082 Cl
ATOM     27  C   UNL     1      -0.959   0.310  -1.306  1.00  0.00     0.066 A 
ATOM     28  Cl  UNL     1      -2.482  -0.440  -1.670  1.00  0.00    -0.082 Cl
ENDBRANCH  18  20
ENDBRANCH  13  18
ENDBRANCH   9  12
ENDBRANCH   7   8
ENDBRANCH   4   7
ENDBRANCH   2   3
ENDBRANCH   1   2
BRANCH   1  29
ATOM     29  C   UNL     1      -2.799  -4.071   4.687  1.00  0.00     0.002 C 
BRANCH  29  30
ATOM     30  C   UNL     1      -3.414  -5.372   4.161  1.00  0.00     0.002 C 
BRANCH  30  31
ATOM     31  C   UNL     1      -2.459  -6.566   4.200  1.00  0.00     0.021 C 
BRANCH  31  32
ATOM     32  C   UNL     1      -1.884  -6.837   5.584  1.00  0.00     0.116 C 
BRANCH  32  33
ATOM     33  N   UNL     1      -2.935  -7.116   6.548  1.00  0.00    -0.352 N 
ATOM     34  C   UNL     1      -3.055  -8.183   7.399  1.00  0.00     0.251 C 
ATOM     35  H   UNL     1      -3.658  -6.449   6.597  1.00  0.00     0.163 HD
ATOM     36  O   UNL     1      -4.107  -8.407   7.982  1.00  0.00    -0.269 OA
BRANCH  34  37
ATOM     37  C   UNL     1      -1.892  -9.068   7.591  1.00  0.00     0.039 A 
ATOM     38  C   UNL     1      -2.075 -10.450   7.532  1.00  0.00     0.014 A 
ATOM     39  C   UNL     1      -0.623  -8.523   7.812  1.00  0.00     0.014 A 
ATOM     40  C   UNL     1      -0.970 -11.290   7.653  1.00  0.00     0.010 A 
ATOM     41  C   UNL     1       0.485  -9.358   7.854  1.00  0.00     0.010 A 
ATOM     42  C   UNL     1       0.320 -10.749   7.788  1.00  0.00    -0.014 A 
BRANCH  42  43
ATOM     43  C   UNL     1       1.510 -11.626   7.871  1.00  0.00     0.031 A 
ATOM     44  C   UNL     1       2.340 -11.652   9.122  1.00  0.00     0.074 A 
ATOM     45  C   UNL     1       1.877 -12.350   6.797  1.00  0.00     0.049 A 
ATOM     46  N   UNL     1       3.437 -12.321   9.371  1.00  0.00    -0.248 NA
ATOM     47  C   UNL     1       1.896 -10.790  10.230  1.00  0.00     0.031 C 
ATOM     48  C   UNL     1       1.178 -12.371   5.510  1.00  0.00     0.029 A 
ATOM     49  N   UNL     1       2.934 -13.203   6.617  1.00  0.00    -0.354 N 
ATOM     50  C   UNL     1       3.820 -11.950  10.653  1.00  0.00     0.074 A 
ATOM     51  C   UNL     1       2.874 -10.955  11.107  1.00  0.00     0.031 C 
ATOM     52  C   UNL     1       1.810 -13.219   4.683  1.00  0.00     0.029 A 
ATOM     53  C   UNL     1       2.977 -13.767   5.366  1.00  0.00     0.049 A 
ATOM     54  H   UNL     1       3.599 -13.394   7.317  1.00  0.00     0.167 HD
ATOM     55  C   UNL     1       4.855 -12.411  11.395  1.00  0.00     0.031 A 
ATOM     56  C   UNL     1       3.861 -14.626   4.827  1.00  0.00     0.031 A 
ATOM     57  C   UNL     1       5.794 -13.400  10.939  1.00  0.00     0.049 A 
ATOM     58  C   UNL     1       5.010 -15.116   5.662  1.00  0.00     0.074 A 
ATOM     59  C   UNL     1       6.844 -13.977  11.631  1.00  0.00     0.029 A 
ATOM     60  N   UNL     1       5.801 -13.951   9.666  1.00  0.00    -0.354 N 
ATOM     61  N   UNL     1       5.316 -14.815   6.901  1.00  0.00    -0.248 NA
ATOM     62  C   UNL     1       5.925 -16.075   5.029  1.00  0.00     0.031 C 
ATOM     63  C   UNL     1       7.521 -14.836  10.758  1.00  0.00     0.029 A 
ATOM     64  C   UNL     1       6.855 -14.841   9.543  1.00  0.00     0.049 A 
ATOM     65  H   UNL     1       5.153 -13.742   8.956  1.00  0.00     0.167 HD
ATOM     66  C   UNL     1       6.446 -15.563   7.204  1.00  0.00     0.074 A 
ATOM     67  C   UNL     1       6.758 -16.345   6.024  1.00  0.00     0.031 C 
ATOM     68  C   UNL     1       7.159 -15.602   8.357  1.00  0.00     0.031 A 
BRANCH  55  69
ATOM     69  C   UNL     1       5.026 -11.828  12.771  1.00  0.00    -0.014 A 
ATOM     70  C   UNL     1       4.094 -12.080  13.792  1.00  0.00     0.009 A 
ATOM     71  C   UNL     1       6.136 -11.018  13.054  1.00  0.00     0.009 A 
ATOM     72  C   UNL     1       4.244 -11.492  15.050  1.00  0.00     0.001 A 
ATOM     73  C   UNL     1       6.302 -10.459  14.323  1.00  0.00     0.001 A 
ATOM     74  C   UNL     1       5.349 -10.685  15.315  1.00  0.00     0.000 A 
ENDBRANCH  55  69
BRANCH  56  75
ATOM     75  C   UNL     1       3.676 -15.090   3.428  1.00  0.00    -0.014 A 
ATOM     76  C   UNL     1       3.264 -16.404   3.161  1.00  0.00     0.009 A 
ATOM     77  C   UNL     1       3.883 -14.212   2.352  1.00  0.00     0.009 A 
ATOM     78  C   UNL     1       3.080 -16.835   1.845  1.00  0.00     0.001 A 
ATOM     79  C   UNL     1       3.672 -14.637   1.039  1.00  0.00     0.001 A 
ATOM     80  C   UNL     1       3.278 -15.950   0.786  1.00  0.00     0.000 A 
ENDBRANCH  56  75
BRANCH  68  81
ATOM     81  C   UNL     1       8.332 -16.540   8.406  1.00  0.00    -0.014 A 
ATOM     82  C   UNL     1       9.510 -16.274   7.691  1.00  0.00     0.009 A 
ATOM     83  C   UNL     1       8.271 -17.686   9.216  1.00  0.00     0.009 A 
ATOM     84  C   UNL     1      10.591 -17.156   7.760  1.00  0.00     0.001 A 
ATOM     85  C   UNL     1       9.364 -18.548   9.306  1.00  0.00     0.001 A 
ATOM     86  C   UNL     1      10.519 -18.288   8.571  1.00  0.00     0.000 A 
ENDBRANCH  68  81
ENDBRANCH  42  43
ENDBRANCH  34  37
ENDBRANCH  32  33
ENDBRANCH  31  32
ENDBRANCH  30  31
ENDBRANCH  29  30
ENDBRANCH   1  29
TORSDOF 17
