REMARK SMILES Cc1cc2c(=O)c3ccccc3oc2c(C(=O)NCCCCCCNC(=O)c2ccc(-c3c4nc(c(-c5ccccc5)c5ccc([nH]5)c(-c5ccccc5)c5nc(c(-c6ccccc6)c6ccc3[nH]6)C=C5)C=C4)cc2)c1C
REMARK SMILES IDX 22 1 21 2 20 3 19 4 18 5 16 6 17 7 15 9 1 10 2 11 3 12 76 13
REMARK SMILES IDX 4 14 77 15 5 16 14 17 6 18 7 19 13 20 8 21 12 22 9 23 11 24
REMARK SMILES IDX 10 25 23 26 24 27 25 28 26 29 27 31 28 32 29 33 75 34 30 35
REMARK SMILES IDX 74 36 31 37 32 38 33 39 68 40 34 41 73 42 67 43 69 44 35 45
REMARK SMILES IDX 72 46 66 47 65 48 36 50 58 51 43 52 57 53 44 54 47 55 56 56
REMARK SMILES IDX 70 57 45 58 46 59 55 61 71 62 48 63 37 64 38 65 42 66 39 67
REMARK SMILES IDX 41 68 40 69 59 70 60 71 64 72 61 73 63 74 62 75 49 76 50 77
REMARK SMILES IDX 54 78 51 79 53 80 52 81
REMARK H PARENT 18 8 25 30 69 49 47 60
REMARK Flexibility Score: inf
ROOT
ATOM      1  C   UNL     1       1.603  -7.277  -0.845  1.00  0.00     0.002 C 
ENDROOT
BRANCH   1   2
ATOM      2  C   UNL     1       0.136  -7.011  -1.202  1.00  0.00     0.002 C 
BRANCH   2   3
ATOM      3  C   UNL     1      -0.415  -5.595  -1.012  1.00  0.00     0.021 C 
BRANCH   3   4
ATOM      4  C   UNL     1       0.388  -4.416  -1.549  1.00  0.00     0.116 C 
BRANCH   4   5
ATOM      5  N   UNL     1       0.280  -4.093  -2.949  1.00  0.00    -0.352 N 
ATOM      6  C   UNL     1       0.446  -2.895  -3.626  1.00  0.00     0.255 C 
ATOM      7  O   UNL     1       0.618  -3.019  -4.843  1.00  0.00    -0.269 OA
ATOM      8  H   UNL     1       0.048  -4.857  -3.525  1.00  0.00     0.163 HD
BRANCH   6   9
ATOM      9  C   UNL     1       0.369  -1.491  -3.031  1.00  0.00     0.086 A 
ATOM     10  C   UNL     1       1.024   0.743   0.072  1.00  0.00     0.044 C 
ATOM     11  C   UNL     1       0.653   0.274  -1.314  1.00  0.00    -0.046 A 
ATOM     12  C   UNL     1       0.101   1.216  -2.177  1.00  0.00     0.019 A 
ATOM     13  C   UNL     1       0.894  -1.058  -1.771  1.00  0.00    -0.032 A 
ATOM     14  C   UNL     1      -0.285   0.844  -3.456  1.00  0.00     0.066 A 
ATOM     15  C   UNL     1       1.788  -1.884  -0.882  1.00  0.00     0.045 C 
ATOM     16  C   UNL     1      -0.756   1.894  -4.372  1.00  0.00     0.200 A 
ATOM     17  C   UNL     1      -0.208  -0.489  -3.879  1.00  0.00     0.151 A 
ATOM     18  O   UNL     1      -0.817   3.069  -4.029  1.00  0.00    -0.288 OA
ATOM     19  C   UNL     1      -1.121   1.478  -5.721  1.00  0.00     0.065 A 
ATOM     20  O   UNL     1      -0.695  -0.851  -5.125  1.00  0.00    -0.455 OA
ATOM     21  C   UNL     1      -1.510   2.423  -6.679  1.00  0.00     0.016 A 
ATOM     22  C   UNL     1      -1.071   0.122  -6.021  1.00  0.00     0.138 A 
ATOM     23  C   UNL     1      -1.862   1.998  -7.957  1.00  0.00     0.001 A 
ATOM     24  C   UNL     1      -1.427  -0.297  -7.304  1.00  0.00     0.048 A 
ATOM     25  C   UNL     1      -1.822   0.638  -8.269  1.00  0.00     0.004 A 
ENDBRANCH   6   9
ENDBRANCH   4   5
ENDBRANCH   3   4
ENDBRANCH   2   3
ENDBRANCH   1   2
BRANCH   1  26
ATOM     26  C   UNL     1       2.095  -6.802   0.524  1.00  0.00     0.021 C 
BRANCH  26  27
ATOM     27  C   UNL     1       1.313  -7.294   1.736  1.00  0.00     0.116 C 
BRANCH  27  28
ATOM     28  N   UNL     1       1.248  -8.743   1.841  1.00  0.00    -0.352 N 
ATOM     29  C   UNL     1       1.502  -9.570   2.915  1.00  0.00     0.251 C 
ATOM     30  H   UNL     1       0.979  -9.207   1.016  1.00  0.00     0.163 HD
ATOM     31  O   UNL     1       1.503 -10.781   2.769  1.00  0.00    -0.269 OA
BRANCH  29  32
ATOM     32  C   UNL     1       1.812  -8.987   4.243  1.00  0.00     0.039 A 
ATOM     33  C   UNL     1       1.098  -7.895   4.733  1.00  0.00     0.014 A 
ATOM     34  C   UNL     1       2.847  -9.541   5.005  1.00  0.00     0.014 A 
ATOM     35  C   UNL     1       1.539  -7.240   5.877  1.00  0.00     0.010 A 
ATOM     36  C   UNL     1       3.224  -8.939   6.211  1.00  0.00     0.010 A 
ATOM     37  C   UNL     1       2.614  -7.746   6.627  1.00  0.00    -0.014 A 
BRANCH  37  38
ATOM     38  C   UNL     1       3.078  -6.993   7.824  1.00  0.00     0.031 A 
ATOM     39  C   UNL     1       4.459  -6.393   7.874  1.00  0.00     0.074 A 
ATOM     40  C   UNL     1       2.215  -6.773   8.836  1.00  0.00     0.049 A 
ATOM     41  N   UNL     1       4.984  -5.615   8.789  1.00  0.00    -0.248 NA
ATOM     42  C   UNL     1       5.373  -6.700   6.761  1.00  0.00     0.031 C 
ATOM     43  C   UNL     1       0.848  -7.293   8.900  1.00  0.00     0.029 A 
ATOM     44  N   UNL     1       2.338  -6.020   9.978  1.00  0.00    -0.354 N 
ATOM     45  C   UNL     1       6.283  -5.352   8.370  1.00  0.00     0.074 A 
ATOM     46  C   UNL     1       6.485  -6.084   7.140  1.00  0.00     0.031 C 
ATOM     47  C   UNL     1       0.235  -6.783   9.977  1.00  0.00     0.029 A 
ATOM     48  C   UNL     1       1.182  -5.957  10.719  1.00  0.00     0.049 A 
ATOM     49  H   UNL     1       3.173  -5.569  10.240  1.00  0.00     0.167 HD
ATOM     50  C   UNL     1       7.216  -4.559   8.947  1.00  0.00     0.031 A 
ATOM     51  C   UNL     1       0.904  -5.307  11.867  1.00  0.00     0.031 A 
ATOM     52  C   UNL     1       7.010  -3.826  10.169  1.00  0.00     0.049 A 
ATOM     53  C   UNL     1       1.968  -4.459  12.503  1.00  0.00     0.074 A 
ATOM     54  C   UNL     1       7.896  -2.987  10.825  1.00  0.00     0.029 A 
ATOM     55  N   UNL     1       5.843  -3.837  10.917  1.00  0.00    -0.354 N 
ATOM     56  N   UNL     1       3.182  -4.205  12.079  1.00  0.00    -0.248 NA
ATOM     57  C   UNL     1       1.621  -3.795  13.768  1.00  0.00     0.031 C 
ATOM     58  C   UNL     1       7.290  -2.547  12.002  1.00  0.00     0.029 A 
ATOM     59  C   UNL     1       5.994  -3.036  12.037  1.00  0.00     0.049 A 
ATOM     60  H   UNL     1       5.028  -4.340  10.687  1.00  0.00     0.167 HD
ATOM     61  C   UNL     1       3.734  -3.331  13.007  1.00  0.00     0.074 A 
ATOM     62  C   UNL     1       2.716  -3.084  14.007  1.00  0.00     0.031 C 
ATOM     63  C   UNL     1       4.974  -2.784  13.023  1.00  0.00     0.031 A 
BRANCH  50  64
ATOM     64  C   UNL     1       8.560  -4.435   8.277  1.00  0.00    -0.014 A 
ATOM     65  C   UNL     1       9.708  -4.927   8.920  1.00  0.00     0.009 A 
ATOM     66  C   UNL     1       8.709  -3.740   7.067  1.00  0.00     0.009 A 
ATOM     67  C   UNL     1      10.976  -4.707   8.378  1.00  0.00     0.001 A 
ATOM     68  C   UNL     1       9.976  -3.551   6.509  1.00  0.00     0.001 A 
ATOM     69  C   UNL     1      11.109  -4.024   7.171  1.00  0.00     0.000 A 
ENDBRANCH  50  64
BRANCH  51  70
ATOM     70  C   UNL     1      -0.458  -5.419  12.456  1.00  0.00    -0.014 A 
ATOM     71  C   UNL     1      -0.928  -6.653  12.938  1.00  0.00     0.009 A 
ATOM     72  C   UNL     1      -1.319  -4.312  12.488  1.00  0.00     0.009 A 
ATOM     73  C   UNL     1      -2.237  -6.785  13.404  1.00  0.00     0.001 A 
ATOM     74  C   UNL     1      -2.617  -4.438  12.991  1.00  0.00     0.001 A 
ATOM     75  C   UNL     1      -3.079  -5.676  13.435  1.00  0.00     0.000 A 
ENDBRANCH  51  70
BRANCH  63  76
ATOM     76  C   UNL     1       5.310  -1.823  14.132  1.00  0.00    -0.014 A 
ATOM     77  C   UNL     1       5.567  -0.476  13.824  1.00  0.00     0.009 A 
ATOM     78  C   UNL     1       5.478  -2.258  15.455  1.00  0.00     0.009 A 
ATOM     79  C   UNL     1       6.000   0.410  14.811  1.00  0.00     0.001 A 
ATOM     80  C   UNL     1       5.875  -1.360  16.449  1.00  0.00     0.001 A 
ATOM     81  C   UNL     1       6.146  -0.031  16.124  1.00  0.00     0.000 A 
ENDBRANCH  63  76
ENDBRANCH  37  38
ENDBRANCH  29  32
ENDBRANCH  27  28
ENDBRANCH  26  27
ENDBRANCH   1  26
TORSDOF 13
