REMARK SMILES C[N@@H+]1CC[C@H]2CN(C(=O)c3csc(-c4ccncc4)n3)C[C@@]2(C(=O)NCCCCCCNC(=O)c2ccc(-c3c4nc(c(-c5ccccc5)c5ccc([nH]5)c(-c5ccccc5)c5nc(c(-c6ccccc6)c6ccc3[nH]6)C=C5)C=C4)cc2)C1
REMARK SMILES IDX 28 1 27 2 26 3 25 4 23 5 24 6 22 8 1 9 2 10 3 11 83 12 4 14
REMARK SMILES IDX 5 15 21 16 6 17 7 18 8 19 9 20 10 21 11 22 20 23 12 24 13 25
REMARK SMILES IDX 14 26 15 27 19 28 16 29 18 30 17 31 29 32 30 33 31 34 32 35
REMARK SMILES IDX 33 36 34 38 35 39 36 40 82 41 37 42 81 43 38 44 39 45 40 46
REMARK SMILES IDX 75 47 41 48 80 49 74 50 76 51 42 52 79 53 73 54 72 55 43 57
REMARK SMILES IDX 65 58 50 59 64 60 51 61 54 62 63 63 77 64 52 65 53 66 62 68
REMARK SMILES IDX 78 69 55 70 44 71 45 72 49 73 46 74 48 75 47 76 66 77 67 78
REMARK SMILES IDX 71 79 68 80 70 81 69 82 56 83 57 84 61 85 58 86 60 87 59 88
REMARK H PARENT 25 7 2 13 32 37 76 56 54 67
REMARK Flexibility Score: inf
ROOT
ATOM      1  C   UNL     1      -4.016   2.019   1.383  1.00  0.00     0.002 C 
ENDROOT
BRANCH   1   2
ATOM      2  C   UNL     1      -3.219   2.992   0.516  1.00  0.00     0.021 C 
BRANCH   2   3
ATOM      3  C   UNL     1      -2.053   3.696   1.211  1.00  0.00     0.116 C 
BRANCH   3   4
ATOM      4  N   UNL     1      -0.784   2.961   1.398  1.00  0.00    -0.355 N 
ATOM      5  C   UNL     1       0.436   2.918   0.724  1.00  0.00     0.234 C 
ATOM      6  O   UNL     1       1.419   2.528   1.358  1.00  0.00    -0.274 OA
ATOM      7  H   UNL     1      -0.804   2.364   2.180  1.00  0.00     0.163 HD
BRANCH   5   8
ATOM      8  C   UNL     1       0.504   3.177  -0.796  1.00  0.00     0.120 C 
ATOM      9  C   UNL     1       0.949  -0.262  -0.611  1.00  0.00     0.332 C 
ATOM     10  N   UNL     1       0.739   0.738  -1.656  1.00  0.00    -0.336 N 
ATOM     11  C   UNL     1       1.989   1.036  -2.347  1.00  0.00     0.262 C 
ATOM     12  C   UNL     1      -0.162   1.883  -1.362  1.00  0.00     0.281 C 
ATOM     13  H   UNL     1       0.128   0.287  -2.337  1.00  0.00     0.347 HD
ATOM     14  C   UNL     1       2.049   2.479  -2.774  1.00  0.00     0.068 C 
ATOM     15  C   UNL     1       1.869   3.399  -1.555  1.00  0.00     0.037 C 
ATOM     16  C   UNL     1      -0.137   4.568  -0.944  1.00  0.00     0.143 C 
ATOM     17  C   UNL     1       1.871   4.823  -2.129  1.00  0.00     0.125 C 
ATOM     18  N   UNL     1       0.874   5.500  -1.381  1.00  0.00    -0.336 N 
BRANCH  18  19
ATOM     19  C   UNL     1       0.922   6.872  -1.172  1.00  0.00     0.273 C 
ATOM     20  O   UNL     1       1.563   7.612  -1.914  1.00  0.00    -0.267 OA
BRANCH  19  21
ATOM     21  C   UNL     1       0.203   7.419  -0.006  1.00  0.00     0.139 A 
ATOM     22  C   UNL     1      -0.563   8.570  -0.057  1.00  0.00     0.101 A 
ATOM     23  N   UNL     1       0.339   6.886   1.286  1.00  0.00    -0.231 NA
ATOM     24  S   UNL     1      -1.148   8.973   1.501  1.00  0.00    -0.122 S 
ATOM     25  C   UNL     1      -0.283   7.642   2.168  1.00  0.00     0.124 A 
BRANCH  25  26
ATOM     26  C   UNL     1      -0.232   7.471   3.624  1.00  0.00     0.013 A 
ATOM     27  C   UNL     1       0.993   7.565   4.293  1.00  0.00     0.031 A 
ATOM     28  C   UNL     1      -1.386   7.234   4.375  1.00  0.00     0.031 A 
ATOM     29  C   UNL     1       1.006   7.440   5.673  1.00  0.00     0.111 A 
ATOM     30  C   UNL     1      -1.268   7.114   5.751  1.00  0.00     0.111 A 
ATOM     31  N   UNL     1      -0.099   7.218   6.416  1.00  0.00    -0.265 NA
ENDBRANCH  25  26
ENDBRANCH  19  21
ENDBRANCH  18  19
ENDBRANCH   5   8
ENDBRANCH   3   4
ENDBRANCH   2   3
ENDBRANCH   1   2
BRANCH   1  32
ATOM     32  C   UNL     1      -4.325   2.496   2.807  1.00  0.00     0.002 C 
BRANCH  32  33
ATOM     33  C   UNL     1      -4.993   3.871   2.935  1.00  0.00     0.021 C 
BRANCH  33  34
ATOM     34  C   UNL     1      -6.359   3.987   2.274  1.00  0.00     0.116 C 
BRANCH  34  35
ATOM     35  N   UNL     1      -7.341   3.123   2.903  1.00  0.00    -0.352 N 
ATOM     36  C   UNL     1      -8.519   3.453   3.527  1.00  0.00     0.251 C 
ATOM     37  H   UNL     1      -7.131   2.161   2.880  1.00  0.00     0.163 HD
ATOM     38  O   UNL     1      -9.113   2.623   4.204  1.00  0.00    -0.269 OA
BRANCH  36  39
ATOM     39  C   UNL     1      -9.063   4.822   3.392  1.00  0.00     0.039 A 
ATOM     40  C   UNL     1      -9.569   5.464   4.524  1.00  0.00     0.014 A 
ATOM     41  C   UNL     1      -9.080   5.466   2.151  1.00  0.00     0.014 A 
ATOM     42  C   UNL     1     -10.041   6.774   4.422  1.00  0.00     0.010 A 
ATOM     43  C   UNL     1      -9.474   6.798   2.068  1.00  0.00     0.010 A 
ATOM     44  C   UNL     1      -9.966   7.464   3.200  1.00  0.00    -0.014 A 
BRANCH  44  45
ATOM     45  C   UNL     1     -10.400   8.880   3.089  1.00  0.00     0.031 A 
ATOM     46  C   UNL     1     -11.551   9.251   2.195  1.00  0.00     0.074 A 
ATOM     47  C   UNL     1      -9.723   9.838   3.752  1.00  0.00     0.049 A 
ATOM     48  N   UNL     1     -12.045  10.436   1.936  1.00  0.00    -0.248 NA
ATOM     49  C   UNL     1     -12.220   8.153   1.478  1.00  0.00     0.031 C 
ATOM     50  C   UNL     1      -8.565   9.612   4.621  1.00  0.00     0.029 A 
ATOM     51  N   UNL     1      -9.909  11.197   3.795  1.00  0.00    -0.354 N 
ATOM     52  C   UNL     1     -13.069  10.226   1.019  1.00  0.00     0.074 A 
ATOM     53  C   UNL     1     -13.090   8.810   0.725  1.00  0.00     0.031 C 
ATOM     54  C   UNL     1      -8.165  10.787   5.134  1.00  0.00     0.029 A 
ATOM     55  C   UNL     1      -9.005  11.852   4.598  1.00  0.00     0.049 A 
ATOM     56  H   UNL     1     -10.622  11.659   3.298  1.00  0.00     0.167 HD
ATOM     57  C   UNL     1     -13.927  11.127   0.485  1.00  0.00     0.031 A 
ATOM     58  C   UNL     1      -8.864  13.164   4.866  1.00  0.00     0.031 A 
ATOM     59  C   UNL     1     -13.910  12.534   0.785  1.00  0.00     0.049 A 
ATOM     60  C   UNL     1      -9.817  14.146   4.242  1.00  0.00     0.074 A 
ATOM     61  C   UNL     1     -14.773  13.519   0.338  1.00  0.00     0.029 A 
ATOM     62  N   UNL     1     -12.980  13.156   1.602  1.00  0.00    -0.354 N 
ATOM     63  N   UNL     1     -10.825  13.920   3.434  1.00  0.00    -0.248 NA
ATOM     64  C   UNL     1      -9.618  15.563   4.576  1.00  0.00     0.031 C 
ATOM     65  C   UNL     1     -14.327  14.747   0.835  1.00  0.00     0.029 A 
ATOM     66  C   UNL     1     -13.229  14.517   1.649  1.00  0.00     0.049 A 
ATOM     67  H   UNL     1     -12.250  12.698   2.079  1.00  0.00     0.167 HD
ATOM     68  C   UNL     1     -11.400  15.161   3.191  1.00  0.00     0.074 A 
ATOM     69  C   UNL     1     -10.639  16.132   3.950  1.00  0.00     0.031 C 
ATOM     70  C   UNL     1     -12.463  15.470   2.410  1.00  0.00     0.031 A 
BRANCH  57  71
ATOM     71  C   UNL     1     -14.955  10.618  -0.488  1.00  0.00    -0.014 A 
ATOM     72  C   UNL     1     -16.016   9.799  -0.069  1.00  0.00     0.009 A 
ATOM     73  C   UNL     1     -14.889  11.002  -1.837  1.00  0.00     0.009 A 
ATOM     74  C   UNL     1     -16.968   9.348  -0.986  1.00  0.00     0.001 A 
ATOM     75  C   UNL     1     -15.860  10.577  -2.745  1.00  0.00     0.001 A 
ATOM     76  C   UNL     1     -16.893   9.742  -2.321  1.00  0.00     0.000 A 
ENDBRANCH  57  71
BRANCH  58  77
ATOM     77  C   UNL     1      -7.781  13.630   5.773  1.00  0.00    -0.014 A 
ATOM     78  C   UNL     1      -8.085  14.179   7.028  1.00  0.00     0.009 A 
ATOM     79  C   UNL     1      -6.436  13.546   5.380  1.00  0.00     0.009 A 
ATOM     80  C   UNL     1      -7.069  14.665   7.855  1.00  0.00     0.001 A 
ATOM     81  C   UNL     1      -5.420  14.001   6.223  1.00  0.00     0.001 A 
ATOM     82  C   UNL     1      -5.738  14.571   7.454  1.00  0.00     0.000 A 
ENDBRANCH  58  77
BRANCH  70  83
ATOM     83  C   UNL     1     -12.895  16.910   2.369  1.00  0.00    -0.014 A 
ATOM     84  C   UNL     1     -12.124  17.889   1.724  1.00  0.00     0.009 A 
ATOM     85  C   UNL     1     -14.116  17.282   2.953  1.00  0.00     0.009 A 
ATOM     86  C   UNL     1     -12.550  19.218   1.696  1.00  0.00     0.001 A 
ATOM     87  C   UNL     1     -14.557  18.605   2.894  1.00  0.00     0.001 A 
ATOM     88  C   UNL     1     -13.768  19.574   2.275  1.00  0.00     0.000 A 
ENDBRANCH  70  83
ENDBRANCH  44  45
ENDBRANCH  36  39
ENDBRANCH  34  35
ENDBRANCH  33  34
ENDBRANCH  32  33
ENDBRANCH   1  32
TORSDOF 16
