REMARK SMILES Cc1c(CC(=O)NCCCCCCNC(=O)c2ccc(-c3c4nc(c(-c5ccccc5)c5ccc([nH]5)c(-c5ccccc5)c5nc(c(-c6ccccc6)c6ccc3[nH]6)C=C5)C=C4)cc2)cccc1-c1ccn(C(F)F)c(=O)c1
REMARK SMILES IDX 10 1 9 2 8 3 7 4 5 5 6 6 4 8 3 9 1 10 2 11 68 12 65 13 67 14
REMARK SMILES IDX 66 15 69 16 70 17 78 18 71 19 76 20 72 21 77 22 73 23 74 24
REMARK SMILES IDX 75 25 11 26 12 27 13 28 14 29 15 30 16 32 17 33 18 34 64 35
REMARK SMILES IDX 19 36 63 37 20 38 21 39 22 40 57 41 23 42 62 43 56 44 58 45
REMARK SMILES IDX 24 46 61 47 55 48 54 49 25 51 47 52 32 53 46 54 33 55 36 56
REMARK SMILES IDX 45 57 59 58 34 59 35 60 44 62 60 63 37 64 26 65 27 66 31 67
REMARK SMILES IDX 28 68 30 69 29 70 48 71 49 72 53 73 50 74 52 75 51 76 38 77
REMARK SMILES IDX 39 78 43 79 40 80 42 81 41 82
REMARK H PARENT 7 7 14 31 58 50 36 61
REMARK Flexibility Score: inf
ROOT
ATOM      1  C   UNL     1       0.396  -1.423   5.081  1.00  0.00     0.002 C 
ENDROOT
BRANCH   1   2
ATOM      2  C   UNL     1       0.630  -0.953   3.639  1.00  0.00     0.021 C 
BRANCH   2   3
ATOM      3  C   UNL     1       1.503  -1.879   2.791  1.00  0.00     0.116 C 
BRANCH   3   4
ATOM      4  N   UNL     1       0.786  -3.043   2.315  1.00  0.00    -0.356 N 
ATOM      5  C   UNL     1       0.478  -3.402   1.034  1.00  0.00     0.224 C 
ATOM      6  O   UNL     1      -0.127  -4.462   0.855  1.00  0.00    -0.275 OA
ATOM      7  H   UNL     1       0.476  -3.663   3.014  1.00  0.00     0.163 HD
BRANCH   5   8
ATOM      8  C   UNL     1       0.917  -2.540  -0.145  1.00  0.00     0.135 C 
BRANCH   8   9
ATOM      9  C   UNL     1       0.271  -1.166  -0.189  1.00  0.00    -0.035 A 
ATOM     10  C   UNL     1       2.516   0.009  -0.448  1.00  0.00     0.045 C 
ATOM     11  C   UNL     1       1.014   0.042  -0.264  1.00  0.00    -0.040 A 
ATOM     12  C   UNL     1       0.319   1.279  -0.211  1.00  0.00    -0.015 A 
ATOM     13  C   UNL     1      -1.135  -1.111  -0.142  1.00  0.00     0.004 A 
ATOM     14  C   UNL     1      -1.085   1.293  -0.149  1.00  0.00     0.009 A 
ATOM     15  C   UNL     1      -1.807   0.106  -0.126  1.00  0.00     0.001 A 
BRANCH  12  16
ATOM     16  C   UNL     1       1.025   2.578  -0.144  1.00  0.00    -0.011 A 
ATOM     17  C   UNL     1       1.781   3.139  -1.247  1.00  0.00     0.027 A 
ATOM     18  C   UNL     1       1.016   3.220   1.037  1.00  0.00     0.080 A 
ATOM     19  C   UNL     1       2.527   4.235  -1.067  1.00  0.00     0.095 A 
ATOM     20  C   UNL     1       1.806   4.464   1.240  1.00  0.00     0.255 A 
ATOM     21  N   UNL     1       2.562   4.880   0.156  1.00  0.00    -0.258 N 
ATOM     22  O   UNL     1       1.763   5.009   2.339  1.00  0.00    -0.269 OA
BRANCH  21  23
ATOM     23  C   UNL     1       3.400   6.035   0.352  1.00  0.00     0.451 C 
ATOM     24  F   UNL     1       2.659   7.132   0.642  1.00  0.00    -0.185 F 
ATOM     25  F   UNL     1       4.271   5.835   1.372  1.00  0.00    -0.185 F 
ENDBRANCH  21  23
ENDBRANCH  12  16
ENDBRANCH   8   9
ENDBRANCH   5   8
ENDBRANCH   3   4
ENDBRANCH   2   3
ENDBRANCH   1   2
BRANCH   1  26
ATOM     26  C   UNL     1       1.647  -1.800   5.895  1.00  0.00     0.002 C 
BRANCH  26  27
ATOM     27  C   UNL     1       2.822  -0.818   5.830  1.00  0.00     0.021 C 
BRANCH  27  28
ATOM     28  C   UNL     1       2.568   0.507   6.537  1.00  0.00     0.116 C 
BRANCH  28  29
ATOM     29  N   UNL     1       3.167   0.592   7.864  1.00  0.00    -0.352 N 
ATOM     30  C   UNL     1       3.019   1.571   8.830  1.00  0.00     0.251 C 
ATOM     31  H   UNL     1       3.761  -0.154   8.107  1.00  0.00     0.163 HD
ATOM     32  O   UNL     1       3.622   1.486   9.889  1.00  0.00    -0.269 OA
BRANCH  30  33
ATOM     33  C   UNL     1       2.014   2.645   8.630  1.00  0.00     0.039 A 
ATOM     34  C   UNL     1       1.139   2.913   9.689  1.00  0.00     0.014 A 
ATOM     35  C   UNL     1       1.798   3.218   7.380  1.00  0.00     0.014 A 
ATOM     36  C   UNL     1      -0.078   3.534   9.426  1.00  0.00     0.010 A 
ATOM     37  C   UNL     1       0.555   3.749   7.094  1.00  0.00     0.010 A 
ATOM     38  C   UNL     1      -0.406   3.833   8.103  1.00  0.00    -0.014 A 
BRANCH  38  39
ATOM     39  C   UNL     1      -1.774   4.107   7.683  1.00  0.00     0.031 A 
ATOM     40  C   UNL     1      -2.231   5.495   7.502  1.00  0.00     0.074 A 
ATOM     41  C   UNL     1      -2.631   3.081   7.487  1.00  0.00     0.049 A 
ATOM     42  N   UNL     1      -3.431   5.904   7.747  1.00  0.00    -0.248 NA
ATOM     43  C   UNL     1      -1.325   6.554   7.076  1.00  0.00     0.031 C 
ATOM     44  C   UNL     1      -3.976   3.148   6.922  1.00  0.00     0.029 A 
ATOM     45  N   UNL     1      -2.539   1.782   7.993  1.00  0.00    -0.354 N 
ATOM     46  C   UNL     1      -3.531   7.182   7.245  1.00  0.00     0.074 A 
ATOM     47  C   UNL     1      -2.175   7.574   6.928  1.00  0.00     0.031 C 
ATOM     48  C   UNL     1      -4.679   2.096   7.375  1.00  0.00     0.029 A 
ATOM     49  C   UNL     1      -3.842   1.403   8.343  1.00  0.00     0.049 A 
ATOM     50  H   UNL     1      -1.722   1.241   8.086  1.00  0.00     0.167 HD
ATOM     51  C   UNL     1      -4.757   7.723   6.993  1.00  0.00     0.031 A 
ATOM     52  C   UNL     1      -4.213   1.058   9.609  1.00  0.00     0.031 A 
ATOM     53  C   UNL     1      -5.841   6.819   7.364  1.00  0.00     0.049 A 
ATOM     54  C   UNL     1      -5.342   1.913  10.143  1.00  0.00     0.074 A 
ATOM     55  C   UNL     1      -6.609   5.936   6.622  1.00  0.00     0.029 A 
ATOM     56  N   UNL     1      -6.060   6.509   8.700  1.00  0.00    -0.354 N 
ATOM     57  N   UNL     1      -5.669   3.073   9.646  1.00  0.00    -0.248 NA
ATOM     58  C   UNL     1      -6.135   1.563  11.319  1.00  0.00     0.031 C 
ATOM     59  C   UNL     1      -7.232   5.036   7.521  1.00  0.00     0.029 A 
ATOM     60  C   UNL     1      -6.867   5.392   8.807  1.00  0.00     0.049 A 
ATOM     61  H   UNL     1      -5.692   7.012   9.462  1.00  0.00     0.167 HD
ATOM     62  C   UNL     1      -6.676   3.619  10.396  1.00  0.00     0.074 A 
ATOM     63  C   UNL     1      -6.937   2.636  11.430  1.00  0.00     0.031 C 
ATOM     64  C   UNL     1      -7.206   4.842  10.110  1.00  0.00     0.031 A 
BRANCH  51  65
ATOM     65  C   UNL     1      -4.948   8.926   6.098  1.00  0.00    -0.014 A 
ATOM     66  C   UNL     1      -6.110   9.031   5.312  1.00  0.00     0.009 A 
ATOM     67  C   UNL     1      -4.002   9.952   5.937  1.00  0.00     0.009 A 
ATOM     68  C   UNL     1      -6.263  10.028   4.339  1.00  0.00     0.001 A 
ATOM     69  C   UNL     1      -4.126  10.927   4.937  1.00  0.00     0.001 A 
ATOM     70  C   UNL     1      -5.253  10.955   4.126  1.00  0.00     0.000 A 
ENDBRANCH  51  65
BRANCH  52  71
ATOM     71  C   UNL     1      -3.118   0.524  10.461  1.00  0.00    -0.014 A 
ATOM     72  C   UNL     1      -2.552  -0.724  10.134  1.00  0.00     0.009 A 
ATOM     73  C   UNL     1      -2.423   1.364  11.343  1.00  0.00     0.009 A 
ATOM     74  C   UNL     1      -1.282  -1.077  10.598  1.00  0.00     0.001 A 
ATOM     75  C   UNL     1      -1.155   1.002  11.812  1.00  0.00     0.001 A 
ATOM     76  C   UNL     1      -0.573  -0.202  11.416  1.00  0.00     0.000 A 
ENDBRANCH  52  71
BRANCH  64  77
ATOM     77  C   UNL     1      -8.161   5.604  10.988  1.00  0.00    -0.014 A 
ATOM     78  C   UNL     1      -8.196   5.490  12.384  1.00  0.00     0.009 A 
ATOM     79  C   UNL     1      -8.979   6.596  10.405  1.00  0.00     0.009 A 
ATOM     80  C   UNL     1      -9.045   6.295  13.155  1.00  0.00     0.001 A 
ATOM     81  C   UNL     1      -9.795   7.428  11.174  1.00  0.00     0.001 A 
ATOM     82  C   UNL     1      -9.836   7.268  12.552  1.00  0.00     0.000 A 
ENDBRANCH  64  77
ENDBRANCH  38  39
ENDBRANCH  30  33
ENDBRANCH  28  29
ENDBRANCH  27  28
ENDBRANCH  26  27
ENDBRANCH   1  26
TORSDOF 16
