REMARK SMILES CC(C)Cc1ccc([C@H](C)C(=O)NCCCCCCNC(=O)c2ccc(-c3c4nc(c(-c5ccccc5)c5ccc([nH]5)c(-c5ccccc5)c5nc(c(-c6ccccc6)c6ccc3[nH]6)C=C5)C=C4)cc2)cc1
REMARK SMILES IDX 16 1 15 2 14 3 13 4 11 5 12 6 9 8 10 9 8 10 5 11 6 12 72 13
REMARK SMILES IDX 7 14 71 15 4 16 2 17 1 18 3 19 17 20 18 21 19 22 20 23 21 24
REMARK SMILES IDX 22 26 23 27 24 28 70 29 25 30 69 31 26 32 27 33 28 34 63 35
REMARK SMILES IDX 29 36 68 37 62 38 64 39 30 40 67 41 61 42 60 43 31 45 53 46
REMARK SMILES IDX 38 47 52 48 39 49 42 50 51 51 65 52 40 53 41 54 50 56 66 57
REMARK SMILES IDX 43 58 32 59 33 60 37 61 34 62 36 63 35 64 54 65 55 66 59 67
REMARK SMILES IDX 56 68 58 69 57 70 44 71 45 72 49 73 46 74 48 75 47 76
REMARK H PARENT 13 7 20 25 64 44 42 55
REMARK Flexibility Score: inf
ROOT
ATOM      1  C   UNL     1      -1.728   2.192  -4.627  1.00  0.00     0.002 C 
ENDROOT
BRANCH   1   2
ATOM      2  C   UNL     1      -2.259   1.158  -3.629  1.00  0.00     0.021 C 
BRANCH   2   3
ATOM      3  C   UNL     1      -3.111   0.055  -4.250  1.00  0.00     0.116 C 
BRANCH   3   4
ATOM      4  N   UNL     1      -2.312  -0.856  -5.044  1.00  0.00    -0.356 N 
ATOM      5  C   UNL     1      -2.228  -2.216  -5.005  1.00  0.00     0.227 C 
ATOM      6  O   UNL     1      -1.507  -2.766  -5.844  1.00  0.00    -0.274 OA
ATOM      7  H   UNL     1      -1.738  -0.425  -5.718  1.00  0.00     0.163 HD
BRANCH   5   8
ATOM      8  C   UNL     1      -2.987  -3.049  -3.961  1.00  0.00     0.105 C 
ATOM      9  C   UNL     1      -2.392  -2.827  -2.568  1.00  0.00     0.023 C 
BRANCH   8  10
ATOM     10  C   UNL     1      -4.498  -2.920  -4.117  1.00  0.00    -0.036 A 
ATOM     11  C   UNL     1      -7.244  -2.474  -4.620  1.00  0.00    -0.048 A 
ATOM     12  C   UNL     1      -6.427  -3.036  -5.604  1.00  0.00     0.004 A 
ATOM     13  C   UNL     1      -6.696  -2.201  -3.361  1.00  0.00     0.004 A 
ATOM     14  C   UNL     1      -5.072  -3.255  -5.355  1.00  0.00     0.005 A 
ATOM     15  C   UNL     1      -5.341  -2.437  -3.107  1.00  0.00     0.005 A 
BRANCH  11  16
ATOM     16  C   UNL     1      -8.678  -2.118  -4.929  1.00  0.00     0.038 C 
BRANCH  16  17
ATOM     17  C   UNL     1      -8.883  -0.612  -5.199  1.00  0.00    -0.013 C 
ATOM     18  C   UNL     1      -8.157  -0.140  -6.463  1.00  0.00     0.008 C 
ATOM     19  C   UNL     1     -10.377  -0.306  -5.324  1.00  0.00     0.008 C 
ENDBRANCH  16  17
ENDBRANCH  11  16
ENDBRANCH   8  10
ENDBRANCH   5   8
ENDBRANCH   3   4
ENDBRANCH   2   3
ENDBRANCH   1   2
BRANCH   1  20
ATOM     20  C   UNL     1      -2.796   2.938  -5.433  1.00  0.00     0.002 C 
BRANCH  20  21
ATOM     21  C   UNL     1      -3.900   3.609  -4.611  1.00  0.00     0.021 C 
BRANCH  21  22
ATOM     22  C   UNL     1      -3.416   4.593  -3.549  1.00  0.00     0.116 C 
BRANCH  22  23
ATOM     23  N   UNL     1      -2.685   5.713  -4.118  1.00  0.00    -0.352 N 
ATOM     24  C   UNL     1      -2.832   7.056  -3.892  1.00  0.00     0.251 C 
ATOM     25  H   UNL     1      -1.980   5.470  -4.760  1.00  0.00     0.163 HD
ATOM     26  O   UNL     1      -2.214   7.866  -4.587  1.00  0.00    -0.269 OA
BRANCH  24  27
ATOM     27  C   UNL     1      -3.744   7.549  -2.838  1.00  0.00     0.039 A 
ATOM     28  C   UNL     1      -4.577   8.633  -3.127  1.00  0.00     0.014 A 
ATOM     29  C   UNL     1      -3.763   6.972  -1.565  1.00  0.00     0.014 A 
ATOM     30  C   UNL     1      -5.466   9.105  -2.159  1.00  0.00     0.010 A 
ATOM     31  C   UNL     1      -4.693   7.403  -0.620  1.00  0.00     0.010 A 
ATOM     32  C   UNL     1      -5.551   8.476  -0.906  1.00  0.00    -0.014 A 
BRANCH  32  33
ATOM     33  C   UNL     1      -6.536   8.929   0.108  1.00  0.00     0.031 A 
ATOM     34  C   UNL     1      -6.074   9.550   1.397  1.00  0.00     0.074 A 
ATOM     35  C   UNL     1      -7.850   8.735  -0.111  1.00  0.00     0.049 A 
ATOM     36  N   UNL     1      -6.788   9.984   2.405  1.00  0.00    -0.248 NA
ATOM     37  C   UNL     1      -4.622   9.679   1.589  1.00  0.00     0.031 C 
ATOM     38  C   UNL     1      -8.428   8.102  -1.299  1.00  0.00     0.029 A 
ATOM     39  N   UNL     1      -8.940   9.047   0.662  1.00  0.00    -0.354 N 
ATOM     40  C   UNL     1      -5.874  10.421   3.355  1.00  0.00     0.074 A 
ATOM     41  C   UNL     1      -4.554  10.160   2.822  1.00  0.00     0.031 C 
ATOM     42  C   UNL     1      -9.766   8.099  -1.187  1.00  0.00     0.029 A 
ATOM     43  C   UNL     1     -10.138   8.699   0.090  1.00  0.00     0.049 A 
ATOM     44  H   UNL     1      -8.869   9.481   1.544  1.00  0.00     0.167 HD
ATOM     45  C   UNL     1      -6.109  11.002   4.556  1.00  0.00     0.031 A 
ATOM     46  C   UNL     1     -11.398   8.846   0.541  1.00  0.00     0.031 A 
ATOM     47  C   UNL     1      -7.419  11.275   5.084  1.00  0.00     0.049 A 
ATOM     48  C   UNL     1     -11.634   9.503   1.871  1.00  0.00     0.074 A 
ATOM     49  C   UNL     1      -7.758  11.919   6.262  1.00  0.00     0.029 A 
ATOM     50  N   UNL     1      -8.608  10.918   4.467  1.00  0.00    -0.354 N 
ATOM     51  N   UNL     1     -10.759   9.975   2.725  1.00  0.00    -0.248 NA
ATOM     52  C   UNL     1     -13.033   9.658   2.291  1.00  0.00     0.031 C 
ATOM     53  C   UNL     1      -9.153  11.912   6.379  1.00  0.00     0.029 A 
ATOM     54  C   UNL     1      -9.682  11.307   5.250  1.00  0.00     0.049 A 
ATOM     55  H   UNL     1      -8.678  10.456   3.600  1.00  0.00     0.167 HD
ATOM     56  C   UNL     1     -11.501  10.503   3.773  1.00  0.00     0.074 A 
ATOM     57  C   UNL     1     -12.897  10.308   3.439  1.00  0.00     0.031 C 
ATOM     58  C   UNL     1     -11.065  11.098   4.910  1.00  0.00     0.031 A 
BRANCH  45  59
ATOM     59  C   UNL     1      -4.913  11.375   5.386  1.00  0.00    -0.014 A 
ATOM     60  C   UNL     1      -4.079  12.444   5.021  1.00  0.00     0.009 A 
ATOM     61  C   UNL     1      -4.630  10.664   6.563  1.00  0.00     0.009 A 
ATOM     62  C   UNL     1      -2.964  12.768   5.797  1.00  0.00     0.001 A 
ATOM     63  C   UNL     1      -3.530  11.007   7.351  1.00  0.00     0.001 A 
ATOM     64  C   UNL     1      -2.693  12.052   6.963  1.00  0.00     0.000 A 
ENDBRANCH  45  59
BRANCH  46  65
ATOM     65  C   UNL     1     -12.539   8.384  -0.289  1.00  0.00    -0.014 A 
ATOM     66  C   UNL     1     -13.364   9.313  -0.940  1.00  0.00     0.009 A 
ATOM     67  C   UNL     1     -12.805   7.014  -0.438  1.00  0.00     0.009 A 
ATOM     68  C   UNL     1     -14.448   8.880  -1.708  1.00  0.00     0.001 A 
ATOM     69  C   UNL     1     -13.874   6.583  -1.227  1.00  0.00     0.001 A 
ATOM     70  C   UNL     1     -14.699   7.516  -1.854  1.00  0.00     0.000 A 
ENDBRANCH  46  65
BRANCH  58  71
ATOM     71  C   UNL     1     -12.112  11.598   5.863  1.00  0.00    -0.014 A 
ATOM     72  C   UNL     1     -12.865  10.710   6.647  1.00  0.00     0.009 A 
ATOM     73  C   UNL     1     -12.330  12.978   5.996  1.00  0.00     0.009 A 
ATOM     74  C   UNL     1     -13.840  11.195   7.521  1.00  0.00     0.001 A 
ATOM     75  C   UNL     1     -13.287  13.460   6.890  1.00  0.00     0.001 A 
ATOM     76  C   UNL     1     -14.047  12.569   7.644  1.00  0.00     0.000 A 
ENDBRANCH  58  71
ENDBRANCH  32  33
ENDBRANCH  24  27
ENDBRANCH  22  23
ENDBRANCH  21  22
ENDBRANCH  20  21
ENDBRANCH   1  20
TORSDOF 16
