REMARK SMILES C#CC[C@@H](C(=O)NCCCCCCNC(=O)c1ccc(-c2c3nc(c(-c4ccccc4)c4ccc([nH]4)c(-c4ccccc4)c4nc(c(-c5ccccc5)c5ccc2[nH]5)C=C4)C=C3)cc1)c1cccc(Br)c1
REMARK SMILES IDX 10 1 9 2 8 3 7 4 5 5 6 6 4 8 3 9 2 10 1 11 65 12 66 13 71 14
REMARK SMILES IDX 67 15 69 16 68 17 70 18 11 19 12 20 13 21 14 22 15 23 16 25
REMARK SMILES IDX 17 26 18 27 64 28 19 29 63 30 20 31 21 32 22 33 57 34 23 35
REMARK SMILES IDX 62 36 56 37 58 38 24 39 61 40 55 41 54 42 25 44 47 45 32 46
REMARK SMILES IDX 46 47 33 48 36 49 45 50 59 51 34 52 35 53 44 55 60 56 37 57
REMARK SMILES IDX 26 58 27 59 31 60 28 61 30 62 29 63 48 64 49 65 53 66 50 67
REMARK SMILES IDX 52 68 51 69 38 70 39 71 43 72 40 73 42 74 41 75
REMARK H PARENT 7 7 14 24 58 43 36 54
REMARK Flexibility Score: inf
ROOT
ATOM      1  C   UNL     1       2.425   3.635   1.840  1.00  0.00     0.002 C 
ENDROOT
BRANCH   1   2
ATOM      2  C   UNL     1       1.361   2.649   1.357  1.00  0.00     0.021 C 
BRANCH   2   3
ATOM      3  C   UNL     1       0.412   2.051   2.421  1.00  0.00     0.116 C 
BRANCH   3   4
ATOM      4  N   UNL     1      -0.947   2.552   2.217  1.00  0.00    -0.356 N 
ATOM      5  C   UNL     1      -1.902   2.096   1.340  1.00  0.00     0.228 C 
ATOM      6  O   UNL     1      -2.433   2.966   0.643  1.00  0.00    -0.274 OA
ATOM      7  H   UNL     1      -1.211   3.315   2.780  1.00  0.00     0.163 HD
BRANCH   5   8
ATOM      8  C   UNL     1      -2.329   0.599   1.289  1.00  0.00     0.120 C 
BRANCH   8   9
ATOM      9  C   UNL     1      -1.851  -0.095  -0.017  1.00  0.00     0.107 C 
BRANCH   9  10
ATOM     10  C   UNL     1      -0.331  -0.095  -0.017  1.00  0.00    -0.106 C 
ATOM     11  C   UNL     1       0.973  -0.095  -0.017  1.00  0.00     0.004 C 
ENDBRANCH   9  10
ENDBRANCH   8   9
BRANCH   8  12
ATOM     12  C   UNL     1      -3.851   0.366   1.424  1.00  0.00    -0.034 A 
ATOM     13  C   UNL     1      -4.821   1.344   1.144  1.00  0.00     0.004 A 
ATOM     14  C   UNL     1      -4.314  -0.918   1.775  1.00  0.00     0.020 A 
ATOM     15  C   UNL     1      -6.190   1.063   1.220  1.00  0.00     0.001 A 
ATOM     16  C   UNL     1      -5.684  -1.199   1.834  1.00  0.00     0.018 A 
ATOM     17  C   UNL     1      -6.625  -0.212   1.562  1.00  0.00     0.016 A 
ATOM     18  Br  UNL     1      -6.270  -2.945   2.263  1.00  0.00    -0.051 Br
ENDBRANCH   8  12
ENDBRANCH   5   8
ENDBRANCH   3   4
ENDBRANCH   2   3
ENDBRANCH   1   2
BRANCH   1  19
ATOM     19  C   UNL     1       3.561   3.036   2.681  1.00  0.00     0.002 C 
BRANCH  19  20
ATOM     20  C   UNL     1       4.281   1.795   2.127  1.00  0.00     0.021 C 
BRANCH  20  21
ATOM     21  C   UNL     1       4.873   1.903   0.719  1.00  0.00     0.116 C 
BRANCH  21  22
ATOM     22  N   UNL     1       5.865   2.956   0.601  1.00  0.00    -0.352 N 
ATOM     23  C   UNL     1       7.227   2.911   0.451  1.00  0.00     0.251 C 
ATOM     24  H   UNL     1       5.493   3.867   0.634  1.00  0.00     0.163 HD
ATOM     25  O   UNL     1       7.873   3.957   0.550  1.00  0.00    -0.269 OA
BRANCH  23  26
ATOM     26  C   UNL     1       7.955   1.647   0.188  1.00  0.00     0.039 A 
ATOM     27  C   UNL     1       9.169   1.433   0.853  1.00  0.00     0.014 A 
ATOM     28  C   UNL     1       7.524   0.721  -0.766  1.00  0.00     0.014 A 
ATOM     29  C   UNL     1       9.918   0.278   0.606  1.00  0.00     0.010 A 
ATOM     30  C   UNL     1       8.250  -0.457  -0.980  1.00  0.00     0.010 A 
ATOM     31  C   UNL     1       9.454  -0.692  -0.295  1.00  0.00    -0.014 A 
BRANCH  31  32
ATOM     32  C   UNL     1      10.207  -1.957  -0.508  1.00  0.00     0.031 A 
ATOM     33  C   UNL     1      10.877  -2.247  -1.825  1.00  0.00     0.074 A 
ATOM     34  C   UNL     1      10.253  -2.876   0.476  1.00  0.00     0.049 A 
ATOM     35  N   UNL     1      11.531  -3.319  -2.199  1.00  0.00    -0.248 NA
ATOM     36  C   UNL     1      10.789  -1.205  -2.860  1.00  0.00     0.031 C 
ATOM     37  C   UNL     1       9.630  -2.737   1.794  1.00  0.00     0.029 A 
ATOM     38  N   UNL     1      10.844  -4.115   0.517  1.00  0.00    -0.354 N 
ATOM     39  C   UNL     1      11.918  -3.089  -3.514  1.00  0.00     0.074 A 
ATOM     40  C   UNL     1      11.401  -1.788  -3.882  1.00  0.00     0.031 C 
ATOM     41  C   UNL     1       9.882  -3.841   2.517  1.00  0.00     0.029 A 
ATOM     42  C   UNL     1      10.653  -4.777   1.706  1.00  0.00     0.049 A 
ATOM     43  H   UNL     1      11.356  -4.494  -0.234  1.00  0.00     0.167 HD
ATOM     44  C   UNL     1      12.644  -3.884  -4.337  1.00  0.00     0.031 A 
ATOM     45  C   UNL     1      11.044  -6.004   2.100  1.00  0.00     0.031 A 
ATOM     46  C   UNL     1      13.176  -5.171  -3.975  1.00  0.00     0.049 A 
ATOM     47  C   UNL     1      11.838  -6.868   1.162  1.00  0.00     0.074 A 
ATOM     48  C   UNL     1      13.974  -6.017  -4.728  1.00  0.00     0.029 A 
ATOM     49  N   UNL     1      12.965  -5.800  -2.759  1.00  0.00    -0.354 N 
ATOM     50  N   UNL     1      12.244  -6.607  -0.056  1.00  0.00    -0.248 NA
ATOM     51  C   UNL     1      12.236  -8.194   1.660  1.00  0.00     0.031 C 
ATOM     52  C   UNL     1      14.210  -7.177  -3.983  1.00  0.00     0.029 A 
ATOM     53  C   UNL     1      13.596  -7.033  -2.750  1.00  0.00     0.049 A 
ATOM     54  H   UNL     1      12.443  -5.426  -2.013  1.00  0.00     0.167 HD
ATOM     55  C   UNL     1      12.963  -7.724  -0.461  1.00  0.00     0.074 A 
ATOM     56  C   UNL     1      12.952  -8.658   0.645  1.00  0.00     0.031 C 
ATOM     57  C   UNL     1      13.579  -7.953  -1.645  1.00  0.00     0.031 A 
BRANCH  44  58
ATOM     58  C   UNL     1      12.908  -3.386  -5.731  1.00  0.00    -0.014 A 
ATOM     59  C   UNL     1      13.842  -2.368  -5.973  1.00  0.00     0.009 A 
ATOM     60  C   UNL     1      12.262  -3.991  -6.821  1.00  0.00     0.009 A 
ATOM     61  C   UNL     1      14.106  -1.948  -7.278  1.00  0.00     0.001 A 
ATOM     62  C   UNL     1      12.544  -3.584  -8.126  1.00  0.00     0.001 A 
ATOM     63  C   UNL     1      13.461  -2.559  -8.353  1.00  0.00     0.000 A 
ENDBRANCH  44  58
BRANCH  45  64
ATOM     64  C   UNL     1      10.690  -6.499   3.455  1.00  0.00    -0.014 A 
ATOM     65  C   UNL     1      11.674  -6.619   4.448  1.00  0.00     0.009 A 
ATOM     66  C   UNL     1       9.370  -6.871   3.755  1.00  0.00     0.009 A 
ATOM     67  C   UNL     1      11.348  -7.129   5.707  1.00  0.00     0.001 A 
ATOM     68  C   UNL     1       9.043  -7.355   5.023  1.00  0.00     0.001 A 
ATOM     69  C   UNL     1      10.034  -7.493   5.994  1.00  0.00     0.000 A 
ENDBRANCH  45  64
BRANCH  57  70
ATOM     70  C   UNL     1      14.317  -9.253  -1.794  1.00  0.00    -0.014 A 
ATOM     71  C   UNL     1      13.628 -10.461  -1.976  1.00  0.00     0.009 A 
ATOM     72  C   UNL     1      15.720  -9.262  -1.784  1.00  0.00     0.009 A 
ATOM     73  C   UNL     1      14.332 -11.660  -2.114  1.00  0.00     0.001 A 
ATOM     74  C   UNL     1      16.421 -10.457  -1.946  1.00  0.00     0.001 A 
ATOM     75  C   UNL     1      15.726 -11.656  -2.103  1.00  0.00     0.000 A 
ENDBRANCH  57  70
ENDBRANCH  31  32
ENDBRANCH  23  26
ENDBRANCH  21  22
ENDBRANCH  20  21
ENDBRANCH  19  20
ENDBRANCH   1  19
TORSDOF 16
