REMARK SMILES CC(C)Cc1ccc([C@H](CF)C(=O)NCCCCCCNC(=O)c2ccc(-c3c4nc(c(-c5ccccc5)c5ccc([nH]5)c(-c5ccccc5)c5nc(c(-c6ccccc6)c6ccc3[nH]6)C=C5)C=C4)cc2)cc1
REMARK SMILES IDX 17 1 16 2 15 3 14 4 12 5 13 6 9 8 8 9 5 10 6 11 73 12 7 13
REMARK SMILES IDX 72 14 4 15 2 16 1 17 3 18 10 19 11 20 18 21 19 22 20 23
REMARK SMILES IDX 21 24 22 25 23 27 24 28 25 29 71 30 26 31 70 32 27 33 28 34
REMARK SMILES IDX 29 35 64 36 30 37 69 38 63 39 65 40 31 41 68 42 62 43 61 44
REMARK SMILES IDX 32 46 54 47 39 48 53 49 40 50 43 51 52 52 66 53 41 54 42 55
REMARK SMILES IDX 51 57 67 58 44 59 33 60 34 61 38 62 35 63 37 64 36 65 55 66
REMARK SMILES IDX 56 67 60 68 57 69 59 70 58 71 45 72 46 73 50 74 47 75 49 76
REMARK SMILES IDX 48 77
REMARK H PARENT 14 7 21 26 65 45 43 56
REMARK Flexibility Score: inf
ROOT
ATOM      1  C   UNL     1      -3.362   6.299  -3.053  1.00  0.00     0.002 C 
ENDROOT
BRANCH   1   2
ATOM      2  C   UNL     1      -2.672   5.143  -2.329  1.00  0.00     0.021 C 
BRANCH   2   3
ATOM      3  C   UNL     1      -2.085   5.474  -0.963  1.00  0.00     0.116 C 
BRANCH   3   4
ATOM      4  N   UNL     1      -3.074   5.678   0.066  1.00  0.00    -0.355 N 
ATOM      5  C   UNL     1      -3.051   5.335   1.385  1.00  0.00     0.230 C 
ATOM      6  O   UNL     1      -3.934   5.834   2.095  1.00  0.00    -0.274 OA
ATOM      7  H   UNL     1      -3.894   6.136  -0.230  1.00  0.00     0.163 HD
BRANCH   5   8
ATOM      8  C   UNL     1      -2.003   4.404   2.010  1.00  0.00     0.139 C 
BRANCH   8   9
ATOM      9  C   UNL     1      -0.660   5.080   2.264  1.00  0.00    -0.033 A 
ATOM     10  C   UNL     1       1.706   6.558   2.753  1.00  0.00    -0.048 A 
ATOM     11  C   UNL     1       1.510   5.916   1.530  1.00  0.00     0.004 A 
ATOM     12  C   UNL     1       0.748   6.399   3.758  1.00  0.00     0.004 A 
ATOM     13  C   UNL     1       0.355   5.165   1.301  1.00  0.00     0.005 A 
ATOM     14  C   UNL     1      -0.429   5.687   3.509  1.00  0.00     0.005 A 
BRANCH  10  15
ATOM     15  C   UNL     1       2.886   7.479   2.944  1.00  0.00     0.038 C 
BRANCH  15  16
ATOM     16  C   UNL     1       2.637   8.877   2.339  1.00  0.00    -0.013 C 
ATOM     17  C   UNL     1       1.521   9.633   3.068  1.00  0.00     0.008 C 
ATOM     18  C   UNL     1       3.923   9.703   2.369  1.00  0.00     0.008 C 
ENDBRANCH  15  16
ENDBRANCH  10  15
ENDBRANCH   8   9
BRANCH   8  19
ATOM     19  C   UNL     1      -1.930   3.024   1.369  1.00  0.00     0.232 C 
ATOM     20  F   UNL     1      -3.184   2.543   1.154  1.00  0.00    -0.250 F 
ENDBRANCH   8  19
ENDBRANCH   5   8
ENDBRANCH   3   4
ENDBRANCH   2   3
ENDBRANCH   1   2
BRANCH   1  21
ATOM     21  C   UNL     1      -2.535   7.577  -3.220  1.00  0.00     0.002 C 
BRANCH  21  22
ATOM     22  C   UNL     1      -1.138   7.406  -3.822  1.00  0.00     0.021 C 
BRANCH  22  23
ATOM     23  C   UNL     1      -1.075   6.663  -5.153  1.00  0.00     0.116 C 
BRANCH  23  24
ATOM     24  N   UNL     1      -1.867   7.299  -6.191  1.00  0.00    -0.352 N 
ATOM     25  C   UNL     1      -1.510   7.673  -7.462  1.00  0.00     0.251 C 
ATOM     26  H   UNL     1      -2.800   7.492  -5.945  1.00  0.00     0.163 HD
ATOM     27  O   UNL     1      -2.281   8.336  -8.146  1.00  0.00    -0.269 OA
BRANCH  25  28
ATOM     28  C   UNL     1      -0.184   7.301  -8.004  1.00  0.00     0.039 A 
ATOM     29  C   UNL     1       0.552   8.268  -8.693  1.00  0.00     0.014 A 
ATOM     30  C   UNL     1       0.328   6.009  -7.853  1.00  0.00     0.014 A 
ATOM     31  C   UNL     1       1.825   7.959  -9.177  1.00  0.00     0.010 A 
ATOM     32  C   UNL     1       1.625   5.722  -8.273  1.00  0.00     0.010 A 
ATOM     33  C   UNL     1       2.388   6.694  -8.940  1.00  0.00    -0.014 A 
BRANCH  33  34
ATOM     34  C   UNL     1       3.774   6.379  -9.373  1.00  0.00     0.031 A 
ATOM     35  C   UNL     1       4.026   5.305 -10.398  1.00  0.00     0.074 A 
ATOM     36  C   UNL     1       4.812   7.017  -8.796  1.00  0.00     0.049 A 
ATOM     37  N   UNL     1       5.168   4.855 -10.855  1.00  0.00    -0.248 NA
ATOM     38  C   UNL     1       2.847   4.633 -10.968  1.00  0.00     0.031 C 
ATOM     39  C   UNL     1       4.705   8.047  -7.760  1.00  0.00     0.029 A 
ATOM     40  N   UNL     1       6.165   6.886  -8.992  1.00  0.00    -0.354 N 
ATOM     41  C   UNL     1       4.845   3.837 -11.743  1.00  0.00     0.074 A 
ATOM     42  C   UNL     1       3.405   3.708 -11.736  1.00  0.00     0.031 C 
ATOM     43  C   UNL     1       5.937   8.466  -7.425  1.00  0.00     0.029 A 
ATOM     44  C   UNL     1       6.921   7.707  -8.189  1.00  0.00     0.049 A 
ATOM     45  H   UNL     1       6.556   6.263  -9.646  1.00  0.00     0.167 HD
ATOM     46  C   UNL     1       5.674   3.085 -12.506  1.00  0.00     0.031 A 
ATOM     47  C   UNL     1       8.258   7.825  -8.068  1.00  0.00     0.031 A 
ATOM     48  C   UNL     1       7.105   3.230 -12.533  1.00  0.00     0.049 A 
ATOM     49  C   UNL     1       9.150   6.972  -8.928  1.00  0.00     0.074 A 
ATOM     50  C   UNL     1       8.020   2.569 -13.335  1.00  0.00     0.029 A 
ATOM     51  N   UNL     1       7.829   4.086 -11.720  1.00  0.00    -0.354 N 
ATOM     52  N   UNL     1       8.822   6.080  -9.831  1.00  0.00    -0.248 NA
ATOM     53  C   UNL     1      10.600   7.151  -8.759  1.00  0.00     0.031 C 
ATOM     54  C   UNL     1       9.303   2.978 -12.963  1.00  0.00     0.029 A 
ATOM     55  C   UNL     1       9.182   3.943 -11.977  1.00  0.00     0.049 A 
ATOM     56  H   UNL     1       7.440   4.704 -11.060  1.00  0.00     0.167 HD
ATOM     57  C   UNL     1      10.021   5.618 -10.359  1.00  0.00     0.074 A 
ATOM     58  C   UNL     1      11.082   6.342  -9.691  1.00  0.00     0.031 C 
ATOM     59  C   UNL     1      10.226   4.676 -11.311  1.00  0.00     0.031 A 
BRANCH  46  60
ATOM     60  C   UNL     1       5.064   2.022 -13.378  1.00  0.00    -0.014 A 
ATOM     61  C   UNL     1       4.334   2.352 -14.530  1.00  0.00     0.009 A 
ATOM     62  C   UNL     1       5.301   0.669 -13.088  1.00  0.00     0.009 A 
ATOM     63  C   UNL     1       3.839   1.347 -15.364  1.00  0.00     0.001 A 
ATOM     64  C   UNL     1       4.829  -0.332 -13.938  1.00  0.00     0.001 A 
ATOM     65  C   UNL     1       4.094   0.007 -15.072  1.00  0.00     0.000 A 
ENDBRANCH  46  60
BRANCH  47  66
ATOM     66  C   UNL     1       8.847   8.774  -7.085  1.00  0.00    -0.014 A 
ATOM     67  C   UNL     1       9.578   9.892  -7.514  1.00  0.00     0.009 A 
ATOM     68  C   UNL     1       8.722   8.537  -5.706  1.00  0.00     0.009 A 
ATOM     69  C   UNL     1      10.211  10.725  -6.588  1.00  0.00     0.001 A 
ATOM     70  C   UNL     1       9.325   9.392  -4.781  1.00  0.00     0.001 A 
ATOM     71  C   UNL     1      10.082  10.475  -5.223  1.00  0.00     0.000 A 
ENDBRANCH  47  66
BRANCH  59  72
ATOM     72  C   UNL     1      11.647   4.405 -11.720  1.00  0.00    -0.014 A 
ATOM     73  C   UNL     1      12.541   3.743 -10.866  1.00  0.00     0.009 A 
ATOM     74  C   UNL     1      12.083   4.783 -13.000  1.00  0.00     0.009 A 
ATOM     75  C   UNL     1      13.854   3.497 -11.272  1.00  0.00     0.001 A 
ATOM     76  C   UNL     1      13.385   4.506 -13.416  1.00  0.00     0.001 A 
ATOM     77  C   UNL     1      14.273   3.873 -12.548  1.00  0.00     0.000 A 
ENDBRANCH  59  72
ENDBRANCH  33  34
ENDBRANCH  25  28
ENDBRANCH  23  24
ENDBRANCH  22  23
ENDBRANCH  21  22
ENDBRANCH   1  21
TORSDOF 17
