REMARK SMILES O=C(NCCCCCCNC(=O)[C@H]1C[NH2+]CCN1c1ncc(C(F)(F)F)cc1Cl)c1ccc(-c2c3nc(c(-c4ccccc4)c4ccc([nH]4)c(-c4ccccc4)c4nc(c(-c5ccccc5)c5ccc2[nH]5)C=C4)C=C3)cc1
REMARK SMILES IDX 6 1 5 2 4 3 3 4 1 5 2 6 30 8 31 9 77 10 32 11 76 12 33 13
REMARK SMILES IDX 34 14 35 15 70 16 36 17 75 18 69 19 71 20 37 21 74 22 68 23
REMARK SMILES IDX 67 24 38 26 60 27 45 28 59 29 46 30 49 31 58 32 72 33 47 34
REMARK SMILES IDX 48 35 57 37 73 38 50 39 39 40 40 41 44 42 41 43 43 44 42 45
REMARK SMILES IDX 61 46 62 47 66 48 63 49 65 50 64 51 51 52 52 53 56 54 53 55
REMARK SMILES IDX 55 56 54 57 7 58 8 59 9 60 10 61 11 62 12 64 13 65 14 66
REMARK SMILES IDX 18 67 15 68 17 69 16 70 19 73 20 74 28 75 21 76 27 77 29 78
REMARK SMILES IDX 22 79 23 80 24 81 25 82 26 83
REMARK H PARENT 3 7 71 25 49 36 10 63 15 71 15 72
REMARK Flexibility Score: inf
ROOT
ATOM      1  C   UNL     1      15.022  -0.284   8.782  1.00  0.00     0.002 C 
ENDROOT
BRANCH   1   2
ATOM      2  C   UNL     1      15.553  -0.546   7.370  1.00  0.00     0.021 C 
BRANCH   2   3
ATOM      3  C   UNL     1      16.451   0.554   6.818  1.00  0.00     0.116 C 
BRANCH   3   4
ATOM      4  N   UNL     1      17.601   0.799   7.673  1.00  0.00    -0.352 N 
ATOM      5  O   UNL     1      19.764   0.699   8.302  1.00  0.00    -0.269 OA
ATOM      6  C   UNL     1      18.938   0.662   7.399  1.00  0.00     0.251 C 
ATOM      7  H   UNL     1      17.389   1.108   8.583  1.00  0.00     0.163 HD
BRANCH   6   8
ATOM      8  C   UNL     1      19.375   0.465   6.003  1.00  0.00     0.039 A 
ATOM      9  C   UNL     1      18.823   1.235   4.977  1.00  0.00     0.014 A 
ATOM     10  C   UNL     1      20.364  -0.481   5.723  1.00  0.00     0.014 A 
ATOM     11  C   UNL     1      19.164   0.972   3.658  1.00  0.00     0.010 A 
ATOM     12  C   UNL     1      20.776  -0.678   4.403  1.00  0.00     0.010 A 
ATOM     13  C   UNL     1      20.165   0.035   3.360  1.00  0.00    -0.014 A 
BRANCH  13  14
ATOM     14  C   UNL     1      20.621  -0.111   1.957  1.00  0.00     0.031 A 
ATOM     15  C   UNL     1      20.446  -1.399   1.208  1.00  0.00     0.074 A 
ATOM     16  C   UNL     1      21.195   0.952   1.361  1.00  0.00     0.049 A 
ATOM     17  N   UNL     1      20.786  -1.684  -0.024  1.00  0.00    -0.248 NA
ATOM     18  C   UNL     1      19.817  -2.514   1.932  1.00  0.00     0.031 C 
ATOM     19  C   UNL     1      21.425   2.253   1.997  1.00  0.00     0.029 A 
ATOM     20  N   UNL     1      21.677   1.115   0.088  1.00  0.00    -0.354 N 
ATOM     21  C   UNL     1      20.433  -3.014  -0.217  1.00  0.00     0.074 A 
ATOM     22  C   UNL     1      19.876  -3.487   1.033  1.00  0.00     0.031 C 
ATOM     23  C   UNL     1      21.964   3.091   1.101  1.00  0.00     0.029 A 
ATOM     24  C   UNL     1      22.186   2.369  -0.145  1.00  0.00     0.049 A 
ATOM     25  H   UNL     1      21.659   0.404  -0.592  1.00  0.00     0.167 HD
ATOM     26  C   UNL     1      20.563  -3.767  -1.336  1.00  0.00     0.031 A 
ATOM     27  C   UNL     1      22.793   2.878  -1.231  1.00  0.00     0.031 A 
ATOM     28  C   UNL     1      21.134  -3.289  -2.570  1.00  0.00     0.049 A 
ATOM     29  C   UNL     1      22.965   2.007  -2.439  1.00  0.00     0.074 A 
ATOM     30  C   UNL     1      21.277  -3.963  -3.771  1.00  0.00     0.029 A 
ATOM     31  N   UNL     1      21.670  -2.023  -2.756  1.00  0.00    -0.354 N 
ATOM     32  N   UNL     1      22.579   0.768  -2.623  1.00  0.00    -0.248 NA
ATOM     33  C   UNL     1      23.652   2.606  -3.590  1.00  0.00     0.031 C 
ATOM     34  C   UNL     1      21.961  -3.128  -4.661  1.00  0.00     0.029 A 
ATOM     35  C   UNL     1      22.177  -1.908  -4.041  1.00  0.00     0.049 A 
ATOM     36  H   UNL     1      21.687  -1.312  -2.076  1.00  0.00     0.167 HD
ATOM     37  C   UNL     1      22.959   0.443  -3.917  1.00  0.00     0.074 A 
ATOM     38  C   UNL     1      23.583   1.625  -4.478  1.00  0.00     0.031 C 
ATOM     39  C   UNL     1      22.805  -0.729  -4.581  1.00  0.00     0.031 A 
BRANCH  26  40
ATOM     40  C   UNL     1      20.117  -5.203  -1.264  1.00  0.00    -0.014 A 
ATOM     41  C   UNL     1      18.760  -5.548  -1.154  1.00  0.00     0.009 A 
ATOM     42  C   UNL     1      21.070  -6.231  -1.343  1.00  0.00     0.009 A 
ATOM     43  C   UNL     1      18.372  -6.889  -1.086  1.00  0.00     0.001 A 
ATOM     44  C   UNL     1      20.678  -7.571  -1.306  1.00  0.00     0.001 A 
ATOM     45  C   UNL     1      19.331  -7.898  -1.166  1.00  0.00     0.000 A 
ENDBRANCH  26  40
BRANCH  27  46
ATOM     46  C   UNL     1      23.305   4.273  -1.202  1.00  0.00    -0.014 A 
ATOM     47  C   UNL     1      22.716   5.272  -1.990  1.00  0.00     0.009 A 
ATOM     48  C   UNL     1      24.379   4.615  -0.363  1.00  0.00     0.009 A 
ATOM     49  C   UNL     1      23.207   6.579  -1.956  1.00  0.00     0.001 A 
ATOM     50  C   UNL     1      24.845   5.929  -0.305  1.00  0.00     0.001 A 
ATOM     51  C   UNL     1      24.266   6.908  -1.109  1.00  0.00     0.000 A 
ENDBRANCH  27  46
BRANCH  39  52
ATOM     52  C   UNL     1      23.294  -0.776  -6.002  1.00  0.00    -0.014 A 
ATOM     53  C   UNL     1      24.664  -0.764  -6.306  1.00  0.00     0.009 A 
ATOM     54  C   UNL     1      22.365  -0.863  -7.051  1.00  0.00     0.009 A 
ATOM     55  C   UNL     1      25.092  -0.801  -7.635  1.00  0.00     0.001 A 
ATOM     56  C   UNL     1      22.796  -0.934  -8.376  1.00  0.00     0.001 A 
ATOM     57  C   UNL     1      24.158  -0.892  -8.667  1.00  0.00     0.000 A 
ENDBRANCH  39  52
ENDBRANCH  13  14
ENDBRANCH   6   8
ENDBRANCH   3   4
ENDBRANCH   2   3
ENDBRANCH   1   2
BRANCH   1  58
ATOM     58  C   UNL     1      14.243   1.026   8.963  1.00  0.00     0.002 C 
BRANCH  58  59
ATOM     59  C   UNL     1      13.114   1.256   7.959  1.00  0.00     0.021 C 
BRANCH  59  60
ATOM     60  C   UNL     1      12.092   0.126   7.894  1.00  0.00     0.116 C 
BRANCH  60  61
ATOM     61  N   UNL     1      10.969   0.305   8.773  1.00  0.00    -0.354 N 
ATOM     62  C   UNL     1       9.631   0.233   8.507  1.00  0.00     0.248 C 
ATOM     63  H   UNL     1      11.198   0.509   9.708  1.00  0.00     0.163 HD
ATOM     64  O   UNL     1       8.888   0.239   9.499  1.00  0.00    -0.272 OA
BRANCH  62  65
ATOM     65  C   UNL     1       9.015   0.252   7.079  1.00  0.00     0.228 C 
ATOM     66  C   UNL     1       9.305   1.579   6.332  1.00  0.00     0.296 C 
ATOM     67  N   UNL     1       9.279  -0.955   6.266  1.00  0.00    -0.333 N 
ATOM     68  N   UNL     1      10.425   1.624   5.375  1.00  0.00    -0.343 N 
ATOM     69  C   UNL     1      10.296  -0.959   5.218  1.00  0.00     0.180 C 
ATOM     70  C   UNL     1      10.468   0.418   4.534  1.00  0.00     0.282 C 
ATOM     71  H   UNL     1      11.300   1.698   5.893  1.00  0.00     0.346 HD
ATOM     72  H   UNL     1      10.292   2.432   4.767  1.00  0.00     0.346 HD
BRANCH  67  73
ATOM     73  C   UNL     1       8.271  -1.886   6.057  1.00  0.00     0.148 A 
ATOM     74  N   UNL     1       8.535  -3.139   6.499  1.00  0.00    -0.237 NA
ATOM     75  C   UNL     1       7.121  -1.633   5.285  1.00  0.00     0.084 A 
ATOM     76  C   UNL     1       7.668  -4.138   6.196  1.00  0.00     0.126 A 
ATOM     77  C   UNL     1       6.251  -2.681   4.977  1.00  0.00     0.039 A 
ATOM     78  Cl  UNL     1       6.756  -0.099   4.582  1.00  0.00    -0.080 Cl
ATOM     79  C   UNL     1       6.527  -3.970   5.429  1.00  0.00     0.075 A 
BRANCH  79  80
ATOM     80  C   UNL     1       5.665  -5.143   5.085  1.00  0.00     0.417 C 
ATOM     81  F   UNL     1       6.348  -6.105   4.405  1.00  0.00    -0.166 F 
ATOM     82  F   UNL     1       5.145  -5.754   6.182  1.00  0.00    -0.166 F 
ATOM     83  F   UNL     1       4.602  -4.818   4.297  1.00  0.00    -0.166 F 
ENDBRANCH  79  80
ENDBRANCH  67  73
ENDBRANCH  62  65
ENDBRANCH  60  61
ENDBRANCH  59  60
ENDBRANCH  58  59
ENDBRANCH   1  58
TORSDOF 15
