REMARK SMILES CC(C)[C@H]1CC[C@@H](C)/C(=C/c2ccc(NC(=O)CCC(=O)NCCCCCCNC(=O)c3ccc(-c4c5nc(c(-c6ccccc6)c6ccc([nH]6)c(-c6ccccc6)c6nc(c(-c7ccccc7)c7ccc4[nH]7)C=C6)C=C5)cc3)cc2)C1=O
REMARK SMILES IDX 24 1 23 2 22 3 20 4 21 5 19 7 18 8 16 9 15 10 17 12 14 13
REMARK SMILES IDX 11 14 12 15 81 16 13 17 80 18 10 19 4 20 5 21 82 22 6 23
REMARK SMILES IDX 9 24 83 25 7 26 8 27 2 28 1 29 3 30 25 31 26 32 27 33 28 34
REMARK SMILES IDX 29 35 30 36 31 38 32 39 33 40 79 41 34 42 78 43 35 44 36 45
REMARK SMILES IDX 37 46 72 47 38 48 77 49 71 50 73 51 39 52 76 53 70 54 69 55
REMARK SMILES IDX 40 57 62 58 47 59 61 60 48 61 51 62 60 63 74 64 49 65 50 66
REMARK SMILES IDX 59 68 75 69 52 70 41 71 42 72 46 73 43 74 45 75 44 76 63 77
REMARK SMILES IDX 64 78 68 79 65 80 67 81 66 82 53 83 54 84 58 85 55 86 57 87
REMARK SMILES IDX 56 88
REMARK H PARENT 22 6 15 11 29 37 73 56 51 67
REMARK Flexibility Score: inf
ROOT
ATOM      1  C   UNL     1       3.296   1.087   7.017  1.00  0.00     0.021 C 
ENDROOT
BRANCH   1   2
ATOM      2  C   UNL     1       3.863   2.495   7.172  1.00  0.00     0.116 C 
BRANCH   2   3
ATOM      3  N   UNL     1       3.220   3.461   6.303  1.00  0.00    -0.356 N 
ATOM      4  C   UNL     1       2.618   4.644   6.607  1.00  0.00     0.220 C 
ATOM      5  O   UNL     1       2.245   5.372   5.686  1.00  0.00    -0.275 OA
ATOM      6  H   UNL     1       3.217   3.226   5.347  1.00  0.00     0.163 HD
BRANCH   4   7
ATOM      7  C   UNL     1       2.445   5.063   8.049  1.00  0.00     0.110 C 
BRANCH   7   8
ATOM      8  C   UNL     1       1.146   4.644   8.727  1.00  0.00     0.110 C 
BRANCH   8   9
ATOM      9  C   UNL     1       0.854   3.159   8.765  1.00  0.00     0.224 C 
ATOM     10  N   UNL     1       0.194   2.512   7.760  1.00  0.00    -0.326 N 
ATOM     11  H   UNL     1      -0.078   1.587   7.960  1.00  0.00     0.169 HD
ATOM     12  O   UNL     1       1.288   2.474   9.698  1.00  0.00    -0.275 OA
BRANCH  10  13
ATOM     13  C   UNL     1      -0.151   2.979   6.488  1.00  0.00     0.041 A 
ATOM     14  C   UNL     1      -0.512   3.893   3.870  1.00  0.00    -0.025 A 
ATOM     15  C   UNL     1      -0.977   4.644   4.953  1.00  0.00     0.010 A 
ATOM     16  C   UNL     1       0.129   2.675   4.107  1.00  0.00     0.010 A 
ATOM     17  C   UNL     1      -0.797   4.188   6.259  1.00  0.00     0.027 A 
ATOM     18  C   UNL     1       0.234   2.187   5.405  1.00  0.00     0.027 A 
BRANCH  14  19
ATOM     19  C   UNL     1      -0.784   4.379   2.517  1.00  0.00     0.015 C 
ATOM     20  C   UNL     1      -1.243   1.268   0.665  1.00  0.00     0.063 C 
ATOM     21  C   UNL     1      -1.636   1.816  -0.716  1.00  0.00     0.013 C 
ATOM     22  C   UNL     1      -1.762   2.216   1.746  1.00  0.00     0.162 C 
ATOM     23  C   UNL     1      -1.209   3.277  -0.893  1.00  0.00     0.009 C 
ATOM     24  C   UNL     1      -1.388   3.658   1.556  1.00  0.00    -0.001 C 
ATOM     25  O   UNL     1      -2.413   1.849   2.718  1.00  0.00    -0.294 OA
ATOM     26  C   UNL     1      -1.762   4.200   0.203  1.00  0.00     0.020 C 
ATOM     27  C   UNL     1      -3.286   4.368   0.121  1.00  0.00     0.013 C 
BRANCH  20  28
ATOM     28  C   UNL     1      -1.670  -0.199   0.922  1.00  0.00    -0.007 C 
ATOM     29  C   UNL     1      -3.175  -0.443   0.770  1.00  0.00     0.008 C 
ATOM     30  C   UNL     1      -0.903  -1.173   0.021  1.00  0.00     0.008 C 
ENDBRANCH  20  28
ENDBRANCH  14  19
ENDBRANCH  10  13
ENDBRANCH   8   9
ENDBRANCH   7   8
ENDBRANCH   4   7
ENDBRANCH   2   3
ENDBRANCH   1   2
BRANCH   1  31
ATOM     31  C   UNL     1       3.442   0.476   5.620  1.00  0.00     0.002 C 
BRANCH  31  32
ATOM     32  C   UNL     1       4.879   0.177   5.203  1.00  0.00     0.002 C 
BRANCH  32  33
ATOM     33  C   UNL     1       5.665  -0.676   6.198  1.00  0.00     0.021 C 
BRANCH  33  34
ATOM     34  C   UNL     1       4.958  -1.954   6.635  1.00  0.00     0.116 C 
BRANCH  34  35
ATOM     35  N   UNL     1       4.670  -2.833   5.514  1.00  0.00    -0.352 N 
ATOM     36  C   UNL     1       4.995  -4.157   5.360  1.00  0.00     0.251 C 
ATOM     37  H   UNL     1       4.176  -2.424   4.766  1.00  0.00     0.163 HD
ATOM     38  O   UNL     1       4.861  -4.719   4.284  1.00  0.00    -0.269 OA
BRANCH  36  39
ATOM     39  C   UNL     1       5.536  -4.888   6.523  1.00  0.00     0.039 A 
ATOM     40  C   UNL     1       6.716  -5.614   6.372  1.00  0.00     0.014 A 
ATOM     41  C   UNL     1       4.893  -4.816   7.763  1.00  0.00     0.014 A 
ATOM     42  C   UNL     1       7.278  -6.238   7.484  1.00  0.00     0.010 A 
ATOM     43  C   UNL     1       5.499  -5.369   8.885  1.00  0.00     0.010 A 
ATOM     44  C   UNL     1       6.690  -6.097   8.754  1.00  0.00    -0.014 A 
BRANCH  44  45
ATOM     45  C   UNL     1       7.325  -6.716   9.942  1.00  0.00     0.031 A 
ATOM     46  C   UNL     1       6.627  -7.816  10.692  1.00  0.00     0.074 A 
ATOM     47  C   UNL     1       8.533  -6.279  10.345  1.00  0.00     0.049 A 
ATOM     48  N   UNL     1       7.063  -8.532  11.697  1.00  0.00    -0.248 NA
ATOM     49  C   UNL     1       5.253  -8.143  10.276  1.00  0.00     0.031 C 
ATOM     50  C   UNL     1       9.282  -5.177   9.735  1.00  0.00     0.029 A 
ATOM     51  N   UNL     1       9.352  -6.719  11.352  1.00  0.00    -0.354 N 
ATOM     52  C   UNL     1       6.021  -9.388  12.031  1.00  0.00     0.074 A 
ATOM     53  C   UNL     1       4.909  -9.058  11.168  1.00  0.00     0.031 C 
ATOM     54  C   UNL     1      10.473  -5.066  10.343  1.00  0.00     0.029 A 
ATOM     55  C   UNL     1      10.558  -6.062  11.406  1.00  0.00     0.049 A 
ATOM     56  H   UNL     1       9.101  -7.438  11.977  1.00  0.00     0.167 HD
ATOM     57  C   UNL     1       6.000 -10.378  12.954  1.00  0.00     0.031 A 
ATOM     58  C   UNL     1      11.618  -6.251  12.213  1.00  0.00     0.031 A 
ATOM     59  C   UNL     1       7.107 -10.698  13.816  1.00  0.00     0.049 A 
ATOM     60  C   UNL     1      11.567  -7.353  13.233  1.00  0.00     0.074 A 
ATOM     61  C   UNL     1       7.208 -11.712  14.752  1.00  0.00     0.029 A 
ATOM     62  N   UNL     1       8.305 -10.000  13.851  1.00  0.00    -0.354 N 
ATOM     63  N   UNL     1      10.607  -8.214  13.476  1.00  0.00    -0.248 NA
ATOM     64  C   UNL     1      12.757  -7.522  14.077  1.00  0.00     0.031 C 
ATOM     65  C   UNL     1       8.443 -11.589  15.397  1.00  0.00     0.029 A 
ATOM     66  C   UNL     1       9.140 -10.543  14.814  1.00  0.00     0.049 A 
ATOM     67  H   UNL     1       8.528  -9.232  13.277  1.00  0.00     0.167 HD
ATOM     68  C   UNL     1      11.087  -9.041  14.483  1.00  0.00     0.074 A 
ATOM     69  C   UNL     1      12.434  -8.597  14.780  1.00  0.00     0.031 C 
ATOM     70  C   UNL     1      10.470 -10.075  15.109  1.00  0.00     0.031 A 
BRANCH  57  71
ATOM     71  C   UNL     1       4.731 -11.178  13.082  1.00  0.00    -0.014 A 
ATOM     72  C   UNL     1       4.306 -12.040  12.057  1.00  0.00     0.009 A 
ATOM     73  C   UNL     1       3.963 -11.090  14.252  1.00  0.00     0.009 A 
ATOM     74  C   UNL     1       3.118 -12.764  12.186  1.00  0.00     0.001 A 
ATOM     75  C   UNL     1       2.793 -11.840  14.393  1.00  0.00     0.001 A 
ATOM     76  C   UNL     1       2.367 -12.668  13.356  1.00  0.00     0.000 A 
ENDBRANCH  57  71
BRANCH  58  77
ATOM     77  C   UNL     1      12.827  -5.397  12.072  1.00  0.00    -0.014 A 
ATOM     78  C   UNL     1      14.035  -5.937  11.604  1.00  0.00     0.009 A 
ATOM     79  C   UNL     1      12.783  -4.037  12.416  1.00  0.00     0.009 A 
ATOM     80  C   UNL     1      15.181  -5.142  11.515  1.00  0.00     0.001 A 
ATOM     81  C   UNL     1      13.921  -3.236  12.295  1.00  0.00     0.001 A 
ATOM     82  C   UNL     1      15.121  -3.792  11.857  1.00  0.00     0.000 A 
ENDBRANCH  58  77
BRANCH  70  83
ATOM     83  C   UNL     1      11.265 -10.805  16.157  1.00  0.00    -0.014 A 
ATOM     84  C   UNL     1      11.608 -10.193  17.374  1.00  0.00     0.009 A 
ATOM     85  C   UNL     1      11.676 -12.126  15.922  1.00  0.00     0.009 A 
ATOM     86  C   UNL     1      12.394 -10.870  18.308  1.00  0.00     0.001 A 
ATOM     87  C   UNL     1      12.429 -12.814  16.875  1.00  0.00     0.001 A 
ATOM     88  C   UNL     1      12.802 -12.180  18.059  1.00  0.00     0.000 A 
ENDBRANCH  70  83
ENDBRANCH  44  45
ENDBRANCH  36  39
ENDBRANCH  34  35
ENDBRANCH  33  34
ENDBRANCH  32  33
ENDBRANCH  31  32
ENDBRANCH   1  31
TORSDOF 18
