REMARK SMILES CCCCCCNC(=O)Oc1cccc(-c2ccc([C@@H](C)C(=O)NCCCCCCNC(=O)c3ccc(-c4c5nc(c(-c6ccccc6)c6ccc([nH]6)c(-c6ccccc6)c6nc(c(-c7ccccc7)c7ccc4[nH]7)C=C6)C=C5)cc3)cc2)c1
REMARK SMILES IDX 22 1 23 2 24 3 20 5 21 6 19 7 16 8 17 9 83 10 18 11 82 12
REMARK SMILES IDX 15 13 11 14 12 15 84 16 13 17 14 18 10 19 8 20 7 21 9 23
REMARK SMILES IDX 6 24 5 25 4 26 3 27 2 28 1 29 25 30 26 31 27 32 28 33 29 34
REMARK SMILES IDX 30 35 31 36 32 37 33 39 34 40 35 41 81 42 36 43 80 44 37 45
REMARK SMILES IDX 38 46 39 47 74 48 40 49 79 50 73 51 75 52 41 53 78 54 72 55
REMARK SMILES IDX 71 56 42 58 64 59 49 60 63 61 50 62 53 63 62 64 76 65 51 66
REMARK SMILES IDX 52 67 61 69 77 70 54 71 43 72 44 73 48 74 45 75 47 76 46 77
REMARK SMILES IDX 65 78 66 79 70 80 67 81 69 82 68 83 55 84 56 85 60 86 57 87
REMARK SMILES IDX 59 88 58 89
REMARK H PARENT 24 4 7 22 31 38 75 57 53 68
REMARK Flexibility Score: inf
ROOT
ATOM      1  C   UNL     1      -3.269 -13.478  -4.485  1.00  0.00     0.227 C 
ATOM      2  O   UNL     1      -2.348 -13.737  -3.700  1.00  0.00    -0.274 OA
ATOM      3  N   UNL     1      -3.014 -13.687  -5.805  1.00  0.00    -0.356 N 
ATOM      4  H   UNL     1      -2.137 -14.098  -5.987  1.00  0.00     0.163 HD
ENDROOT
BRANCH   1   5
ATOM      5  C   UNL     1      -4.615 -12.973  -3.945  1.00  0.00     0.105 C 
ATOM      6  C   UNL     1      -5.794 -13.896  -4.257  1.00  0.00     0.023 C 
BRANCH   5   7
ATOM      7  C   UNL     1      -4.853 -11.490  -4.180  1.00  0.00    -0.036 A 
ATOM      8  C   UNL     1      -5.128  -8.676  -4.608  1.00  0.00    -0.018 A 
ATOM      9  C   UNL     1      -5.604  -9.613  -5.536  1.00  0.00     0.009 A 
ATOM     10  C   UNL     1      -4.540  -9.184  -3.439  1.00  0.00     0.009 A 
ATOM     11  C   UNL     1      -5.500 -10.990  -5.312  1.00  0.00     0.005 A 
ATOM     12  C   UNL     1      -4.386 -10.562  -3.237  1.00  0.00     0.005 A 
BRANCH   8  13
ATOM     13  C   UNL     1      -5.232  -7.223  -4.869  1.00  0.00    -0.015 A 
ATOM     14  C   UNL     1      -4.332  -4.967  -4.733  1.00  0.00     0.133 A 
ATOM     15  C   UNL     1      -5.423  -4.448  -5.420  1.00  0.00     0.047 A 
ATOM     16  C   UNL     1      -4.231  -6.331  -4.450  1.00  0.00     0.056 A 
ATOM     17  C   UNL     1      -6.426  -5.312  -5.844  1.00  0.00     0.004 A 
ATOM     18  C   UNL     1      -6.333  -6.679  -5.562  1.00  0.00     0.009 A 
BRANCH  14  19
ATOM     19  O   UNL     1      -3.404  -4.048  -4.221  1.00  0.00    -0.410 OA
BRANCH  19  20
ATOM     20  C   UNL     1      -2.066  -4.237  -4.529  1.00  0.00     0.412 C 
ATOM     21  N   UNL     1      -1.245  -3.349  -3.889  1.00  0.00    -0.321 N 
ATOM     22  H   UNL     1      -0.282  -3.419  -4.082  1.00  0.00     0.167 HD
ATOM     23  O   UNL     1      -1.610  -5.083  -5.288  1.00  0.00    -0.224 OA
BRANCH  21  24
ATOM     24  C   UNL     1      -1.647  -2.315  -2.957  1.00  0.00     0.119 C 
BRANCH  24  25
ATOM     25  C   UNL     1      -1.042  -2.530  -1.570  1.00  0.00     0.021 C 
BRANCH  25  26
ATOM     26  C   UNL     1       0.488  -2.444  -1.516  1.00  0.00     0.002 C 
BRANCH  26  27
ATOM     27  C   UNL     1       1.093  -1.131  -2.023  1.00  0.00    -0.000 C 
BRANCH  27  28
ATOM     28  C   UNL     1       0.607   0.134  -1.312  1.00  0.00    -0.003 C 
ATOM     29  C   UNL     1       0.966   0.168   0.166  1.00  0.00     0.004 C 
ENDBRANCH  27  28
ENDBRANCH  26  27
ENDBRANCH  25  26
ENDBRANCH  24  25
ENDBRANCH  21  24
ENDBRANCH  19  20
ENDBRANCH  14  19
ENDBRANCH   8  13
ENDBRANCH   5   7
ENDBRANCH   1   5
BRANCH   3  30
ATOM     30  C   UNL     1      -3.799 -13.415  -6.989  1.00  0.00     0.116 C 
BRANCH  30  31
ATOM     31  C   UNL     1      -3.325 -12.149  -7.706  1.00  0.00     0.021 C 
BRANCH  31  32
ATOM     32  C   UNL     1      -2.225 -12.401  -8.743  1.00  0.00     0.002 C 
BRANCH  32  33
ATOM     33  C   UNL     1      -2.638 -13.286  -9.928  1.00  0.00     0.002 C 
BRANCH  33  34
ATOM     34  C   UNL     1      -3.872 -12.814 -10.704  1.00  0.00     0.021 C 
BRANCH  34  35
ATOM     35  C   UNL     1      -3.738 -11.428 -11.331  1.00  0.00     0.116 C 
BRANCH  35  36
ATOM     36  N   UNL     1      -2.678 -11.385 -12.326  1.00  0.00    -0.352 N 
ATOM     37  C   UNL     1      -2.744 -11.115 -13.670  1.00  0.00     0.251 C 
ATOM     38  H   UNL     1      -1.775 -11.578 -11.984  1.00  0.00     0.163 HD
ATOM     39  O   UNL     1      -1.785 -11.356 -14.396  1.00  0.00    -0.269 OA
BRANCH  37  40
ATOM     40  C   UNL     1      -3.976 -10.542 -14.252  1.00  0.00     0.039 A 
ATOM     41  C   UNL     1      -4.452 -11.048 -15.464  1.00  0.00     0.014 A 
ATOM     42  C   UNL     1      -4.641  -9.486 -13.623  1.00  0.00     0.014 A 
ATOM     43  C   UNL     1      -5.628 -10.535 -16.016  1.00  0.00     0.010 A 
ATOM     44  C   UNL     1      -5.848  -9.020 -14.139  1.00  0.00     0.010 A 
ATOM     45  C   UNL     1      -6.352  -9.539 -15.341  1.00  0.00    -0.014 A 
BRANCH  45  46
ATOM     46  C   UNL     1      -7.642  -9.034 -15.873  1.00  0.00     0.031 A 
ATOM     47  C   UNL     1      -7.775  -7.602 -16.313  1.00  0.00     0.074 A 
ATOM     48  C   UNL     1      -8.715  -9.849 -15.896  1.00  0.00     0.049 A 
ATOM     49  N   UNL     1      -8.835  -6.967 -16.744  1.00  0.00    -0.248 NA
ATOM     50  C   UNL     1      -6.564  -6.769 -16.236  1.00  0.00     0.031 C 
ATOM     51  C   UNL     1      -8.726 -11.247 -15.461  1.00  0.00     0.029 A 
ATOM     52  N   UNL     1     -10.007  -9.614 -16.294  1.00  0.00    -0.354 N 
ATOM     53  C   UNL     1      -8.425  -5.659 -16.972  1.00  0.00     0.074 A 
ATOM     54  C   UNL     1      -7.032  -5.580 -16.590  1.00  0.00     0.031 C 
ATOM     55  C   UNL     1      -9.958 -11.751 -15.637  1.00  0.00     0.029 A 
ATOM     56  C   UNL     1     -10.831 -10.704 -16.158  1.00  0.00     0.049 A 
ATOM     57  H   UNL     1     -10.314  -8.746 -16.644  1.00  0.00     0.167 HD
ATOM     58  C   UNL     1      -9.139  -4.621 -17.470  1.00  0.00     0.031 A 
ATOM     59  C   UNL     1     -12.145 -10.845 -16.416  1.00  0.00     0.031 A 
ATOM     60  C   UNL     1     -10.522  -4.702 -17.859  1.00  0.00     0.049 A 
ATOM     61  C   UNL     1     -12.917  -9.673 -16.954  1.00  0.00     0.074 A 
ATOM     62  C   UNL     1     -11.314  -3.722 -18.431  1.00  0.00     0.029 A 
ATOM     63  N   UNL     1     -11.318  -5.826 -17.712  1.00  0.00    -0.354 N 
ATOM     64  N   UNL     1     -12.496  -8.463 -17.230  1.00  0.00    -0.248 NA
ATOM     65  C   UNL     1     -14.345  -9.892 -17.225  1.00  0.00     0.031 C 
ATOM     66  C   UNL     1     -12.606  -4.238 -18.582  1.00  0.00     0.029 A 
ATOM     67  C   UNL     1     -12.602  -5.556 -18.156  1.00  0.00     0.049 A 
ATOM     68  H   UNL     1     -11.017  -6.689 -17.346  1.00  0.00     0.167 HD
ATOM     69  C   UNL     1     -13.600  -7.784 -17.731  1.00  0.00     0.074 A 
ATOM     70  C   UNL     1     -14.703  -8.722 -17.735  1.00  0.00     0.031 C 
ATOM     71  C   UNL     1     -13.690  -6.499 -18.150  1.00  0.00     0.031 A 
BRANCH  58  72
ATOM     72  C   UNL     1      -8.434  -3.300 -17.612  1.00  0.00    -0.014 A 
ATOM     73  C   UNL     1      -7.439  -3.107 -18.584  1.00  0.00     0.009 A 
ATOM     74  C   UNL     1      -8.797  -2.223 -16.789  1.00  0.00     0.009 A 
ATOM     75  C   UNL     1      -6.797  -1.872 -18.703  1.00  0.00     0.001 A 
ATOM     76  C   UNL     1      -8.173  -0.982 -16.929  1.00  0.00     0.001 A 
ATOM     77  C   UNL     1      -7.168  -0.810 -17.879  1.00  0.00     0.000 A 
ENDBRANCH  58  72
BRANCH  59  78
ATOM     78  C   UNL     1     -12.814 -12.150 -16.178  1.00  0.00    -0.014 A 
ATOM     79  C   UNL     1     -13.236 -12.940 -17.258  1.00  0.00     0.009 A 
ATOM     80  C   UNL     1     -13.037 -12.610 -14.871  1.00  0.00     0.009 A 
ATOM     81  C   UNL     1     -13.892 -14.153 -17.033  1.00  0.00     0.001 A 
ATOM     82  C   UNL     1     -13.668 -13.837 -14.650  1.00  0.00     0.001 A 
ATOM     83  C   UNL     1     -14.103 -14.602 -15.731  1.00  0.00     0.000 A 
ENDBRANCH  59  78
BRANCH  71  84
ATOM     84  C   UNL     1     -15.021  -6.040 -18.675  1.00  0.00    -0.014 A 
ATOM     85  C   UNL     1     -16.106  -5.816 -17.813  1.00  0.00     0.009 A 
ATOM     86  C   UNL     1     -15.178  -5.792 -20.047  1.00  0.00     0.009 A 
ATOM     87  C   UNL     1     -17.332  -5.383 -18.322  1.00  0.00     0.001 A 
ATOM     88  C   UNL     1     -16.396  -5.332 -20.549  1.00  0.00     0.001 A 
ATOM     89  C   UNL     1     -17.474  -5.136 -19.687  1.00  0.00     0.000 A 
ENDBRANCH  71  84
ENDBRANCH  45  46
ENDBRANCH  37  40
ENDBRANCH  35  36
ENDBRANCH  34  35
ENDBRANCH  33  34
ENDBRANCH  32  33
ENDBRANCH  31  32
ENDBRANCH  30  31
ENDBRANCH   3  30
TORSDOF 22
