REMARK SMILES C[C@@](NC(=O)c1cc(Br)c[nH]1)(C(=O)NCCCCCCNC(=O)c1ccc(-c2c3nc(c(-c4ccccc4)c4ccc([nH]4)c(-c4ccccc4)c4nc(c(-c5ccccc5)c5ccc2[nH]5)C=C4)C=C3)cc1)C(F)(F)F
REMARK SMILES IDX 17 1 16 2 15 3 14 4 12 5 13 6 2 8 1 9 3 10 4 11 5 13 6 14
REMARK SMILES IDX 7 15 11 16 8 17 10 18 9 20 72 21 73 22 74 23 75 24 18 25
REMARK SMILES IDX 19 26 20 27 21 28 22 29 23 31 24 32 25 33 71 34 26 35 70 36
REMARK SMILES IDX 27 37 28 38 29 39 64 40 30 41 69 42 63 43 65 44 31 45 68 46
REMARK SMILES IDX 62 47 61 48 32 50 54 51 39 52 53 53 40 54 43 55 52 56 66 57
REMARK SMILES IDX 41 58 42 59 51 61 67 62 44 63 33 64 34 65 38 66 35 67 37 68
REMARK SMILES IDX 36 69 55 70 56 71 60 72 57 73 59 74 58 75 45 76 46 77 50 78
REMARK SMILES IDX 47 79 49 80 48 81
REMARK H PARENT 14 7 3 12 11 19 21 30 65 49 43 60
REMARK Flexibility Score: inf
ROOT
ATOM      1  C   UNL     1      -3.093  -2.928   1.030  1.00  0.00     0.002 C 
ENDROOT
BRANCH   1   2
ATOM      2  C   UNL     1      -1.583  -2.681   1.142  1.00  0.00     0.021 C 
BRANCH   2   3
ATOM      3  C   UNL     1      -0.966  -1.982  -0.067  1.00  0.00     0.116 C 
BRANCH   3   4
ATOM      4  N   UNL     1      -1.397  -0.598  -0.148  1.00  0.00    -0.354 N 
ATOM      5  C   UNL     1      -0.818   0.494  -0.721  1.00  0.00     0.254 C 
ATOM      6  O   UNL     1      -1.450   1.551  -0.631  1.00  0.00    -0.272 OA
ATOM      7  H   UNL     1      -2.261  -0.416   0.289  1.00  0.00     0.163 HD
BRANCH   5   8
ATOM      8  C   UNL     1       0.591   0.452  -1.336  1.00  0.00     0.212 C 
ATOM      9  C   UNL     1       1.602   0.366  -0.170  1.00  0.00     0.056 C 
BRANCH   8  10
ATOM     10  N   UNL     1       0.833  -0.714  -2.239  1.00  0.00    -0.329 N 
ATOM     11  C   UNL     1       0.151  -1.180  -3.335  1.00  0.00     0.268 C 
ATOM     12  H   UNL     1       1.628  -1.246  -2.005  1.00  0.00     0.165 HD
ATOM     13  O   UNL     1       0.770  -1.938  -4.080  1.00  0.00    -0.268 OA
BRANCH  11  14
ATOM     14  C   UNL     1      -1.265  -0.942  -3.481  1.00  0.00     0.105 A 
ATOM     15  C   UNL     1      -2.236  -1.919  -3.668  1.00  0.00     0.049 A 
ATOM     16  N   UNL     1      -1.926   0.268  -3.525  1.00  0.00    -0.356 N 
ATOM     17  C   UNL     1      -3.488  -1.284  -3.665  1.00  0.00     0.036 A 
ATOM     18  C   UNL     1      -3.283   0.065  -3.563  1.00  0.00     0.098 A 
ATOM     19  H   UNL     1      -1.488   1.150  -3.530  1.00  0.00     0.166 HD
ATOM     20  Br  UNL     1      -5.129  -2.178  -3.761  1.00  0.00    -0.049 Br
ENDBRANCH  11  14
ENDBRANCH   8  10
BRANCH   8  21
ATOM     21  C   UNL     1       0.850   1.798  -2.051  1.00  0.00     0.420 C 
ATOM     22  F   UNL     1       0.827   2.860  -1.218  1.00  0.00    -0.168 F 
ATOM     23  F   UNL     1       2.087   1.784  -2.619  1.00  0.00    -0.168 F 
ATOM     24  F   UNL     1      -0.027   2.028  -3.055  1.00  0.00    -0.168 F 
ENDBRANCH   8  21
ENDBRANCH   5   8
ENDBRANCH   3   4
ENDBRANCH   2   3
ENDBRANCH   1   2
BRANCH   1  25
ATOM     25  C   UNL     1      -3.527  -3.841  -0.120  1.00  0.00     0.002 C 
BRANCH  25  26
ATOM     26  C   UNL     1      -2.861  -5.218  -0.160  1.00  0.00     0.021 C 
BRANCH  26  27
ATOM     27  C   UNL     1      -2.939  -6.016   1.137  1.00  0.00     0.116 C 
BRANCH  27  28
ATOM     28  N   UNL     1      -4.303  -6.281   1.563  1.00  0.00    -0.352 N 
ATOM     29  C   UNL     1      -4.819  -7.419   2.131  1.00  0.00     0.251 C 
ATOM     30  H   UNL     1      -4.942  -5.545   1.427  1.00  0.00     0.163 HD
ATOM     31  O   UNL     1      -6.024  -7.520   2.340  1.00  0.00    -0.269 OA
BRANCH  29  32
ATOM     32  C   UNL     1      -3.918  -8.543   2.459  1.00  0.00     0.039 A 
ATOM     33  C   UNL     1      -4.270  -9.829   2.039  1.00  0.00     0.014 A 
ATOM     34  C   UNL     1      -2.729  -8.331   3.163  1.00  0.00     0.014 A 
ATOM     35  C   UNL     1      -3.399 -10.894   2.272  1.00  0.00     0.010 A 
ATOM     36  C   UNL     1      -1.835  -9.383   3.342  1.00  0.00     0.010 A 
ATOM     37  C   UNL     1      -2.162 -10.673   2.898  1.00  0.00    -0.014 A 
BRANCH  37  38
ATOM     38  C   UNL     1      -1.196 -11.782   3.093  1.00  0.00     0.031 A 
ATOM     39  C   UNL     1      -0.860 -12.256   4.479  1.00  0.00     0.074 A 
ATOM     40  C   UNL     1      -0.577 -12.320   2.026  1.00  0.00     0.049 A 
ATOM     41  N   UNL     1      -0.006 -13.176   4.850  1.00  0.00    -0.248 NA
ATOM     42  C   UNL     1      -1.555 -11.593   5.593  1.00  0.00     0.031 C 
ATOM     43  C   UNL     1      -0.784 -11.920   0.632  1.00  0.00     0.029 A 
ATOM     44  N   UNL     1       0.360 -13.320   1.949  1.00  0.00    -0.354 N 
ATOM     45  C   UNL     1      -0.048 -13.189   6.238  1.00  0.00     0.074 A 
ATOM     46  C   UNL     1      -0.978 -12.157   6.644  1.00  0.00     0.031 C 
ATOM     47  C   UNL     1      -0.017 -12.684  -0.162  1.00  0.00     0.029 A 
ATOM     48  C   UNL     1       0.757 -13.603   0.665  1.00  0.00     0.049 A 
ATOM     49  H   UNL     1       0.713 -13.789   2.739  1.00  0.00     0.167 HD
ATOM     50  C   UNL     1       0.616 -13.997   7.099  1.00  0.00     0.031 A 
ATOM     51  C   UNL     1       1.646 -14.504   0.206  1.00  0.00     0.031 A 
ATOM     52  C   UNL     1       1.526 -15.035   6.698  1.00  0.00     0.049 A 
ATOM     53  C   UNL     1       2.363 -15.394   1.180  1.00  0.00     0.074 A 
ATOM     54  C   UNL     1       2.199 -15.947   7.493  1.00  0.00     0.029 A 
ATOM     55  N   UNL     1       1.890 -15.300   5.387  1.00  0.00    -0.354 N 
ATOM     56  N   UNL     1       2.265 -15.436   2.486  1.00  0.00    -0.248 NA
ATOM     57  C   UNL     1       3.305 -16.370   0.613  1.00  0.00     0.031 C 
ATOM     58  C   UNL     1       3.001 -16.740   6.664  1.00  0.00     0.029 A 
ATOM     59  C   UNL     1       2.793 -16.349   5.351  1.00  0.00     0.049 A 
ATOM     60  H   UNL     1       1.556 -14.814   4.599  1.00  0.00     0.167 HD
ATOM     61  C   UNL     1       3.114 -16.455   2.896  1.00  0.00     0.074 A 
ATOM     62  C   UNL     1       3.708 -17.014   1.699  1.00  0.00     0.031 C 
ATOM     63  C   UNL     1       3.377 -16.889   4.152  1.00  0.00     0.031 A 
BRANCH  50  64
ATOM     64  C   UNL     1       0.378 -13.781   8.566  1.00  0.00    -0.014 A 
ATOM     65  C   UNL     1      -0.839 -14.142   9.165  1.00  0.00     0.009 A 
ATOM     66  C   UNL     1       1.392 -13.230   9.365  1.00  0.00     0.009 A 
ATOM     67  C   UNL     1      -1.050 -13.921  10.528  1.00  0.00     0.001 A 
ATOM     68  C   UNL     1       1.188 -13.034  10.732  1.00  0.00     0.001 A 
ATOM     69  C   UNL     1      -0.035 -13.370  11.310  1.00  0.00     0.000 A 
ENDBRANCH  50  64
BRANCH  51  70
ATOM     70  C   UNL     1       1.889 -14.626  -1.254  1.00  0.00    -0.014 A 
ATOM     71  C   UNL     1       1.386 -15.726  -1.965  1.00  0.00     0.009 A 
ATOM     72  C   UNL     1       2.619 -13.645  -1.942  1.00  0.00     0.009 A 
ATOM     73  C   UNL     1       1.627 -15.851  -3.335  1.00  0.00     0.001 A 
ATOM     74  C   UNL     1       2.838 -13.762  -3.316  1.00  0.00     0.001 A 
ATOM     75  C   UNL     1       2.349 -14.868  -4.010  1.00  0.00     0.000 A 
ENDBRANCH  51  70
BRANCH  63  76
ATOM     76  C   UNL     1       4.330 -18.040   4.291  1.00  0.00    -0.014 A 
ATOM     77  C   UNL     1       5.712 -17.862   4.121  1.00  0.00     0.009 A 
ATOM     78  C   UNL     1       3.842 -19.310   4.633  1.00  0.00     0.009 A 
ATOM     79  C   UNL     1       6.583 -18.943   4.262  1.00  0.00     0.001 A 
ATOM     80  C   UNL     1       4.718 -20.384   4.796  1.00  0.00     0.001 A 
ATOM     81  C   UNL     1       6.087 -20.201   4.603  1.00  0.00     0.000 A 
ENDBRANCH  63  76
ENDBRANCH  37  38
ENDBRANCH  29  32
ENDBRANCH  27  28
ENDBRANCH  26  27
ENDBRANCH  25  26
ENDBRANCH   1  25
TORSDOF 16
