REMARK SMILES O=C(CN(CC(F)(F)F)C(=O)Nc1ccccc1Cl)NCCCCCCNC(=O)c1ccc(-c2c3nc(c(-c4ccccc4)c4ccc([nH]4)c(-c4ccccc4)c4nc(c(-c5ccccc5)c5ccc2[nH]5)C=C4)C=C3)cc1
REMARK SMILES IDX 23 1 22 2 21 3 20 4 1 5 2 6 3 8 4 9 5 10 6 11 7 12 8 13 9 14
REMARK SMILES IDX 10 15 11 16 12 17 13 19 14 20 18 21 15 22 17 23 19 24 16 25
REMARK SMILES IDX 24 26 25 27 26 28 27 29 28 30 29 32 30 33 31 34 77 35 32 36
REMARK SMILES IDX 76 37 33 38 34 39 35 40 70 41 36 42 75 43 69 44 71 45 37 46
REMARK SMILES IDX 74 47 68 48 67 49 38 51 60 52 45 53 59 54 46 55 49 56 58 57
REMARK SMILES IDX 72 58 47 59 48 60 57 62 73 63 50 64 39 65 40 66 44 67 41 68
REMARK SMILES IDX 43 69 42 70 61 71 62 72 66 73 63 74 65 75 64 76 51 77 52 78
REMARK SMILES IDX 56 79 53 80 55 81 54 82
REMARK H PARENT 20 7 12 18 27 31 71 50 49 61
REMARK Flexibility Score: inf
ROOT
ATOM      1  C   UNL     1       4.153  -3.283   1.210  1.00  0.00     0.002 C 
ENDROOT
BRANCH   1   2
ATOM      2  C   UNL     1       2.658  -3.047   0.966  1.00  0.00     0.021 C 
BRANCH   2   3
ATOM      3  C   UNL     1       2.113  -1.725   1.507  1.00  0.00     0.116 C 
BRANCH   3   4
ATOM      4  N   UNL     1       2.689  -0.562   0.862  1.00  0.00    -0.355 N 
ATOM      5  O   UNL     1       1.031  -0.341  -0.701  1.00  0.00    -0.273 OA
ATOM      6  C   UNL     1       2.043   0.104  -0.161  1.00  0.00     0.239 C 
ATOM      7  H   UNL     1       3.568  -0.237   1.163  1.00  0.00     0.163 HD
BRANCH   6   8
ATOM      8  C   UNL     1       2.736   1.382  -0.685  1.00  0.00     0.221 C 
BRANCH   8   9
ATOM      9  N   UNL     1       3.815   1.924   0.166  1.00  0.00    -0.306 N 
BRANCH   9  10
ATOM     10  C   UNL     1       5.198   1.589  -0.265  1.00  0.00     0.237 C 
BRANCH  10  11
ATOM     11  C   UNL     1       5.717   2.232  -1.568  1.00  0.00     0.406 C 
ATOM     12  F   UNL     1       5.867   3.565  -1.482  1.00  0.00    -0.169 F 
ATOM     13  F   UNL     1       6.935   1.718  -1.873  1.00  0.00    -0.169 F 
ATOM     14  F   UNL     1       4.911   1.977  -2.621  1.00  0.00    -0.169 F 
ENDBRANCH  10  11
ENDBRANCH   9  10
BRANCH   9  15
ATOM     15  C   UNL     1       3.379   2.554   1.316  1.00  0.00     0.322 C 
ATOM     16  O   UNL     1       2.177   2.608   1.591  1.00  0.00    -0.248 OA
ATOM     17  N   UNL     1       4.232   2.932   2.298  1.00  0.00    -0.306 N 
ATOM     18  H   UNL     1       3.860   2.841   3.204  1.00  0.00     0.171 HD
BRANCH  17  19
ATOM     19  C   UNL     1       5.540   3.426   2.271  1.00  0.00     0.061 A 
ATOM     20  C   UNL     1       6.425   2.887   3.212  1.00  0.00     0.028 A 
ATOM     21  C   UNL     1       5.992   4.410   1.382  1.00  0.00     0.064 A 
ATOM     22  C   UNL     1       7.782   3.200   3.154  1.00  0.00     0.002 A 
ATOM     23  C   UNL     1       7.354   4.714   1.320  1.00  0.00     0.023 A 
ATOM     24  Cl  UNL     1       4.890   5.378   0.467  1.00  0.00    -0.082 Cl
ATOM     25  C   UNL     1       8.252   4.085   2.185  1.00  0.00     0.002 A 
ENDBRANCH  17  19
ENDBRANCH   9  15
ENDBRANCH   8   9
ENDBRANCH   6   8
ENDBRANCH   3   4
ENDBRANCH   2   3
ENDBRANCH   1   2
BRANCH   1  26
ATOM     26  C   UNL     1       4.609  -3.228   2.672  1.00  0.00     0.002 C 
BRANCH  26  27
ATOM     27  C   UNL     1       3.898  -4.189   3.630  1.00  0.00     0.021 C 
BRANCH  27  28
ATOM     28  C   UNL     1       4.036  -5.672   3.293  1.00  0.00     0.116 C 
BRANCH  28  29
ATOM     29  N   UNL     1       5.409  -6.143   3.382  1.00  0.00    -0.352 N 
ATOM     30  C   UNL     1       5.924  -7.236   4.037  1.00  0.00     0.251 C 
ATOM     31  H   UNL     1       6.070  -5.595   2.901  1.00  0.00     0.163 HD
ATOM     32  O   UNL     1       7.140  -7.377   4.122  1.00  0.00    -0.269 OA
BRANCH  30  33
ATOM     33  C   UNL     1       5.025  -8.236   4.658  1.00  0.00     0.039 A 
ATOM     34  C   UNL     1       5.360  -8.754   5.914  1.00  0.00     0.014 A 
ATOM     35  C   UNL     1       3.881  -8.695   4.002  1.00  0.00     0.014 A 
ATOM     36  C   UNL     1       4.524  -9.689   6.530  1.00  0.00     0.010 A 
ATOM     37  C   UNL     1       3.011  -9.574   4.646  1.00  0.00     0.010 A 
ATOM     38  C   UNL     1       3.328 -10.088   5.913  1.00  0.00    -0.014 A 
BRANCH  38  39
ATOM     39  C   UNL     1       2.413 -11.065   6.561  1.00  0.00     0.031 A 
ATOM     40  C   UNL     1       2.167 -12.406   5.922  1.00  0.00     0.074 A 
ATOM     41  C   UNL     1       1.766 -10.734   7.697  1.00  0.00     0.049 A 
ATOM     42  N   UNL     1       1.351 -13.362   6.293  1.00  0.00    -0.248 NA
ATOM     43  C   UNL     1       2.922 -12.706   4.694  1.00  0.00     0.031 C 
ATOM     44  C   UNL     1       1.890  -9.459   8.405  1.00  0.00     0.029 A 
ATOM     45  N   UNL     1       0.865 -11.445   8.450  1.00  0.00    -0.354 N 
ATOM     46  C   UNL     1       1.488 -14.365   5.341  1.00  0.00     0.074 A 
ATOM     47  C   UNL     1       2.422 -13.883   4.348  1.00  0.00     0.031 C 
ATOM     48  C   UNL     1       1.109  -9.485   9.498  1.00  0.00     0.029 A 
ATOM     49  C   UNL     1       0.401 -10.760   9.548  1.00  0.00     0.049 A 
ATOM     50  H   UNL     1       0.578 -12.360   8.226  1.00  0.00     0.167 HD
ATOM     51  C   UNL     1       0.909 -15.590   5.307  1.00  0.00     0.031 A 
ATOM     52  C   UNL     1      -0.500 -11.115  10.484  1.00  0.00     0.031 A 
ATOM     53  C   UNL     1      -0.013 -16.080   6.295  1.00  0.00     0.049 A 
ATOM     54  C   UNL     1      -1.141 -12.475  10.412  1.00  0.00     0.074 A 
ATOM     55  C   UNL     1      -0.638 -17.314   6.356  1.00  0.00     0.029 A 
ATOM     56  N   UNL     1      -0.437 -15.362   7.402  1.00  0.00    -0.354 N 
ATOM     57  N   UNL     1      -0.967 -13.426   9.527  1.00  0.00    -0.248 NA
ATOM     58  C   UNL     1      -2.092 -12.815  11.481  1.00  0.00     0.031 C 
ATOM     59  C   UNL     1      -1.467 -17.330   7.482  1.00  0.00     0.029 A 
ATOM     60  C   UNL     1      -1.316 -16.126   8.150  1.00  0.00     0.049 A 
ATOM     61  H   UNL     1      -0.154 -14.445   7.623  1.00  0.00     0.167 HD
ATOM     62  C   UNL     1      -1.752 -14.489   9.955  1.00  0.00     0.074 A 
ATOM     63  C   UNL     1      -2.393 -14.071  11.184  1.00  0.00     0.031 C 
ATOM     64  C   UNL     1      -1.928 -15.704   9.382  1.00  0.00     0.031 A 
BRANCH  51  65
ATOM     65  C   UNL     1       1.271 -16.495   4.163  1.00  0.00    -0.014 A 
ATOM     66  C   UNL     1       2.546 -17.078   4.080  1.00  0.00     0.009 A 
ATOM     67  C   UNL     1       0.316 -16.812   3.185  1.00  0.00     0.009 A 
ATOM     68  C   UNL     1       2.866 -17.934   3.025  1.00  0.00     0.001 A 
ATOM     69  C   UNL     1       0.629 -17.692   2.148  1.00  0.00     0.001 A 
ATOM     70  C   UNL     1       1.906 -18.246   2.064  1.00  0.00     0.000 A 
ENDBRANCH  51  65
BRANCH  52  71
ATOM     71  C   UNL     1      -0.855 -10.177  11.582  1.00  0.00    -0.014 A 
ATOM     72  C   UNL     1      -0.489 -10.456  12.909  1.00  0.00     0.009 A 
ATOM     73  C   UNL     1      -1.602  -9.019  11.316  1.00  0.00     0.009 A 
ATOM     74  C   UNL     1      -0.901  -9.620  13.949  1.00  0.00     0.001 A 
ATOM     75  C   UNL     1      -1.984  -8.166  12.354  1.00  0.00     0.001 A 
ATOM     76  C   UNL     1      -1.646  -8.475  13.671  1.00  0.00     0.000 A 
ENDBRANCH  52  71
BRANCH  64  77
ATOM     77  C   UNL     1      -2.796 -16.692  10.111  1.00  0.00    -0.014 A 
ATOM     78  C   UNL     1      -4.188 -16.536  10.181  1.00  0.00     0.009 A 
ATOM     79  C   UNL     1      -2.205 -17.817  10.708  1.00  0.00     0.009 A 
ATOM     80  C   UNL     1      -4.968 -17.468  10.869  1.00  0.00     0.001 A 
ATOM     81  C   UNL     1      -2.990 -18.763  11.368  1.00  0.00     0.001 A 
ATOM     82  C   UNL     1      -4.369 -18.582  11.458  1.00  0.00     0.000 A 
ENDBRANCH  64  77
ENDBRANCH  38  39
ENDBRANCH  30  33
ENDBRANCH  28  29
ENDBRANCH  27  28
ENDBRANCH  26  27
ENDBRANCH   1  26
TORSDOF 18
