REMARK SMILES Cc1ccc(C)c(S(=O)(=O)N[C@H](CC2=c3ccccc3=NC2)C(=O)NCCCCCCNC(=O)c2ccc(-c3c4nc(c(-c5ccccc5)c5ccc([nH]5)c(-c5ccccc5)c5nc(c(-c6ccccc6)c6ccc3[nH]6)C=C5)C=C4)cc2)c1
REMARK SMILES IDX 28 1 27 2 26 3 25 4 23 5 24 6 12 8 11 9 8 11 9 12 10 13 7 14
REMARK SMILES IDX 1 15 2 16 3 17 83 18 4 19 5 20 6 21 13 22 14 23 15 24 22 25
REMARK SMILES IDX 16 26 20 27 21 28 17 29 19 30 18 31 29 32 30 33 31 34 32 35
REMARK SMILES IDX 33 36 34 38 35 39 36 40 82 41 37 42 81 43 38 44 39 45 40 46
REMARK SMILES IDX 75 47 41 48 80 49 74 50 76 51 42 52 79 53 73 54 72 55 43 57
REMARK SMILES IDX 65 58 50 59 64 60 51 61 54 62 63 63 77 64 52 65 53 66 62 68
REMARK SMILES IDX 78 69 55 70 44 71 45 72 49 73 46 74 48 75 47 76 66 77 67 78
REMARK SMILES IDX 71 79 68 80 70 81 69 82 56 83 57 84 61 85 58 86 60 87 59 88
REMARK H PARENT 25 7 11 10 32 37 76 56 54 67
REMARK Flexibility Score: inf
ROOT
ATOM      1  C   UNL     1      -0.357   9.273  -1.104  1.00  0.00     0.002 C 
ENDROOT
BRANCH   1   2
ATOM      2  C   UNL     1      -1.342   8.117  -1.288  1.00  0.00     0.021 C 
BRANCH   2   3
ATOM      3  C   UNL     1      -0.871   6.911  -2.121  1.00  0.00     0.116 C 
BRANCH   3   4
ATOM      4  N   UNL     1       0.536   6.548  -1.978  1.00  0.00    -0.355 N 
ATOM      5  C   UNL     1       1.219   5.438  -1.569  1.00  0.00     0.238 C 
ATOM      6  O   UNL     1       2.446   5.560  -1.475  1.00  0.00    -0.273 OA
ATOM      7  H   UNL     1       1.138   7.282  -2.240  1.00  0.00     0.163 HD
BRANCH   5   8
ATOM      8  C   UNL     1       0.555   4.103  -1.197  1.00  0.00     0.163 C 
BRANCH   8   9
ATOM      9  N   UNL     1      -0.479   3.732  -2.205  1.00  0.00    -0.198 NA
ATOM     10  H   UNL     1      -1.271   3.348  -1.689  1.00  0.00     0.142 HD
BRANCH   9  11
ATOM     11  S   UNL     1      -0.096   2.621  -3.414  1.00  0.00     0.241 S 
ATOM     12  O   UNL     1       1.315   2.714  -3.670  1.00  0.00    -0.207 OA
ATOM     13  O   UNL     1      -1.091   2.860  -4.444  1.00  0.00    -0.207 OA
BRANCH  11  14
ATOM     14  C   UNL     1      -0.460   1.036  -2.698  1.00  0.00     0.085 A 
ATOM     15  C   UNL     1      -1.751  -0.226   0.656  1.00  0.00     0.044 C 
ATOM     16  C   UNL     1      -1.202  -0.211  -0.739  1.00  0.00    -0.050 A 
ATOM     17  C   UNL     1      -0.816  -1.393  -1.370  1.00  0.00     0.004 A 
ATOM     18  C   UNL     1      -1.057   0.993  -1.429  1.00  0.00     0.025 A 
ATOM     19  C   UNL     1      -0.289  -1.365  -2.666  1.00  0.00     0.005 A 
ATOM     20  C   UNL     1      -0.098  -0.153  -3.352  1.00  0.00    -0.031 A 
ATOM     21  C   UNL     1       0.457  -0.223  -4.747  1.00  0.00     0.046 C 
ENDBRANCH  11  14
ENDBRANCH   9  11
ENDBRANCH   8   9
BRANCH   8  22
ATOM     22  C   UNL     1      -0.026   3.965   0.246  1.00  0.00     0.063 C 
BRANCH  22  23
ATOM     23  C   UNL     1       0.393   4.941   1.307  1.00  0.00    -0.037 C 
ATOM     24  C   UNL     1       1.124   4.807   2.414  1.00  0.00     0.001 A 
ATOM     25  C   UNL     1      -0.166   6.324   1.258  1.00  0.00     0.174 C 
ATOM     26  C   UNL     1       1.744   3.746   3.143  1.00  0.00     0.010 A 
ATOM     27  C   UNL     1       1.176   6.190   2.928  1.00  0.00     0.065 A 
ATOM     28  N   UNL     1       0.422   7.081   2.366  1.00  0.00    -0.280 NA
ATOM     29  C   UNL     1       2.413   4.045   4.273  1.00  0.00     0.001 A 
ATOM     30  C   UNL     1       2.093   6.457   4.045  1.00  0.00     0.028 A 
ATOM     31  C   UNL     1       2.635   5.418   4.692  1.00  0.00     0.002 A 
ENDBRANCH  22  23
ENDBRANCH   8  22
ENDBRANCH   5   8
ENDBRANCH   3   4
ENDBRANCH   2   3
ENDBRANCH   1   2
BRANCH   1  32
ATOM     32  C   UNL     1      -0.359  10.332  -2.206  1.00  0.00     0.002 C 
BRANCH  32  33
ATOM     33  C   UNL     1      -1.710  10.957  -2.592  1.00  0.00     0.021 C 
BRANCH  33  34
ATOM     34  C   UNL     1      -2.503  11.660  -1.487  1.00  0.00     0.116 C 
BRANCH  34  35
ATOM     35  N   UNL     1      -1.831  12.855  -0.973  1.00  0.00    -0.352 N 
ATOM     36  C   UNL     1      -1.885  13.521   0.236  1.00  0.00     0.251 C 
ATOM     37  H   UNL     1      -1.214  13.267  -1.620  1.00  0.00     0.163 HD
ATOM     38  O   UNL     1      -1.550  14.704   0.272  1.00  0.00    -0.269 OA
BRANCH  36  39
ATOM     39  C   UNL     1      -2.300  12.854   1.492  1.00  0.00     0.039 A 
ATOM     40  C   UNL     1      -2.623  13.586   2.646  1.00  0.00     0.014 A 
ATOM     41  C   UNL     1      -2.273  11.471   1.570  1.00  0.00     0.014 A 
ATOM     42  C   UNL     1      -2.902  12.912   3.842  1.00  0.00     0.010 A 
ATOM     43  C   UNL     1      -2.717  10.802   2.675  1.00  0.00     0.010 A 
ATOM     44  C   UNL     1      -2.928  11.516   3.843  1.00  0.00    -0.014 A 
BRANCH  44  45
ATOM     45  C   UNL     1      -3.192  10.703   5.018  1.00  0.00     0.031 A 
ATOM     46  C   UNL     1      -4.598  10.620   5.441  1.00  0.00     0.074 A 
ATOM     47  C   UNL     1      -2.304   9.788   5.462  1.00  0.00     0.049 A 
ATOM     48  N   UNL     1      -5.077  10.980   6.582  1.00  0.00    -0.248 NA
ATOM     49  C   UNL     1      -5.602  10.159   4.472  1.00  0.00     0.031 C 
ATOM     50  C   UNL     1      -0.969   9.524   4.923  1.00  0.00     0.029 A 
ATOM     51  N   UNL     1      -2.471   8.791   6.382  1.00  0.00    -0.354 N 
ATOM     52  C   UNL     1      -6.413  10.616   6.551  1.00  0.00     0.074 A 
ATOM     53  C   UNL     1      -6.723  10.327   5.173  1.00  0.00     0.031 C 
ATOM     54  C   UNL     1      -0.552   8.322   5.366  1.00  0.00     0.029 A 
ATOM     55  C   UNL     1      -1.520   7.782   6.289  1.00  0.00     0.049 A 
ATOM     56  H   UNL     1      -3.196   8.789   7.047  1.00  0.00     0.167 HD
ATOM     57  C   UNL     1      -7.089  10.317   7.693  1.00  0.00     0.031 A 
ATOM     58  C   UNL     1      -1.527   6.570   6.897  1.00  0.00     0.031 A 
ATOM     59  C   UNL     1      -6.360  10.717   8.873  1.00  0.00     0.049 A 
ATOM     60  C   UNL     1      -2.389   6.683   8.087  1.00  0.00     0.074 A 
ATOM     61  C   UNL     1      -5.808  11.907   9.311  1.00  0.00     0.029 A 
ATOM     62  N   UNL     1      -5.752   9.731   9.614  1.00  0.00    -0.354 N 
ATOM     63  N   UNL     1      -2.089   7.420   9.116  1.00  0.00    -0.248 NA
ATOM     64  C   UNL     1      -3.789   6.318   7.961  1.00  0.00     0.031 C 
ATOM     65  C   UNL     1      -4.576  11.541   9.928  1.00  0.00     0.029 A 
ATOM     66  C   UNL     1      -4.476  10.150   9.899  1.00  0.00     0.049 A 
ATOM     67  H   UNL     1      -6.158   8.878   9.891  1.00  0.00     0.167 HD
ATOM     68  C   UNL     1      -3.291   8.011   9.467  1.00  0.00     0.074 A 
ATOM     69  C   UNL     1      -4.317   7.194   8.819  1.00  0.00     0.031 C 
ATOM     70  C   UNL     1      -3.328   9.272   9.989  1.00  0.00     0.031 A 
BRANCH  57  71
ATOM     71  C   UNL     1      -8.239   9.347   7.737  1.00  0.00    -0.014 A 
ATOM     72  C   UNL     1      -8.503   8.400   6.727  1.00  0.00     0.009 A 
ATOM     73  C   UNL     1      -8.976   9.221   8.925  1.00  0.00     0.009 A 
ATOM     74  C   UNL     1      -9.473   7.406   6.870  1.00  0.00     0.001 A 
ATOM     75  C   UNL     1      -9.910   8.192   9.095  1.00  0.00     0.001 A 
ATOM     76  C   UNL     1     -10.165   7.291   8.065  1.00  0.00     0.000 A 
ENDBRANCH  57  71
BRANCH  58  77
ATOM     77  C   UNL     1      -1.221   5.255   6.285  1.00  0.00    -0.014 A 
ATOM     78  C   UNL     1      -1.554   5.022   4.938  1.00  0.00     0.009 A 
ATOM     79  C   UNL     1      -0.909   4.143   7.082  1.00  0.00     0.009 A 
ATOM     80  C   UNL     1      -1.620   3.724   4.418  1.00  0.00     0.001 A 
ATOM     81  C   UNL     1      -0.963   2.842   6.558  1.00  0.00     0.001 A 
ATOM     82  C   UNL     1      -1.335   2.633   5.231  1.00  0.00     0.000 A 
ENDBRANCH  58  77
BRANCH  70  83
ATOM     83  C   UNL     1      -2.023   9.912  10.420  1.00  0.00    -0.014 A 
ATOM     84  C   UNL     1      -1.954  10.484  11.700  1.00  0.00     0.009 A 
ATOM     85  C   UNL     1      -0.938  10.120   9.548  1.00  0.00     0.009 A 
ATOM     86  C   UNL     1      -0.848  11.245  12.092  1.00  0.00     0.001 A 
ATOM     87  C   UNL     1       0.182  10.859   9.949  1.00  0.00     0.001 A 
ATOM     88  C   UNL     1       0.220  11.431  11.218  1.00  0.00     0.000 A 
ENDBRANCH  70  83
ENDBRANCH  44  45
ENDBRANCH  36  39
ENDBRANCH  34  35
ENDBRANCH  33  34
ENDBRANCH  32  33
ENDBRANCH   1  32
TORSDOF 18
