REMARK SMILES O=C1O[C@@H](c2ccc(O)c(O)c2)[C@H](C(=O)NCCCCCCNC(=O)c2ccc(-c3c4nc(c(-c5ccccc5)c5ccc([nH]5)c(-c5ccccc5)c5nc(c(-c6ccccc6)c6ccc3[nH]6)C=C5)C=C4)cc2)/C1=C\c1ccc(O)c(O)c1
REMARK SMILES IDX 19 1 18 2 17 3 16 4 14 5 15 6 13 8 1 9 2 10 3 11 74 12 4 13
REMARK SMILES IDX 75 14 5 15 6 16 12 17 7 18 10 19 8 20 11 21 9 23 76 25 77 26
REMARK SMILES IDX 83 27 78 28 81 29 79 30 82 31 80 33 20 35 21 36 22 37 23 38
REMARK SMILES IDX 24 39 25 41 26 42 27 43 73 44 28 45 72 46 29 47 30 48 31 49
REMARK SMILES IDX 66 50 32 51 71 52 65 53 67 54 33 55 70 56 64 57 63 58 34 60
REMARK SMILES IDX 56 61 41 62 55 63 42 64 45 65 54 66 68 67 43 68 44 69 53 71
REMARK SMILES IDX 69 72 46 73 35 74 36 75 40 76 37 77 39 78 38 79 57 80 58 81
REMARK SMILES IDX 62 82 59 83 61 84 60 85 47 86 48 87 52 88 49 89 51 90 50 91
REMARK H PARENT 16 7 11 22 9 24 82 32 80 34 23 40 67 59 45 70
REMARK Flexibility Score: inf
ROOT
ATOM      1  C   UNL     1       5.684   1.832   3.100  1.00  0.00     0.002 C 
ENDROOT
BRANCH   1   2
ATOM      2  C   UNL     1       5.153   1.682   1.674  1.00  0.00     0.021 C 
BRANCH   2   3
ATOM      3  C   UNL     1       4.022   0.674   1.526  1.00  0.00     0.116 C 
BRANCH   3   4
ATOM      4  N   UNL     1       2.794   1.083   2.171  1.00  0.00    -0.355 N 
ATOM      5  C   UNL     1       1.513   1.127   1.699  1.00  0.00     0.231 C 
ATOM      6  O   UNL     1       0.632   1.379   2.524  1.00  0.00    -0.274 OA
ATOM      7  H   UNL     1       2.899   1.379   3.104  1.00  0.00     0.163 HD
BRANCH   5   8
ATOM      8  C   UNL     1       1.225   0.963   0.201  1.00  0.00     0.161 C 
ATOM      9  O   UNL     1      -1.853  -0.821  -0.132  1.00  0.00    -0.247 OA
ATOM     10  C   UNL     1      -0.700  -0.427  -0.138  1.00  0.00     0.335 C 
ATOM     11  O   UNL     1       0.396  -1.216  -0.242  1.00  0.00    -0.453 OA
ATOM     12  C   UNL     1      -0.244   0.972  -0.059  1.00  0.00     0.054 C 
ATOM     13  C   UNL     1       1.591  -0.421  -0.328  1.00  0.00     0.224 C 
ATOM     14  C   UNL     1      -1.117   1.975  -0.232  1.00  0.00     0.020 C 
BRANCH  13  15
ATOM     15  C   UNL     1       2.183  -0.440  -1.743  1.00  0.00    -0.002 A 
ATOM     16  C   UNL     1       3.221   0.443  -2.118  1.00  0.00     0.012 A 
ATOM     17  C   UNL     1       1.778  -1.404  -2.680  1.00  0.00     0.057 A 
ATOM     18  C   UNL     1       3.850   0.358  -3.365  1.00  0.00     0.050 A 
ATOM     19  C   UNL     1       2.392  -1.467  -3.927  1.00  0.00     0.157 A 
ATOM     20  C   UNL     1       3.428  -0.604  -4.266  1.00  0.00     0.157 A 
BRANCH  19  21
ATOM     21  O   UNL     1       1.973  -2.405  -4.826  1.00  0.00    -0.504 OA
ATOM     22  H   UNL     1       2.377  -2.459  -5.670  1.00  0.00     0.293 HD
ENDBRANCH  19  21
BRANCH  20  23
ATOM     23  O   UNL     1       4.005  -0.744  -5.496  1.00  0.00    -0.504 OA
ATOM     24  H   UNL     1       4.705  -0.177  -5.753  1.00  0.00     0.293 HD
ENDBRANCH  20  23
ENDBRANCH  13  15
BRANCH  14  25
ATOM     25  C   UNL     1      -0.764   3.392  -0.183  1.00  0.00    -0.021 A 
ATOM     26  C   UNL     1       0.098   3.956  -1.138  1.00  0.00     0.012 A 
ATOM     27  C   UNL     1      -1.326   4.203   0.808  1.00  0.00     0.058 A 
ATOM     28  C   UNL     1       0.421   5.315  -1.089  1.00  0.00     0.051 A 
ATOM     29  C   UNL     1      -1.006   5.553   0.844  1.00  0.00     0.157 A 
ATOM     30  C   UNL     1      -0.135   6.106  -0.091  1.00  0.00     0.157 A 
BRANCH  29  31
ATOM     31  O   UNL     1      -1.560   6.344   1.810  1.00  0.00    -0.504 OA
ATOM     32  H   UNL     1      -1.352   7.257   1.844  1.00  0.00     0.293 HD
ENDBRANCH  29  31
BRANCH  30  33
ATOM     33  O   UNL     1       0.140   7.442   0.008  1.00  0.00    -0.504 OA
ATOM     34  H   UNL     1       0.722   7.847  -0.604  1.00  0.00     0.293 HD
ENDBRANCH  30  33
ENDBRANCH  14  25
ENDBRANCH   5   8
ENDBRANCH   3   4
ENDBRANCH   2   3
ENDBRANCH   1   2
BRANCH   1  35
ATOM     35  C   UNL     1       6.103   0.524   3.781  1.00  0.00     0.002 C 
BRANCH  35  36
ATOM     36  C   UNL     1       7.106  -0.330   3.000  1.00  0.00     0.021 C 
BRANCH  36  37
ATOM     37  C   UNL     1       8.406   0.380   2.645  1.00  0.00     0.116 C 
BRANCH  37  38
ATOM     38  N   UNL     1       9.140   0.804   3.825  1.00  0.00    -0.352 N 
ATOM     39  C   UNL     1      10.445   0.556   4.169  1.00  0.00     0.251 C 
ATOM     40  H   UNL     1       8.630   1.347   4.468  1.00  0.00     0.163 HD
ATOM     41  O   UNL     1      10.853   0.827   5.293  1.00  0.00    -0.269 OA
BRANCH  39  42
ATOM     42  C   UNL     1      11.356  -0.058   3.181  1.00  0.00     0.039 A 
ATOM     43  C   UNL     1      12.188  -1.104   3.583  1.00  0.00     0.014 A 
ATOM     44  C   UNL     1      11.386   0.401   1.861  1.00  0.00     0.014 A 
ATOM     45  C   UNL     1      13.013  -1.729   2.646  1.00  0.00     0.010 A 
ATOM     46  C   UNL     1      12.147  -0.274   0.913  1.00  0.00     0.010 A 
ATOM     47  C   UNL     1      12.976  -1.339   1.297  1.00  0.00    -0.014 A 
BRANCH  47  48
ATOM     48  C   UNL     1      13.806  -2.020   0.273  1.00  0.00     0.031 A 
ATOM     49  C   UNL     1      14.866  -1.250  -0.468  1.00  0.00     0.074 A 
ATOM     50  C   UNL     1      13.566  -3.308  -0.039  1.00  0.00     0.049 A 
ATOM     51  N   UNL     1      15.637  -1.641  -1.450  1.00  0.00    -0.248 NA
ATOM     52  C   UNL     1      15.066   0.154  -0.070  1.00  0.00     0.031 C 
ATOM     53  C   UNL     1      12.548  -4.157   0.585  1.00  0.00     0.029 A 
ATOM     54  N   UNL     1      14.158  -4.127  -0.967  1.00  0.00    -0.354 N 
ATOM     55  C   UNL     1      16.398  -0.531  -1.796  1.00  0.00     0.074 A 
ATOM     56  C   UNL     1      15.957   0.563  -0.960  1.00  0.00     0.031 C 
ATOM     57  C   UNL     1      12.607  -5.383   0.041  1.00  0.00     0.029 A 
ATOM     58  C   UNL     1      13.629  -5.395  -1.000  1.00  0.00     0.049 A 
ATOM     59  H   UNL     1      14.892  -3.834  -1.554  1.00  0.00     0.167 HD
ATOM     60  C   UNL     1      17.390  -0.435  -2.713  1.00  0.00     0.031 A 
ATOM     61  C   UNL     1      13.927  -6.446  -1.787  1.00  0.00     0.031 A 
ATOM     62  C   UNL     1      17.833  -1.526  -3.540  1.00  0.00     0.049 A 
ATOM     63  C   UNL     1      15.010  -6.304  -2.821  1.00  0.00     0.074 A 
ATOM     64  C   UNL     1      18.861  -1.543  -4.465  1.00  0.00     0.029 A 
ATOM     65  N   UNL     1      17.271  -2.794  -3.541  1.00  0.00    -0.354 N 
ATOM     66  N   UNL     1      15.761  -5.265  -3.096  1.00  0.00    -0.248 NA
ATOM     67  C   UNL     1      15.294  -7.487  -3.646  1.00  0.00     0.031 C 
ATOM     68  C   UNL     1      18.883  -2.803  -5.070  1.00  0.00     0.029 A 
ATOM     69  C   UNL     1      17.914  -3.593  -4.471  1.00  0.00     0.049 A 
ATOM     70  H   UNL     1      16.526  -3.083  -2.966  1.00  0.00     0.167 HD
ATOM     71  C   UNL     1      16.629  -5.679  -4.098  1.00  0.00     0.074 A 
ATOM     72  C   UNL     1      16.320  -7.067  -4.373  1.00  0.00     0.031 C 
ATOM     73  C   UNL     1      17.598  -4.974  -4.731  1.00  0.00     0.031 A 
BRANCH  60  74
ATOM     74  C   UNL     1      18.055   0.904  -2.878  1.00  0.00    -0.014 A 
ATOM     75  C   UNL     1      18.866   1.446  -1.867  1.00  0.00     0.009 A 
ATOM     76  C   UNL     1      17.896   1.621  -4.074  1.00  0.00     0.009 A 
ATOM     77  C   UNL     1      19.468   2.695  -2.034  1.00  0.00     0.001 A 
ATOM     78  C   UNL     1      18.526   2.853  -4.253  1.00  0.00     0.001 A 
ATOM     79  C   UNL     1      19.302   3.394  -3.229  1.00  0.00     0.000 A 
ENDBRANCH  60  74
BRANCH  61  80
ATOM     80  C   UNL     1      13.197  -7.732  -1.625  1.00  0.00    -0.014 A 
ATOM     81  C   UNL     1      13.856  -8.867  -1.128  1.00  0.00     0.009 A 
ATOM     82  C   UNL     1      11.843  -7.836  -1.981  1.00  0.00     0.009 A 
ATOM     83  C   UNL     1      13.183 -10.087  -1.021  1.00  0.00     0.001 A 
ATOM     84  C   UNL     1      11.164  -9.049  -1.841  1.00  0.00     0.001 A 
ATOM     85  C   UNL     1      11.837 -10.175  -1.373  1.00  0.00     0.000 A 
ENDBRANCH  61  80
BRANCH  73  86
ATOM     86  C   UNL     1      18.431  -5.703  -5.749  1.00  0.00    -0.014 A 
ATOM     87  C   UNL     1      17.902  -6.092  -6.990  1.00  0.00     0.009 A 
ATOM     88  C   UNL     1      19.784  -5.961  -5.477  1.00  0.00     0.009 A 
ATOM     89  C   UNL     1      18.703  -6.755  -7.922  1.00  0.00     0.001 A 
ATOM     90  C   UNL     1      20.591  -6.593  -6.423  1.00  0.00     0.001 A 
ATOM     91  C   UNL     1      20.048  -6.998  -7.640  1.00  0.00     0.000 A 
ENDBRANCH  73  86
ENDBRANCH  47  48
ENDBRANCH  39  42
ENDBRANCH  37  38
ENDBRANCH  36  37
ENDBRANCH  35  36
ENDBRANCH   1  35
TORSDOF 19
