REMARK SMILES O=C(C[C@H](c1ccccc1)N1C(=O)CCCCC1=O)NCCCCCCNC(=O)c1ccc(-c2c3nc(c(-c4ccccc4)c4ccc([nH]4)c(-c4ccccc4)c4nc(c(-c5ccccc5)c5ccc2[nH]5)C=C4)C=C3)cc1
REMARK SMILES IDX 22 1 21 2 20 3 1 4 2 5 3 7 4 8 11 9 12 10 13 11 14 12 15 13
REMARK SMILES IDX 18 15 19 16 17 17 16 18 5 20 6 21 10 22 7 23 9 24 8 25 23 26
REMARK SMILES IDX 24 27 25 28 26 29 27 30 28 31 29 33 30 34 31 35 77 36 32 37
REMARK SMILES IDX 76 38 33 39 34 40 35 41 70 42 36 43 75 44 69 45 71 46 37 47
REMARK SMILES IDX 74 48 68 49 67 50 38 52 60 53 45 54 59 55 46 56 49 57 58 58
REMARK SMILES IDX 72 59 47 60 48 61 57 63 73 64 50 65 39 66 40 67 44 68 41 69
REMARK SMILES IDX 43 70 42 71 61 72 62 73 66 74 63 75 65 76 64 77 51 78 52 79
REMARK SMILES IDX 56 80 53 81 55 82 54 83
REMARK H PARENT 20 6 27 32 71 51 49 62
REMARK Flexibility Score: 90.00
ROOT
ATOM      1  C   UNL     1       4.202  -0.754   3.741  1.00  0.00     0.021 C 
ENDROOT
BRANCH   1   2
ATOM      2  C   UNL     1       4.868  -1.110   2.412  1.00  0.00     0.116 C 
BRANCH   2   3
ATOM      3  N   UNL     1       4.465  -0.213   1.350  1.00  0.00    -0.356 N 
ATOM      4  O   UNL     1       6.386  -0.371   0.102  1.00  0.00    -0.275 OA
ATOM      5  C   UNL     1       5.240   0.042   0.244  1.00  0.00     0.222 C 
ATOM      6  H   UNL     1       3.592   0.237   1.423  1.00  0.00     0.163 HD
BRANCH   5   7
ATOM      7  C   UNL     1       4.512   0.819  -0.837  1.00  0.00     0.130 C 
BRANCH   7   8
ATOM      8  C   UNL     1       3.893  -0.125  -1.901  1.00  0.00     0.133 C 
BRANCH   8   9
ATOM      9  N   UNL     1       4.925  -0.855  -2.659  1.00  0.00    -0.274 N 
BRANCH   9  10
ATOM     10  C   UNL     1       4.516  -1.925  -3.427  1.00  0.00     0.229 C 
ATOM     11  O   UNL     1       3.432  -2.003  -4.000  1.00  0.00    -0.274 OA
BRANCH  10  12
ATOM     12  C   UNL     1       5.529  -3.043  -3.496  1.00  0.00     0.101 C 
BRANCH  12  13
ATOM     13  C   UNL     1       6.538  -2.764  -4.588  1.00  0.00     0.010 CG0
ATOM     14  G   UNL     1       7.639  -1.786  -4.191  1.00  0.00     0.000 G0
ENDBRANCH  12  13
ENDBRANCH  10  12
ENDBRANCH   9  10
BRANCH   9  15
ATOM     15  C   UNL     1       5.899  -0.088  -3.271  1.00  0.00     0.229 C 
ATOM     16  O   UNL     1       5.688   1.029  -3.742  1.00  0.00    -0.274 OA
BRANCH  15  17
ATOM     17  C   UNL     1       7.295  -0.671  -3.214  1.00  0.00     0.101 C 
BRANCH  17  18
ATOM     18  C   UNL     1       7.639  -1.786  -4.191  1.00  0.00     0.010 CG0
ATOM     19  G   UNL     1       6.538  -2.764  -4.588  1.00  0.00     0.000 G0
ENDBRANCH  17  18
ENDBRANCH  15  17
ENDBRANCH   9  15
ENDBRANCH   8   9
BRANCH   8  20
ATOM     20  C   UNL     1       2.867  -1.052  -1.224  1.00  0.00    -0.024 A 
ATOM     21  C   UNL     1       3.234  -2.309  -0.702  1.00  0.00     0.006 A 
ATOM     22  C   UNL     1       1.526  -0.654  -1.114  1.00  0.00     0.006 A 
ATOM     23  C   UNL     1       2.281  -3.170  -0.161  1.00  0.00     0.000 A 
ATOM     24  C   UNL     1       0.578  -1.506  -0.541  1.00  0.00     0.000 A 
ATOM     25  C   UNL     1       0.952  -2.768  -0.082  1.00  0.00     0.000 A 
ENDBRANCH   8  20
ENDBRANCH   7   8
ENDBRANCH   5   7
ENDBRANCH   2   3
ENDBRANCH   1   2
BRANCH   1  26
ATOM     26  C   UNL     1       2.667  -0.693   3.708  1.00  0.00     0.002 C 
BRANCH  26  27
ATOM     27  C   UNL     1       1.972  -2.004   3.342  1.00  0.00     0.002 C 
BRANCH  27  28
ATOM     28  C   UNL     1       2.204  -3.168   4.301  1.00  0.00     0.021 C 
BRANCH  28  29
ATOM     29  C   UNL     1       1.861  -2.874   5.755  1.00  0.00     0.116 C 
BRANCH  29  30
ATOM     30  N   UNL     1       0.461  -2.532   5.946  1.00  0.00    -0.352 N 
ATOM     31  C   UNL     1      -0.421  -2.986   6.894  1.00  0.00     0.251 C 
ATOM     32  H   UNL     1       0.093  -1.882   5.305  1.00  0.00     0.163 HD
ATOM     33  O   UNL     1      -1.614  -2.697   6.816  1.00  0.00    -0.269 OA
BRANCH  31  34
ATOM     34  C   UNL     1       0.056  -3.853   7.993  1.00  0.00     0.039 A 
ATOM     35  C   UNL     1      -0.706  -4.968   8.349  1.00  0.00     0.014 A 
ATOM     36  C   UNL     1       1.252  -3.579   8.662  1.00  0.00     0.014 A 
ATOM     37  C   UNL     1      -0.236  -5.841   9.331  1.00  0.00     0.010 A 
ATOM     38  C   UNL     1       1.762  -4.497   9.575  1.00  0.00     0.010 A 
ATOM     39  C   UNL     1       1.021  -5.635   9.925  1.00  0.00    -0.014 A 
BRANCH  39  40
ATOM     40  C   UNL     1       1.570  -6.609  10.901  1.00  0.00     0.031 A 
ATOM     41  C   UNL     1       1.834  -6.201  12.325  1.00  0.00     0.074 A 
ATOM     42  C   UNL     1       1.871  -7.857  10.492  1.00  0.00     0.049 A 
ATOM     43  N   UNL     1       2.283  -6.925  13.320  1.00  0.00    -0.248 NA
ATOM     44  C   UNL     1       1.586  -4.793  12.672  1.00  0.00     0.031 C 
ATOM     45  C   UNL     1       1.710  -8.364   9.127  1.00  0.00     0.029 A 
ATOM     46  N   UNL     1       2.365  -8.931  11.189  1.00  0.00    -0.354 N 
ATOM     47  C   UNL     1       2.386  -6.058  14.401  1.00  0.00     0.074 A 
ATOM     48  C   UNL     1       2.007  -4.745  13.927  1.00  0.00     0.031 C 
ATOM     49  C   UNL     1       2.044  -9.663   9.100  1.00  0.00     0.029 A 
ATOM     50  C   UNL     1       2.483 -10.070  10.430  1.00  0.00     0.049 A 
ATOM     51  H   UNL     1       2.612  -8.889  12.141  1.00  0.00     0.167 HD
ATOM     52  C   UNL     1       2.745  -6.331  15.678  1.00  0.00     0.031 A 
ATOM     53  C   UNL     1       2.888 -11.308  10.770  1.00  0.00     0.031 A 
ATOM     54  C   UNL     1       3.120  -7.638  16.151  1.00  0.00     0.049 A 
ATOM     55  C   UNL     1       3.293 -11.582  12.191  1.00  0.00     0.074 A 
ATOM     56  C   UNL     1       3.430  -8.034  17.440  1.00  0.00     0.029 A 
ATOM     57  N   UNL     1       3.247  -8.761  15.347  1.00  0.00    -0.354 N 
ATOM     58  N   UNL     1       3.296 -10.774  13.222  1.00  0.00    -0.248 NA
ATOM     59  C   UNL     1       3.738 -12.950  12.493  1.00  0.00     0.031 C 
ATOM     60  C   UNL     1       3.810  -9.380  17.405  1.00  0.00     0.029 A 
ATOM     61  C   UNL     1       3.669  -9.841  16.106  1.00  0.00     0.049 A 
ATOM     62  H   UNL     1       3.065  -8.788  14.380  1.00  0.00     0.167 HD
ATOM     63  C   UNL     1       3.716 -11.540  14.302  1.00  0.00     0.074 A 
ATOM     64  C   UNL     1       3.936 -12.882  13.801  1.00  0.00     0.031 C 
ATOM     65  C   UNL     1       3.902 -11.167  15.592  1.00  0.00     0.031 A 
BRANCH  52  66
ATOM     66  C   UNL     1       2.771  -5.181  16.650  1.00  0.00    -0.014 A 
ATOM     67  C   UNL     1       1.592  -4.534  17.054  1.00  0.00     0.009 A 
ATOM     68  C   UNL     1       3.996  -4.747  17.182  1.00  0.00     0.009 A 
ATOM     69  C   UNL     1       1.643  -3.448  17.931  1.00  0.00     0.001 A 
ATOM     70  C   UNL     1       4.041  -3.684  18.085  1.00  0.00     0.001 A 
ATOM     71  C   UNL     1       2.867  -3.027  18.449  1.00  0.00     0.000 A 
ENDBRANCH  52  66
BRANCH  53  72
ATOM     72  C   UNL     1       2.893 -12.395   9.756  1.00  0.00    -0.014 A 
ATOM     73  C   UNL     1       1.968 -13.448   9.843  1.00  0.00     0.009 A 
ATOM     74  C   UNL     1       3.818 -12.390   8.701  1.00  0.00     0.009 A 
ATOM     75  C   UNL     1       1.988 -14.487   8.910  1.00  0.00     0.001 A 
ATOM     76  C   UNL     1       3.815 -13.415   7.752  1.00  0.00     0.001 A 
ATOM     77  C   UNL     1       2.907 -14.466   7.862  1.00  0.00     0.000 A 
ENDBRANCH  53  72
BRANCH  65  78
ATOM     78  C   UNL     1       4.341 -12.238  16.554  1.00  0.00    -0.014 A 
ATOM     79  C   UNL     1       5.625 -12.802  16.486  1.00  0.00     0.009 A 
ATOM     80  C   UNL     1       3.456 -12.684  17.548  1.00  0.00     0.009 A 
ATOM     81  C   UNL     1       5.994 -13.826  17.361  1.00  0.00     0.001 A 
ATOM     82  C   UNL     1       3.840 -13.682  18.445  1.00  0.00     0.001 A 
ATOM     83  C   UNL     1       5.103 -14.262  18.342  1.00  0.00     0.000 A 
ENDBRANCH  65  78
ENDBRANCH  39  40
ENDBRANCH  31  34
ENDBRANCH  29  30
ENDBRANCH  28  29
ENDBRANCH  27  28
ENDBRANCH  26  27
ENDBRANCH   1  26
TORSDOF 16
