REMARK SMILES CCCN1CCC[C@@]2(CCN(c3ccc(C(=O)NCCCCCCNC(=O)c4ccc(-c5c6nc(c(-c7ccccc7)c7ccc([nH]7)c(-c7ccccc7)c7nc(c(-c8ccccc8)c8ccc5[nH]8)C=C7)C=C6)cc4)cn3)C2)C1=O
REMARK SMILES IDX 21 1 20 2 19 3 18 4 16 5 17 6 15 8 12 9 13 10 77 11 14 12
REMARK SMILES IDX 76 13 11 14 4 15 5 16 79 17 6 18 8 19 80 20 7 21 9 22 78 23
REMARK SMILES IDX 10 24 3 25 2 26 1 27 22 28 23 29 24 30 25 31 26 32 27 34
REMARK SMILES IDX 28 35 29 36 75 37 30 38 74 39 31 40 32 41 33 42 68 43 34 44
REMARK SMILES IDX 73 45 67 46 69 47 35 48 72 49 66 50 65 51 36 53 58 54 43 55
REMARK SMILES IDX 57 56 44 57 47 58 56 59 70 60 45 61 46 62 55 64 71 65 48 66
REMARK SMILES IDX 37 67 38 68 42 69 39 70 41 71 40 72 59 73 60 74 64 75 61 76
REMARK SMILES IDX 63 77 62 78 49 79 50 80 54 81 51 82 53 83 52 84
REMARK H PARENT 18 7 25 33 69 52 47 63
REMARK Flexibility Score: inf
ROOT
ATOM      1  C   UNL     1       5.509   8.829  10.520  1.00  0.00     0.002 C 
ENDROOT
BRANCH   1   2
ATOM      2  C   UNL     1       4.716   8.372   9.287  1.00  0.00     0.021 C 
BRANCH   2   3
ATOM      3  C   UNL     1       4.870   6.875   9.005  1.00  0.00     0.116 C 
BRANCH   3   4
ATOM      4  N   UNL     1       3.957   6.113   9.833  1.00  0.00    -0.352 N 
ATOM      5  C   UNL     1       2.724   5.557   9.607  1.00  0.00     0.252 C 
ATOM      6  O   UNL     1       2.195   4.966  10.549  1.00  0.00    -0.269 OA
ATOM      7  H   UNL     1       4.291   5.963  10.747  1.00  0.00     0.163 HD
BRANCH   5   8
ATOM      8  C   UNL     1       2.025   5.590   8.297  1.00  0.00     0.058 A 
ATOM      9  C   UNL     1       0.638   5.348   5.896  1.00  0.00     0.128 A 
ATOM     10  C   UNL     1       1.645   6.297   6.034  1.00  0.00     0.048 A 
ATOM     11  N   UNL     1       0.277   4.568   6.929  1.00  0.00    -0.239 NA
ATOM     12  C   UNL     1       2.299   6.457   7.250  1.00  0.00     0.019 A 
ATOM     13  C   UNL     1       0.986   4.686   8.088  1.00  0.00     0.127 A 
BRANCH   9  14
ATOM     14  N   UNL     1       0.012   5.250   4.684  1.00  0.00    -0.356 N 
ATOM     15  N   UNL     1       0.506   2.381   1.593  1.00  0.00    -0.342 N 
ATOM     16  C   UNL     1       1.034   2.968   0.372  1.00  0.00     0.119 C 
ATOM     17  C   UNL     1      -0.514   3.018   2.293  1.00  0.00     0.230 C 
ATOM     18  C   UNL     1       1.326   4.451   0.525  1.00  0.00     0.023 C 
ATOM     19  C   UNL     1      -0.321   4.533   2.438  1.00  0.00     0.069 C 
ATOM     20  O   UNL     1      -1.398   2.400   2.881  1.00  0.00    -0.274 OA
ATOM     21  C   UNL     1       0.106   5.164   1.105  1.00  0.00     0.021 C 
ATOM     22  C   UNL     1      -1.575   5.210   3.028  1.00  0.00     0.040 C 
ATOM     23  C   UNL     1       0.754   4.754   3.534  1.00  0.00     0.135 C 
ATOM     24  C   UNL     1      -1.409   5.034   4.542  1.00  0.00     0.119 C 
BRANCH  15  25
ATOM     25  C   UNL     1       0.878   1.022   1.971  1.00  0.00     0.119 C 
BRANCH  25  26
ATOM     26  C   UNL     1       0.234  -0.105   1.169  1.00  0.00     0.018 C 
ATOM     27  C   UNL     1       0.797  -0.255  -0.234  1.00  0.00     0.006 C 
ENDBRANCH  25  26
ENDBRANCH  15  25
ENDBRANCH   9  14
ENDBRANCH   5   8
ENDBRANCH   3   4
ENDBRANCH   2   3
ENDBRANCH   1   2
BRANCH   1  28
ATOM     28  C   UNL     1       7.027   8.629  10.412  1.00  0.00     0.002 C 
BRANCH  28  29
ATOM     29  C   UNL     1       7.668   9.268   9.179  1.00  0.00     0.021 C 
BRANCH  29  30
ATOM     30  C   UNL     1       7.535  10.785   9.137  1.00  0.00     0.116 C 
BRANCH  30  31
ATOM     31  N   UNL     1       8.274  11.414  10.223  1.00  0.00    -0.352 N 
ATOM     32  C   UNL     1       9.284  12.342  10.153  1.00  0.00     0.251 C 
ATOM     33  H   UNL     1       8.013  11.137  11.131  1.00  0.00     0.163 HD
ATOM     34  O   UNL     1       9.972  12.600  11.129  1.00  0.00    -0.269 OA
BRANCH  32  35
ATOM     35  C   UNL     1       9.535  13.018   8.865  1.00  0.00     0.039 A 
ATOM     36  C   UNL     1      10.839  13.093   8.372  1.00  0.00     0.014 A 
ATOM     37  C   UNL     1       8.466  13.545   8.136  1.00  0.00     0.014 A 
ATOM     38  C   UNL     1      11.063  13.639   7.107  1.00  0.00     0.010 A 
ATOM     39  C   UNL     1       8.681  14.015   6.848  1.00  0.00     0.010 A 
ATOM     40  C   UNL     1       9.981  14.067   6.321  1.00  0.00    -0.014 A 
BRANCH  40  41
ATOM     41  C   UNL     1      10.169  14.576   4.941  1.00  0.00     0.031 A 
ATOM     42  C   UNL     1       9.793  15.992   4.611  1.00  0.00     0.074 A 
ATOM     43  C   UNL     1      10.586  13.740   3.971  1.00  0.00     0.049 A 
ATOM     44  N   UNL     1       9.766  16.590   3.447  1.00  0.00    -0.248 NA
ATOM     45  C   UNL     1       9.363  16.840   5.735  1.00  0.00     0.031 C 
ATOM     46  C   UNL     1      10.963  12.338   4.161  1.00  0.00     0.029 A 
ATOM     47  N   UNL     1      10.752  13.950   2.626  1.00  0.00    -0.354 N 
ATOM     48  C   UNL     1       9.299  17.874   3.697  1.00  0.00     0.074 A 
ATOM     49  C   UNL     1       9.002  17.950   5.111  1.00  0.00     0.031 C 
ATOM     50  C   UNL     1      11.343  11.822   2.980  1.00  0.00     0.029 A 
ATOM     51  C   UNL     1      11.185  12.838   1.945  1.00  0.00     0.049 A 
ATOM     52  H   UNL     1      10.576  14.815   2.189  1.00  0.00     0.167 HD
ATOM     53  C   UNL     1       9.147  18.905   2.832  1.00  0.00     0.031 A 
ATOM     54  C   UNL     1      11.418  12.656   0.631  1.00  0.00     0.031 A 
ATOM     55  C   UNL     1       9.441  18.825   1.426  1.00  0.00     0.049 A 
ATOM     56  C   UNL     1      11.188  13.798  -0.319  1.00  0.00     0.074 A 
ATOM     57  C   UNL     1       9.360  19.822   0.470  1.00  0.00     0.029 A 
ATOM     58  N   UNL     1       9.866  17.677   0.774  1.00  0.00    -0.354 N 
ATOM     59  N   UNL     1      10.795  15.022  -0.062  1.00  0.00    -0.248 NA
ATOM     60  C   UNL     1      11.441  13.533  -1.742  1.00  0.00     0.031 C 
ATOM     61  C   UNL     1       9.679  19.262  -0.771  1.00  0.00     0.029 A 
ATOM     62  C   UNL     1      10.025  17.934  -0.577  1.00  0.00     0.049 A 
ATOM     63  H   UNL     1      10.031  16.809   1.208  1.00  0.00     0.167 HD
ATOM     64  C   UNL     1      10.792  15.684  -1.284  1.00  0.00     0.074 A 
ATOM     65  C   UNL     1      11.227  14.726  -2.279  1.00  0.00     0.031 C 
ATOM     66  C   UNL     1      10.464  16.971  -1.555  1.00  0.00     0.031 A 
BRANCH  53  67
ATOM     67  C   UNL     1       8.621  20.200   3.389  1.00  0.00    -0.014 A 
ATOM     68  C   UNL     1       9.379  20.970   4.287  1.00  0.00     0.009 A 
ATOM     69  C   UNL     1       7.352  20.661   3.006  1.00  0.00     0.009 A 
ATOM     70  C   UNL     1       8.857  22.147   4.827  1.00  0.00     0.001 A 
ATOM     71  C   UNL     1       6.847  21.856   3.521  1.00  0.00     0.001 A 
ATOM     72  C   UNL     1       7.593  22.591   4.441  1.00  0.00     0.000 A 
ENDBRANCH  53  67
BRANCH  54  73
ATOM     73  C   UNL     1      11.913  11.345   0.136  1.00  0.00    -0.014 A 
ATOM     74  C   UNL     1      13.223  11.225  -0.355  1.00  0.00     0.009 A 
ATOM     75  C   UNL     1      11.086  10.211   0.143  1.00  0.00     0.009 A 
ATOM     76  C   UNL     1      13.685  10.004  -0.853  1.00  0.00     0.001 A 
ATOM     77  C   UNL     1      11.561   8.984  -0.327  1.00  0.00     0.001 A 
ATOM     78  C   UNL     1      12.855   8.884  -0.834  1.00  0.00     0.000 A 
ENDBRANCH  54  73
BRANCH  66  79
ATOM     79  C   UNL     1      10.614  17.437  -2.976  1.00  0.00    -0.014 A 
ATOM     80  C   UNL     1       9.736  17.015  -3.985  1.00  0.00     0.009 A 
ATOM     81  C   UNL     1      11.625  18.358  -3.296  1.00  0.00     0.009 A 
ATOM     82  C   UNL     1       9.886  17.484  -5.292  1.00  0.00     0.001 A 
ATOM     83  C   UNL     1      11.753  18.849  -4.596  1.00  0.00     0.001 A 
ATOM     84  C   UNL     1      10.888  18.405  -5.594  1.00  0.00     0.000 A 
ENDBRANCH  66  79
ENDBRANCH  40  41
ENDBRANCH  32  35
ENDBRANCH  30  31
ENDBRANCH  29  30
ENDBRANCH  28  29
ENDBRANCH   1  28
TORSDOF 16
