REMARK SMILES O=C(/C=C/c1ccc(O)cc1)NC[C@@H]1CC[C@H](C(=O)NCCCCCCNC(=O)c2ccc(-c3c4nc(c(-c5ccccc5)c5ccc([nH]5)c(-c5ccccc5)c5nc(c(-c6ccccc6)c6ccc3[nH]6)C=C5)C=C4)cc2)O1
REMARK SMILES IDX 22 1 21 2 20 3 18 4 19 5 17 7 14 8 15 9 78 10 16 11 13 12
REMARK SMILES IDX 12 13 1 14 2 15 3 17 4 18 5 19 6 20 11 21 7 22 10 23 8 24
REMARK SMILES IDX 9 25 23 27 24 28 25 29 26 30 27 31 28 32 29 34 30 35 31 36
REMARK SMILES IDX 77 37 32 38 76 39 33 40 34 41 35 42 70 43 36 44 75 45 69 46
REMARK SMILES IDX 71 47 37 48 74 49 68 50 67 51 38 53 60 54 45 55 59 56 46 57
REMARK SMILES IDX 49 58 58 59 72 60 47 61 48 62 57 64 73 65 50 66 39 67 40 68
REMARK SMILES IDX 44 69 41 70 43 71 42 72 61 73 62 74 66 75 63 76 65 77 64 78
REMARK SMILES IDX 51 79 52 80 56 81 53 82 55 83 54 84
REMARK H PARENT 20 6 12 16 9 26 27 33 71 52 49 63
REMARK Flexibility Score: inf
ROOT
ATOM      1  C   UNL     1      -1.107  -4.900   0.875  1.00  0.00     0.021 C 
ENDROOT
BRANCH   1   2
ATOM      2  C   UNL     1       0.327  -5.020   1.379  1.00  0.00     0.116 C 
BRANCH   2   3
ATOM      3  N   UNL     1       0.843  -6.363   1.264  1.00  0.00    -0.354 N 
ATOM      4  C   UNL     1       1.884  -6.830   0.512  1.00  0.00     0.249 C 
ATOM      5  O   UNL     1       2.151  -8.033   0.596  1.00  0.00    -0.272 OA
ATOM      6  H   UNL     1       0.378  -7.040   1.806  1.00  0.00     0.163 HD
BRANCH   4   7
ATOM      7  C   UNL     1       2.679  -5.910  -0.445  1.00  0.00     0.207 C 
ATOM      8  C   UNL     1       2.916  -3.584  -0.670  1.00  0.00     0.138 C 
ATOM      9  C   UNL     1       1.846  -4.003  -1.669  1.00  0.00     0.037 C 
ATOM     10  O   UNL     1       3.186  -4.725   0.165  1.00  0.00    -0.363 OA
ATOM     11  C   UNL     1       1.909  -5.513  -1.694  1.00  0.00     0.045 C 
BRANCH   8  12
ATOM     12  C   UNL     1       2.495  -2.421   0.245  1.00  0.00     0.148 C 
BRANCH  12  13
ATOM     13  N   UNL     1       3.148  -1.171  -0.065  1.00  0.00    -0.350 N 
ATOM     14  O   UNL     1       1.217   0.053  -0.219  1.00  0.00    -0.270 OA
ATOM     15  C   UNL     1       2.441  -0.009  -0.223  1.00  0.00     0.244 C 
ATOM     16  H   UNL     1       4.128  -1.153  -0.166  1.00  0.00     0.163 HD
BRANCH  15  17
ATOM     17  C   UNL     1       3.232   1.234  -0.400  1.00  0.00     0.072 C 
ATOM     18  C   UNL     1       4.569   1.331  -0.394  1.00  0.00     0.014 C 
BRANCH  18  19
ATOM     19  C   UNL     1       5.282   2.591  -0.622  1.00  0.00    -0.025 A 
ATOM     20  C   UNL     1       4.911   3.788   0.005  1.00  0.00     0.012 A 
ATOM     21  C   UNL     1       6.405   2.575  -1.459  1.00  0.00     0.012 A 
ATOM     22  C   UNL     1       5.638   4.959  -0.224  1.00  0.00     0.047 A 
ATOM     23  C   UNL     1       7.130   3.744  -1.689  1.00  0.00     0.047 A 
ATOM     24  C   UNL     1       6.740   4.926  -1.073  1.00  0.00     0.115 A 
BRANCH  24  25
ATOM     25  O   UNL     1       7.478   6.043  -1.327  1.00  0.00    -0.508 OA
ATOM     26  H   UNL     1       7.245   6.859  -0.928  1.00  0.00     0.293 HD
ENDBRANCH  24  25
ENDBRANCH  18  19
ENDBRANCH  15  17
ENDBRANCH  12  13
ENDBRANCH   8  12
ENDBRANCH   4   7
ENDBRANCH   2   3
ENDBRANCH   1   2
BRANCH   1  27
ATOM     27  C   UNL     1      -2.156  -5.135   1.964  1.00  0.00     0.002 C 
BRANCH  27  28
ATOM     28  C   UNL     1      -2.122  -4.129   3.123  1.00  0.00     0.002 C 
BRANCH  28  29
ATOM     29  C   UNL     1      -2.235  -2.654   2.724  1.00  0.00     0.021 C 
BRANCH  29  30
ATOM     30  C   UNL     1      -3.500  -2.294   1.948  1.00  0.00     0.116 C 
BRANCH  30  31
ATOM     31  N   UNL     1      -4.707  -2.598   2.702  1.00  0.00    -0.352 N 
ATOM     32  C   UNL     1      -5.731  -1.775   3.089  1.00  0.00     0.251 C 
ATOM     33  H   UNL     1      -4.801  -3.539   2.976  1.00  0.00     0.163 HD
ATOM     34  O   UNL     1      -6.561  -2.170   3.908  1.00  0.00    -0.269 OA
BRANCH  32  35
ATOM     35  C   UNL     1      -5.843  -0.411   2.535  1.00  0.00     0.039 A 
ATOM     36  C   UNL     1      -6.157   0.644   3.396  1.00  0.00     0.014 A 
ATOM     37  C   UNL     1      -5.676  -0.176   1.168  1.00  0.00     0.014 A 
ATOM     38  C   UNL     1      -6.246   1.945   2.896  1.00  0.00     0.010 A 
ATOM     39  C   UNL     1      -5.705   1.128   0.680  1.00  0.00     0.010 A 
ATOM     40  C   UNL     1      -5.991   2.200   1.539  1.00  0.00    -0.014 A 
BRANCH  40  41
ATOM     41  C   UNL     1      -6.009   3.582   1.000  1.00  0.00     0.031 A 
ATOM     42  C   UNL     1      -7.045   3.989  -0.010  1.00  0.00     0.074 A 
ATOM     43  C   UNL     1      -5.048   4.451   1.369  1.00  0.00     0.049 A 
ATOM     44  N   UNL     1      -7.175   5.126  -0.647  1.00  0.00    -0.248 NA
ATOM     45  C   UNL     1      -8.056   2.980  -0.367  1.00  0.00     0.031 C 
ATOM     46  C   UNL     1      -3.966   4.167   2.314  1.00  0.00     0.029 A 
ATOM     47  N   UNL     1      -4.821   5.748   0.983  1.00  0.00    -0.354 N 
ATOM     48  C   UNL     1      -8.266   4.963  -1.491  1.00  0.00     0.074 A 
ATOM     49  C   UNL     1      -8.738   3.606  -1.316  1.00  0.00     0.031 C 
ATOM     50  C   UNL     1      -3.202   5.262   2.448  1.00  0.00     0.029 A 
ATOM     51  C   UNL     1      -3.713   6.309   1.570  1.00  0.00     0.049 A 
ATOM     52  H   UNL     1      -5.396   6.229   0.346  1.00  0.00     0.167 HD
ATOM     53  C   UNL     1      -8.833   5.865  -2.327  1.00  0.00     0.031 A 
ATOM     54  C   UNL     1      -3.163   7.527   1.410  1.00  0.00     0.031 A 
ATOM     55  C   UNL     1      -8.369   7.216  -2.497  1.00  0.00     0.049 A 
ATOM     56  C   UNL     1      -3.802   8.504   0.464  1.00  0.00     0.074 A 
ATOM     57  C   UNL     1      -8.911   8.223  -3.277  1.00  0.00     0.029 A 
ATOM     58  N   UNL     1      -7.249   7.748  -1.878  1.00  0.00    -0.354 N 
ATOM     59  N   UNL     1      -4.872   8.356  -0.279  1.00  0.00    -0.248 NA
ATOM     60  C   UNL     1      -3.161   9.821   0.341  1.00  0.00     0.031 C 
ATOM     61  C   UNL     1      -8.091   9.350  -3.168  1.00  0.00     0.029 A 
ATOM     62  C   UNL     1      -7.068   9.062  -2.278  1.00  0.00     0.049 A 
ATOM     63  H   UNL     1      -6.668   7.265  -1.247  1.00  0.00     0.167 HD
ATOM     64  C   UNL     1      -5.046   9.566  -0.937  1.00  0.00     0.074 A 
ATOM     65  C   UNL     1      -3.982  10.443  -0.493  1.00  0.00     0.031 C 
ATOM     66  C   UNL     1      -6.003   9.920  -1.830  1.00  0.00     0.031 A 
BRANCH  53  67
ATOM     67  C   UNL     1     -10.019   5.413  -3.133  1.00  0.00    -0.014 A 
ATOM     68  C   UNL     1     -11.263   5.177  -2.527  1.00  0.00     0.009 A 
ATOM     69  C   UNL     1      -9.901   5.259  -4.523  1.00  0.00     0.009 A 
ATOM     70  C   UNL     1     -12.355   4.763  -3.292  1.00  0.00     0.001 A 
ATOM     71  C   UNL     1     -11.002   4.871  -5.289  1.00  0.00     0.001 A 
ATOM     72  C   UNL     1     -12.225   4.615  -4.672  1.00  0.00     0.000 A 
ENDBRANCH  53  67
BRANCH  54  73
ATOM     73  C   UNL     1      -1.942   7.898   2.170  1.00  0.00    -0.014 A 
ATOM     74  C   UNL     1      -2.009   8.839   3.209  1.00  0.00     0.009 A 
ATOM     75  C   UNL     1      -0.702   7.317   1.858  1.00  0.00     0.009 A 
ATOM     76  C   UNL     1      -0.854   9.211   3.902  1.00  0.00     0.001 A 
ATOM     77  C   UNL     1       0.445   7.670   2.572  1.00  0.00     0.001 A 
ATOM     78  C   UNL     1       0.370   8.624   3.586  1.00  0.00     0.000 A 
ENDBRANCH  54  73
BRANCH  66  79
ATOM     79  C   UNL     1      -5.958  11.324  -2.361  1.00  0.00    -0.014 A 
ATOM     80  C   UNL     1      -4.980  11.723  -3.285  1.00  0.00     0.009 A 
ATOM     81  C   UNL     1      -6.932  12.251  -1.956  1.00  0.00     0.009 A 
ATOM     82  C   UNL     1      -4.959  13.032  -3.768  1.00  0.00     0.001 A 
ATOM     83  C   UNL     1      -6.925  13.551  -2.462  1.00  0.00     0.001 A 
ATOM     84  C   UNL     1      -5.934  13.943  -3.361  1.00  0.00     0.000 A 
ENDBRANCH  66  79
ENDBRANCH  40  41
ENDBRANCH  32  35
ENDBRANCH  30  31
ENDBRANCH  29  30
ENDBRANCH  28  29
ENDBRANCH  27  28
ENDBRANCH   1  27
TORSDOF 18
