REMARK SMILES COCC[C@@]1(C(=O)NCCCCCCNC(=O)c2ccc(-c3c4nc(c(-c5ccccc5)c5ccc([nH]5)c(-c5ccccc5)c5nc(c(-c6ccccc6)c6ccc3[nH]6)C=C5)C=C4)cc2)CCC[N@@H+](Cc2cccc3c2OC(C)(C)C3)C1
REMARK SMILES IDX 11 1 10 2 9 3 8 4 6 5 7 6 5 8 66 9 82 10 67 11 69 12 68 13
REMARK SMILES IDX 4 15 3 16 2 17 1 18 70 19 71 20 72 21 76 22 73 23 75 24
REMARK SMILES IDX 77 25 74 26 81 27 78 28 79 29 80 30 12 31 13 32 14 33 15 34
REMARK SMILES IDX 16 35 17 37 18 38 19 39 65 40 20 41 64 42 21 43 22 44 23 45
REMARK SMILES IDX 58 46 24 47 63 48 57 49 59 50 25 51 62 52 56 53 55 54 26 56
REMARK SMILES IDX 48 57 33 58 47 59 34 60 37 61 46 62 60 63 35 64 36 65 45 67
REMARK SMILES IDX 61 68 38 69 27 70 28 71 32 72 29 73 31 74 30 75 49 76 50 77
REMARK SMILES IDX 54 78 51 79 53 80 52 81 39 82 40 83 44 84 41 85 43 86 42 87
REMARK H PARENT 8 7 69 14 15 36 59 55 37 66
REMARK Flexibility Score: inf
ROOT
ATOM      1  C   UNL     1      -0.968   4.579   5.620  1.00  0.00     0.002 C 
ENDROOT
BRANCH   1   2
ATOM      2  C   UNL     1      -0.082   3.579   4.874  1.00  0.00     0.021 C 
BRANCH   2   3
ATOM      3  C   UNL     1      -0.650   2.160   4.781  1.00  0.00     0.116 C 
BRANCH   3   4
ATOM      4  N   UNL     1      -0.927   1.761   3.415  1.00  0.00    -0.355 N 
ATOM      5  C   UNL     1      -0.335   0.940   2.515  1.00  0.00     0.232 C 
ATOM      6  O   UNL     1      -0.909   0.919   1.416  1.00  0.00    -0.274 OA
ATOM      7  H   UNL     1      -1.737   2.189   3.056  1.00  0.00     0.163 HD
BRANCH   5   8
ATOM      8  C   UNL     1       0.942   0.077   2.752  1.00  0.00     0.100 C 
ATOM      9  C   UNL     1       0.708  -1.069   3.784  1.00  0.00     0.029 C 
ATOM     10  C   UNL     1       2.158   0.985   3.108  1.00  0.00     0.279 C 
ATOM     11  C   UNL     1       1.218  -0.856   5.204  1.00  0.00     0.063 C 
ATOM     12  N   UNL     1       2.289   1.233   4.551  1.00  0.00    -0.330 N 
ATOM     13  C   UNL     1       2.488  -0.015   5.277  1.00  0.00     0.262 C 
ATOM     14  H   UNL     1       1.392   1.612   4.855  1.00  0.00     0.348 HD
BRANCH   8  15
ATOM     15  C   UNL     1       1.190  -0.710   1.391  1.00  0.00     0.051 C 
BRANCH  15  16
ATOM     16  C   UNL     1       1.768   0.061   0.201  1.00  0.00     0.161 C 
BRANCH  16  17
ATOM     17  O   UNL     1       2.800  -0.711  -0.433  1.00  0.00    -0.385 OA
ATOM     18  C   UNL     1       4.025  -0.708   0.292  1.00  0.00     0.194 C 
ENDBRANCH  16  17
ENDBRANCH  15  16
ENDBRANCH   8  15
BRANCH  12  19
ATOM     19  C   UNL     1       3.190   2.341   4.937  1.00  0.00     0.303 C 
BRANCH  19  20
ATOM     20  C   UNL     1       4.659   2.084   4.783  1.00  0.00     0.049 A 
ATOM     21  C   UNL     1       5.380   1.332   5.721  1.00  0.00     0.013 A 
ATOM     22  C   UNL     1       5.329   2.461   3.639  1.00  0.00     0.132 A 
ATOM     23  C   UNL     1       6.657   0.843   5.412  1.00  0.00     0.001 A 
ATOM     24  C   UNL     1       6.508   1.849   3.258  1.00  0.00    -0.001 A 
ATOM     25  O   UNL     1       4.918   3.435   2.766  1.00  0.00    -0.487 OA
ATOM     26  C   UNL     1       7.198   1.039   4.138  1.00  0.00     0.008 A 
ATOM     27  C   UNL     1       6.729   2.160   1.822  1.00  0.00     0.087 C 
ATOM     28  C   UNL     1       5.979   3.505   1.767  1.00  0.00     0.108 C 
ATOM     29  C   UNL     1       6.979   4.642   2.053  1.00  0.00     0.057 C 
ATOM     30  C   UNL     1       5.260   3.776   0.447  1.00  0.00     0.057 C 
ENDBRANCH  19  20
ENDBRANCH  12  19
ENDBRANCH   5   8
ENDBRANCH   3   4
ENDBRANCH   2   3
ENDBRANCH   1   2
BRANCH   1  31
ATOM     31  C   UNL     1      -1.333   4.204   7.062  1.00  0.00     0.002 C 
BRANCH  31  32
ATOM     32  C   UNL     1      -0.171   3.821   7.987  1.00  0.00     0.021 C 
BRANCH  32  33
ATOM     33  C   UNL     1       0.920   4.879   8.152  1.00  0.00     0.116 C 
BRANCH  33  34
ATOM     34  N   UNL     1       0.388   6.146   8.623  1.00  0.00    -0.352 N 
ATOM     35  C   UNL     1       0.440   6.745   9.855  1.00  0.00     0.251 C 
ATOM     36  H   UNL     1      -0.093   6.665   7.938  1.00  0.00     0.163 HD
ATOM     37  O   UNL     1      -0.291   7.703  10.090  1.00  0.00    -0.269 OA
BRANCH  35  38
ATOM     38  C   UNL     1       1.361   6.266  10.911  1.00  0.00     0.039 A 
ATOM     39  C   UNL     1       0.904   6.246  12.234  1.00  0.00     0.014 A 
ATOM     40  C   UNL     1       2.690   5.938  10.632  1.00  0.00     0.014 A 
ATOM     41  C   UNL     1       1.763   5.861  13.267  1.00  0.00     0.010 A 
ATOM     42  C   UNL     1       3.531   5.500  11.657  1.00  0.00     0.010 A 
ATOM     43  C   UNL     1       3.080   5.467  12.985  1.00  0.00    -0.014 A 
BRANCH  43  44
ATOM     44  C   UNL     1       3.995   5.028  14.069  1.00  0.00     0.031 A 
ATOM     45  C   UNL     1       5.202   5.850  14.431  1.00  0.00     0.074 A 
ATOM     46  C   UNL     1       3.773   3.855  14.693  1.00  0.00     0.049 A 
ATOM     47  N   UNL     1       6.139   5.598  15.311  1.00  0.00    -0.248 NA
ATOM     48  C   UNL     1       5.392   7.107  13.692  1.00  0.00     0.031 C 
ATOM     49  C   UNL     1       2.660   2.946  14.414  1.00  0.00     0.029 A 
ATOM     50  N   UNL     1       4.481   3.223  15.684  1.00  0.00    -0.354 N 
ATOM     51  C   UNL     1       7.040   6.651  15.215  1.00  0.00     0.074 A 
ATOM     52  C   UNL     1       6.556   7.526  14.169  1.00  0.00     0.031 C 
ATOM     53  C   UNL     1       2.753   1.879  15.225  1.00  0.00     0.029 A 
ATOM     54  C   UNL     1       3.945   2.015  16.056  1.00  0.00     0.049 A 
ATOM     55  H   UNL     1       5.295   3.600  16.090  1.00  0.00     0.167 HD
ATOM     56  C   UNL     1       8.163   6.877  15.939  1.00  0.00     0.031 A 
ATOM     57  C   UNL     1       4.367   1.111  16.960  1.00  0.00     0.031 A 
ATOM     58  C   UNL     1       8.639   6.018  16.991  1.00  0.00     0.049 A 
ATOM     59  C   UNL     1       5.610   1.387  17.757  1.00  0.00     0.074 A 
ATOM     60  C   UNL     1       9.728   6.199  17.827  1.00  0.00     0.029 A 
ATOM     61  N   UNL     1       8.056   4.813  17.350  1.00  0.00    -0.354 N 
ATOM     62  N   UNL     1       6.413   2.421  17.701  1.00  0.00    -0.248 NA
ATOM     63  C   UNL     1       5.997   0.374  18.750  1.00  0.00     0.031 C 
ATOM     64  C   UNL     1       9.829   5.081  18.662  1.00  0.00     0.029 A 
ATOM     65  C   UNL     1       8.776   4.227  18.377  1.00  0.00     0.049 A 
ATOM     66  H   UNL     1       7.249   4.430  16.935  1.00  0.00     0.167 HD
ATOM     67  C   UNL     1       7.387   2.196  18.665  1.00  0.00     0.074 A 
ATOM     68  C   UNL     1       7.067   0.933  19.299  1.00  0.00     0.031 C 
ATOM     69  C   UNL     1       8.451   2.967  18.994  1.00  0.00     0.031 A 
BRANCH  56  70
ATOM     70  C   UNL     1       8.966   8.102  15.603  1.00  0.00    -0.014 A 
ATOM     71  C   UNL     1       8.502   9.389  15.922  1.00  0.00     0.009 A 
ATOM     72  C   UNL     1      10.219   7.966  14.984  1.00  0.00     0.009 A 
ATOM     73  C   UNL     1       9.258  10.515  15.591  1.00  0.00     0.001 A 
ATOM     74  C   UNL     1      10.984   9.093  14.678  1.00  0.00     0.001 A 
ATOM     75  C   UNL     1      10.499  10.366  14.972  1.00  0.00     0.000 A 
ENDBRANCH  56  70
BRANCH  57  76
ATOM     76  C   UNL     1       3.592  -0.138  17.170  1.00  0.00    -0.014 A 
ATOM     77  C   UNL     1       2.815  -0.306  18.326  1.00  0.00     0.009 A 
ATOM     78  C   UNL     1       3.613  -1.159  16.208  1.00  0.00     0.009 A 
ATOM     79  C   UNL     1       2.088  -1.482  18.523  1.00  0.00     0.001 A 
ATOM     80  C   UNL     1       2.866  -2.324  16.396  1.00  0.00     0.001 A 
ATOM     81  C   UNL     1       2.110  -2.487  17.556  1.00  0.00     0.000 A 
ENDBRANCH  57  76
BRANCH  69  82
ATOM     82  C   UNL     1       9.334   2.478  20.106  1.00  0.00    -0.014 A 
ATOM     83  C   UNL     1      10.225   1.411  19.910  1.00  0.00     0.009 A 
ATOM     84  C   UNL     1       9.300   3.118  21.355  1.00  0.00     0.009 A 
ATOM     85  C   UNL     1      11.043   0.976  20.954  1.00  0.00     0.001 A 
ATOM     86  C   UNL     1      10.137   2.696  22.389  1.00  0.00     0.001 A 
ATOM     87  C   UNL     1      11.002   1.621  22.190  1.00  0.00     0.000 A 
ENDBRANCH  69  82
ENDBRANCH  43  44
ENDBRANCH  35  38
ENDBRANCH  33  34
ENDBRANCH  32  33
ENDBRANCH  31  32
ENDBRANCH   1  31
TORSDOF 18
