REMARK SMILES CCC[C@H](CNC(=O)N1C[C@H]2CCC[N@H+]2C[C@@H]1C)C(=O)NCCCCCCNC(=O)c1ccc(-c2c3nc(c(-c4ccccc4)c4ccc([nH]4)c(-c4ccccc4)c4nc(c(-c5ccccc5)c5ccc2[nH]5)C=C4)C=C3)cc1
REMARK SMILES IDX 24 1 23 2 22 3 21 4 19 5 20 6 4 8 3 9 2 10 1 11 5 12 6 13
REMARK SMILES IDX 7 14 8 16 9 17 10 18 17 19 11 20 16 21 18 22 12 23 15 24
REMARK SMILES IDX 13 25 14 26 25 28 26 29 27 30 28 31 29 32 30 34 31 35 32 36
REMARK SMILES IDX 78 37 33 38 77 39 34 40 35 41 36 42 71 43 37 44 76 45 70 46
REMARK SMILES IDX 72 47 38 48 75 49 69 50 68 51 39 53 61 54 46 55 60 56 47 57
REMARK SMILES IDX 50 58 59 59 73 60 48 61 49 62 58 64 74 65 51 66 40 67 41 68
REMARK SMILES IDX 45 69 42 70 44 71 43 72 62 73 63 74 67 75 64 76 66 77 65 78
REMARK SMILES IDX 52 79 53 80 57 81 54 82 56 83 55 84
REMARK H PARENT 21 7 6 15 15 27 28 33 72 52 50 63
REMARK Flexibility Score: inf
ROOT
ATOM      1  C   UNL     1       1.110   7.656   0.734  1.00  0.00     0.002 C 
ENDROOT
BRANCH   1   2
ATOM      2  C   UNL     1       0.837   6.207   1.155  1.00  0.00     0.021 C 
BRANCH   2   3
ATOM      3  C   UNL     1       0.032   5.425   0.126  1.00  0.00     0.116 C 
BRANCH   3   4
ATOM      4  N   UNL     1       0.816   5.128  -1.056  1.00  0.00    -0.356 N 
ATOM      5  C   UNL     1       0.903   3.989  -1.793  1.00  0.00     0.224 C 
ATOM      6  O   UNL     1       1.601   4.016  -2.809  1.00  0.00    -0.275 OA
ATOM      7  H   UNL     1       1.377   5.871  -1.377  1.00  0.00     0.163 HD
BRANCH   5   8
ATOM      8  C   UNL     1       0.224   2.703  -1.353  1.00  0.00     0.097 C 
BRANCH   8   9
ATOM      9  C   UNL     1      -1.318   2.631  -1.369  1.00  0.00     0.015 C 
BRANCH   9  10
ATOM     10  C   UNL     1      -2.198   3.838  -1.720  1.00  0.00    -0.003 C 
ATOM     11  C   UNL     1      -1.939   4.540  -3.043  1.00  0.00     0.004 C 
ENDBRANCH   9  10
ENDBRANCH   8   9
BRANCH   8  12
ATOM     12  C   UNL     1       0.962   2.259  -0.076  1.00  0.00     0.131 C 
BRANCH  12  13
ATOM     13  N   UNL     1       0.483   1.076   0.592  1.00  0.00    -0.337 N 
ATOM     14  C   UNL     1       1.204   0.058   1.116  1.00  0.00     0.318 C 
ATOM     15  H   UNL     1      -0.495   0.997   0.678  1.00  0.00     0.165 HD
ATOM     16  O   UNL     1       0.603  -0.989   1.361  1.00  0.00    -0.249 OA
BRANCH  14  17
ATOM     17  N   UNL     1       2.559   0.186   1.264  1.00  0.00    -0.311 N 
ATOM     18  C   UNL     1       3.357  -0.991   0.949  1.00  0.00     0.186 C 
ATOM     19  C   UNL     1       3.312   1.363   1.781  1.00  0.00     0.139 C 
ATOM     20  C   UNL     1       4.352  -1.347   2.057  1.00  0.00     0.204 C 
ATOM     21  C   UNL     1       4.836   1.062   1.952  1.00  0.00     0.287 C 
ATOM     22  C   UNL     1       2.716   1.918   3.078  1.00  0.00     0.037 C 
ATOM     23  C   UNL     1       5.368  -2.379   1.570  1.00  0.00     0.073 C 
ATOM     24  N   UNL     1       5.144  -0.219   2.605  1.00  0.00    -0.329 N 
ATOM     25  C   UNL     1       6.594  -2.082   2.405  1.00  0.00     0.068 C 
ATOM     26  C   UNL     1       6.567  -0.567   2.502  1.00  0.00     0.262 C 
ATOM     27  H   UNL     1       4.894  -0.079   3.584  1.00  0.00     0.348 HD
ENDBRANCH  14  17
ENDBRANCH  12  13
ENDBRANCH   8  12
ENDBRANCH   5   8
ENDBRANCH   3   4
ENDBRANCH   2   3
ENDBRANCH   1   2
BRANCH   1  28
ATOM     28  C   UNL     1      -0.139   8.476   0.384  1.00  0.00     0.002 C 
BRANCH  28  29
ATOM     29  C   UNL     1      -1.229   8.487   1.460  1.00  0.00     0.021 C 
BRANCH  29  30
ATOM     30  C   UNL     1      -0.761   8.979   2.824  1.00  0.00     0.116 C 
BRANCH  30  31
ATOM     31  N   UNL     1      -0.244  10.336   2.766  1.00  0.00    -0.352 N 
ATOM     32  C   UNL     1      -0.541  11.412   3.561  1.00  0.00     0.251 C 
ATOM     33  H   UNL     1       0.414  10.507   2.054  1.00  0.00     0.163 HD
ATOM     34  O   UNL     1      -0.155  12.534   3.255  1.00  0.00    -0.269 OA
BRANCH  32  35
ATOM     35  C   UNL     1      -1.348  11.216   4.783  1.00  0.00     0.039 A 
ATOM     36  C   UNL     1      -2.378  12.116   5.060  1.00  0.00     0.014 A 
ATOM     37  C   UNL     1      -1.083  10.154   5.653  1.00  0.00     0.014 A 
ATOM     38  C   UNL     1      -3.176  11.924   6.188  1.00  0.00     0.010 A 
ATOM     39  C   UNL     1      -1.926   9.921   6.735  1.00  0.00     0.010 A 
ATOM     40  C   UNL     1      -2.973  10.810   7.019  1.00  0.00    -0.014 A 
BRANCH  40  41
ATOM     41  C   UNL     1      -3.843  10.566   8.195  1.00  0.00     0.031 A 
ATOM     42  C   UNL     1      -3.267  10.605   9.583  1.00  0.00     0.074 A 
ATOM     43  C   UNL     1      -5.142  10.261   8.010  1.00  0.00     0.049 A 
ATOM     44  N   UNL     1      -3.860  10.384  10.729  1.00  0.00    -0.248 NA
ATOM     45  C   UNL     1      -1.830  10.906   9.698  1.00  0.00     0.031 C 
ATOM     46  C   UNL     1      -5.811  10.154   6.711  1.00  0.00     0.029 A 
ATOM     47  N   UNL     1      -6.131   9.981   8.918  1.00  0.00    -0.354 N 
ATOM     48  C   UNL     1      -2.869  10.505  11.695  1.00  0.00     0.074 A 
ATOM     49  C   UNL     1      -1.628  10.764  11.000  1.00  0.00     0.031 C 
ATOM     50  C   UNL     1      -7.107   9.863   6.909  1.00  0.00     0.029 A 
ATOM     51  C   UNL     1      -7.351   9.723   8.340  1.00  0.00     0.049 A 
ATOM     52  H   UNL     1      -5.981   9.966   9.891  1.00  0.00     0.167 HD
ATOM     53  C   UNL     1      -2.984  10.428  13.043  1.00  0.00     0.031 A 
ATOM     54  C   UNL     1      -8.532   9.405   8.901  1.00  0.00     0.031 A 
ATOM     55  C   UNL     1      -4.221  10.178  13.734  1.00  0.00     0.049 A 
ATOM     56  C   UNL     1      -8.631   9.309  10.398  1.00  0.00     0.074 A 
ATOM     57  C   UNL     1      -4.453  10.135  15.098  1.00  0.00     0.029 A 
ATOM     58  N   UNL     1      -5.434   9.922  13.113  1.00  0.00    -0.354 N 
ATOM     59  N   UNL     1      -7.699   9.497  11.302  1.00  0.00    -0.248 NA
ATOM     60  C   UNL     1      -9.949   8.970  10.952  1.00  0.00     0.031 C 
ATOM     61  C   UNL     1      -5.795   9.799  15.301  1.00  0.00     0.029 A 
ATOM     62  C   UNL     1      -6.412   9.695  14.065  1.00  0.00     0.049 A 
ATOM     63  H   UNL     1      -5.577   9.905  12.139  1.00  0.00     0.167 HD
ATOM     64  C   UNL     1      -8.324   9.328  12.530  1.00  0.00     0.074 A 
ATOM     65  C   UNL     1      -9.717   9.040  12.255  1.00  0.00     0.031 C 
ATOM     66  C   UNL     1      -7.793   9.407  13.775  1.00  0.00     0.031 A 
BRANCH  53  67
ATOM     67  C   UNL     1      -1.732  10.609  13.856  1.00  0.00    -0.014 A 
ATOM     68  C   UNL     1      -1.089  11.855  13.939  1.00  0.00     0.009 A 
ATOM     69  C   UNL     1      -1.203   9.526  14.574  1.00  0.00     0.009 A 
ATOM     70  C   UNL     1       0.079  12.002  14.690  1.00  0.00     0.001 A 
ATOM     71  C   UNL     1      -0.053   9.682  15.351  1.00  0.00     0.001 A 
ATOM     72  C   UNL     1       0.593  10.917  15.400  1.00  0.00     0.000 A 
ENDBRANCH  53  67
BRANCH  54  73
ATOM     73  C   UNL     1      -9.724   9.171   8.045  1.00  0.00    -0.014 A 
ATOM     74  C   UNL     1     -10.790  10.085   8.041  1.00  0.00     0.009 A 
ATOM     75  C   UNL     1      -9.806   8.031   7.231  1.00  0.00     0.009 A 
ATOM     76  C   UNL     1     -11.925   9.846   7.263  1.00  0.00     0.001 A 
ATOM     77  C   UNL     1     -10.929   7.811   6.429  1.00  0.00     0.001 A 
ATOM     78  C   UNL     1     -11.991   8.713   6.454  1.00  0.00     0.000 A 
ENDBRANCH  54  73
BRANCH  66  79
ATOM     79  C   UNL     1      -8.730   9.214  14.935  1.00  0.00    -0.014 A 
ATOM     80  C   UNL     1      -9.268   7.954  15.241  1.00  0.00     0.009 A 
ATOM     81  C   UNL     1      -9.050  10.307  15.756  1.00  0.00     0.009 A 
ATOM     82  C   UNL     1     -10.135   7.802  16.324  1.00  0.00     0.001 A 
ATOM     83  C   UNL     1      -9.891  10.145  16.857  1.00  0.00     0.001 A 
ATOM     84  C   UNL     1     -10.442   8.895  17.134  1.00  0.00     0.000 A 
ENDBRANCH  66  79
ENDBRANCH  40  41
ENDBRANCH  32  35
ENDBRANCH  30  31
ENDBRANCH  29  30
ENDBRANCH  28  29
ENDBRANCH   1  28
TORSDOF 18
