REMARK SMILES Cc1ccc(NC(=O)CN2C(=O)S/C(=C\c3cc(Cl)c(OCC(=O)NCCCCCCNC(=O)c4ccc(-c5c6nc(c(-c7ccccc7)c7ccc([nH]7)c(-c7ccccc7)c7nc(c(-c8ccccc8)c8ccc5[nH]8)C=C7)C=C6)cc4)c(Cl)c3)C2=O)cc1
REMARK SMILES IDX 26 1 25 2 23 3 24 4 22 6 21 7 20 8 16 9 17 10 85 11 18 12
REMARK SMILES IDX 83 13 19 14 84 15 15 16 10 17 11 18 86 19 12 20 13 21 14 22
REMARK SMILES IDX 87 23 9 24 7 25 6 26 8 28 5 29 1 30 2 31 3 32 89 33 4 34
REMARK SMILES IDX 88 35 27 36 28 37 29 38 30 39 31 40 32 41 33 42 34 44 35 45
REMARK SMILES IDX 36 46 82 47 37 48 81 49 38 50 39 51 40 52 75 53 41 54 80 55
REMARK SMILES IDX 74 56 76 57 42 58 79 59 73 60 72 61 43 63 65 64 50 65 64 66
REMARK SMILES IDX 51 67 54 68 63 69 77 70 52 71 53 72 62 74 78 75 55 76 44 77
REMARK SMILES IDX 45 78 49 79 46 80 48 81 47 82 66 83 67 84 71 85 68 86 70 87
REMARK SMILES IDX 69 88 56 89 57 90 61 91 58 92 60 93 59 94
REMARK H PARENT 25 5 6 27 32 43 76 62 54 73
REMARK Flexibility Score: inf
ROOT
ATOM      1  C   UNL     1      -6.481  -4.607 -12.419  1.00  0.00     0.116 C 
ENDROOT
BRANCH   1   2
ATOM      2  N   UNL     1      -7.382  -4.300 -11.333  1.00  0.00    -0.353 N 
ATOM      3  C   UNL     1      -7.567  -3.112 -10.690  1.00  0.00     0.257 C 
ATOM      4  O   UNL     1      -8.552  -3.010  -9.958  1.00  0.00    -0.271 OA
ATOM      5  H   UNL     1      -7.936  -5.048 -11.014  1.00  0.00     0.163 HD
BRANCH   3   6
ATOM      6  C   UNL     1      -6.603  -1.943 -10.948  1.00  0.00     0.329 C 
BRANCH   6   7
ATOM      7  O   UNL     1      -5.218  -2.163 -10.747  1.00  0.00    -0.481 OA
BRANCH   7   8
ATOM      8  C   UNL     1      -4.650  -2.323  -9.513  1.00  0.00     0.157 A 
ATOM      9  C   UNL     1      -3.124  -2.764  -7.128  1.00  0.00    -0.021 A 
ATOM     10  C   UNL     1      -2.517  -2.878  -8.372  1.00  0.00     0.032 A 
ATOM     11  C   UNL     1      -4.494  -2.475  -7.099  1.00  0.00     0.032 A 
ATOM     12  C   UNL     1      -3.275  -2.672  -9.543  1.00  0.00     0.085 A 
ATOM     13  C   UNL     1      -5.234  -2.187  -8.253  1.00  0.00     0.085 A 
ATOM     14  Cl  UNL     1      -2.440  -2.859 -11.056  1.00  0.00    -0.080 Cl
ATOM     15  Cl  UNL     1      -6.813  -1.583  -7.907  1.00  0.00    -0.080 Cl
BRANCH   9  16
ATOM     16  C   UNL     1      -2.417  -3.010  -5.854  1.00  0.00     0.029 C 
ATOM     17  N   UNL     1      -3.101  -2.061  -2.496  1.00  0.00    -0.259 N 
ATOM     18  C   UNL     1      -3.901  -1.102  -3.053  1.00  0.00     0.294 C 
ATOM     19  C   UNL     1      -2.297  -2.758  -3.381  1.00  0.00     0.268 C 
ATOM     20  O   UNL     1      -4.930  -0.619  -2.593  1.00  0.00    -0.261 OA
ATOM     21  S   UNL     1      -3.317  -0.700  -4.646  1.00  0.00    -0.022 SA
ATOM     22  C   UNL     1      -2.530  -2.230  -4.763  1.00  0.00     0.083 C 
ATOM     23  O   UNL     1      -1.634  -3.749  -3.131  1.00  0.00    -0.268 OA
BRANCH  17  24
ATOM     24  C   UNL     1      -3.441  -2.617  -1.194  1.00  0.00     0.230 C 
BRANCH  24  25
ATOM     25  C   UNL     1      -3.791  -1.552  -0.153  1.00  0.00     0.244 C 
ATOM     26  N   UNL     1      -2.976  -0.478   0.063  1.00  0.00    -0.325 N 
ATOM     27  H   UNL     1      -3.446   0.338   0.352  1.00  0.00     0.169 HD
ATOM     28  O   UNL     1      -4.838  -1.637   0.497  1.00  0.00    -0.273 OA
BRANCH  26  29
ATOM     29  C   UNL     1      -1.587  -0.336  -0.056  1.00  0.00     0.041 A 
ATOM     30  C   UNL     1       2.678   0.317  -0.040  1.00  0.00     0.044 C 
ATOM     31  C   UNL     1       1.194   0.105  -0.057  1.00  0.00    -0.051 A 
ATOM     32  C   UNL     1       0.677  -1.192   0.001  1.00  0.00     0.005 A 
ATOM     33  C   UNL     1       0.307   1.184  -0.115  1.00  0.00     0.005 A 
ATOM     34  C   UNL     1      -0.704  -1.412   0.002  1.00  0.00     0.026 A 
ATOM     35  C   UNL     1      -1.073   0.964  -0.099  1.00  0.00     0.026 A 
ENDBRANCH  26  29
ENDBRANCH  24  25
ENDBRANCH  17  24
ENDBRANCH   9  16
ENDBRANCH   7   8
ENDBRANCH   6   7
ENDBRANCH   3   6
ENDBRANCH   1   2
BRANCH   1  36
ATOM     36  C   UNL     1      -5.510  -5.736 -12.085  1.00  0.00     0.021 C 
BRANCH  36  37
ATOM     37  C   UNL     1      -6.133  -7.057 -11.607  1.00  0.00     0.002 C 
BRANCH  37  38
ATOM     38  C   UNL     1      -7.290  -7.641 -12.431  1.00  0.00     0.002 C 
BRANCH  38  39
ATOM     39  C   UNL     1      -7.072  -7.744 -13.938  1.00  0.00     0.021 C 
BRANCH  39  40
ATOM     40  C   UNL     1      -5.993  -8.728 -14.366  1.00  0.00     0.116 C 
BRANCH  40  41
ATOM     41  N   UNL     1      -6.497 -10.051 -14.727  1.00  0.00    -0.352 N 
ATOM     42  C   UNL     1      -5.815 -11.143 -15.241  1.00  0.00     0.251 C 
ATOM     43  H   UNL     1      -7.462 -10.187 -14.584  1.00  0.00     0.163 HD
ATOM     44  O   UNL     1      -6.407 -12.190 -15.479  1.00  0.00    -0.269 OA
BRANCH  42  45
ATOM     45  C   UNL     1      -4.337 -11.091 -15.337  1.00  0.00     0.039 A 
ATOM     46  C   UNL     1      -3.631 -12.107 -14.684  1.00  0.00     0.014 A 
ATOM     47  C   UNL     1      -3.698  -9.916 -15.715  1.00  0.00     0.014 A 
ATOM     48  C   UNL     1      -2.407 -11.805 -14.105  1.00  0.00     0.010 A 
ATOM     49  C   UNL     1      -2.546  -9.571 -15.047  1.00  0.00     0.010 A 
ATOM     50  C   UNL     1      -1.962 -10.489 -14.169  1.00  0.00    -0.014 A 
BRANCH  50  51
ATOM     51  C   UNL     1      -0.966  -9.943 -13.265  1.00  0.00     0.031 A 
ATOM     52  C   UNL     1       0.405  -9.738 -13.748  1.00  0.00     0.074 A 
ATOM     53  C   UNL     1      -1.339  -9.570 -12.021  1.00  0.00     0.049 A 
ATOM     54  N   UNL     1       1.430  -9.628 -12.978  1.00  0.00    -0.248 NA
ATOM     55  C   UNL     1       0.745  -9.731 -15.169  1.00  0.00     0.031 C 
ATOM     56  C   UNL     1      -0.597  -8.760 -11.059  1.00  0.00     0.029 A 
ATOM     57  N   UNL     1      -2.421 -10.056 -11.292  1.00  0.00    -0.354 N 
ATOM     58  C   UNL     1       2.483  -9.227 -13.762  1.00  0.00     0.074 A 
ATOM     59  C   UNL     1       2.049  -9.447 -15.119  1.00  0.00     0.031 C 
ATOM     60  C   UNL     1      -1.089  -8.984  -9.828  1.00  0.00     0.029 A 
ATOM     61  C   UNL     1      -2.053 -10.068  -9.937  1.00  0.00     0.049 A 
ATOM     62  H   UNL     1      -3.289 -10.341 -11.660  1.00  0.00     0.167 HD
ATOM     63  C   UNL     1       3.535  -8.604 -13.166  1.00  0.00     0.031 A 
ATOM     64  C   UNL     1      -1.963 -11.251  -9.258  1.00  0.00     0.031 A 
ATOM     65  C   UNL     1       3.450  -8.710 -11.709  1.00  0.00     0.049 A 
ATOM     66  C   UNL     1      -0.553 -11.573  -8.804  1.00  0.00     0.074 A 
ATOM     67  C   UNL     1       3.066  -7.823 -10.718  1.00  0.00     0.029 A 
ATOM     68  N   UNL     1       3.467  -9.973 -11.125  1.00  0.00    -0.354 N 
ATOM     69  N   UNL     1       0.520 -11.023  -9.305  1.00  0.00    -0.248 NA
ATOM     70  C   UNL     1      -0.240 -12.548  -7.763  1.00  0.00     0.031 C 
ATOM     71  C   UNL     1       2.746  -8.582  -9.558  1.00  0.00     0.029 A 
ATOM     72  C   UNL     1       2.988  -9.918  -9.830  1.00  0.00     0.049 A 
ATOM     73  H   UNL     1       3.778 -10.793 -11.573  1.00  0.00     0.167 HD
ATOM     74  C   UNL     1       1.633 -11.532  -8.689  1.00  0.00     0.074 A 
ATOM     75  C   UNL     1       1.103 -12.479  -7.724  1.00  0.00     0.031 C 
ATOM     76  C   UNL     1       2.896 -11.135  -9.030  1.00  0.00     0.031 A 
BRANCH  63  77
ATOM     77  C   UNL     1       4.496  -7.680 -13.881  1.00  0.00    -0.014 A 
ATOM     78  C   UNL     1       5.399  -6.911 -13.124  1.00  0.00     0.009 A 
ATOM     79  C   UNL     1       4.495  -7.426 -15.265  1.00  0.00     0.009 A 
ATOM     80  C   UNL     1       6.216  -5.931 -13.708  1.00  0.00     0.001 A 
ATOM     81  C   UNL     1       5.317  -6.459 -15.860  1.00  0.00     0.001 A 
ATOM     82  C   UNL     1       6.172  -5.702 -15.077  1.00  0.00     0.000 A 
ENDBRANCH  63  77
BRANCH  64  83
ATOM     83  C   UNL     1      -2.972 -12.257  -9.708  1.00  0.00    -0.014 A 
ATOM     84  C   UNL     1      -4.336 -11.960  -9.497  1.00  0.00     0.009 A 
ATOM     85  C   UNL     1      -2.642 -13.234 -10.657  1.00  0.00     0.009 A 
ATOM     86  C   UNL     1      -5.326 -12.512 -10.317  1.00  0.00     0.001 A 
ATOM     87  C   UNL     1      -3.642 -13.802 -11.460  1.00  0.00     0.001 A 
ATOM     88  C   UNL     1      -4.973 -13.406 -11.322  1.00  0.00     0.000 A 
ENDBRANCH  64  83
BRANCH  76  89
ATOM     89  C   UNL     1       4.184 -11.806  -8.608  1.00  0.00    -0.014 A 
ATOM     90  C   UNL     1       4.278 -13.116  -8.124  1.00  0.00     0.009 A 
ATOM     91  C   UNL     1       5.408 -11.132  -8.835  1.00  0.00     0.009 A 
ATOM     92  C   UNL     1       5.519 -13.704  -7.838  1.00  0.00     0.001 A 
ATOM     93  C   UNL     1       6.648 -11.732  -8.605  1.00  0.00     0.001 A 
ATOM     94  C   UNL     1       6.703 -13.018  -8.091  1.00  0.00     0.000 A 
ENDBRANCH  76  89
ENDBRANCH  50  51
ENDBRANCH  42  45
ENDBRANCH  40  41
ENDBRANCH  39  40
ENDBRANCH  38  39
ENDBRANCH  37  38
ENDBRANCH  36  37
ENDBRANCH   1  36
TORSDOF 19
