REMARK SMILES O=C(C[C@]12CSc3[nH]c(=O)sc3[C@H]1c1cc(Cl)ccc1OC2=O)NCCCCCCNC(=O)c1ccc(-c2c3nc(c(-c4ccccc4)c4ccc([nH]4)c(-c4ccccc4)c4nc(c(-c5ccccc5)c5ccc2[nH]5)C=C4)C=C3)cc1
REMARK SMILES IDX 28 1 27 2 26 3 25 4 24 5 1 6 2 7 3 9 4 10 5 11 13 12 22 13
REMARK SMILES IDX 6 14 12 15 14 16 21 17 23 18 7 19 11 20 15 21 20 22 8 23
REMARK SMILES IDX 9 24 16 25 19 26 10 28 17 29 18 30 29 31 30 32 31 33 32 34
REMARK SMILES IDX 33 36 34 37 35 38 81 39 36 40 80 41 37 42 38 43 39 44 74 45
REMARK SMILES IDX 40 46 79 47 73 48 75 49 41 50 78 51 72 52 71 53 42 55 64 56
REMARK SMILES IDX 49 57 63 58 50 59 53 60 62 61 76 62 51 63 52 64 61 66 77 67
REMARK SMILES IDX 54 68 43 69 44 70 48 71 45 72 47 73 46 74 65 75 66 76 70 77
REMARK SMILES IDX 67 78 69 79 68 80 55 81 56 82 60 83 57 84 59 85 58 86
REMARK H PARENT 24 8 8 27 31 35 75 54 53 65
REMARK Flexibility Score: inf
ROOT
ATOM      1  C   UNL     1       4.552  -3.948   2.587  1.00  0.00     0.002 C 
ENDROOT
BRANCH   1   2
ATOM      2  C   UNL     1       4.045  -3.925   1.142  1.00  0.00     0.002 C 
BRANCH   2   3
ATOM      3  C   UNL     1       2.513  -3.900   1.005  1.00  0.00     0.021 C 
BRANCH   3   4
ATOM      4  C   UNL     1       1.831  -2.839   1.863  1.00  0.00     0.116 C 
BRANCH   4   5
ATOM      5  N   UNL     1       2.365  -1.556   1.514  1.00  0.00    -0.356 N 
ATOM      6  O   UNL     1       0.342  -0.563   1.071  1.00  0.00    -0.275 OA
ATOM      7  C   UNL     1       1.560  -0.608   0.969  1.00  0.00     0.221 C 
ATOM      8  H   UNL     1       3.318  -1.362   1.669  1.00  0.00     0.163 HD
BRANCH   7   9
ATOM      9  C   UNL     1       2.310   0.271   0.036  1.00  0.00     0.120 C 
BRANCH   9  10
ATOM     10  C   UNL     1       3.356   1.278   0.595  1.00  0.00     0.098 C 
ATOM     11  C   UNL     1       2.779   1.857   1.902  1.00  0.00     0.097 C 
ATOM     12  C   UNL     1       3.541   2.276  -0.593  1.00  0.00     0.085 C 
ATOM     13  C   UNL     1       4.769   0.742   0.945  1.00  0.00     0.319 C 
ATOM     14  S   UNL     1       3.476   3.418   2.470  1.00  0.00    -0.106 SA
ATOM     15  C   UNL     1       3.974   3.660  -0.224  1.00  0.00     0.049 A 
ATOM     16  C   UNL     1       4.178   1.429  -1.728  1.00  0.00     0.006 A 
ATOM     17  O   UNL     1       5.621   0.410  -0.085  1.00  0.00    -0.426 OA
ATOM     18  O   UNL     1       5.177   0.618   2.097  1.00  0.00    -0.251 OA
ATOM     19  C   UNL     1       3.831   4.192   1.002  1.00  0.00     0.090 A 
ATOM     20  S   UNL     1       4.123   4.946  -1.412  1.00  0.00    -0.077 S 
ATOM     21  C   UNL     1       3.471   1.228  -2.929  1.00  0.00     0.028 A 
ATOM     22  C   UNL     1       5.068   0.409  -1.357  1.00  0.00     0.134 A 
ATOM     23  N   UNL     1       3.787   5.552   1.029  1.00  0.00    -0.307 N 
ATOM     24  C   UNL     1       3.855   6.179  -0.172  1.00  0.00     0.305 A 
ATOM     25  C   UNL     1       3.547  -0.009  -3.600  1.00  0.00     0.041 A 
ATOM     26  C   UNL     1       5.220  -0.789  -2.069  1.00  0.00     0.049 A 
ATOM     27  H   UNL     1       3.710   6.053   1.873  1.00  0.00     0.171 HD
ATOM     28  O   UNL     1       3.703   7.383  -0.387  1.00  0.00    -0.257 OA
ATOM     29  Cl  UNL     1       2.423  -0.362  -4.857  1.00  0.00    -0.084 Cl
ATOM     30  C   UNL     1       4.406  -1.021  -3.168  1.00  0.00     0.024 A 
ENDBRANCH   9  10
ENDBRANCH   7   9
ENDBRANCH   4   5
ENDBRANCH   3   4
ENDBRANCH   2   3
ENDBRANCH   1   2
BRANCH   1  31
ATOM     31  C   UNL     1       3.906  -5.025   3.464  1.00  0.00     0.021 C 
BRANCH  31  32
ATOM     32  C   UNL     1       3.922  -6.417   2.836  1.00  0.00     0.116 C 
BRANCH  32  33
ATOM     33  N   UNL     1       5.257  -6.918   2.626  1.00  0.00    -0.352 N 
ATOM     34  C   UNL     1       6.167  -7.530   3.435  1.00  0.00     0.251 C 
ATOM     35  H   UNL     1       5.580  -6.790   1.705  1.00  0.00     0.163 HD
ATOM     36  O   UNL     1       7.215  -7.899   2.899  1.00  0.00    -0.269 OA
BRANCH  34  37
ATOM     37  C   UNL     1       6.001  -7.720   4.902  1.00  0.00     0.039 A 
ATOM     38  C   UNL     1       4.849  -7.445   5.643  1.00  0.00     0.014 A 
ATOM     39  C   UNL     1       7.142  -8.178   5.585  1.00  0.00     0.014 A 
ATOM     40  C   UNL     1       4.861  -7.529   7.027  1.00  0.00     0.010 A 
ATOM     41  C   UNL     1       7.153  -8.293   6.968  1.00  0.00     0.010 A 
ATOM     42  C   UNL     1       6.022  -7.925   7.689  1.00  0.00    -0.014 A 
BRANCH  42  43
ATOM     43  C   UNL     1       5.956  -8.050   9.138  1.00  0.00     0.031 A 
ATOM     44  C   UNL     1       4.984  -9.066   9.636  1.00  0.00     0.074 A 
ATOM     45  C   UNL     1       6.777  -7.386   9.973  1.00  0.00     0.049 A 
ATOM     46  N   UNL     1       3.978  -8.892  10.429  1.00  0.00    -0.248 NA
ATOM     47  C   UNL     1       5.093 -10.431   9.096  1.00  0.00     0.031 C 
ATOM     48  C   UNL     1       7.957  -6.589   9.627  1.00  0.00     0.029 A 
ATOM     49  N   UNL     1       6.793  -7.389  11.335  1.00  0.00    -0.354 N 
ATOM     50  C   UNL     1       3.412 -10.152  10.620  1.00  0.00     0.074 A 
ATOM     51  C   UNL     1       4.061 -11.034   9.684  1.00  0.00     0.031 C 
ATOM     52  C   UNL     1       8.706  -6.403  10.737  1.00  0.00     0.029 A 
ATOM     53  C   UNL     1       7.984  -6.932  11.882  1.00  0.00     0.049 A 
ATOM     54  H   UNL     1       6.030  -7.688  11.881  1.00  0.00     0.167 HD
ATOM     55  C   UNL     1       2.584 -10.421  11.667  1.00  0.00     0.031 A 
ATOM     56  C   UNL     1       8.377  -7.055  13.172  1.00  0.00     0.031 A 
ATOM     57  C   UNL     1       2.048  -9.220  12.245  1.00  0.00     0.049 A 
ATOM     58  C   UNL     1       7.172  -7.311  13.992  1.00  0.00     0.074 A 
ATOM     59  C   UNL     1       1.219  -8.209  11.805  1.00  0.00     0.029 A 
ATOM     60  N   UNL     1       2.647  -8.754  13.389  1.00  0.00    -0.354 N 
ATOM     61  N   UNL     1       6.231  -6.437  14.195  1.00  0.00    -0.248 NA
ATOM     62  C   UNL     1       6.818  -8.691  14.280  1.00  0.00     0.031 C 
ATOM     63  C   UNL     1       1.705  -7.032  12.441  1.00  0.00     0.029 A 
ATOM     64  C   UNL     1       2.766  -7.396  13.274  1.00  0.00     0.049 A 
ATOM     65  H   UNL     1       2.939  -9.300  14.155  1.00  0.00     0.167 HD
ATOM     66  C   UNL     1       5.060  -7.179  14.210  1.00  0.00     0.074 A 
ATOM     67  C   UNL     1       5.494  -8.563  14.382  1.00  0.00     0.031 C 
ATOM     68  C   UNL     1       3.877  -6.633  13.803  1.00  0.00     0.031 A 
BRANCH  55  69
ATOM     69  C   UNL     1       2.569 -11.738  12.409  1.00  0.00    -0.014 A 
ATOM     70  C   UNL     1       3.530 -12.749  12.224  1.00  0.00     0.009 A 
ATOM     71  C   UNL     1       1.737 -11.866  13.539  1.00  0.00     0.009 A 
ATOM     72  C   UNL     1       3.690 -13.799  13.134  1.00  0.00     0.001 A 
ATOM     73  C   UNL     1       1.922 -12.891  14.475  1.00  0.00     0.001 A 
ATOM     74  C   UNL     1       2.907 -13.852  14.277  1.00  0.00     0.000 A 
ENDBRANCH  55  69
BRANCH  56  75
ATOM     75  C   UNL     1       9.736  -7.327  13.688  1.00  0.00    -0.014 A 
ATOM     76  C   UNL     1      10.655  -8.052  12.907  1.00  0.00     0.009 A 
ATOM     77  C   UNL     1      10.029  -7.149  15.049  1.00  0.00     0.009 A 
ATOM     78  C   UNL     1      11.800  -8.620  13.475  1.00  0.00     0.001 A 
ATOM     79  C   UNL     1      11.174  -7.722  15.619  1.00  0.00     0.001 A 
ATOM     80  C   UNL     1      12.049  -8.471  14.835  1.00  0.00     0.000 A 
ENDBRANCH  56  75
BRANCH  68  81
ATOM     81  C   UNL     1       3.798  -5.137  13.612  1.00  0.00    -0.014 A 
ATOM     82  C   UNL     1       2.737  -4.452  14.227  1.00  0.00     0.009 A 
ATOM     83  C   UNL     1       4.609  -4.432  12.707  1.00  0.00     0.009 A 
ATOM     84  C   UNL     1       2.480  -3.112  13.932  1.00  0.00     0.001 A 
ATOM     85  C   UNL     1       4.369  -3.080  12.434  1.00  0.00     0.001 A 
ATOM     86  C   UNL     1       3.296  -2.426  13.037  1.00  0.00     0.000 A 
ENDBRANCH  68  81
ENDBRANCH  42  43
ENDBRANCH  34  37
ENDBRANCH  32  33
ENDBRANCH  31  32
ENDBRANCH   1  31
TORSDOF 14
