REMARK SMILES O=C(NCCCCCCNC(=O)[C@@H]1CCCN1C(=O)[C@@H]1CCCN1C(=O)OCC1c2ccccc2-c2ccccc21)c1ccc(-c2c3nc(c(-c4ccccc4)c4ccc([nH]4)c(-c4ccccc4)c4nc(c(-c5ccccc5)c5ccc2[nH]5)C=C4)C=C3)cc1
REMARK SMILES IDX 8 1 7 2 6 3 5 4 4 5 3 6 1 7 2 8 42 10 43 11 89 12 44 13
REMARK SMILES IDX 88 14 45 15 46 16 47 17 82 18 48 19 87 20 81 21 83 22 49 23
REMARK SMILES IDX 86 24 80 25 79 26 50 28 72 29 57 30 71 31 58 32 61 33 70 34
REMARK SMILES IDX 84 35 59 36 60 37 69 39 85 40 62 41 51 42 52 43 56 44 53 45
REMARK SMILES IDX 55 46 54 47 73 48 74 49 78 50 75 51 77 52 76 53 63 54 64 55
REMARK SMILES IDX 68 56 65 57 67 58 66 59 9 60 10 61 11 62 12 64 13 65 14 66
REMARK SMILES IDX 17 67 15 68 16 69 18 70 19 71 20 72 21 73 24 74 22 75 23 76
REMARK SMILES IDX 25 77 26 78 27 79 28 80 29 81 30 82 41 83 31 84 35 85 36 86
REMARK SMILES IDX 40 87 32 88 34 89 37 90 39 91 33 92 38 93
REMARK H PARENT 3 9 83 27 61 38 10 63
REMARK Flexibility Score: inf
ROOT
ATOM      1  C   UNL     1       5.617  -4.561   0.062  1.00  0.00     0.021 C 
ENDROOT
BRANCH   1   2
ATOM      2  C   UNL     1       3.984  -4.118  -0.038  1.00  0.00     0.002 C 
BRANCH   2   3
ATOM      3  C   UNL     1       3.431  -3.320   1.160  1.00  0.00     0.002 C 
BRANCH   3   4
ATOM      4  C   UNL     1       4.144  -1.978   1.395  1.00  0.00     0.021 C 
BRANCH   4   5
ATOM      5  C   UNL     1       4.211  -1.122   0.140  1.00  0.00     0.116 C 
BRANCH   5   6
ATOM      6  N   UNL     1       2.869  -0.917  -0.397  1.00  0.00    -0.352 N 
ATOM      7  O   UNL     1       0.896   0.199  -0.411  1.00  0.00    -0.269 OA
ATOM      8  C   UNL     1       2.115   0.223  -0.319  1.00  0.00     0.251 C 
ATOM      9  H   UNL     1       2.462  -1.682  -0.865  1.00  0.00     0.163 HD
BRANCH   8  10
ATOM     10  C   UNL     1       2.846   1.484  -0.143  1.00  0.00     0.039 A 
ATOM     11  C   UNL     1       3.995   1.686  -0.914  1.00  0.00     0.014 A 
ATOM     12  C   UNL     1       2.436   2.413   0.809  1.00  0.00     0.014 A 
ATOM     13  C   UNL     1       4.820   2.753  -0.631  1.00  0.00     0.010 A 
ATOM     14  C   UNL     1       3.202   3.562   0.997  1.00  0.00     0.010 A 
ATOM     15  C   UNL     1       4.400   3.731   0.283  1.00  0.00    -0.014 A 
BRANCH  15  16
ATOM     16  C   UNL     1       5.181   4.981   0.368  1.00  0.00     0.031 A 
ATOM     17  C   UNL     1       5.849   5.400   1.639  1.00  0.00     0.074 A 
ATOM     18  C   UNL     1       5.285   5.723  -0.752  1.00  0.00     0.049 A 
ATOM     19  N   UNL     1       6.561   6.473   1.871  1.00  0.00    -0.248 NA
ATOM     20  C   UNL     1       5.694   4.514   2.803  1.00  0.00     0.031 C 
ATOM     21  C   UNL     1       4.672   5.392  -2.045  1.00  0.00     0.029 A 
ATOM     22  N   UNL     1       5.959   6.887  -0.996  1.00  0.00    -0.354 N 
ATOM     23  C   UNL     1       6.917   6.406   3.210  1.00  0.00     0.074 A 
ATOM     24  C   UNL     1       6.321   5.202   3.747  1.00  0.00     0.031 C 
ATOM     25  C   UNL     1       5.052   6.294  -2.957  1.00  0.00     0.029 A 
ATOM     26  C   UNL     1       5.846   7.317  -2.295  1.00  0.00     0.049 A 
ATOM     27  H   UNL     1       6.474   7.369  -0.309  1.00  0.00     0.167 HD
ATOM     28  C   UNL     1       7.674   7.277   3.919  1.00  0.00     0.031 A 
ATOM     29  C   UNL     1       6.301   8.434  -2.885  1.00  0.00     0.031 A 
ATOM     30  C   UNL     1       8.241   8.481   3.366  1.00  0.00     0.049 A 
ATOM     31  C   UNL     1       7.076   9.410  -2.056  1.00  0.00     0.074 A 
ATOM     32  C   UNL     1       9.041   9.422   3.990  1.00  0.00     0.029 A 
ATOM     33  N   UNL     1       8.057   8.916   2.060  1.00  0.00    -0.354 N 
ATOM     34  N   UNL     1       7.432   9.323  -0.797  1.00  0.00    -0.248 NA
ATOM     35  C   UNL     1       7.510  10.639  -2.728  1.00  0.00     0.031 C 
ATOM     36  C   UNL     1       9.278  10.462   3.084  1.00  0.00     0.029 A 
ATOM     37  C   UNL     1       8.697  10.130   1.870  1.00  0.00     0.049 A 
ATOM     38  H   UNL     1       7.548   8.432   1.371  1.00  0.00     0.167 HD
ATOM     39  C   UNL     1       8.155  10.475  -0.530  1.00  0.00     0.074 A 
ATOM     40  C   UNL     1       8.204  11.231  -1.766  1.00  0.00     0.031 C 
ATOM     41  C   UNL     1       8.725  10.872   0.634  1.00  0.00     0.031 A 
BRANCH  28  42
ATOM     42  C   UNL     1       7.885   6.984   5.381  1.00  0.00    -0.014 A 
ATOM     43  C   UNL     1       8.648   5.887   5.811  1.00  0.00     0.009 A 
ATOM     44  C   UNL     1       7.327   7.839   6.346  1.00  0.00     0.009 A 
ATOM     45  C   UNL     1       8.812   5.629   7.175  1.00  0.00     0.001 A 
ATOM     46  C   UNL     1       7.522   7.598   7.707  1.00  0.00     0.001 A 
ATOM     47  C   UNL     1       8.253   6.487   8.121  1.00  0.00     0.000 A 
ENDBRANCH  28  42
BRANCH  29  48
ATOM     48  C   UNL     1       6.003   8.687  -4.318  1.00  0.00    -0.014 A 
ATOM     49  C   UNL     1       7.030   8.691  -5.271  1.00  0.00     0.009 A 
ATOM     50  C   UNL     1       4.681   8.903  -4.742  1.00  0.00     0.009 A 
ATOM     51  C   UNL     1       6.743   8.934  -6.616  1.00  0.00     0.001 A 
ATOM     52  C   UNL     1       4.393   9.107  -6.092  1.00  0.00     0.001 A 
ATOM     53  C   UNL     1       5.426   9.135  -7.026  1.00  0.00     0.000 A 
ENDBRANCH  29  48
BRANCH  41  54
ATOM     54  C   UNL     1       9.486  12.169   0.606  1.00  0.00    -0.014 A 
ATOM     55  C   UNL     1       8.832  13.402   0.458  1.00  0.00     0.009 A 
ATOM     56  C   UNL     1      10.882  12.153   0.755  1.00  0.00     0.009 A 
ATOM     57  C   UNL     1       9.566  14.588   0.416  1.00  0.00     0.001 A 
ATOM     58  C   UNL     1      11.608  13.343   0.753  1.00  0.00     0.001 A 
ATOM     59  C   UNL     1      10.951  14.559   0.571  1.00  0.00     0.000 A 
ENDBRANCH  41  54
ENDBRANCH  15  16
ENDBRANCH   8  10
ENDBRANCH   5   6
ENDBRANCH   4   5
ENDBRANCH   3   4
ENDBRANCH   2   3
ENDBRANCH   1   2
BRANCH   1  60
ATOM     60  C   UNL     1       6.765  -6.341   0.619  1.00  0.00     0.116 C 
BRANCH  60  61
ATOM     61  N   UNL     1       6.719  -7.822   0.551  1.00  0.00    -0.354 N 
ATOM     62  C   UNL     1       7.814  -8.477   1.113  1.00  0.00     0.242 C 
ATOM     63  H   UNL     1       5.968  -8.308   0.138  1.00  0.00     0.163 HD
ATOM     64  O   UNL     1       7.765  -9.703   1.219  1.00  0.00    -0.273 OA
BRANCH  62  65
ATOM     65  C   UNL     1       9.157  -7.615   1.353  1.00  0.00     0.174 C 
ATOM     66  C   UNL     1      10.023  -8.469   2.291  1.00  0.00     0.037 C 
ATOM     67  N   UNL     1       9.387  -6.212   1.913  1.00  0.00    -0.329 N 
ATOM     68  C   UNL     1      11.223  -7.609   2.600  1.00  0.00     0.024 C 
ATOM     69  C   UNL     1      10.692  -6.193   2.575  1.00  0.00     0.120 C 
BRANCH  67  70
ATOM     70  C   UNL     1       8.908  -4.921   1.656  1.00  0.00     0.246 C 
ATOM     71  O   UNL     1       9.446  -3.963   2.245  1.00  0.00    -0.272 OA
BRANCH  70  72
ATOM     72  C   UNL     1       7.583  -4.529   0.876  1.00  0.00     0.178 C 
ATOM     73  C   UNL     1       5.967  -5.040   1.981  1.00  0.00     0.037 C 
ATOM     74  N   UNL     1       7.261  -5.169  -0.899  1.00  0.00    -0.296 N 
ATOM     75  C   UNL     1       4.825  -6.235   0.830  1.00  0.00     0.024 C 
ATOM     76  C   UNL     1       5.642  -6.217  -1.036  1.00  0.00     0.124 C 
BRANCH  74  77
ATOM     77  C   UNL     1       8.086  -4.848  -1.935  1.00  0.00     0.410 C 
ATOM     78  O   UNL     1       7.757  -4.903  -3.111  1.00  0.00    -0.224 OA
BRANCH  77  79
ATOM     79  O   UNL     1       9.332  -4.571  -1.466  1.00  0.00    -0.448 OA
BRANCH  79  80
ATOM     80  C   UNL     1      10.370  -4.511  -2.457  1.00  0.00     0.248 C 
BRANCH  80  81
ATOM     81  C   UNL     1      11.158  -5.829  -2.652  1.00  0.00     0.088 C 
ATOM     82  C   UNL     1      12.346  -6.014  -1.702  1.00  0.00    -0.029 A 
ATOM     83  C   UNL     1      10.434  -7.168  -2.492  1.00  0.00    -0.029 A 
ATOM     84  C   UNL     1      13.352  -5.116  -1.372  1.00  0.00     0.005 A 
ATOM     85  C   UNL     1      12.367  -7.333  -1.203  1.00  0.00    -0.014 A 
ATOM     86  C   UNL     1      11.189  -8.032  -1.666  1.00  0.00    -0.014 A 
ATOM     87  C   UNL     1       9.234  -7.600  -3.034  1.00  0.00     0.005 A 
ATOM     88  C   UNL     1      14.369  -5.542  -0.513  1.00  0.00     0.000 A 
ATOM     89  C   UNL     1      13.395  -7.765  -0.379  1.00  0.00     0.009 A 
ATOM     90  C   UNL     1      10.727  -9.302  -1.345  1.00  0.00     0.009 A 
ATOM     91  C   UNL     1       8.741  -8.856  -2.668  1.00  0.00     0.000 A 
ATOM     92  C   UNL     1      14.392  -6.856  -0.022  1.00  0.00     0.001 A 
ATOM     93  C   UNL     1       9.480  -9.700  -1.829  1.00  0.00     0.001 A 
ENDBRANCH  80  81
ENDBRANCH  79  80
ENDBRANCH  77  79
ENDBRANCH  74  77
ENDBRANCH  70  72
ENDBRANCH  67  70
ENDBRANCH  62  65
ENDBRANCH  60  61
ENDBRANCH   1  60
TORSDOF 19
