REMARK SMILES O=C(NCCCCCCNC(=O)[C@@H]1CCCC[C@@H]1NS(=O)(=O)c1ccc2ccccc2c1)c1ccc(-c2c3nc(c(-c4ccccc4)c4ccc([nH]4)c(-c4ccccc4)c4nc(c(-c5ccccc5)c5ccc2[nH]5)C=C4)C=C3)cc1
REMARK SMILES IDX 7 1 6 2 5 3 4 4 3 5 1 6 2 7 33 9 34 10 80 11 35 12 79 13
REMARK SMILES IDX 36 14 37 15 38 16 73 17 39 18 78 19 72 20 74 21 40 22 77 23
REMARK SMILES IDX 71 24 70 25 41 27 63 28 48 29 62 30 49 31 52 32 61 33 75 34
REMARK SMILES IDX 50 35 51 36 60 38 76 39 53 40 42 41 43 42 47 43 44 44 46 45
REMARK SMILES IDX 45 46 64 47 65 48 69 49 66 50 68 51 67 52 54 53 55 54 59 55
REMARK SMILES IDX 56 56 58 57 57 58 8 59 9 60 10 61 11 62 12 64 13 65 14 66
REMARK SMILES IDX 18 67 15 68 17 69 16 70 19 71 20 73 21 74 22 75 23 76 24 77
REMARK SMILES IDX 32 78 25 79 31 80 26 81 30 82 27 83 29 84 28 85
REMARK H PARENT 3 8 74 26 52 37 10 63 19 72
REMARK Flexibility Score: inf
ROOT
ATOM      1  C   UNL     1       4.400   3.221  -3.025  1.00  0.00     0.002 C 
ENDROOT
BRANCH   1   2
ATOM      2  C   UNL     1       3.727   1.901  -3.422  1.00  0.00     0.002 C 
BRANCH   2   3
ATOM      3  C   UNL     1       4.245   0.652  -2.707  1.00  0.00     0.021 C 
BRANCH   3   4
ATOM      4  C   UNL     1       4.185   0.712  -1.186  1.00  0.00     0.116 C 
BRANCH   4   5
ATOM      5  N   UNL     1       2.822   0.708  -0.683  1.00  0.00    -0.352 N 
ATOM      6  O   UNL     1       1.033  -0.097   0.434  1.00  0.00    -0.269 OA
ATOM      7  C   UNL     1       2.244  -0.129   0.240  1.00  0.00     0.251 C 
ATOM      8  H   UNL     1       2.231   1.401  -1.055  1.00  0.00     0.163 HD
BRANCH   7   9
ATOM      9  C   UNL     1       3.084  -1.089   0.990  1.00  0.00     0.039 A 
ATOM     10  C   UNL     1       4.302  -0.689   1.545  1.00  0.00     0.014 A 
ATOM     11  C   UNL     1       2.635  -2.403   1.159  1.00  0.00     0.014 A 
ATOM     12  C   UNL     1       5.123  -1.628   2.158  1.00  0.00     0.010 A 
ATOM     13  C   UNL     1       3.426  -3.327   1.849  1.00  0.00     0.010 A 
ATOM     14  C   UNL     1       4.686  -2.951   2.337  1.00  0.00    -0.014 A 
BRANCH  14  15
ATOM     15  C   UNL     1       5.536  -3.882   3.120  1.00  0.00     0.031 A 
ATOM     16  C   UNL     1       6.196  -5.071   2.484  1.00  0.00     0.074 A 
ATOM     17  C   UNL     1       5.755  -3.599   4.419  1.00  0.00     0.049 A 
ATOM     18  N   UNL     1       7.041  -5.920   3.017  1.00  0.00    -0.248 NA
ATOM     19  C   UNL     1       5.867  -5.353   1.079  1.00  0.00     0.031 C 
ATOM     20  C   UNL     1       5.149  -2.482   5.150  1.00  0.00     0.029 A 
ATOM     21  N   UNL     1       6.571  -4.197   5.343  1.00  0.00    -0.354 N 
ATOM     22  C   UNL     1       7.336  -6.840   2.019  1.00  0.00     0.074 A 
ATOM     23  C   UNL     1       6.563  -6.461   0.855  1.00  0.00     0.031 C 
ATOM     24  C   UNL     1       5.667  -2.434   6.386  1.00  0.00     0.029 A 
ATOM     25  C   UNL     1       6.596  -3.545   6.551  1.00  0.00     0.049 A 
ATOM     26  H   UNL     1       7.088  -5.015   5.159  1.00  0.00     0.167 HD
ATOM     27  C   UNL     1       8.179  -7.900   2.069  1.00  0.00     0.031 A 
ATOM     28  C   UNL     1       7.292  -3.806   7.672  1.00  0.00     0.031 A 
ATOM     29  C   UNL     1       8.945  -8.278   3.229  1.00  0.00     0.049 A 
ATOM     30  C   UNL     1       8.223  -4.980   7.693  1.00  0.00     0.074 A 
ATOM     31  C   UNL     1       9.828  -9.335   3.374  1.00  0.00     0.029 A 
ATOM     32  N   UNL     1       8.920  -7.610   4.443  1.00  0.00    -0.354 N 
ATOM     33  N   UNL     1       8.503  -5.826   6.733  1.00  0.00    -0.248 NA
ATOM     34  C   UNL     1       8.934  -5.233   8.953  1.00  0.00     0.031 C 
ATOM     35  C   UNL     1      10.311  -9.326   4.688  1.00  0.00     0.029 A 
ATOM     36  C   UNL     1       9.762  -8.239   5.346  1.00  0.00     0.049 A 
ATOM     37  H   UNL     1       8.383  -6.808   4.636  1.00  0.00     0.167 HD
ATOM     38  C   UNL     1       9.420  -6.716   7.272  1.00  0.00     0.074 A 
ATOM     39  C   UNL     1       9.678  -6.282   8.631  1.00  0.00     0.031 C 
ATOM     40  C   UNL     1       9.989  -7.803   6.698  1.00  0.00     0.031 A 
BRANCH  27  41
ATOM     41  C   UNL     1       8.310  -8.742   0.832  1.00  0.00    -0.014 A 
ATOM     42  C   UNL     1       9.043  -8.291  -0.277  1.00  0.00     0.009 A 
ATOM     43  C   UNL     1       7.744 -10.026   0.796  1.00  0.00     0.009 A 
ATOM     44  C   UNL     1       9.189  -9.102  -1.405  1.00  0.00     0.001 A 
ATOM     45  C   UNL     1       7.908 -10.842  -0.325  1.00  0.00     0.001 A 
ATOM     46  C   UNL     1       8.626 -10.378  -1.427  1.00  0.00     0.000 A 
ENDBRANCH  27  41
BRANCH  28  47
ATOM     47  C   UNL     1       7.122  -2.939   8.864  1.00  0.00    -0.014 A 
ATOM     48  C   UNL     1       8.148  -2.074   9.273  1.00  0.00     0.009 A 
ATOM     49  C   UNL     1       5.921  -2.962   9.590  1.00  0.00     0.009 A 
ATOM     50  C   UNL     1       7.980  -1.263  10.398  1.00  0.00     0.001 A 
ATOM     51  C   UNL     1       5.745  -2.130  10.696  1.00  0.00     0.001 A 
ATOM     52  C   UNL     1       6.777  -1.287  11.104  1.00  0.00     0.000 A 
ENDBRANCH  28  47
BRANCH  40  53
ATOM     53  C   UNL     1      10.942  -8.589   7.551  1.00  0.00    -0.014 A 
ATOM     54  C   UNL     1      10.470  -9.412   8.586  1.00  0.00     0.009 A 
ATOM     55  C   UNL     1      12.322  -8.507   7.317  1.00  0.00     0.009 A 
ATOM     56  C   UNL     1      11.367 -10.107   9.398  1.00  0.00     0.001 A 
ATOM     57  C   UNL     1      13.215  -9.223   8.116  1.00  0.00     0.001 A 
ATOM     58  C   UNL     1      12.738 -10.013   9.161  1.00  0.00     0.000 A 
ENDBRANCH  40  53
ENDBRANCH  14  15
ENDBRANCH   7   9
ENDBRANCH   4   5
ENDBRANCH   3   4
ENDBRANCH   2   3
ENDBRANCH   1   2
BRANCH   1  59
ATOM     59  C   UNL     1       5.932   3.199  -2.979  1.00  0.00     0.021 C 
BRANCH  59  60
ATOM     60  C   UNL     1       6.597   2.795  -4.292  1.00  0.00     0.116 C 
BRANCH  60  61
ATOM     61  N   UNL     1       6.583   3.885  -5.238  1.00  0.00    -0.356 N 
ATOM     62  C   UNL     1       7.576   4.649  -5.743  1.00  0.00     0.224 C 
ATOM     63  H   UNL     1       5.687   4.114  -5.577  1.00  0.00     0.163 HD
ATOM     64  O   UNL     1       7.224   5.644  -6.390  1.00  0.00    -0.275 OA
BRANCH  62  65
ATOM     65  C   UNL     1       9.066   4.382  -5.558  1.00  0.00     0.096 C 
ATOM     66  C   UNL     1       9.614   2.956  -5.601  1.00  0.00     0.015 C 
ATOM     67  C   UNL     1       9.750   5.309  -4.544  1.00  0.00     0.082 C 
ATOM     68  C   UNL     1      11.125   2.975  -5.838  1.00  0.00     0.001 C 
ATOM     69  C   UNL     1      11.276   5.227  -4.667  1.00  0.00     0.021 C 
ATOM     70  C   UNL     1      11.835   3.809  -4.777  1.00  0.00     0.002 C 
BRANCH  67  71
ATOM     71  N   UNL     1       9.229   5.316  -3.163  1.00  0.00    -0.207 NA
ATOM     72  H   UNL     1       8.217   5.340  -3.291  1.00  0.00     0.141 HD
BRANCH  71  73
ATOM     73  S   UNL     1       9.434   4.274  -1.880  1.00  0.00     0.240 S 
ATOM     74  O   UNL     1       8.644   4.824  -0.806  1.00  0.00    -0.207 OA
ATOM     75  O   UNL     1       9.203   2.923  -2.349  1.00  0.00    -0.207 OA
BRANCH  73  76
ATOM     76  C   UNL     1      11.125   4.392  -1.380  1.00  0.00     0.083 A 
ATOM     77  C   UNL     1      11.856   3.215  -1.197  1.00  0.00     0.022 A 
ATOM     78  C   UNL     1      11.739   5.640  -1.268  1.00  0.00     0.030 A 
ATOM     79  C   UNL     1      13.234   3.282  -1.008  1.00  0.00     0.010 A 
ATOM     80  C   UNL     1      13.131   5.715  -1.104  1.00  0.00    -0.017 A 
ATOM     81  C   UNL     1      13.888   4.521  -0.997  1.00  0.00    -0.018 A 
ATOM     82  C   UNL     1      13.798   6.949  -1.092  1.00  0.00     0.009 A 
ATOM     83  C   UNL     1      15.285   4.596  -0.908  1.00  0.00     0.009 A 
ATOM     84  C   UNL     1      15.191   7.005  -1.010  1.00  0.00     0.001 A 
ATOM     85  C   UNL     1      15.933   5.830  -0.925  1.00  0.00     0.001 A 
ENDBRANCH  73  76
ENDBRANCH  71  73
ENDBRANCH  67  71
ENDBRANCH  62  65
ENDBRANCH  60  61
ENDBRANCH  59  60
ENDBRANCH   1  59
TORSDOF 16
