REMARK SMILES COc1cccc(CSc2nc3ccccc3c(=O)n2CCC(=O)NCCCCCCNC(=O)c2ccc(-c3c4nc(c(-c5ccccc5)c5ccc([nH]5)c(-c5ccccc5)c5nc(c(-c6ccccc6)c6ccc3[nH]6)C=C5)C=C4)cc2)c1
REMARK SMILES IDX 26 1 25 2 23 3 24 4 22 6 21 7 20 8 10 9 11 10 12 11 18 12
REMARK SMILES IDX 13 13 17 14 19 15 14 16 16 17 15 18 9 19 8 20 7 21 3 22 4 23
REMARK SMILES IDX 83 24 5 25 6 26 2 27 1 28 27 29 28 30 29 31 30 32 31 33
REMARK SMILES IDX 32 34 33 35 34 37 35 38 36 39 82 40 37 41 81 42 38 43 39 44
REMARK SMILES IDX 40 45 75 46 41 47 80 48 74 49 76 50 42 51 79 52 73 53 72 54
REMARK SMILES IDX 43 56 65 57 50 58 64 59 51 60 54 61 63 62 77 63 52 64 53 65
REMARK SMILES IDX 62 67 78 68 55 69 44 70 45 71 49 72 46 73 48 74 47 75 66 76
REMARK SMILES IDX 67 77 71 78 68 79 70 80 69 81 56 82 57 83 61 84 58 85 60 86
REMARK SMILES IDX 59 87
REMARK H PARENT 25 5 32 36 76 55 54 66
REMARK Flexibility Score: inf
ROOT
ATOM      1  C   UNL     1       7.361  -1.911   4.571  1.00  0.00     0.116 C 
ENDROOT
BRANCH   1   2
ATOM      2  N   UNL     1       6.872  -2.498   3.329  1.00  0.00    -0.356 N 
ATOM      3  C   UNL     1       6.022  -2.021   2.381  1.00  0.00     0.221 C 
ATOM      4  O   UNL     1       5.741  -2.757   1.431  1.00  0.00    -0.275 OA
ATOM      5  H   UNL     1       7.219  -3.401   3.144  1.00  0.00     0.163 HD
BRANCH   3   6
ATOM      6  C   UNL     1       5.435  -0.625   2.457  1.00  0.00     0.122 C 
BRANCH   6   7
ATOM      7  C   UNL     1       3.900  -0.649   2.504  1.00  0.00     0.138 C 
BRANCH   7   8
ATOM      8  N   UNL     1       3.356  -0.563   3.857  1.00  0.00    -0.287 N 
ATOM      9  C   UNL     1       3.517  -1.512   4.841  1.00  0.00     0.171 A 
ATOM     10  N   UNL     1       3.800  -1.158   6.061  1.00  0.00    -0.224 NA
ATOM     11  C   UNL     1       3.882   0.208   6.361  1.00  0.00     0.079 A 
ATOM     12  C   UNL     1       2.861   0.700   4.223  1.00  0.00     0.262 A 
ATOM     13  C   UNL     1       4.614   0.660   7.459  1.00  0.00     0.029 A 
ATOM     14  C   UNL     1       3.226   1.145   5.582  1.00  0.00     0.066 A 
ATOM     15  O   UNL     1       2.276   1.461   3.474  1.00  0.00    -0.269 OA
ATOM     16  C   UNL     1       4.619   2.011   7.816  1.00  0.00     0.002 A 
ATOM     17  C   UNL     1       3.136   2.485   5.974  1.00  0.00     0.016 A 
ATOM     18  C   UNL     1       3.832   2.915   7.105  1.00  0.00     0.001 A 
BRANCH   9  19
ATOM     19  S   UNL     1       3.407  -3.245   4.626  1.00  0.00    -0.083 SA
BRANCH  19  20
ATOM     20  C   UNL     1       2.853  -3.778   3.007  1.00  0.00     0.113 C 
BRANCH  20  21
ATOM     21  C   UNL     1       1.442  -3.383   2.687  1.00  0.00    -0.034 A 
ATOM     22  C   UNL     1      -0.073  -1.907   1.500  1.00  0.00     0.119 A 
ATOM     23  C   UNL     1      -1.104  -2.311   2.347  1.00  0.00     0.046 A 
ATOM     24  C   UNL     1       1.175  -2.507   1.625  1.00  0.00     0.051 A 
ATOM     25  C   UNL     1      -0.890  -3.300   3.308  1.00  0.00     0.004 A 
ATOM     26  C   UNL     1       0.383  -3.830   3.484  1.00  0.00     0.005 A 
BRANCH  22  27
ATOM     27  O   UNL     1      -0.385  -0.912   0.617  1.00  0.00    -0.497 OA
ATOM     28  C   UNL     1       0.701  -0.297  -0.071  1.00  0.00     0.278 C 
ENDBRANCH  22  27
ENDBRANCH  20  21
ENDBRANCH  19  20
ENDBRANCH   9  19
ENDBRANCH   7   8
ENDBRANCH   6   7
ENDBRANCH   3   6
ENDBRANCH   1   2
BRANCH   1  29
ATOM     29  C   UNL     1       6.662  -2.515   5.784  1.00  0.00     0.021 C 
BRANCH  29  30
ATOM     30  C   UNL     1       7.434  -3.503   6.652  1.00  0.00     0.002 C 
BRANCH  30  31
ATOM     31  C   UNL     1       8.566  -2.917   7.492  1.00  0.00     0.002 C 
BRANCH  31  32
ATOM     32  C   UNL     1       8.258  -1.613   8.234  1.00  0.00     0.021 C 
BRANCH  32  33
ATOM     33  C   UNL     1       7.039  -1.635   9.155  1.00  0.00     0.116 C 
BRANCH  33  34
ATOM     34  N   UNL     1       7.232  -2.431  10.347  1.00  0.00    -0.352 N 
ATOM     35  C   UNL     1       7.393  -2.038  11.651  1.00  0.00     0.251 C 
ATOM     36  H   UNL     1       7.250  -3.404  10.200  1.00  0.00     0.163 HD
ATOM     37  O   UNL     1       7.705  -2.869  12.500  1.00  0.00    -0.269 OA
BRANCH  35  38
ATOM     38  C   UNL     1       7.223  -0.621  12.059  1.00  0.00     0.039 A 
ATOM     39  C   UNL     1       8.188  -0.065  12.903  1.00  0.00     0.014 A 
ATOM     40  C   UNL     1       6.100   0.134  11.701  1.00  0.00     0.014 A 
ATOM     41  C   UNL     1       8.045   1.246  13.365  1.00  0.00     0.010 A 
ATOM     42  C   UNL     1       5.987   1.466  12.118  1.00  0.00     0.010 A 
ATOM     43  C   UNL     1       6.952   2.033  12.967  1.00  0.00    -0.014 A 
BRANCH  43  44
ATOM     44  C   UNL     1       6.830   3.437  13.450  1.00  0.00     0.031 A 
ATOM     45  C   UNL     1       5.725   3.842  14.391  1.00  0.00     0.074 A 
ATOM     46  C   UNL     1       7.725   4.361  13.047  1.00  0.00     0.049 A 
ATOM     47  N   UNL     1       5.509   5.004  14.957  1.00  0.00    -0.248 NA
ATOM     48  C   UNL     1       4.728   2.816  14.729  1.00  0.00     0.031 C 
ATOM     49  C   UNL     1       8.830   4.117  12.118  1.00  0.00     0.029 A 
ATOM     50  N   UNL     1       7.856   5.688  13.378  1.00  0.00    -0.354 N 
ATOM     51  C   UNL     1       4.352   4.851  15.713  1.00  0.00     0.074 A 
ATOM     52  C   UNL     1       3.886   3.498  15.493  1.00  0.00     0.031 C 
ATOM     53  C   UNL     1       9.545   5.245  11.982  1.00  0.00     0.029 A 
ATOM     54  C   UNL     1       8.934   6.300  12.786  1.00  0.00     0.049 A 
ATOM     55  H   UNL     1       7.236   6.156  13.983  1.00  0.00     0.167 HD
ATOM     56  C   UNL     1       3.740   5.744  16.529  1.00  0.00     0.031 A 
ATOM     57  C   UNL     1       9.388   7.565  12.879  1.00  0.00     0.031 A 
ATOM     58  C   UNL     1       4.197   7.092  16.752  1.00  0.00     0.049 A 
ATOM     59  C   UNL     1       8.683   8.543  13.776  1.00  0.00     0.074 A 
ATOM     60  C   UNL     1       3.669   8.051  17.601  1.00  0.00     0.029 A 
ATOM     61  N   UNL     1       5.283   7.675  16.119  1.00  0.00    -0.354 N 
ATOM     62  N   UNL     1       7.634   8.356  14.540  1.00  0.00    -0.248 NA
ATOM     63  C   UNL     1       9.236   9.904  13.836  1.00  0.00     0.031 C 
ATOM     64  C   UNL     1       4.401   9.232  17.438  1.00  0.00     0.029 A 
ATOM     65  C   UNL     1       5.424   8.989  16.536  1.00  0.00     0.049 A 
ATOM     66  H   UNL     1       5.868   7.223  15.469  1.00  0.00     0.167 HD
ATOM     67  C   UNL     1       7.421   9.564  15.193  1.00  0.00     0.074 A 
ATOM     68  C   UNL     1       8.458  10.471  14.747  1.00  0.00     0.031 C 
ATOM     69  C   UNL     1       6.455   9.888  16.086  1.00  0.00     0.031 A 
BRANCH  56  70
ATOM     70  C   UNL     1       2.491   5.295  17.238  1.00  0.00    -0.014 A 
ATOM     71  C   UNL     1       2.540   4.346  18.273  1.00  0.00     0.009 A 
ATOM     72  C   UNL     1       1.252   5.862  16.899  1.00  0.00     0.009 A 
ATOM     73  C   UNL     1       1.371   3.947  18.924  1.00  0.00     0.001 A 
ATOM     74  C   UNL     1       0.089   5.484  17.573  1.00  0.00     0.001 A 
ATOM     75  C   UNL     1       0.148   4.520  18.577  1.00  0.00     0.000 A 
ENDBRANCH  56  70
BRANCH  57  76
ATOM     76  C   UNL     1      10.594   7.977  12.112  1.00  0.00    -0.014 A 
ATOM     77  C   UNL     1      11.801   8.255  12.771  1.00  0.00     0.009 A 
ATOM     78  C   UNL     1      10.540   8.100  10.715  1.00  0.00     0.009 A 
ATOM     79  C   UNL     1      12.922   8.670  12.049  1.00  0.00     0.001 A 
ATOM     80  C   UNL     1      11.671   8.485   9.993  1.00  0.00     0.001 A 
ATOM     81  C   UNL     1      12.858   8.779  10.661  1.00  0.00     0.000 A 
ENDBRANCH  57  76
BRANCH  69  82
ATOM     82  C   UNL     1       6.492  11.273  16.673  1.00  0.00    -0.014 A 
ATOM     83  C   UNL     1       6.163  12.403  15.908  1.00  0.00     0.009 A 
ATOM     84  C   UNL     1       6.829  11.444  18.026  1.00  0.00     0.009 A 
ATOM     85  C   UNL     1       6.206  13.678  16.477  1.00  0.00     0.001 A 
ATOM     86  C   UNL     1       6.841  12.716  18.599  1.00  0.00     0.001 A 
ATOM     87  C   UNL     1       6.540  13.833  17.822  1.00  0.00     0.000 A 
ENDBRANCH  69  82
ENDBRANCH  43  44
ENDBRANCH  35  38
ENDBRANCH  33  34
ENDBRANCH  32  33
ENDBRANCH  31  32
ENDBRANCH  30  31
ENDBRANCH  29  30
ENDBRANCH   1  29
TORSDOF 19
