REMARK SMILES C[C@]12C=CC(=O)C=C1CC[C@H]1[C@H]2[C@H](O)C[C@]2(C)[C@H]1CC[C@]2(O)C(=O)COC(=O)CCC(=O)NCCCCCCNC(=O)c1ccc(-c2c3nc(c(-c4ccccc4)c4ccc([nH]4)c(-c4ccccc4)c4nc(c(-c5ccccc5)c5ccc2[nH]5)C=C4)C=C3)cc1
REMARK SMILES IDX 34 1 33 2 31 3 32 4 30 6 29 7 27 8 28 9 26 10 25 11 23 12
REMARK SMILES IDX 24 13 21 14 1 15 2 16 3 17 8 18 12 19 4 20 7 21 9 22 11 23
REMARK SMILES IDX 13 24 5 25 10 26 18 27 15 28 6 29 16 30 19 31 17 32 20 33
REMARK SMILES IDX 14 34 22 36 35 38 36 39 37 40 38 41 39 42 40 43 41 44 42 46
REMARK SMILES IDX 43 47 44 48 90 49 45 50 89 51 46 52 47 53 48 54 83 55 49 56
REMARK SMILES IDX 88 57 82 58 84 59 50 60 87 61 81 62 80 63 51 65 73 66 58 67
REMARK SMILES IDX 72 68 59 69 62 70 71 71 85 72 60 73 61 74 70 76 86 77 63 78
REMARK SMILES IDX 52 79 53 80 57 81 54 82 56 83 55 84 74 85 75 86 79 87 76 88
REMARK SMILES IDX 78 89 77 90 64 91 65 92 69 93 66 94 68 95 67 96
REMARK H PARENT 33 5 14 35 22 37 40 45 84 64 62 75
REMARK Flexibility Score: inf
ROOT
ATOM      1  C   UNL     1       4.159  -9.164  -1.194  1.00  0.00     0.116 C 
ENDROOT
BRANCH   1   2
ATOM      2  N   UNL     1       3.765 -10.482  -1.661  1.00  0.00    -0.356 N 
ATOM      3  C   UNL     1       2.583 -10.943  -2.157  1.00  0.00     0.220 C 
ATOM      4  O   UNL     1       2.562 -12.082  -2.631  1.00  0.00    -0.275 OA
ATOM      5  H   UNL     1       4.477 -11.161  -1.611  1.00  0.00     0.163 HD
BRANCH   3   6
ATOM      6  C   UNL     1       1.308 -10.127  -2.090  1.00  0.00     0.111 C 
BRANCH   6   7
ATOM      7  C   UNL     1       0.501 -10.493  -0.850  1.00  0.00     0.132 C 
BRANCH   7   8
ATOM      8  C   UNL     1       0.060  -9.306  -0.035  1.00  0.00     0.306 C 
ATOM      9  O   UNL     1      -1.090  -8.878  -0.026  1.00  0.00    -0.252 OA
BRANCH   8  10
ATOM     10  O   UNL     1       1.079  -8.808   0.709  1.00  0.00    -0.458 OA
BRANCH  10  11
ATOM     11  C   UNL     1       0.828  -7.678   1.549  1.00  0.00     0.311 C 
BRANCH  11  12
ATOM     12  C   UNL     1       1.306  -6.270   1.072  1.00  0.00     0.202 C 
ATOM     13  O   UNL     1       1.641  -5.436   1.916  1.00  0.00    -0.293 OA
BRANCH  12  14
ATOM     14  C   UNL     1       1.232  -5.953  -0.448  1.00  0.00     0.132 C 
ATOM     15  C   UNL     1       0.844   0.620  -0.056  1.00  0.00     0.021 C 
ATOM     16  C   UNL     1       0.779  -0.122  -1.419  1.00  0.00     0.013 C 
ATOM     17  C   UNL     1       1.892   0.456  -2.314  1.00  0.00    -0.012 C 
ATOM     18  C   UNL     1      -0.526   0.226  -2.175  1.00  0.00    -0.056 C 
ATOM     19  C   UNL     1       0.936  -1.649  -1.056  1.00  0.00     0.035 C 
ATOM     20  C   UNL     1       1.862   1.776  -2.611  1.00  0.00     0.048 C 
ATOM     21  C   UNL     1      -0.644   1.377  -2.871  1.00  0.00     0.052 C 
ATOM     22  C   UNL     1      -1.537  -0.807  -2.569  1.00  0.00     0.032 C 
ATOM     23  C   UNL     1       0.273  -2.560  -2.091  1.00  0.00    -0.000 C 
ATOM     24  C   UNL     1       2.374  -2.101  -0.710  1.00  0.00     0.119 C 
ATOM     25  C   UNL     1       0.522   2.261  -3.097  1.00  0.00     0.178 C 
ATOM     26  C   UNL     1      -1.222  -2.221  -2.173  1.00  0.00     0.009 C 
ATOM     27  C   UNL     1       0.395  -4.056  -1.774  1.00  0.00     0.002 C 
ATOM     28  C   UNL     1       2.364  -3.548  -0.190  1.00  0.00     0.042 C 
ATOM     29  O   UNL     1       0.398   3.327  -3.685  1.00  0.00    -0.290 OA
ATOM     30  C   UNL     1       1.716  -4.582  -1.146  1.00  0.00     0.009 C 
ATOM     31  C   UNL     1      -0.678  -4.612  -0.847  1.00  0.00     0.008 C 
ATOM     32  C   UNL     1       2.703  -4.830  -2.333  1.00  0.00     0.015 C 
ATOM     33  C   UNL     1      -0.261  -6.050  -0.763  1.00  0.00     0.044 C 
BRANCH  24  34
ATOM     34  O   UNL     1       3.245  -1.996  -1.827  1.00  0.00    -0.393 OA
ATOM     35  H   UNL     1       2.933  -2.580  -2.536  1.00  0.00     0.210 HD
ENDBRANCH  24  34
BRANCH  14  36
ATOM     36  O   UNL     1       1.915  -7.010  -1.092  1.00  0.00    -0.381 OA
ATOM     37  H   UNL     1       1.902  -6.867  -2.051  1.00  0.00     0.212 HD
ENDBRANCH  14  36
ENDBRANCH  12  14
ENDBRANCH  11  12
ENDBRANCH  10  11
ENDBRANCH   8  10
ENDBRANCH   7   8
ENDBRANCH   6   7
ENDBRANCH   3   6
ENDBRANCH   1   2
BRANCH   1  38
ATOM     38  C   UNL     1       4.032  -8.991   0.328  1.00  0.00     0.021 C 
BRANCH  38  39
ATOM     39  C   UNL     1       5.298  -8.561   1.080  1.00  0.00     0.002 C 
BRANCH  39  40
ATOM     40  C   UNL     1       5.765  -7.110   0.877  1.00  0.00     0.002 C 
BRANCH  40  41
ATOM     41  C   UNL     1       4.866  -5.974   1.391  1.00  0.00     0.021 C 
BRANCH  41  42
ATOM     42  C   UNL     1       4.493  -5.938   2.879  1.00  0.00     0.116 C 
BRANCH  42  43
ATOM     43  N   UNL     1       5.620  -5.645   3.743  1.00  0.00    -0.352 N 
ATOM     44  C   UNL     1       5.859  -4.589   4.591  1.00  0.00     0.251 C 
ATOM     45  H   UNL     1       6.338  -6.317   3.717  1.00  0.00     0.163 HD
ATOM     46  O   UNL     1       6.989  -4.471   5.065  1.00  0.00    -0.269 OA
BRANCH  44  47
ATOM     47  C   UNL     1       4.827  -3.577   4.960  1.00  0.00     0.039 A 
ATOM     48  C   UNL     1       5.251  -2.253   5.149  1.00  0.00     0.014 A 
ATOM     49  C   UNL     1       3.497  -3.899   5.247  1.00  0.00     0.014 A 
ATOM     50  C   UNL     1       4.357  -1.266   5.588  1.00  0.00     0.010 A 
ATOM     51  C   UNL     1       2.588  -2.899   5.641  1.00  0.00     0.010 A 
ATOM     52  C   UNL     1       3.007  -1.570   5.822  1.00  0.00    -0.014 A 
BRANCH  52  53
ATOM     53  C   UNL     1       2.051  -0.496   6.234  1.00  0.00     0.031 A 
ATOM     54  C   UNL     1       1.400  -0.497   7.596  1.00  0.00     0.074 A 
ATOM     55  C   UNL     1       1.756   0.502   5.375  1.00  0.00     0.049 A 
ATOM     56  N   UNL     1       0.574   0.379   8.120  1.00  0.00    -0.248 NA
ATOM     57  C   UNL     1       1.703  -1.633   8.477  1.00  0.00     0.031 C 
ATOM     58  C   UNL     1       2.288   0.631   4.017  1.00  0.00     0.029 A 
ATOM     59  N   UNL     1       0.942   1.601   5.518  1.00  0.00    -0.354 N 
ATOM     60  C   UNL     1       0.258  -0.100   9.387  1.00  0.00     0.074 A 
ATOM     61  C   UNL     1       0.942  -1.369   9.530  1.00  0.00     0.031 C 
ATOM     62  C   UNL     1       1.812   1.759   3.465  1.00  0.00     0.029 A 
ATOM     63  C   UNL     1       0.911   2.412   4.409  1.00  0.00     0.049 A 
ATOM     64  H   UNL     1       0.430   1.789   6.337  1.00  0.00     0.167 HD
ATOM     65  C   UNL     1      -0.517   0.463  10.349  1.00  0.00     0.031 A 
ATOM     66  C   UNL     1       0.233   3.551   4.166  1.00  0.00     0.031 A 
ATOM     67  C   UNL     1      -1.219   1.715  10.209  1.00  0.00     0.049 A 
ATOM     68  C   UNL     1      -0.654   4.134   5.228  1.00  0.00     0.074 A 
ATOM     69  C   UNL     1      -1.991   2.382  11.147  1.00  0.00     0.029 A 
ATOM     70  N   UNL     1      -1.250   2.483   9.055  1.00  0.00    -0.354 N 
ATOM     71  N   UNL     1      -0.890   3.695   6.440  1.00  0.00    -0.248 NA
ATOM     72  C   UNL     1      -1.359   5.378   4.887  1.00  0.00     0.031 C 
ATOM     73  C   UNL     1      -2.544   3.515  10.539  1.00  0.00     0.029 A 
ATOM     74  C   UNL     1      -2.058   3.595   9.245  1.00  0.00     0.049 A 
ATOM     75  H   UNL     1      -0.769   2.271   8.223  1.00  0.00     0.167 HD
ATOM     76  C   UNL     1      -1.756   4.618   7.013  1.00  0.00     0.074 A 
ATOM     77  C   UNL     1      -1.984   5.651   6.023  1.00  0.00     0.031 C 
ATOM     78  C   UNL     1      -2.308   4.608   8.251  1.00  0.00     0.031 A 
BRANCH  65  79
ATOM     79  C   UNL     1      -0.669  -0.294  11.645  1.00  0.00    -0.014 A 
ATOM     80  C   UNL     1       0.412  -0.463  12.526  1.00  0.00     0.009 A 
ATOM     81  C   UNL     1      -1.920  -0.822  12.006  1.00  0.00     0.009 A 
ATOM     82  C   UNL     1       0.257  -1.189  13.710  1.00  0.00     0.001 A 
ATOM     83  C   UNL     1      -2.080  -1.517  13.207  1.00  0.00     0.001 A 
ATOM     84  C   UNL     1      -0.989  -1.713  14.051  1.00  0.00     0.000 A 
ENDBRANCH  65  79
BRANCH  66  85
ATOM     85  C   UNL     1       0.361   4.221   2.845  1.00  0.00    -0.014 A 
ATOM     86  C   UNL     1       1.084   5.415   2.709  1.00  0.00     0.009 A 
ATOM     87  C   UNL     1      -0.248   3.665   1.711  1.00  0.00     0.009 A 
ATOM     88  C   UNL     1       1.194   6.037   1.462  1.00  0.00     0.001 A 
ATOM     89  C   UNL     1      -0.118   4.278   0.463  1.00  0.00     0.001 A 
ATOM     90  C   UNL     1       0.605   5.461   0.338  1.00  0.00     0.000 A 
ENDBRANCH  66  85
BRANCH  78  91
ATOM     91  C   UNL     1      -3.205   5.762   8.611  1.00  0.00    -0.014 A 
ATOM     92  C   UNL     1      -4.465   5.926   8.012  1.00  0.00     0.009 A 
ATOM     93  C   UNL     1      -2.791   6.693   9.577  1.00  0.00     0.009 A 
ATOM     94  C   UNL     1      -5.270   7.019   8.342  1.00  0.00     0.001 A 
ATOM     95  C   UNL     1      -3.611   7.766   9.930  1.00  0.00     0.001 A 
ATOM     96  C   UNL     1      -4.845   7.935   9.304  1.00  0.00     0.000 A 
ENDBRANCH  78  91
ENDBRANCH  52  53
ENDBRANCH  44  47
ENDBRANCH  42  43
ENDBRANCH  41  42
ENDBRANCH  40  41
ENDBRANCH  39  40
ENDBRANCH  38  39
ENDBRANCH   1  38
TORSDOF 21
