REMARK SMILES COc1cc(OC(F)(F)F)cc2c1O[C@@H](C(F)(F)F)C(C(=O)NCCCCCCNC(=O)c1ccc(-c3c4nc(c(-c5ccccc5)c5ccc([nH]5)c(-c5ccccc5)c5nc(c(-c6ccccc6)c6ccc3[nH]6)C=C5)C=C4)cc1)=C2
REMARK SMILES IDX 26 1 25 2 24 3 23 4 21 5 22 6 20 8 3 9 4 10 13 11 5 12 12 13
REMARK SMILES IDX 14 14 11 15 81 16 15 17 2 18 1 19 6 20 7 21 8 22 9 23 10 24
REMARK SMILES IDX 16 25 17 26 18 27 19 28 27 29 28 30 29 31 30 32 31 33 32 35
REMARK SMILES IDX 33 36 34 37 80 38 35 39 79 40 36 41 37 42 38 43 73 44 39 45
REMARK SMILES IDX 78 46 72 47 74 48 40 49 77 50 71 51 70 52 41 54 63 55 48 56
REMARK SMILES IDX 62 57 49 58 52 59 61 60 75 61 50 62 51 63 60 65 76 66 53 67
REMARK SMILES IDX 42 68 43 69 47 70 44 71 46 72 45 73 64 74 65 75 69 76 66 77
REMARK SMILES IDX 68 78 67 79 54 80 55 81 59 82 56 83 58 84 57 85
REMARK H PARENT 23 7 30 34 74 53 52 64
REMARK Flexibility Score: inf
ROOT
ATOM      1  C   UNL     1       7.536   6.956  -2.370  1.00  0.00     0.002 C 
ENDROOT
BRANCH   1   2
ATOM      2  C   UNL     1       6.156   6.286  -2.429  1.00  0.00     0.021 C 
BRANCH   2   3
ATOM      3  C   UNL     1       6.206   4.870  -3.017  1.00  0.00     0.116 C 
BRANCH   3   4
ATOM      4  N   UNL     1       6.693   3.953  -2.002  1.00  0.00    -0.352 N 
ATOM      5  C   UNL     1       6.063   3.196  -1.069  1.00  0.00     0.251 C 
ATOM      6  O   UNL     1       6.741   2.729  -0.158  1.00  0.00    -0.270 OA
ATOM      7  H   UNL     1       7.673   3.863  -1.988  1.00  0.00     0.163 HD
BRANCH   5   8
ATOM      8  C   UNL     1       4.623   2.837  -1.157  1.00  0.00     0.067 C 
ATOM      9  C   UNL     1       0.693   1.417  -1.616  1.00  0.00     0.165 A 
ATOM     10  C   UNL     1      -0.281   2.246  -2.187  1.00  0.00     0.097 A 
ATOM     11  C   UNL     1       2.002   1.881  -1.436  1.00  0.00     0.170 A 
ATOM     12  C   UNL     1       0.033   3.558  -2.536  1.00  0.00     0.134 A 
ATOM     13  C   UNL     1       2.312   3.201  -1.750  1.00  0.00     0.025 A 
ATOM     14  O   UNL     1       2.960   0.986  -1.061  1.00  0.00    -0.471 OA
ATOM     15  C   UNL     1       1.327   4.034  -2.297  1.00  0.00     0.059 A 
ATOM     16  C   UNL     1       3.681   3.678  -1.607  1.00  0.00     0.026 C 
ATOM     17  C   UNL     1       4.227   1.491  -0.557  1.00  0.00     0.314 C 
BRANCH   9  18
ATOM     18  O   UNL     1       0.283   0.140  -1.324  1.00  0.00    -0.493 OA
ATOM     19  C   UNL     1       0.586  -0.248   0.016  1.00  0.00     0.278 C 
ENDBRANCH   9  18
BRANCH  12  20
ATOM     20  O   UNL     1      -0.800   4.468  -3.122  1.00  0.00    -0.406 OA
BRANCH  20  21
ATOM     21  C   UNL     1      -2.136   4.073  -3.385  1.00  0.00     0.573 C 
ATOM     22  F   UNL     1      -2.179   3.023  -4.231  1.00  0.00    -0.132 F 
ATOM     23  F   UNL     1      -2.781   3.763  -2.241  1.00  0.00    -0.132 F 
ATOM     24  F   UNL     1      -2.783   5.107  -3.966  1.00  0.00    -0.132 F 
ENDBRANCH  20  21
ENDBRANCH  12  20
BRANCH  17  25
ATOM     25  C   UNL     1       5.245   0.330  -0.666  1.00  0.00     0.429 C 
ATOM     26  F   UNL     1       6.173   0.353   0.316  1.00  0.00    -0.167 F 
ATOM     27  F   UNL     1       4.618  -0.872  -0.535  1.00  0.00    -0.167 F 
ATOM     28  F   UNL     1       5.882   0.309  -1.858  1.00  0.00    -0.167 F 
ENDBRANCH  17  25
ENDBRANCH   5   8
ENDBRANCH   3   4
ENDBRANCH   2   3
ENDBRANCH   1   2
BRANCH   1  29
ATOM     29  C   UNL     1       8.184   7.198  -3.738  1.00  0.00     0.002 C 
BRANCH  29  30
ATOM     30  C   UNL     1       7.326   8.003  -4.717  1.00  0.00     0.021 C 
BRANCH  30  31
ATOM     31  C   UNL     1       6.992   9.410  -4.233  1.00  0.00     0.116 C 
BRANCH  31  32
ATOM     32  N   UNL     1       8.186  10.234  -4.126  1.00  0.00    -0.352 N 
ATOM     33  C   UNL     1       8.489  11.408  -4.768  1.00  0.00     0.251 C 
ATOM     34  H   UNL     1       8.874   9.902  -3.505  1.00  0.00     0.163 HD
ATOM     35  O   UNL     1       9.634  11.842  -4.763  1.00  0.00    -0.269 OA
BRANCH  33  36
ATOM     36  C   UNL     1       7.422  12.143  -5.478  1.00  0.00     0.039 A 
ATOM     37  C   UNL     1       7.677  12.643  -6.757  1.00  0.00     0.014 A 
ATOM     38  C   UNL     1       6.176  12.339  -4.877  1.00  0.00     0.014 A 
ATOM     39  C   UNL     1       6.658  13.287  -7.459  1.00  0.00     0.010 A 
ATOM     40  C   UNL     1       5.142  12.917  -5.605  1.00  0.00     0.010 A 
ATOM     41  C   UNL     1       5.373  13.397  -6.903  1.00  0.00    -0.014 A 
BRANCH  41  42
ATOM     42  C   UNL     1       4.252  13.993  -7.670  1.00  0.00     0.031 A 
ATOM     43  C   UNL     1       3.597  15.260  -7.197  1.00  0.00     0.074 A 
ATOM     44  C   UNL     1       3.780  13.352  -8.757  1.00  0.00     0.049 A 
ATOM     45  N   UNL     1       2.572  15.898  -7.705  1.00  0.00    -0.248 NA
ATOM     46  C   UNL     1       4.148  15.880  -5.981  1.00  0.00     0.031 C 
ATOM     47  C   UNL     1       4.308  12.097  -9.297  1.00  0.00     0.029 A 
ATOM     48  N   UNL     1       2.745  13.667  -9.600  1.00  0.00    -0.354 N 
ATOM     49  C   UNL     1       2.347  16.980  -6.863  1.00  0.00     0.074 A 
ATOM     50  C   UNL     1       3.309  16.887  -5.787  1.00  0.00     0.031 C 
ATOM     51  C   UNL     1       3.616  11.768 -10.399  1.00  0.00     0.029 A 
ATOM     52  C   UNL     1       2.568  12.759 -10.616  1.00  0.00     0.049 A 
ATOM     53  H   UNL     1       2.182  14.467  -9.488  1.00  0.00     0.167 HD
ATOM     54  C   UNL     1       1.430  17.969  -6.983  1.00  0.00     0.031 A 
ATOM     55  C   UNL     1       1.658  12.725 -11.608  1.00  0.00     0.031 A 
ATOM     56  C   UNL     1       0.478  18.062  -8.058  1.00  0.00     0.049 A 
ATOM     57  C   UNL     1       0.632  13.819 -11.700  1.00  0.00     0.074 A 
ATOM     58  C   UNL     1      -0.446  19.063  -8.305  1.00  0.00     0.029 A 
ATOM     59  N   UNL     1       0.322  17.116  -9.059  1.00  0.00    -0.354 N 
ATOM     60  N   UNL     1       0.481  14.876 -10.940  1.00  0.00    -0.248 NA
ATOM     61  C   UNL     1      -0.347  13.715 -12.791  1.00  0.00     0.031 C 
ATOM     62  C   UNL     1      -1.204  18.690  -9.420  1.00  0.00     0.029 A 
ATOM     63  C   UNL     1      -0.710  17.490  -9.904  1.00  0.00     0.049 A 
ATOM     64  H   UNL     1       0.864  16.300  -9.154  1.00  0.00     0.167 HD
ATOM     65  C   UNL     1      -0.590  15.578 -11.477  1.00  0.00     0.074 A 
ATOM     66  C   UNL     1      -1.040  14.834 -12.635  1.00  0.00     0.031 C 
ATOM     67  C   UNL     1      -1.150  16.736 -11.049  1.00  0.00     0.031 A 
BRANCH  54  68
ATOM     68  C   UNL     1       1.401  19.023  -5.910  1.00  0.00    -0.014 A 
ATOM     69  C   UNL     1       2.439  19.959  -5.775  1.00  0.00     0.009 A 
ATOM     70  C   UNL     1       0.298  19.106  -5.046  1.00  0.00     0.009 A 
ATOM     71  C   UNL     1       2.391  20.930  -4.772  1.00  0.00     0.001 A 
ATOM     72  C   UNL     1       0.237  20.097  -4.064  1.00  0.00     0.001 A 
ATOM     73  C   UNL     1       1.288  21.001  -3.922  1.00  0.00     0.000 A 
ENDBRANCH  54  68
BRANCH  55  74
ATOM     74  C   UNL     1       1.684  11.623 -12.606  1.00  0.00    -0.014 A 
ATOM     75  C   UNL     1       2.057  11.878 -13.934  1.00  0.00     0.009 A 
ATOM     76  C   UNL     1       1.332  10.315 -12.240  1.00  0.00     0.009 A 
ATOM     77  C   UNL     1       2.052  10.852 -14.881  1.00  0.00     0.001 A 
ATOM     78  C   UNL     1       1.357   9.284 -13.182  1.00  0.00     0.001 A 
ATOM     79  C   UNL     1       1.706   9.555 -14.504  1.00  0.00     0.000 A 
ENDBRANCH  55  74
BRANCH  67  80
ATOM     80  C   UNL     1      -2.294  17.284 -11.855  1.00  0.00    -0.014 A 
ATOM     81  C   UNL     1      -3.557  16.672 -11.840  1.00  0.00     0.009 A 
ATOM     82  C   UNL     1      -2.115  18.456 -12.607  1.00  0.00     0.009 A 
ATOM     83  C   UNL     1      -4.608  17.205 -12.589  1.00  0.00     0.001 A 
ATOM     84  C   UNL     1      -3.176  19.004 -13.329  1.00  0.00     0.001 A 
ATOM     85  C   UNL     1      -4.418  18.373 -13.327  1.00  0.00     0.000 A 
ENDBRANCH  67  80
ENDBRANCH  41  42
ENDBRANCH  33  36
ENDBRANCH  31  32
ENDBRANCH  30  31
ENDBRANCH  29  30
ENDBRANCH   1  29
TORSDOF 17
