REMARK SMILES C[C@H]1[C@@H](C(=O)NCCCCCCNC(=O)c2ccc(-c3c4nc(c(-c5ccccc5)c5ccc([nH]5)c(-c5ccccc5)c5nc(c(-c6ccccc6)c6ccc3[nH]6)C=C5)C=C4)cc2)CCN1C(=O)N[C@@H]1CC[N@H+]2CCCC[C@H]12
REMARK SMILES IDX 9 1 8 2 7 3 6 4 4 5 5 6 3 8 1 9 2 10 66 11 64 12 65 13 67 14
REMARK SMILES IDX 68 15 69 16 70 18 71 19 78 20 72 21 73 22 77 23 74 24 76 26
REMARK SMILES IDX 75 27 10 28 11 29 12 30 13 31 14 32 15 34 16 35 17 36 63 37
REMARK SMILES IDX 18 38 62 39 19 40 20 41 21 42 56 43 22 44 61 45 55 46 57 47
REMARK SMILES IDX 23 48 60 49 54 50 53 51 24 53 46 54 31 55 45 56 32 57 35 58
REMARK SMILES IDX 44 59 58 60 33 61 34 62 43 64 59 65 36 66 25 67 26 68 30 69
REMARK SMILES IDX 27 70 29 71 28 72 47 73 48 74 52 75 49 76 51 77 50 78 37 79
REMARK SMILES IDX 38 80 42 81 39 82 41 83 40 84
REMARK H PARENT 6 7 69 17 73 25 13 33 57 52 35 63
REMARK Flexibility Score: inf
ROOT
ATOM      1  C   UNL     1      -4.509  -4.969  -2.195  1.00  0.00     0.002 C 
ENDROOT
BRANCH   1   2
ATOM      2  C   UNL     1      -3.762  -5.165  -0.868  1.00  0.00     0.021 C 
BRANCH   2   3
ATOM      3  C   UNL     1      -2.499  -6.016  -0.975  1.00  0.00     0.116 C 
BRANCH   3   4
ATOM      4  N   UNL     1      -1.583  -5.493  -1.968  1.00  0.00    -0.356 N 
ATOM      5  C   UNL     1      -0.306  -5.044  -1.846  1.00  0.00     0.225 C 
ATOM      6  O   UNL     1       0.312  -4.824  -2.885  1.00  0.00    -0.275 OA
ATOM      7  H   UNL     1      -1.945  -5.457  -2.883  1.00  0.00     0.163 HD
BRANCH   5   8
ATOM      8  C   UNL     1       0.307  -4.936  -0.462  1.00  0.00     0.102 C 
ATOM      9  C   UNL     1       1.272  -2.645  -1.234  1.00  0.00     0.032 C 
ATOM     10  C   UNL     1       1.215  -3.724  -0.160  1.00  0.00     0.096 C 
ATOM     11  N   UNL     1       2.533  -4.276   0.141  1.00  0.00    -0.321 N 
ATOM     12  C   UNL     1       1.184  -6.165  -0.208  1.00  0.00     0.037 C 
ATOM     13  C   UNL     1       2.601  -5.641  -0.352  1.00  0.00     0.122 C 
BRANCH  11  14
ATOM     14  C   UNL     1       3.642  -3.713   0.696  1.00  0.00     0.318 C 
ATOM     15  O   UNL     1       4.721  -4.316   0.708  1.00  0.00    -0.249 OA
ATOM     16  N   UNL     1       3.652  -2.495   1.270  1.00  0.00    -0.329 N 
ATOM     17  H   UNL     1       4.566  -2.217   1.508  1.00  0.00     0.165 HD
BRANCH  16  18
ATOM     18  C   UNL     1       2.672  -1.476   1.636  1.00  0.00     0.147 C 
ATOM     19  C   UNL     1       2.745  -0.252   0.702  1.00  0.00     0.092 C 
ATOM     20  C   UNL     1       2.869  -0.858   3.037  1.00  0.00     0.207 C 
ATOM     21  C   UNL     1       2.842   0.966   1.608  1.00  0.00     0.264 C 
ATOM     22  N   UNL     1       3.531   0.428   2.771  1.00  0.00    -0.331 N 
ATOM     23  C   UNL     1       3.661  -1.630   4.085  1.00  0.00     0.067 C 
ATOM     24  C   UNL     1       3.483   1.298   3.942  1.00  0.00     0.262 C 
ATOM     25  H   UNL     1       4.529   0.334   2.580  1.00  0.00     0.348 HD
ATOM     26  C   UNL     1       3.714  -0.803   5.375  1.00  0.00     0.012 C 
ATOM     27  C   UNL     1       4.209   0.624   5.112  1.00  0.00     0.062 C 
ENDBRANCH  16  18
ENDBRANCH  11  14
ENDBRANCH   5   8
ENDBRANCH   3   4
ENDBRANCH   2   3
ENDBRANCH   1   2
BRANCH   1  28
ATOM     28  C   UNL     1      -4.779  -6.251  -2.990  1.00  0.00     0.002 C 
BRANCH  28  29
ATOM     29  C   UNL     1      -5.521  -7.344  -2.221  1.00  0.00     0.021 C 
BRANCH  29  30
ATOM     30  C   UNL     1      -6.876  -6.916  -1.677  1.00  0.00     0.116 C 
BRANCH  30  31
ATOM     31  N   UNL     1      -7.807  -6.574  -2.739  1.00  0.00    -0.352 N 
ATOM     32  C   UNL     1      -9.065  -7.065  -2.975  1.00  0.00     0.251 C 
ATOM     33  H   UNL     1      -7.490  -5.895  -3.378  1.00  0.00     0.163 HD
ATOM     34  O   UNL     1      -9.641  -6.819  -4.031  1.00  0.00    -0.269 OA
BRANCH  32  35
ATOM     35  C   UNL     1      -9.716  -7.914  -1.958  1.00  0.00     0.039 A 
ATOM     36  C   UNL     1     -10.358  -9.085  -2.364  1.00  0.00     0.014 A 
ATOM     37  C   UNL     1      -9.681  -7.559  -0.605  1.00  0.00     0.014 A 
ATOM     38  C   UNL     1     -10.915  -9.932  -1.405  1.00  0.00     0.010 A 
ATOM     39  C   UNL     1     -10.163  -8.445   0.353  1.00  0.00     0.010 A 
ATOM     40  C   UNL     1     -10.791  -9.636  -0.037  1.00  0.00    -0.014 A 
BRANCH  40  41
ATOM     41  C   UNL     1     -11.312 -10.563   0.998  1.00  0.00     0.031 A 
ATOM     42  C   UNL     1     -12.414 -10.123   1.922  1.00  0.00     0.074 A 
ATOM     43  C   UNL     1     -10.757 -11.782   1.140  1.00  0.00     0.049 A 
ATOM     44  N   UNL     1     -12.972 -10.777   2.910  1.00  0.00    -0.248 NA
ATOM     45  C   UNL     1     -12.942  -8.763   1.727  1.00  0.00     0.031 C 
ATOM     46  C   UNL     1      -9.659 -12.315   0.331  1.00  0.00     0.029 A 
ATOM     47  N   UNL     1     -11.043 -12.796   2.020  1.00  0.00    -0.354 N 
ATOM     48  C   UNL     1     -13.905  -9.905   3.458  1.00  0.00     0.074 A 
ATOM     49  C   UNL     1     -13.797  -8.658   2.734  1.00  0.00     0.031 C 
ATOM     50  C   UNL     1      -9.387 -13.568   0.729  1.00  0.00     0.029 A 
ATOM     51  C   UNL     1     -10.258 -13.911   1.849  1.00  0.00     0.049 A 
ATOM     52  H   UNL     1     -11.743 -12.731   2.709  1.00  0.00     0.167 HD
ATOM     53  C   UNL     1     -14.787 -10.129   4.461  1.00  0.00     0.031 A 
ATOM     54  C   UNL     1     -10.236 -15.076   2.522  1.00  0.00     0.031 A 
ATOM     55  C   UNL     1     -14.894 -11.369   5.181  1.00  0.00     0.049 A 
ATOM     56  C   UNL     1     -11.202 -15.286   3.655  1.00  0.00     0.074 A 
ATOM     57  C   UNL     1     -15.789 -11.712   6.179  1.00  0.00     0.029 A 
ATOM     58  N   UNL     1     -14.073 -12.469   4.986  1.00  0.00    -0.354 N 
ATOM     59  N   UNL     1     -12.126 -14.478   4.115  1.00  0.00    -0.248 NA
ATOM     60  C   UNL     1     -11.126 -16.576   4.356  1.00  0.00     0.031 C 
ATOM     61  C   UNL     1     -15.469 -12.995   6.632  1.00  0.00     0.029 A 
ATOM     62  C   UNL     1     -14.418 -13.479   5.868  1.00  0.00     0.049 A 
ATOM     63  H   UNL     1     -13.351 -12.524   4.319  1.00  0.00     0.167 HD
ATOM     64  C   UNL     1     -12.760 -15.171   5.138  1.00  0.00     0.074 A 
ATOM     65  C   UNL     1     -12.127 -16.471   5.218  1.00  0.00     0.031 C 
ATOM     66  C   UNL     1     -13.776 -14.766   5.940  1.00  0.00     0.031 A 
BRANCH  53  67
ATOM     67  C   UNL     1     -15.699  -8.995   4.845  1.00  0.00    -0.014 A 
ATOM     68  C   UNL     1     -16.712  -8.547   3.981  1.00  0.00     0.009 A 
ATOM     69  C   UNL     1     -15.565  -8.386   6.103  1.00  0.00     0.009 A 
ATOM     70  C   UNL     1     -17.541  -7.486   4.350  1.00  0.00     0.001 A 
ATOM     71  C   UNL     1     -16.417  -7.348   6.483  1.00  0.00     0.001 A 
ATOM     72  C   UNL     1     -17.397  -6.891   5.603  1.00  0.00     0.000 A 
ENDBRANCH  53  67
BRANCH  54  73
ATOM     73  C   UNL     1      -9.273 -16.142   2.138  1.00  0.00    -0.014 A 
ATOM     74  C   UNL     1      -9.726 -17.338   1.559  1.00  0.00     0.009 A 
ATOM     75  C   UNL     1      -7.896 -15.974   2.355  1.00  0.00     0.009 A 
ATOM     76  C   UNL     1      -8.825 -18.354   1.234  1.00  0.00     0.001 A 
ATOM     77  C   UNL     1      -6.994 -16.979   1.999  1.00  0.00     0.001 A 
ATOM     78  C   UNL     1      -7.460 -18.172   1.449  1.00  0.00     0.000 A 
ENDBRANCH  54  73
BRANCH  66  79
ATOM     79  C   UNL     1     -14.289 -15.754   6.952  1.00  0.00    -0.014 A 
ATOM     80  C   UNL     1     -13.527 -16.113   8.075  1.00  0.00     0.009 A 
ATOM     81  C   UNL     1     -15.572 -16.302   6.798  1.00  0.00     0.009 A 
ATOM     82  C   UNL     1     -14.027 -17.029   9.003  1.00  0.00     0.001 A 
ATOM     83  C   UNL     1     -16.082 -17.191   7.745  1.00  0.00     0.001 A 
ATOM     84  C   UNL     1     -15.305 -17.562   8.840  1.00  0.00     0.000 A 
ENDBRANCH  66  79
ENDBRANCH  40  41
ENDBRANCH  32  35
ENDBRANCH  30  31
ENDBRANCH  29  30
ENDBRANCH  28  29
ENDBRANCH   1  28
TORSDOF 15
