REMARK SMILES CCCCCCNC(=O)Oc1cccc(-c2ccc([C@@H](C)C(=O)NCCCCCCNC(=O)c3ccc(-c4c5nc(c(-c6ccccc6)c6ccc([nH]6)c(-c6ccccc6)c6nc(c(-c7ccccc7)c7ccc4[nH]7)C=C6)C=C5)cc3)cc2F)c1
REMARK SMILES IDX 22 1 23 2 24 3 20 5 21 6 19 7 16 8 17 9 83 10 18 11 82 12
REMARK SMILES IDX 84 13 15 14 11 15 12 16 85 17 13 18 14 19 10 20 8 21 7 22
REMARK SMILES IDX 9 24 6 25 5 26 4 27 3 28 2 29 1 30 25 31 26 32 27 33 28 34
REMARK SMILES IDX 29 35 30 36 31 37 32 38 33 40 34 41 35 42 81 43 36 44 80 45
REMARK SMILES IDX 37 46 38 47 39 48 74 49 40 50 79 51 73 52 75 53 41 54 78 55
REMARK SMILES IDX 72 56 71 57 42 59 64 60 49 61 63 62 50 63 53 64 62 65 76 66
REMARK SMILES IDX 51 67 52 68 61 70 77 71 54 72 43 73 44 74 48 75 45 76 47 77
REMARK SMILES IDX 46 78 65 79 66 80 70 81 67 82 69 83 68 84 55 85 56 86 60 87
REMARK SMILES IDX 57 88 59 89 58 90
REMARK H PARENT 24 4 7 23 31 39 75 58 53 69
REMARK Flexibility Score: inf
ROOT
ATOM      1  C   UNL     1      -3.155  12.271  -7.057  1.00  0.00     0.227 C 
ATOM      2  O   UNL     1      -2.232  11.806  -7.736  1.00  0.00    -0.274 OA
ATOM      3  N   UNL     1      -2.874  13.390  -6.337  1.00  0.00    -0.356 N 
ATOM      4  H   UNL     1      -1.974  13.756  -6.495  1.00  0.00     0.163 HD
ENDROOT
BRANCH   1   5
ATOM      5  C   UNL     1      -4.532  11.589  -7.069  1.00  0.00     0.105 C 
ATOM      6  C   UNL     1      -5.667  12.480  -7.573  1.00  0.00     0.023 C 
BRANCH   5   7
ATOM      7  C   UNL     1      -4.819  10.784  -5.811  1.00  0.00    -0.033 A 
ATOM      8  C   UNL     1      -5.140   9.237  -3.422  1.00  0.00     0.018 A 
ATOM      9  C   UNL     1      -5.594  10.563  -3.509  1.00  0.00     0.012 A 
ATOM     10  C   UNL     1      -4.569   8.695  -4.583  1.00  0.00     0.131 A 
ATOM     11  C   UNL     1      -5.463  11.311  -4.688  1.00  0.00     0.005 A 
ATOM     12  C   UNL     1      -4.391   9.451  -5.744  1.00  0.00     0.044 A 
ATOM     13  F   UNL     1      -4.168   7.415  -4.614  1.00  0.00    -0.206 F 
BRANCH   8  14
ATOM     14  C   UNL     1      -5.238   8.479  -2.154  1.00  0.00    -0.012 A 
ATOM     15  C   UNL     1      -4.305   6.909  -0.543  1.00  0.00     0.133 A 
ATOM     16  C   UNL     1      -5.401   7.063   0.297  1.00  0.00     0.047 A 
ATOM     17  C   UNL     1      -4.220   7.598  -1.755  1.00  0.00     0.056 A 
ATOM     18  C   UNL     1      -6.420   7.933  -0.074  1.00  0.00     0.004 A 
ATOM     19  C   UNL     1      -6.341   8.627  -1.288  1.00  0.00     0.009 A 
BRANCH  15  20
ATOM     20  O   UNL     1      -3.358   5.935  -0.190  1.00  0.00    -0.410 OA
BRANCH  20  21
ATOM     21  C   UNL     1      -2.019   6.298  -0.177  1.00  0.00     0.412 C 
ATOM     22  N   UNL     1      -1.182   5.237   0.037  1.00  0.00    -0.321 N 
ATOM     23  H   UNL     1      -0.219   5.435   0.077  1.00  0.00     0.167 HD
ATOM     24  O   UNL     1      -1.576   7.430  -0.325  1.00  0.00    -0.224 OA
BRANCH  22  25
ATOM     25  C   UNL     1      -1.569   3.852   0.213  1.00  0.00     0.119 C 
BRANCH  25  26
ATOM     26  C   UNL     1      -0.960   2.946  -0.858  1.00  0.00     0.021 C 
BRANCH  26  27
ATOM     27  C   UNL     1       0.570   2.848  -0.825  1.00  0.00     0.002 C 
BRANCH  27  28
ATOM     28  C   UNL     1       1.174   2.358   0.496  1.00  0.00    -0.000 C 
BRANCH  28  29
ATOM     29  C   UNL     1       0.687   0.988   0.974  1.00  0.00    -0.003 C 
ATOM     30  C   UNL     1       1.046  -0.143   0.022  1.00  0.00     0.004 C 
ENDBRANCH  28  29
ENDBRANCH  27  28
ENDBRANCH  26  27
ENDBRANCH  25  26
ENDBRANCH  22  25
ENDBRANCH  20  21
ENDBRANCH  15  20
ENDBRANCH   8  14
ENDBRANCH   5   7
ENDBRANCH   1   5
BRANCH   3  31
ATOM     31  C   UNL     1      -3.660  14.140  -5.381  1.00  0.00     0.116 C 
BRANCH  31  32
ATOM     32  C   UNL     1      -3.227  13.853  -3.942  1.00  0.00     0.021 C 
BRANCH  32  33
ATOM     33  C   UNL     1      -2.091  14.754  -3.445  1.00  0.00     0.002 C 
BRANCH  33  34
ATOM     34  C   UNL     1      -2.424  16.250  -3.382  1.00  0.00     0.002 C 
BRANCH  34  35
ATOM     35  C   UNL     1      -3.675  16.614  -2.575  1.00  0.00     0.021 C 
BRANCH  35  36
ATOM     36  C   UNL     1      -3.630  16.199  -1.107  1.00  0.00     0.116 C 
BRANCH  36  37
ATOM     37  N   UNL     1      -2.567  16.878  -0.383  1.00  0.00    -0.352 N 
ATOM     38  C   UNL     1      -2.639  17.709   0.706  1.00  0.00     0.251 C 
ATOM     39  H   UNL     1      -1.658  16.718  -0.727  1.00  0.00     0.163 HD
ATOM     40  O   UNL     1      -1.663  18.371   1.043  1.00  0.00    -0.269 OA
BRANCH  38  41
ATOM     41  C   UNL     1      -3.897  17.817   1.474  1.00  0.00     0.039 A 
ATOM     42  C   UNL     1      -4.333  19.080   1.885  1.00  0.00     0.014 A 
ATOM     43  C   UNL     1      -4.627  16.676   1.818  1.00  0.00     0.014 A 
ATOM     44  C   UNL     1      -5.529  19.203   2.596  1.00  0.00     0.010 A 
ATOM     45  C   UNL     1      -5.851  16.805   2.468  1.00  0.00     0.010 A 
ATOM     46  C   UNL     1      -6.310  18.069   2.870  1.00  0.00    -0.014 A 
BRANCH  46  47
ATOM     47  C   UNL     1      -7.606  18.182   3.582  1.00  0.00     0.031 A 
ATOM     48  C   UNL     1      -7.778  17.568   4.944  1.00  0.00     0.074 A 
ATOM     49  C   UNL     1      -8.648  18.783   2.978  1.00  0.00     0.049 A 
ATOM     50  N   UNL     1      -8.846  17.522   5.700  1.00  0.00    -0.248 NA
ATOM     51  C   UNL     1      -6.602  16.898   5.519  1.00  0.00     0.031 C 
ATOM     52  C   UNL     1      -8.620  19.393   1.647  1.00  0.00     0.029 A 
ATOM     53  N   UNL     1      -9.936  18.979   3.408  1.00  0.00    -0.354 N 
ATOM     54  C   UNL     1      -8.476  16.804   6.830  1.00  0.00     0.074 A 
ATOM     55  C   UNL     1      -7.102  16.391   6.636  1.00  0.00     0.031 C 
ATOM     56  C   UNL     1      -9.823  19.925   1.384  1.00  0.00     0.029 A 
ATOM     57  C   UNL     1     -10.717  19.661   2.507  1.00  0.00     0.049 A 
ATOM     58  H   UNL     1     -10.268  18.661   4.278  1.00  0.00     0.167 HD
ATOM     59  C   UNL     1      -9.205  16.527   7.937  1.00  0.00     0.031 A 
ATOM     60  C   UNL     1     -12.008  20.033   2.579  1.00  0.00     0.031 A 
ATOM     61  C   UNL     1     -10.570  16.939   8.132  1.00  0.00     0.049 A 
ATOM     62  C   UNL     1     -12.806  19.693   3.804  1.00  0.00     0.074 A 
ATOM     63  C   UNL     1     -11.378  16.756   9.240  1.00  0.00     0.029 A 
ATOM     64  N   UNL     1     -11.330  17.614   7.189  1.00  0.00    -0.354 N 
ATOM     65  N   UNL     1     -12.425  19.064   4.890  1.00  0.00    -0.248 NA
ATOM     66  C   UNL     1     -14.212  20.120   3.815  1.00  0.00     0.031 C 
ATOM     67  C   UNL     1     -12.644  17.277   8.948  1.00  0.00     0.029 A 
ATOM     68  C   UNL     1     -12.607  17.832   7.679  1.00  0.00     0.049 A 
ATOM     69  H   UNL     1     -11.009  17.898   6.302  1.00  0.00     0.167 HD
ATOM     70  C   UNL     1     -13.535  19.044   5.725  1.00  0.00     0.074 A 
ATOM     71  C   UNL     1     -14.600  19.733   5.022  1.00  0.00     0.031 C 
ATOM     72  C   UNL     1     -13.658  18.509   6.964  1.00  0.00     0.031 A 
BRANCH  59  73
ATOM     73  C   UNL     1      -8.532  15.721   9.014  1.00  0.00    -0.014 A 
ATOM     74  C   UNL     1      -7.483  16.258   9.779  1.00  0.00     0.009 A 
ATOM     75  C   UNL     1      -8.950  14.405   9.268  1.00  0.00     0.009 A 
ATOM     76  C   UNL     1      -6.833  15.477  10.737  1.00  0.00     0.001 A 
ATOM     77  C   UNL     1      -8.319  13.637  10.248  1.00  0.00     0.001 A 
ATOM     78  C   UNL     1      -7.253  14.168  10.972  1.00  0.00     0.000 A 
ENDBRANCH  59  73
BRANCH  60  79
ATOM     79  C   UNL     1     -12.614  20.808   1.466  1.00  0.00    -0.014 A 
ATOM     80  C   UNL     1     -12.883  22.176   1.626  1.00  0.00     0.009 A 
ATOM     81  C   UNL     1     -12.904  20.196   0.237  1.00  0.00     0.009 A 
ATOM     82  C   UNL     1     -13.445  22.913   0.581  1.00  0.00     0.001 A 
ATOM     83  C   UNL     1     -13.444  20.941  -0.813  1.00  0.00     0.001 A 
ATOM     84  C   UNL     1     -13.719  22.296  -0.639  1.00  0.00     0.000 A 
ENDBRANCH  60  79
BRANCH  72  85
ATOM     85  C   UNL     1     -14.985  18.672   7.650  1.00  0.00    -0.014 A 
ATOM     86  C   UNL     1     -16.108  17.934   7.249  1.00  0.00     0.009 A 
ATOM     87  C   UNL     1     -15.101  19.553   8.737  1.00  0.00     0.009 A 
ATOM     88  C   UNL     1     -17.331  18.098   7.904  1.00  0.00     0.001 A 
ATOM     89  C   UNL     1     -16.316  19.695   9.407  1.00  0.00     0.001 A 
ATOM     90  C   UNL     1     -17.432  18.974   8.985  1.00  0.00     0.000 A 
ENDBRANCH  72  85
ENDBRANCH  46  47
ENDBRANCH  38  41
ENDBRANCH  36  37
ENDBRANCH  35  36
ENDBRANCH  34  35
ENDBRANCH  33  34
ENDBRANCH  32  33
ENDBRANCH  31  32
ENDBRANCH   3  31
TORSDOF 22
