REMARK SMILES CCc1ccc(S(=O)(=O)N2CCC3(CC2)NC(=O)C[C@H]3C(=O)NCCCCCCNC(=O)c2ccc(-c3c4nc(c(-c5ccccc5)c5ccc([nH]5)c(-c5ccccc5)c5nc(c(-c6ccccc6)c6ccc3[nH]6)C=C5)C=C4)cc2)s1
REMARK SMILES IDX 26 1 25 2 24 3 23 4 21 5 22 6 20 8 10 9 11 10 15 11 12 12
REMARK SMILES IDX 14 13 13 14 16 15 17 16 19 18 18 19 7 20 8 21 9 22 6 23 3 24
REMARK SMILES IDX 4 25 81 26 5 27 2 28 1 29 27 30 28 31 29 32 30 33 31 34
REMARK SMILES IDX 32 36 33 37 34 38 80 39 35 40 79 41 36 42 37 43 38 44 73 45
REMARK SMILES IDX 39 46 78 47 72 48 74 49 40 50 77 51 71 52 70 53 41 55 63 56
REMARK SMILES IDX 48 57 62 58 49 59 52 60 61 61 75 62 50 63 51 64 60 66 76 67
REMARK SMILES IDX 53 68 42 69 43 70 47 71 44 72 46 73 45 74 64 75 65 76 69 77
REMARK SMILES IDX 66 78 68 79 67 80 54 81 55 82 59 83 56 84 58 85 57 86
REMARK H PARENT 23 7 16 17 30 35 74 54 52 65
REMARK Flexibility Score: inf
ROOT
ATOM      1  C   UNL     1       3.853   8.615   1.872  1.00  0.00     0.002 C 
ENDROOT
BRANCH   1   2
ATOM      2  C   UNL     1       2.585   8.646   1.022  1.00  0.00     0.021 C 
BRANCH   2   3
ATOM      3  C   UNL     1       2.468   9.866   0.096  1.00  0.00     0.116 C 
BRANCH   3   4
ATOM      4  N   UNL     1       3.412   9.870  -1.012  1.00  0.00    -0.356 N 
ATOM      5  C   UNL     1       3.275   9.789  -2.363  1.00  0.00     0.226 C 
ATOM      6  O   UNL     1       4.322   9.821  -3.021  1.00  0.00    -0.275 OA
ATOM      7  H   UNL     1       4.350   9.948  -0.722  1.00  0.00     0.163 HD
BRANCH   5   8
ATOM      8  C   UNL     1       1.945   9.619  -3.114  1.00  0.00     0.113 C 
ATOM      9  N   UNL     1       1.876   5.867  -4.079  1.00  0.00    -0.197 NA
ATOM     10  C   UNL     1       1.192   6.831  -4.936  1.00  0.00     0.105 C 
ATOM     11  C   UNL     1       2.779   6.444  -3.100  1.00  0.00     0.105 C 
ATOM     12  C   UNL     1       0.368   7.780  -4.062  1.00  0.00     0.046 C 
ATOM     13  C   UNL     1       1.920   7.240  -2.136  1.00  0.00     0.046 C 
ATOM     14  C   UNL     1       1.109   8.353  -2.816  1.00  0.00     0.055 C 
ATOM     15  N   UNL     1       0.072   8.885  -1.943  1.00  0.00    -0.350 N 
ATOM     16  C   UNL     1      -0.086  10.251  -2.031  1.00  0.00     0.221 C 
ATOM     17  H   UNL     1      -0.467   8.320  -1.344  1.00  0.00     0.164 HD
ATOM     18  C   UNL     1       1.010  10.812  -2.893  1.00  0.00     0.116 C 
ATOM     19  O   UNL     1      -0.959  10.887  -1.469  1.00  0.00    -0.275 OA
BRANCH   9  20
ATOM     20  S   UNL     1       1.781   4.201  -4.253  1.00  0.00     0.252 S 
ATOM     21  O   UNL     1       3.136   3.695  -4.324  1.00  0.00    -0.206 OA
ATOM     22  O   UNL     1       0.772   3.884  -5.234  1.00  0.00    -0.206 OA
BRANCH  20  23
ATOM     23  C   UNL     1       1.105   3.612  -2.699  1.00  0.00     0.135 A 
ATOM     24  C   UNL     1       0.688   2.220  -0.688  1.00  0.00     0.006 A 
ATOM     25  C   UNL     1      -0.003   3.416  -0.658  1.00  0.00     0.017 A 
ATOM     26  S   UNL     1       1.653   2.107  -2.104  1.00  0.00    -0.127 S 
ATOM     27  C   UNL     1       0.180   4.177  -1.842  1.00  0.00     0.034 A 
BRANCH  24  28
ATOM     28  C   UNL     1       0.623   1.151   0.372  1.00  0.00     0.043 C 
ATOM     29  C   UNL     1       1.109  -0.231  -0.028  1.00  0.00     0.010 C 
ENDBRANCH  24  28
ENDBRANCH  20  23
ENDBRANCH   9  20
ENDBRANCH   5   8
ENDBRANCH   3   4
ENDBRANCH   2   3
ENDBRANCH   1   2
BRANCH   1  30
ATOM     30  C   UNL     1       3.987   9.801   2.826  1.00  0.00     0.002 C 
BRANCH  30  31
ATOM     31  C   UNL     1       2.750  10.060   3.692  1.00  0.00     0.021 C 
BRANCH  31  32
ATOM     32  C   UNL     1       2.296   8.860   4.515  1.00  0.00     0.116 C 
BRANCH  32  33
ATOM     33  N   UNL     1       3.318   8.441   5.458  1.00  0.00    -0.352 N 
ATOM     34  C   UNL     1       3.257   8.388   6.826  1.00  0.00     0.251 C 
ATOM     35  H   UNL     1       4.173   8.158   5.060  1.00  0.00     0.163 HD
ATOM     36  O   UNL     1       4.279   8.259   7.491  1.00  0.00    -0.269 OA
BRANCH  34  37
ATOM     37  C   UNL     1       1.946   8.496   7.496  1.00  0.00     0.039 A 
ATOM     38  C   UNL     1       1.820   9.334   8.606  1.00  0.00     0.014 A 
ATOM     39  C   UNL     1       0.847   7.769   7.029  1.00  0.00     0.014 A 
ATOM     40  C   UNL     1       0.576   9.478   9.220  1.00  0.00     0.010 A 
ATOM     41  C   UNL     1      -0.407   7.974   7.592  1.00  0.00     0.010 A 
ATOM     42  C   UNL     1      -0.554   8.823   8.700  1.00  0.00    -0.014 A 
BRANCH  42  43
ATOM     43  C   UNL     1      -1.894   9.013   9.306  1.00  0.00     0.031 A 
ATOM     44  C   UNL     1      -2.614   7.851   9.931  1.00  0.00     0.074 A 
ATOM     45  C   UNL     1      -2.484  10.223   9.248  1.00  0.00     0.049 A 
ATOM     46  N   UNL     1      -3.804   7.813  10.475  1.00  0.00    -0.248 NA
ATOM     47  C   UNL     1      -1.917   6.554   9.924  1.00  0.00     0.031 C 
ATOM     48  C   UNL     1      -1.905  11.421   8.636  1.00  0.00     0.029 A 
ATOM     49  N   UNL     1      -3.706  10.643   9.711  1.00  0.00    -0.354 N 
ATOM     50  C   UNL     1      -4.001   6.494  10.863  1.00  0.00     0.074 A 
ATOM     51  C   UNL     1      -2.835   5.750  10.440  1.00  0.00     0.031 C 
ATOM     52  C   UNL     1      -2.756  12.447   8.789  1.00  0.00     0.029 A 
ATOM     53  C   UNL     1      -3.958  11.972   9.466  1.00  0.00     0.049 A 
ATOM     54  H   UNL     1      -4.341  10.050  10.173  1.00  0.00     0.167 HD
ATOM     55  C   UNL     1      -5.048   5.953  11.529  1.00  0.00     0.031 A 
ATOM     56  C   UNL     1      -5.040  12.721   9.748  1.00  0.00     0.031 A 
ATOM     57  C   UNL     1      -6.208   6.694  11.948  1.00  0.00     0.049 A 
ATOM     58  C   UNL     1      -6.204  12.089  10.459  1.00  0.00     0.074 A 
ATOM     59  C   UNL     1      -7.301   6.248  12.671  1.00  0.00     0.029 A 
ATOM     60  N   UNL     1      -6.429   8.035  11.675  1.00  0.00    -0.354 N 
ATOM     61  N   UNL     1      -6.345  10.855  10.881  1.00  0.00    -0.248 NA
ATOM     62  C   UNL     1      -7.355  12.958  10.744  1.00  0.00     0.031 C 
ATOM     63  C   UNL     1      -8.212   7.303  12.780  1.00  0.00     0.029 A 
ATOM     64  C   UNL     1      -7.654   8.426  12.188  1.00  0.00     0.049 A 
ATOM     65  H   UNL     1      -5.806   8.623  11.190  1.00  0.00     0.167 HD
ATOM     66  C   UNL     1      -7.584  10.808  11.507  1.00  0.00     0.074 A 
ATOM     67  C   UNL     1      -8.145  12.141  11.426  1.00  0.00     0.031 C 
ATOM     68  C   UNL     1      -8.201   9.755  12.098  1.00  0.00     0.031 A 
BRANCH  55  69
ATOM     69  C   UNL     1      -4.990   4.480  11.835  1.00  0.00    -0.014 A 
ATOM     70  C   UNL     1      -4.065   3.961  12.756  1.00  0.00     0.009 A 
ATOM     71  C   UNL     1      -5.896   3.603  11.219  1.00  0.00     0.009 A 
ATOM     72  C   UNL     1      -4.023   2.591  13.023  1.00  0.00     0.001 A 
ATOM     73  C   UNL     1      -5.874   2.238  11.513  1.00  0.00     0.001 A 
ATOM     74  C   UNL     1      -4.931   1.732  12.405  1.00  0.00     0.000 A 
ENDBRANCH  55  69
BRANCH  56  75
ATOM     75  C   UNL     1      -5.074  14.157   9.362  1.00  0.00    -0.014 A 
ATOM     76  C   UNL     1      -5.051  15.162  10.342  1.00  0.00     0.009 A 
ATOM     77  C   UNL     1      -5.138  14.532   8.011  1.00  0.00     0.009 A 
ATOM     78  C   UNL     1      -5.125  16.509   9.978  1.00  0.00     0.001 A 
ATOM     79  C   UNL     1      -5.177  15.880   7.648  1.00  0.00     0.001 A 
ATOM     80  C   UNL     1      -5.182  16.866   8.633  1.00  0.00     0.000 A 
ENDBRANCH  56  75
BRANCH  68  81
ATOM     81  C   UNL     1      -9.538  10.011  12.738  1.00  0.00    -0.014 A 
ATOM     82  C   UNL     1     -10.682  10.273  11.970  1.00  0.00     0.009 A 
ATOM     83  C   UNL     1      -9.658   9.950  14.136  1.00  0.00     0.009 A 
ATOM     84  C   UNL     1     -11.912  10.505  12.590  1.00  0.00     0.001 A 
ATOM     85  C   UNL     1     -10.894  10.148  14.752  1.00  0.00     0.001 A 
ATOM     86  C   UNL     1     -12.018  10.436  13.979  1.00  0.00     0.000 A 
ENDBRANCH  68  81
ENDBRANCH  42  43
ENDBRANCH  34  37
ENDBRANCH  32  33
ENDBRANCH  31  32
ENDBRANCH  30  31
ENDBRANCH   1  30
TORSDOF 16
