REMARK SMILES CS(=O)(=O)c1ccc(C2=NN(c3ccc(C(=O)NCCCCCCNC(=O)c4ccc(-c5c6nc(c(-c7ccccc7)c7ccc([nH]7)c(-c7ccccc7)c7nc(c(-c8ccccc8)c8ccc5[nH]8)C=C7)C=C6)cc4)cc3)[C@H](c3ccc(Cl)cc3)C2)cc1
REMARK SMILES IDX 21 1 20 2 19 3 18 4 16 5 17 6 15 8 12 9 13 10 77 11 14 12
REMARK SMILES IDX 76 13 11 14 9 15 10 16 86 17 78 18 8 19 5 20 6 21 88 22 7 23
REMARK SMILES IDX 87 24 2 25 1 26 3 27 4 28 79 29 80 30 85 31 81 32 84 33
REMARK SMILES IDX 82 34 83 35 22 36 23 37 24 38 25 39 26 40 27 42 28 43 29 44
REMARK SMILES IDX 75 45 30 46 74 47 31 48 32 49 33 50 68 51 34 52 73 53 67 54
REMARK SMILES IDX 69 55 35 56 72 57 66 58 65 59 36 61 58 62 43 63 57 64 44 65
REMARK SMILES IDX 47 66 56 67 70 68 45 69 46 70 55 72 71 73 48 74 37 75 38 76
REMARK SMILES IDX 42 77 39 78 41 79 40 80 59 81 60 82 64 83 61 84 63 85 62 86
REMARK SMILES IDX 49 87 50 88 54 89 51 90 53 91 52 92
REMARK H PARENT 18 7 25 41 69 60 47 71
REMARK Flexibility Score: inf
ROOT
ATOM      1  C   UNL     1       7.778  -4.820  13.462  1.00  0.00     0.002 C 
ENDROOT
BRANCH   1   2
ATOM      2  C   UNL     1       6.749  -4.015  12.658  1.00  0.00     0.021 C 
BRANCH   2   3
ATOM      3  C   UNL     1       6.898  -2.502  12.834  1.00  0.00     0.116 C 
BRANCH   3   4
ATOM      4  N   UNL     1       8.005  -2.013  12.035  1.00  0.00    -0.352 N 
ATOM      5  C   UNL     1       8.034  -1.317  10.853  1.00  0.00     0.251 C 
ATOM      6  O   UNL     1       9.126  -0.986  10.394  1.00  0.00    -0.269 OA
ATOM      7  H   UNL     1       8.894  -2.216  12.407  1.00  0.00     0.163 HD
BRANCH   5   8
ATOM      8  C   UNL     1       6.791  -0.894  10.157  1.00  0.00     0.039 A 
ATOM      9  C   UNL     1       4.455   0.099   8.938  1.00  0.00     0.060 A 
ATOM     10  C   UNL     1       5.641   0.836   8.897  1.00  0.00     0.029 A 
ATOM     11  C   UNL     1       4.474  -1.170   9.523  1.00  0.00     0.029 A 
ATOM     12  C   UNL     1       6.803   0.345   9.504  1.00  0.00     0.016 A 
ATOM     13  C   UNL     1       5.636  -1.675  10.106  1.00  0.00     0.016 A 
BRANCH   9  14
ATOM     14  N   UNL     1       3.273   0.565   8.386  1.00  0.00    -0.257 N 
ATOM     15  C   UNL     1       2.204   1.311   6.713  1.00  0.00     0.071 C 
ATOM     16  N   UNL     1       3.124   0.467   7.048  1.00  0.00    -0.176 NA
ATOM     17  C   UNL     1       1.649   2.157   7.825  1.00  0.00     0.091 C 
ATOM     18  C   UNL     1       2.405   1.558   9.029  1.00  0.00     0.144 C 
BRANCH  15  19
ATOM     19  C   UNL     1       1.726   1.405   5.327  1.00  0.00    -0.002 A 
ATOM     20  C   UNL     1       0.896   1.448   2.675  1.00  0.00     0.067 A 
ATOM     21  C   UNL     1       1.123   0.222   3.300  1.00  0.00     0.021 A 
ATOM     22  C   UNL     1       1.088   2.653   3.368  1.00  0.00     0.021 A 
ATOM     23  C   UNL     1       1.554   0.205   4.624  1.00  0.00     0.011 A 
ATOM     24  C   UNL     1       1.493   2.632   4.706  1.00  0.00     0.011 A 
BRANCH  20  25
ATOM     25  S   UNL     1       0.368   1.514   0.978  1.00  0.00     0.175 S 
ATOM     26  C   UNL     1       1.105   0.120   0.167  1.00  0.00     0.163 C 
ATOM     27  O   UNL     1       0.958   2.704   0.401  1.00  0.00    -0.224 OA
ATOM     28  O   UNL     1      -1.071   1.321   0.995  1.00  0.00    -0.224 OA
ENDBRANCH  20  25
ENDBRANCH  15  19
BRANCH  18  29
ATOM     29  C   UNL     1       1.590   0.907  10.148  1.00  0.00    -0.023 A 
ATOM     30  C   UNL     1       0.249   0.510  10.024  1.00  0.00     0.007 A 
ATOM     31  C   UNL     1       2.238   0.637  11.374  1.00  0.00     0.007 A 
ATOM     32  C   UNL     1      -0.417  -0.123  11.083  1.00  0.00     0.021 A 
ATOM     33  C   UNL     1       1.584  -0.022  12.420  1.00  0.00     0.021 A 
ATOM     34  C   UNL     1       0.255  -0.396  12.271  1.00  0.00     0.041 A 
ATOM     35  Cl  UNL     1      -0.555  -1.208  13.553  1.00  0.00    -0.084 Cl
ENDBRANCH  18  29
ENDBRANCH   9  14
ENDBRANCH   5   8
ENDBRANCH   3   4
ENDBRANCH   2   3
ENDBRANCH   1   2
BRANCH   1  36
ATOM     36  C   UNL     1       7.672  -4.654  14.982  1.00  0.00     0.002 C 
BRANCH  36  37
ATOM     37  C   UNL     1       6.295  -4.973  15.568  1.00  0.00     0.021 C 
BRANCH  37  38
ATOM     38  C   UNL     1       5.835  -6.408  15.334  1.00  0.00     0.116 C 
BRANCH  38  39
ATOM     39  N   UNL     1       6.697  -7.364  16.012  1.00  0.00    -0.352 N 
ATOM     40  C   UNL     1       6.373  -8.312  16.948  1.00  0.00     0.251 C 
ATOM     41  H   UNL     1       7.649  -7.324  15.765  1.00  0.00     0.163 HD
ATOM     42  O   UNL     1       7.252  -8.872  17.595  1.00  0.00    -0.269 OA
BRANCH  40  43
ATOM     43  C   UNL     1       4.955  -8.652  17.183  1.00  0.00     0.039 A 
ATOM     44  C   UNL     1       4.501  -8.796  18.496  1.00  0.00     0.014 A 
ATOM     45  C   UNL     1       4.080  -8.842  16.110  1.00  0.00     0.014 A 
ATOM     46  C   UNL     1       3.155  -9.078  18.733  1.00  0.00     0.010 A 
ATOM     47  C   UNL     1       2.725  -9.047  16.349  1.00  0.00     0.010 A 
ATOM     48  C   UNL     1       2.250  -9.175  17.663  1.00  0.00    -0.014 A 
BRANCH  48  49
ATOM     49  C   UNL     1       0.805  -9.414  17.898  1.00  0.00     0.031 A 
ATOM     50  C   UNL     1       0.155 -10.674  17.396  1.00  0.00     0.074 A 
ATOM     51  C   UNL     1       0.065  -8.472  18.516  1.00  0.00     0.049 A 
ATOM     52  N   UNL     1      -1.103 -11.034  17.453  1.00  0.00    -0.248 NA
ATOM     53  C   UNL     1       1.028 -11.648  16.721  1.00  0.00     0.031 C 
ATOM     54  C   UNL     1       0.569  -7.191  19.015  1.00  0.00     0.029 A 
ATOM     55  N   UNL     1      -1.272  -8.445  18.822  1.00  0.00    -0.354 N 
ATOM     56  C   UNL     1      -1.171 -12.267  16.818  1.00  0.00     0.074 A 
ATOM     57  C   UNL     1       0.157 -12.567  16.330  1.00  0.00     0.031 C 
ATOM     58  C   UNL     1      -0.442  -6.513  19.582  1.00  0.00     0.029 A 
ATOM     59  C   UNL     1      -1.669  -7.290  19.450  1.00  0.00     0.049 A 
ATOM     60  H   UNL     1      -1.888  -9.184  18.611  1.00  0.00     0.167 HD
ATOM     61  C   UNL     1      -2.237 -13.090  16.674  1.00  0.00     0.031 A 
ATOM     62  C   UNL     1      -2.889  -6.894  19.862  1.00  0.00     0.031 A 
ATOM     63  C   UNL     1      -3.559 -12.790  17.157  1.00  0.00     0.049 A 
ATOM     64  C   UNL     1      -4.063  -7.812  19.664  1.00  0.00     0.074 A 
ATOM     65  C   UNL     1      -4.699 -13.572  17.089  1.00  0.00     0.029 A 
ATOM     66  N   UNL     1      -3.918 -11.613  17.795  1.00  0.00    -0.354 N 
ATOM     67  N   UNL     1      -4.098  -9.003  19.115  1.00  0.00    -0.248 NA
ATOM     68  C   UNL     1      -5.364  -7.337  20.156  1.00  0.00     0.031 C 
ATOM     69  C   UNL     1      -5.760 -12.847  17.640  1.00  0.00     0.029 A 
ATOM     70  C   UNL     1      -5.267 -11.639  18.109  1.00  0.00     0.049 A 
ATOM     71  H   UNL     1      -3.305 -10.869  17.995  1.00  0.00     0.167 HD
ATOM     72  C   UNL     1      -5.416  -9.430  19.221  1.00  0.00     0.074 A 
ATOM     73  C   UNL     1      -6.142  -8.380  19.905  1.00  0.00     0.031 C 
ATOM     74  C   UNL     1      -5.974 -10.587  18.790  1.00  0.00     0.031 A 
BRANCH  61  75
ATOM     75  C   UNL     1      -2.012 -14.397  15.965  1.00  0.00    -0.014 A 
ATOM     76  C   UNL     1      -1.245 -15.417  16.551  1.00  0.00     0.009 A 
ATOM     77  C   UNL     1      -2.603 -14.627  14.713  1.00  0.00     0.009 A 
ATOM     78  C   UNL     1      -1.044 -16.626  15.882  1.00  0.00     0.001 A 
ATOM     79  C   UNL     1      -2.426 -15.849  14.060  1.00  0.00     0.001 A 
ATOM     80  C   UNL     1      -1.639 -16.843  14.640  1.00  0.00     0.000 A 
ENDBRANCH  61  75
BRANCH  62  81
ATOM     81  C   UNL     1      -3.065  -5.564  20.503  1.00  0.00    -0.014 A 
ATOM     82  C   UNL     1      -3.394  -5.460  21.863  1.00  0.00     0.009 A 
ATOM     83  C   UNL     1      -2.919  -4.387  19.750  1.00  0.00     0.009 A 
ATOM     84  C   UNL     1      -3.609  -4.209  22.446  1.00  0.00     0.001 A 
ATOM     85  C   UNL     1      -3.101  -3.137  20.344  1.00  0.00     0.001 A 
ATOM     86  C   UNL     1      -3.458  -3.049  21.688  1.00  0.00     0.000 A 
ENDBRANCH  62  81
BRANCH  74  87
ATOM     87  C   UNL     1      -7.435 -10.796  19.081  1.00  0.00    -0.014 A 
ATOM     88  C   UNL     1      -8.427 -10.062  18.412  1.00  0.00     0.009 A 
ATOM     89  C   UNL     1      -7.822 -11.771  20.014  1.00  0.00     0.009 A 
ATOM     90  C   UNL     1      -9.777 -10.277  18.698  1.00  0.00     0.001 A 
ATOM     91  C   UNL     1      -9.173 -12.007  20.274  1.00  0.00     0.001 A 
ATOM     92  C   UNL     1     -10.148 -11.252  19.624  1.00  0.00     0.000 A 
ENDBRANCH  74  87
ENDBRANCH  48  49
ENDBRANCH  40  43
ENDBRANCH  38  39
ENDBRANCH  37  38
ENDBRANCH  36  37
ENDBRANCH   1  36
TORSDOF 17
