REMARK SMILES CC(C)C[C@H](NC(=O)Cc1ccccc1)C(=O)NCCCCCCNC(=O)c1ccc(-c2c3nc(c(-c4ccccc4)c4ccc([nH]4)c(-c4ccccc4)c4nc(c(-c5ccccc5)c5ccc2[nH]5)C=C4)C=C3)cc1
REMARK SMILES IDX 21 1 20 2 19 3 18 4 16 5 17 6 5 8 4 9 2 10 1 11 3 12 6 13
REMARK SMILES IDX 7 14 8 16 9 17 10 18 11 19 15 20 12 21 14 22 13 23 22 24
REMARK SMILES IDX 23 25 24 26 25 27 26 28 27 30 28 31 29 32 75 33 30 34 74 35
REMARK SMILES IDX 31 36 32 37 33 38 68 39 34 40 73 41 67 42 69 43 35 44 72 45
REMARK SMILES IDX 66 46 65 47 36 49 58 50 43 51 57 52 44 53 47 54 56 55 70 56
REMARK SMILES IDX 45 57 46 58 55 60 71 61 48 62 37 63 38 64 42 65 39 66 41 67
REMARK SMILES IDX 40 68 59 69 60 70 64 71 61 72 63 73 62 74 49 75 50 76 54 77
REMARK SMILES IDX 51 78 53 79 52 80
REMARK H PARENT 18 7 6 15 25 29 69 48 47 59
REMARK Flexibility Score: inf
ROOT
ATOM      1  C   UNL     1      -5.306  -4.325  -0.149  1.00  0.00     0.002 C 
ENDROOT
BRANCH   1   2
ATOM      2  C   UNL     1      -3.812  -4.030   0.016  1.00  0.00     0.021 C 
BRANCH   2   3
ATOM      3  C   UNL     1      -3.276  -3.038  -1.007  1.00  0.00     0.116 C 
BRANCH   3   4
ATOM      4  N   UNL     1      -3.797  -1.703  -0.747  1.00  0.00    -0.354 N 
ATOM      5  C   UNL     1      -3.180  -0.486  -0.828  1.00  0.00     0.242 C 
ATOM      6  O   UNL     1      -3.859   0.526  -0.648  1.00  0.00    -0.273 OA
ATOM      7  H   UNL     1      -4.741  -1.673  -0.470  1.00  0.00     0.163 HD
BRANCH   5   8
ATOM      8  C   UNL     1      -1.702  -0.400  -1.249  1.00  0.00     0.171 C 
BRANCH   8   9
ATOM      9  C   UNL     1      -1.556  -0.836  -2.716  1.00  0.00     0.038 C 
BRANCH   9  10
ATOM     10  C   UNL     1      -2.673  -0.450  -3.711  1.00  0.00    -0.015 C 
ATOM     11  C   UNL     1      -2.663   1.047  -4.012  1.00  0.00     0.007 C 
ATOM     12  C   UNL     1      -2.509  -1.244  -5.013  1.00  0.00     0.007 C 
ENDBRANCH   9  10
ENDBRANCH   8   9
BRANCH   8  13
ATOM     13  N   UNL     1      -0.942  -1.200  -0.262  1.00  0.00    -0.344 N 
ATOM     14  C   UNL     1       0.346  -1.608  -0.137  1.00  0.00     0.225 C 
ATOM     15  H   UNL     1      -1.507  -1.511   0.482  1.00  0.00     0.164 HD
ATOM     16  O   UNL     1       0.619  -2.302   0.848  1.00  0.00    -0.275 OA
BRANCH  14  17
ATOM     17  C   UNL     1       1.411  -1.263  -1.159  1.00  0.00     0.135 C 
BRANCH  17  18
ATOM     18  C   UNL     1       1.349  -2.096  -2.419  1.00  0.00    -0.039 A 
ATOM     19  C   UNL     1       1.510  -1.471  -3.666  1.00  0.00     0.004 A 
ATOM     20  C   UNL     1       1.056  -3.467  -2.384  1.00  0.00     0.004 A 
ATOM     21  C   UNL     1       1.214  -2.156  -4.843  1.00  0.00     0.000 A 
ATOM     22  C   UNL     1       0.783  -4.157  -3.566  1.00  0.00     0.000 A 
ATOM     23  C   UNL     1       0.827  -3.493  -4.791  1.00  0.00     0.000 A 
ENDBRANCH  17  18
ENDBRANCH  14  17
ENDBRANCH   8  13
ENDBRANCH   5   8
ENDBRANCH   3   4
ENDBRANCH   2   3
ENDBRANCH   1   2
BRANCH   1  24
ATOM     24  C   UNL     1      -5.685  -4.951  -1.495  1.00  0.00     0.002 C 
BRANCH  24  25
ATOM     25  C   UNL     1      -4.937  -6.242  -1.834  1.00  0.00     0.021 C 
BRANCH  25  26
ATOM     26  C   UNL     1      -5.027  -7.319  -0.760  1.00  0.00     0.116 C 
BRANCH  26  27
ATOM     27  N   UNL     1      -6.401  -7.713  -0.492  1.00  0.00    -0.352 N 
ATOM     28  C   UNL     1      -6.940  -8.971  -0.425  1.00  0.00     0.251 C 
ATOM     29  H   UNL     1      -7.032  -6.972  -0.338  1.00  0.00     0.163 HD
ATOM     30  O   UNL     1      -8.157  -9.127  -0.374  1.00  0.00    -0.269 OA
BRANCH  28  31
ATOM     31  C   UNL     1      -6.043 -10.142  -0.438  1.00  0.00     0.039 A 
ATOM     32  C   UNL     1      -6.345 -11.214  -1.279  1.00  0.00     0.014 A 
ATOM     33  C   UNL     1      -4.899 -10.170   0.365  1.00  0.00     0.014 A 
ATOM     34  C   UNL     1      -5.467 -12.295  -1.355  1.00  0.00     0.010 A 
ATOM     35  C   UNL     1      -3.986 -11.208   0.227  1.00  0.00     0.010 A 
ATOM     36  C   UNL     1      -4.264 -12.285  -0.628  1.00  0.00    -0.014 A 
BRANCH  36  37
ATOM     37  C   UNL     1      -3.286 -13.392  -0.752  1.00  0.00     0.031 A 
ATOM     38  C   UNL     1      -2.956 -14.247   0.440  1.00  0.00     0.074 A 
ATOM     39  C   UNL     1      -2.650 -13.590  -1.922  1.00  0.00     0.049 A 
ATOM     40  N   UNL     1      -2.100 -15.233   0.536  1.00  0.00    -0.248 NA
ATOM     41  C   UNL     1      -3.659 -13.936   1.694  1.00  0.00     0.031 C 
ATOM     42  C   UNL     1      -2.851 -12.801  -3.140  1.00  0.00     0.029 A 
ATOM     43  N   UNL     1      -1.700 -14.514  -2.277  1.00  0.00    -0.354 N 
ATOM     44  C   UNL     1      -2.152 -15.647   1.861  1.00  0.00     0.074 A 
ATOM     45  C   UNL     1      -3.078 -14.770   2.543  1.00  0.00     0.031 C 
ATOM     46  C   UNL     1      -2.072 -13.295  -4.115  1.00  0.00     0.029 A 
ATOM     47  C   UNL     1      -1.285 -14.402  -3.581  1.00  0.00     0.049 A 
ATOM     48  H   UNL     1      -1.348 -15.191  -1.655  1.00  0.00     0.167 HD
ATOM     49  C   UNL     1      -1.504 -16.678   2.454  1.00  0.00     0.031 A 
ATOM     50  C   UNL     1      -0.369 -15.108  -4.271  1.00  0.00     0.031 A 
ATOM     51  C   UNL     1      -0.580 -17.546   1.774  1.00  0.00     0.049 A 
ATOM     52  C   UNL     1       0.357 -16.232  -3.587  1.00  0.00     0.074 A 
ATOM     53  C   UNL     1       0.088 -18.652   2.270  1.00  0.00     0.029 A 
ATOM     54  N   UNL     1      -0.185 -17.399   0.453  1.00  0.00    -0.354 N 
ATOM     55  N   UNL     1       0.241 -16.661  -2.353  1.00  0.00    -0.248 NA
ATOM     56  C   UNL     1       1.331 -16.976  -4.396  1.00  0.00     0.031 C 
ATOM     57  C   UNL     1       0.936 -19.135   1.268  1.00  0.00     0.029 A 
ATOM     58  C   UNL     1       0.743 -18.374   0.126  1.00  0.00     0.049 A 
ATOM     59  H   UNL     1      -0.515 -16.704  -0.162  1.00  0.00     0.167 HD
ATOM     60  C   UNL     1       1.106 -17.742  -2.245  1.00  0.00     0.074 A 
ATOM     61  C   UNL     1       1.727 -17.912  -3.543  1.00  0.00     0.031 C 
ATOM     62  C   UNL     1       1.361 -18.525  -1.168  1.00  0.00     0.031 A 
BRANCH  49  63
ATOM     63  C   UNL     1      -1.762 -16.903   3.920  1.00  0.00    -0.014 A 
ATOM     64  C   UNL     1      -3.018 -17.329   4.385  1.00  0.00     0.009 A 
ATOM     65  C   UNL     1      -0.732 -16.695   4.850  1.00  0.00     0.009 A 
ATOM     66  C   UNL     1      -3.249 -17.493   5.752  1.00  0.00     0.001 A 
ATOM     67  C   UNL     1      -0.956 -16.894   6.213  1.00  0.00     0.001 A 
ATOM     68  C   UNL     1      -2.217 -17.279   6.665  1.00  0.00     0.000 A 
ENDBRANCH  49  63
BRANCH  50  69
ATOM     69  C   UNL     1      -0.103 -14.778  -5.695  1.00  0.00    -0.014 A 
ATOM     70  C   UNL     1      -0.509 -15.648  -6.718  1.00  0.00     0.009 A 
ATOM     71  C   UNL     1       0.546 -13.582  -6.041  1.00  0.00     0.009 A 
ATOM     72  C   UNL     1      -0.254 -15.338  -8.055  1.00  0.00     0.001 A 
ATOM     73  C   UNL     1       0.772 -13.259  -7.380  1.00  0.00     0.001 A 
ATOM     74  C   UNL     1       0.381 -14.141  -8.386  1.00  0.00     0.000 A 
ENDBRANCH  50  69
BRANCH  62  75
ATOM     75  C   UNL     1       2.329 -19.660  -1.356  1.00  0.00    -0.014 A 
ATOM     76  C   UNL     1       3.704 -19.431  -1.526  1.00  0.00     0.009 A 
ATOM     77  C   UNL     1       1.861 -20.984  -1.320  1.00  0.00     0.009 A 
ATOM     78  C   UNL     1       4.583 -20.504  -1.690  1.00  0.00     0.001 A 
ATOM     79  C   UNL     1       2.746 -22.054  -1.451  1.00  0.00     0.001 A 
ATOM     80  C   UNL     1       4.105 -21.813  -1.647  1.00  0.00     0.000 A 
ENDBRANCH  62  75
ENDBRANCH  36  37
ENDBRANCH  28  31
ENDBRANCH  26  27
ENDBRANCH  25  26
ENDBRANCH  24  25
ENDBRANCH   1  24
TORSDOF 18
