REMARK SMILES COc1ccc(-c2ccc(C(=O)NCc3ccc(C(=O)NCCCCCCNC(=O)c4ccc(-c5c6nc(c(-c7ccccc7)c7ccc([nH]7)c(-c7ccccc7)c7nc(c(-c8ccccc8)c8ccc5[nH]8)C=C7)C=C6)cc4)cc3)o2)c([N+](=O)[O-])c1
REMARK SMILES IDX 23 1 22 2 21 3 19 4 20 5 18 7 15 8 16 9 80 10 17 11 79 12
REMARK SMILES IDX 14 13 13 14 11 15 12 16 10 18 7 19 8 20 81 21 9 22 6 23 3 24
REMARK SMILES IDX 4 25 86 26 5 27 82 28 2 29 1 30 83 31 84 32 85 33 24 34
REMARK SMILES IDX 25 35 26 36 27 37 28 38 29 39 30 41 31 42 32 43 78 44 33 45
REMARK SMILES IDX 77 46 34 47 35 48 36 49 71 50 37 51 76 52 70 53 72 54 38 55
REMARK SMILES IDX 75 56 69 57 68 58 39 60 61 61 46 62 60 63 47 64 50 65 59 66
REMARK SMILES IDX 73 67 48 68 49 69 58 71 74 72 51 73 40 74 41 75 45 76 42 77
REMARK SMILES IDX 44 78 43 79 62 80 63 81 67 82 64 83 66 84 65 85 52 86 53 87
REMARK SMILES IDX 57 88 54 89 56 90 55 91
REMARK H PARENT 21 6 13 17 28 40 72 59 50 70
REMARK Flexibility Score: inf
ROOT
ATOM      1  C   UNL     1       3.401 -18.151  -0.670  1.00  0.00     0.021 C 
ENDROOT
BRANCH   1   2
ATOM      2  C   UNL     1       2.101 -17.395  -0.389  1.00  0.00     0.116 C 
BRANCH   2   3
ATOM      3  N   UNL     1       2.120 -16.881   0.964  1.00  0.00    -0.352 N 
ATOM      4  C   UNL     1       2.399 -15.632   1.450  1.00  0.00     0.251 C 
ATOM      5  O   UNL     1       2.354 -15.458   2.668  1.00  0.00    -0.269 OA
ATOM      6  H   UNL     1       1.893 -17.545   1.655  1.00  0.00     0.163 HD
BRANCH   4   7
ATOM      7  C   UNL     1       2.682 -14.475   0.560  1.00  0.00     0.039 A 
ATOM      8  C   UNL     1       3.047 -12.177  -1.046  1.00  0.00    -0.029 A 
ATOM      9  C   UNL     1       2.400 -12.093   0.194  1.00  0.00     0.006 A 
ATOM     10  C   UNL     1       3.528 -13.424  -1.460  1.00  0.00     0.006 A 
ATOM     11  C   UNL     1       2.229 -13.226   0.992  1.00  0.00     0.014 A 
ATOM     12  C   UNL     1       3.371 -14.554  -0.652  1.00  0.00     0.014 A 
BRANCH   8  13
ATOM     13  C   UNL     1       3.259 -10.966  -1.919  1.00  0.00     0.152 C 
BRANCH  13  14
ATOM     14  N   UNL     1       2.011 -10.441  -2.418  1.00  0.00    -0.345 N 
ATOM     15  C   UNL     1       1.380  -9.243  -2.196  1.00  0.00     0.287 C 
ATOM     16  O   UNL     1       0.430  -8.996  -2.944  1.00  0.00    -0.266 OA
ATOM     17  H   UNL     1       1.529 -11.049  -3.025  1.00  0.00     0.164 HD
BRANCH  15  18
ATOM     18  C   UNL     1       1.805  -8.343  -1.139  1.00  0.00     0.192 A 
ATOM     19  C   UNL     1       1.827  -6.376  -0.132  1.00  0.00     0.142 A 
ATOM     20  C   UNL     1       2.591  -7.205   0.650  1.00  0.00     0.052 A 
ATOM     21  O   UNL     1       1.317  -7.056  -1.190  1.00  0.00    -0.451 OA
ATOM     22  C   UNL     1       2.593  -8.456  -0.004  1.00  0.00     0.057 A 
BRANCH  19  23
ATOM     23  C   UNL     1       1.484  -4.973  -0.046  1.00  0.00     0.095 A 
ATOM     24  C   UNL     1       0.730  -2.292   0.406  1.00  0.00     0.125 A 
ATOM     25  C   UNL     1      -0.212  -3.316   0.500  1.00  0.00     0.047 A 
ATOM     26  C   UNL     1       2.050  -2.595   0.079  1.00  0.00     0.132 A 
ATOM     27  C   UNL     1       0.155  -4.642   0.262  1.00  0.00     0.023 A 
ATOM     28  C   UNL     1       2.422  -3.932  -0.152  1.00  0.00     0.284 A 
BRANCH  24  29
ATOM     29  O   UNL     1       0.271  -1.042   0.713  1.00  0.00    -0.497 OA
ATOM     30  C   UNL     1       0.886   0.024  -0.002  1.00  0.00     0.278 C 
ENDBRANCH  24  29
BRANCH  28  31
ATOM     31  N   UNL     1       3.827  -4.187  -0.496  1.00  0.00     0.063 N 
ATOM     32  O   UNL     1       4.097  -5.136  -1.242  1.00  0.00    -0.258 OA
ATOM     33  O   UNL     1       4.670  -3.402  -0.036  1.00  0.00    -0.258 OA
ENDBRANCH  28  31
ENDBRANCH  19  23
ENDBRANCH  15  18
ENDBRANCH  13  14
ENDBRANCH   8  13
ENDBRANCH   4   7
ENDBRANCH   2   3
ENDBRANCH   1   2
BRANCH   1  34
ATOM     34  C   UNL     1       3.388 -19.581  -0.119  1.00  0.00     0.002 C 
BRANCH  34  35
ATOM     35  C   UNL     1       2.323 -20.487  -0.745  1.00  0.00     0.002 C 
BRANCH  35  36
ATOM     36  C   UNL     1       2.385 -20.578  -2.272  1.00  0.00     0.021 C 
BRANCH  36  37
ATOM     37  C   UNL     1       3.693 -21.157  -2.797  1.00  0.00     0.116 C 
BRANCH  37  38
ATOM     38  N   UNL     1       3.865 -22.540  -2.375  1.00  0.00    -0.352 N 
ATOM     39  C   UNL     1       3.992 -23.668  -3.146  1.00  0.00     0.251 C 
ATOM     40  H   UNL     1       3.895 -22.686  -1.402  1.00  0.00     0.163 HD
ATOM     41  O   UNL     1       3.859 -24.779  -2.653  1.00  0.00    -0.269 OA
BRANCH  39  42
ATOM     42  C   UNL     1       4.287 -23.524  -4.585  1.00  0.00     0.039 A 
ATOM     43  C   UNL     1       3.576 -24.294  -5.508  1.00  0.00     0.014 A 
ATOM     44  C   UNL     1       5.267 -22.625  -5.016  1.00  0.00     0.014 A 
ATOM     45  C   UNL     1       3.811 -24.120  -6.872  1.00  0.00     0.010 A 
ATOM     46  C   UNL     1       5.443 -22.397  -6.375  1.00  0.00     0.010 A 
ATOM     47  C   UNL     1       4.721 -23.147  -7.316  1.00  0.00    -0.014 A 
BRANCH  47  48
ATOM     48  C   UNL     1       4.941 -22.896  -8.761  1.00  0.00     0.031 A 
ATOM     49  C   UNL     1       6.293 -23.144  -9.369  1.00  0.00     0.074 A 
ATOM     50  C   UNL     1       3.947 -22.375  -9.505  1.00  0.00     0.049 A 
ATOM     51  N   UNL     1       6.707 -22.905 -10.588  1.00  0.00    -0.248 NA
ATOM     52  C   UNL     1       7.325 -23.712  -8.485  1.00  0.00     0.031 C 
ATOM     53  C   UNL     1       2.600 -22.061  -9.024  1.00  0.00     0.029 A 
ATOM     54  N   UNL     1       3.921 -22.007 -10.827  1.00  0.00    -0.354 N 
ATOM     55  C   UNL     1       8.045 -23.276 -10.610  1.00  0.00     0.074 A 
ATOM     56  C   UNL     1       8.389 -23.705  -9.273  1.00  0.00     0.031 C 
ATOM     57  C   UNL     1       1.873 -21.572 -10.041  1.00  0.00     0.029 A 
ATOM     58  C   UNL     1       2.713 -21.491 -11.231  1.00  0.00     0.049 A 
ATOM     59  H   UNL     1       4.694 -22.104 -11.429  1.00  0.00     0.167 HD
ATOM     60  C   UNL     1       8.906 -23.276 -11.655  1.00  0.00     0.031 A 
ATOM     61  C   UNL     1       2.330 -20.995 -12.422  1.00  0.00     0.031 A 
ATOM     62  C   UNL     1       8.559 -22.852 -12.985  1.00  0.00     0.049 A 
ATOM     63  C   UNL     1       3.316 -20.971 -13.557  1.00  0.00     0.074 A 
ATOM     64  C   UNL     1       9.344 -22.862 -14.124  1.00  0.00     0.029 A 
ATOM     65  N   UNL     1       7.326 -22.335 -13.351  1.00  0.00    -0.354 N 
ATOM     66  N   UNL     1       4.559 -21.387 -13.580  1.00  0.00    -0.248 NA
ATOM     67  C   UNL     1       2.843 -20.417 -14.833  1.00  0.00     0.031 C 
ATOM     68  C   UNL     1       8.606 -22.293 -15.166  1.00  0.00     0.029 A 
ATOM     69  C   UNL     1       7.338 -21.993 -14.693  1.00  0.00     0.049 A 
ATOM     70  H   UNL     1       6.556 -22.227 -12.747  1.00  0.00     0.167 HD
ATOM     71  C   UNL     1       5.006 -21.175 -14.878  1.00  0.00     0.074 A 
ATOM     72  C   UNL     1       3.896 -20.607 -15.616  1.00  0.00     0.031 C 
ATOM     73  C   UNL     1       6.224 -21.432 -15.413  1.00  0.00     0.031 A 
BRANCH  60  74
ATOM     74  C   UNL     1      10.314 -23.737 -11.396  1.00  0.00    -0.014 A 
ATOM     75  C   UNL     1      10.600 -25.080 -11.100  1.00  0.00     0.009 A 
ATOM     76  C   UNL     1      11.375 -22.823 -11.485  1.00  0.00     0.009 A 
ATOM     77  C   UNL     1      11.914 -25.489 -10.860  1.00  0.00     0.001 A 
ATOM     78  C   UNL     1      12.691 -23.241 -11.277  1.00  0.00     0.001 A 
ATOM     79  C   UNL     1      12.958 -24.570 -10.955  1.00  0.00     0.000 A 
ENDBRANCH  60  74
BRANCH  61  80
ATOM     80  C   UNL     1       0.946 -20.482 -12.606  1.00  0.00    -0.014 A 
ATOM     81  C   UNL     1       0.038 -21.161 -13.432  1.00  0.00     0.009 A 
ATOM     82  C   UNL     1       0.528 -19.305 -11.964  1.00  0.00     0.009 A 
ATOM     83  C   UNL     1      -1.249 -20.658 -13.635  1.00  0.00     0.001 A 
ATOM     84  C   UNL     1      -0.770 -18.822 -12.143  1.00  0.00     0.001 A 
ATOM     85  C   UNL     1      -1.653 -19.492 -12.986  1.00  0.00     0.000 A 
ENDBRANCH  61  80
BRANCH  73  86
ATOM     86  C   UNL     1       6.415 -21.142 -16.875  1.00  0.00    -0.014 A 
ATOM     87  C   UNL     1       6.495 -19.827 -17.358  1.00  0.00     0.009 A 
ATOM     88  C   UNL     1       6.577 -22.208 -17.775  1.00  0.00     0.009 A 
ATOM     89  C   UNL     1       6.706 -19.586 -18.717  1.00  0.00     0.001 A 
ATOM     90  C   UNL     1       6.820 -21.964 -19.127  1.00  0.00     0.001 A 
ATOM     91  C   UNL     1       6.876 -20.654 -19.598  1.00  0.00     0.000 A 
ENDBRANCH  73  86
ENDBRANCH  47  48
ENDBRANCH  39  42
ENDBRANCH  37  38
ENDBRANCH  36  37
ENDBRANCH  35  36
ENDBRANCH  34  35
ENDBRANCH   1  34
TORSDOF 19
