REMARK SMILES Cc1c(CC(=O)NCCCCCCNC(=O)c2ccc(-c3c4nc(c(-c5ccccc5)c5ccc([nH]5)c(-c5ccccc5)c5nc(c(-c6ccccc6)c6ccc3[nH]6)C=C5)C=C4)cc2)c(O)oc2cc(=O)cc(O)c1-2
REMARK SMILES IDX 10 1 9 2 8 3 7 4 5 5 6 6 4 8 3 9 1 10 2 11 75 12 65 13 68 14
REMARK SMILES IDX 73 15 67 16 69 17 72 18 70 19 71 20 66 21 74 23 11 25 12 26
REMARK SMILES IDX 13 27 14 28 15 29 16 31 17 32 18 33 64 34 19 35 63 36 20 37
REMARK SMILES IDX 21 38 22 39 57 40 23 41 62 42 56 43 58 44 24 45 61 46 55 47
REMARK SMILES IDX 54 48 25 50 47 51 32 52 46 53 33 54 36 55 45 56 59 57 34 58
REMARK SMILES IDX 35 59 44 61 60 62 37 63 26 64 27 65 31 66 28 67 30 68 29 69
REMARK SMILES IDX 48 70 49 71 53 72 50 73 52 74 51 75 38 76 39 77 43 78 40 79
REMARK SMILES IDX 42 80 41 81
REMARK H PARENT 7 7 66 22 74 24 14 30 58 49 36 60
REMARK Flexibility Score: inf
ROOT
ATOM      1  C   UNL     1       4.367   2.144   3.481  1.00  0.00     0.002 C 
ENDROOT
BRANCH   1   2
ATOM      2  C   UNL     1       3.326   2.830   2.585  1.00  0.00     0.021 C 
BRANCH   2   3
ATOM      3  C   UNL     1       3.866   3.268   1.223  1.00  0.00     0.116 C 
BRANCH   3   4
ATOM      4  N   UNL     1       4.208   2.133   0.394  1.00  0.00    -0.356 N 
ATOM      5  C   UNL     1       3.552   1.590  -0.665  1.00  0.00     0.224 C 
ATOM      6  O   UNL     1       4.075   0.621  -1.224  1.00  0.00    -0.275 OA
ATOM      7  H   UNL     1       5.049   1.682   0.635  1.00  0.00     0.163 HD
BRANCH   5   8
ATOM      8  C   UNL     1       2.262   2.199  -1.221  1.00  0.00     0.143 C 
BRANCH   8   9
ATOM      9  C   UNL     1       1.082   2.396  -0.277  1.00  0.00     0.046 A 
ATOM     10  C   UNL     1       0.930  -0.137  -0.122  1.00  0.00     0.046 C 
ATOM     11  C   UNL     1       0.381   1.210   0.306  1.00  0.00    -0.026 A 
ATOM     12  C   UNL     1      -0.678   1.389   1.151  1.00  0.00     0.063 A 
ATOM     13  C   UNL     1       0.610   3.631   0.016  1.00  0.00     0.286 A 
ATOM     14  C   UNL     1      -1.048   2.771   1.519  1.00  0.00     0.146 A 
ATOM     15  C   UNL     1      -1.514   0.317   1.744  1.00  0.00     0.130 A 
ATOM     16  O   UNL     1      -0.419   3.832   0.905  1.00  0.00    -0.425 OA
ATOM     17  C   UNL     1      -1.979   3.043   2.441  1.00  0.00     0.100 A 
ATOM     18  C   UNL     1      -2.436   0.580   2.680  1.00  0.00     0.099 A 
ATOM     19  C   UNL     1      -2.697   1.961   3.127  1.00  0.00     0.186 A 
ATOM     20  O   UNL     1      -3.509   2.195   4.013  1.00  0.00    -0.290 OA
BRANCH  13  21
ATOM     21  O   UNL     1       1.131   4.797  -0.505  1.00  0.00    -0.480 OA
ATOM     22  H   UNL     1       1.837   4.761  -1.121  1.00  0.00     0.297 HD
ENDBRANCH  13  21
BRANCH  15  23
ATOM     23  O   UNL     1      -1.370  -0.965   1.262  1.00  0.00    -0.507 OA
ATOM     24  H   UNL     1      -1.885  -1.660   1.620  1.00  0.00     0.293 HD
ENDBRANCH  15  23
ENDBRANCH   8   9
ENDBRANCH   5   8
ENDBRANCH   3   4
ENDBRANCH   2   3
ENDBRANCH   1   2
BRANCH   1  25
ATOM     25  C   UNL     1       5.645   2.951   3.738  1.00  0.00     0.002 C 
BRANCH  25  26
ATOM     26  C   UNL     1       5.424   4.365   4.279  1.00  0.00     0.021 C 
BRANCH  26  27
ATOM     27  C   UNL     1       4.692   4.423   5.615  1.00  0.00     0.116 C 
BRANCH  27  28
ATOM     28  N   UNL     1       5.473   3.837   6.694  1.00  0.00    -0.352 N 
ATOM     29  C   UNL     1       5.866   4.400   7.883  1.00  0.00     0.251 C 
ATOM     30  H   UNL     1       5.761   2.907   6.551  1.00  0.00     0.163 HD
ATOM     31  O   UNL     1       6.682   3.833   8.603  1.00  0.00    -0.269 OA
BRANCH  29  32
ATOM     32  C   UNL     1       5.318   5.713   8.282  1.00  0.00     0.039 A 
ATOM     33  C   UNL     1       6.194   6.705   8.727  1.00  0.00     0.014 A 
ATOM     34  C   UNL     1       3.945   5.965   8.203  1.00  0.00     0.014 A 
ATOM     35  C   UNL     1       5.700   7.975   9.029  1.00  0.00     0.010 A 
ATOM     36  C   UNL     1       3.464   7.250   8.438  1.00  0.00     0.010 A 
ATOM     37  C   UNL     1       4.337   8.267   8.852  1.00  0.00    -0.014 A 
BRANCH  37  38
ATOM     38  C   UNL     1       3.812   9.634   9.092  1.00  0.00     0.031 A 
ATOM     39  C   UNL     1       2.844   9.886  10.214  1.00  0.00     0.074 A 
ATOM     40  C   UNL     1       4.183  10.643   8.278  1.00  0.00     0.049 A 
ATOM     41  N   UNL     1       2.266  11.006  10.565  1.00  0.00    -0.248 NA
ATOM     42  C   UNL     1       2.464   8.729  11.041  1.00  0.00     0.031 C 
ATOM     43  C   UNL     1       5.098  10.521   7.141  1.00  0.00     0.029 A 
ATOM     44  N   UNL     1       3.842  11.972   8.289  1.00  0.00    -0.354 N 
ATOM     45  C   UNL     1       1.458  10.689  11.650  1.00  0.00     0.074 A 
ATOM     46  C   UNL     1       1.575   9.264  11.866  1.00  0.00     0.031 C 
ATOM     47  C   UNL     1       5.278  11.733   6.591  1.00  0.00     0.029 A 
ATOM     48  C   UNL     1       4.463  12.708   7.308  1.00  0.00     0.049 A 
ATOM     49  H   UNL     1       3.211  12.362   8.937  1.00  0.00     0.167 HD
ATOM     50  C   UNL     1       0.709  11.515  12.416  1.00  0.00     0.031 A 
ATOM     51  C   UNL     1       4.388  14.022   7.022  1.00  0.00     0.031 A 
ATOM     52  C   UNL     1       0.596  12.933  12.207  1.00  0.00     0.049 A 
ATOM     53  C   UNL     1       3.510  14.908   7.861  1.00  0.00     0.074 A 
ATOM     54  C   UNL     1      -0.121  13.856  12.948  1.00  0.00     0.029 A 
ATOM     55  N   UNL     1       1.219  13.632  11.186  1.00  0.00    -0.354 N 
ATOM     56  N   UNL     1       2.788  14.599   8.910  1.00  0.00    -0.248 NA
ATOM     57  C   UNL     1       3.442  16.327   7.481  1.00  0.00     0.031 C 
ATOM     58  C   UNL     1       0.034  15.109  12.349  1.00  0.00     0.029 A 
ATOM     59  C   UNL     1       0.890  14.974  11.268  1.00  0.00     0.049 A 
ATOM     60  H   UNL     1       1.808  13.234  10.505  1.00  0.00     0.167 HD
ATOM     61  C   UNL     1       2.206  15.786   9.333  1.00  0.00     0.074 A 
ATOM     62  C   UNL     1       2.666  16.825   8.435  1.00  0.00     0.031 C 
ATOM     63  C   UNL     1       1.365  15.996  10.374  1.00  0.00     0.031 A 
BRANCH  50  64
ATOM     64  C   UNL     1      -0.039  10.911  13.570  1.00  0.00    -0.014 A 
ATOM     65  C   UNL     1       0.642  10.480  14.719  1.00  0.00     0.009 A 
ATOM     66  C   UNL     1      -1.440  10.844  13.544  1.00  0.00     0.009 A 
ATOM     67  C   UNL     1      -0.064   9.976  15.812  1.00  0.00     0.001 A 
ATOM     68  C   UNL     1      -2.146  10.364  14.649  1.00  0.00     0.001 A 
ATOM     69  C   UNL     1      -1.457   9.927  15.780  1.00  0.00     0.000 A 
ENDBRANCH  50  64
BRANCH  51  70
ATOM     70  C   UNL     1       5.192  14.590   5.908  1.00  0.00    -0.014 A 
ATOM     71  C   UNL     1       6.277  15.439   6.180  1.00  0.00     0.009 A 
ATOM     72  C   UNL     1       4.883  14.293   4.572  1.00  0.00     0.009 A 
ATOM     73  C   UNL     1       7.020  15.996   5.137  1.00  0.00     0.001 A 
ATOM     74  C   UNL     1       5.646  14.829   3.531  1.00  0.00     0.001 A 
ATOM     75  C   UNL     1       6.708  15.687   3.814  1.00  0.00     0.000 A 
ENDBRANCH  51  70
BRANCH  63  76
ATOM     76  C   UNL     1       0.908  17.404  10.630  1.00  0.00    -0.014 A 
ATOM     77  C   UNL     1      -0.048  18.017   9.807  1.00  0.00     0.009 A 
ATOM     78  C   UNL     1       1.376  18.089  11.762  1.00  0.00     0.009 A 
ATOM     79  C   UNL     1      -0.515  19.298  10.106  1.00  0.00     0.001 A 
ATOM     80  C   UNL     1       0.887  19.358  12.073  1.00  0.00     0.001 A 
ATOM     81  C   UNL     1      -0.054  19.963  11.242  1.00  0.00     0.000 A 
ENDBRANCH  63  76
ENDBRANCH  37  38
ENDBRANCH  29  32
ENDBRANCH  27  28
ENDBRANCH  26  27
ENDBRANCH  25  26
ENDBRANCH   1  25
TORSDOF 16
