REMARK SMILES O=C(NCCCCCCNC(=O)[C@@H](Cc1ccc(O)cc1)Nc1c2ccccc2nc2ccccc12)c1ccc(-c2c3nc(c(-c4ccccc4)c4ccc([nH]4)c(-c4ccccc4)c4nc(c(-c5ccccc5)c5ccc2[nH]5)C=C4)C=C3)cc1
REMARK SMILES IDX 7 1 6 2 5 3 4 4 3 5 1 6 2 7 37 9 38 10 84 11 39 12 83 13
REMARK SMILES IDX 40 14 41 15 42 16 77 17 43 18 82 19 76 20 78 21 44 22 81 23
REMARK SMILES IDX 75 24 74 25 45 27 67 28 52 29 66 30 53 31 56 32 65 33 79 34
REMARK SMILES IDX 54 35 55 36 64 38 80 39 57 40 46 41 47 42 51 43 48 44 50 45
REMARK SMILES IDX 49 46 68 47 69 48 73 49 70 50 72 51 71 52 58 53 59 54 63 55
REMARK SMILES IDX 60 56 62 57 61 58 8 59 9 60 10 61 11 62 12 64 13 65 14 66
REMARK SMILES IDX 15 67 16 68 21 69 17 70 20 71 18 72 19 73 22 75 23 77 24 78
REMARK SMILES IDX 36 79 25 80 29 81 31 82 35 83 26 84 28 85 30 86 32 87 34 88
REMARK SMILES IDX 27 89 33 90
REMARK H PARENT 3 8 78 26 56 37 10 63 19 74 22 76
REMARK Flexibility Score: inf
ROOT
ATOM      1  C   UNL     1       4.047  -1.329  -4.372  1.00  0.00     0.002 C 
ENDROOT
BRANCH   1   2
ATOM      2  C   UNL     1       3.537  -2.208  -3.223  1.00  0.00     0.002 C 
BRANCH   2   3
ATOM      3  C   UNL     1       4.225  -1.991  -1.872  1.00  0.00     0.021 C 
BRANCH   3   4
ATOM      4  C   UNL     1       4.140  -0.566  -1.337  1.00  0.00     0.116 C 
BRANCH   4   5
ATOM      5  N   UNL     1       2.763  -0.156  -1.106  1.00  0.00    -0.352 N 
ATOM      6  O   UNL     1       0.899   0.240   0.098  1.00  0.00    -0.269 OA
ATOM      7  C   UNL     1       2.121   0.142   0.070  1.00  0.00     0.251 C 
ATOM      8  H   UNL     1       2.208  -0.081  -1.915  1.00  0.00     0.163 HD
BRANCH   7   9
ATOM      9  C   UNL     1       2.903   0.345   1.308  1.00  0.00     0.039 A 
ATOM     10  C   UNL     1       4.079   1.097   1.289  1.00  0.00     0.014 A 
ATOM     11  C   UNL     1       2.428  -0.184   2.512  1.00  0.00     0.014 A 
ATOM     12  C   UNL     1       4.847   1.210   2.441  1.00  0.00     0.010 A 
ATOM     13  C   UNL     1       3.156   0.007   3.689  1.00  0.00     0.010 A 
ATOM     14  C   UNL     1       4.383   0.688   3.659  1.00  0.00    -0.014 A 
BRANCH  14  15
ATOM     15  C   UNL     1       5.161   0.938   4.899  1.00  0.00     0.031 A 
ATOM     16  C   UNL     1       5.781  -0.191   5.674  1.00  0.00     0.074 A 
ATOM     17  C   UNL     1       5.320   2.210   5.315  1.00  0.00     0.049 A 
ATOM     18  N   UNL     1       6.507  -0.137   6.763  1.00  0.00    -0.248 NA
ATOM     19  C   UNL     1       5.552  -1.554   5.171  1.00  0.00     0.031 C 
ATOM     20  C   UNL     1       4.760   3.391   4.651  1.00  0.00     0.029 A 
ATOM     21  N   UNL     1       6.012   2.726   6.380  1.00  0.00    -0.354 N 
ATOM     22  C   UNL     1       6.809  -1.454   7.084  1.00  0.00     0.074 A 
ATOM     23  C   UNL     1       6.161  -2.287   6.093  1.00  0.00     0.031 C 
ATOM     24  C   UNL     1       5.172   4.493   5.293  1.00  0.00     0.029 A 
ATOM     25  C   UNL     1       5.964   4.097   6.451  1.00  0.00     0.049 A 
ATOM     26  H   UNL     1       6.497   2.168   7.030  1.00  0.00     0.167 HD
ATOM     27  C   UNL     1       7.563  -1.925   8.107  1.00  0.00     0.031 A 
ATOM     28  C   UNL     1       6.483   4.945   7.356  1.00  0.00     0.031 A 
ATOM     29  C   UNL     1       8.198  -1.093   9.098  1.00  0.00     0.049 A 
ATOM     30  C   UNL     1       7.270   4.391   8.507  1.00  0.00     0.074 A 
ATOM     31  C   UNL     1       9.007  -1.476  10.155  1.00  0.00     0.029 A 
ATOM     32  N   UNL     1       8.089   0.288   9.160  1.00  0.00    -0.354 N 
ATOM     33  N   UNL     1       7.583   3.146   8.771  1.00  0.00    -0.248 NA
ATOM     34  C   UNL     1       7.779   5.362   9.484  1.00  0.00     0.031 C 
ATOM     35  C   UNL     1       9.334  -0.334  10.893  1.00  0.00     0.029 A 
ATOM     36  C   UNL     1       8.790   0.769  10.255  1.00  0.00     0.049 A 
ATOM     37  H   UNL     1       7.589   0.844   8.521  1.00  0.00     0.167 HD
ATOM     38  C   UNL     1       8.346   3.186   9.929  1.00  0.00     0.074 A 
ATOM     39  C   UNL     1       8.467   4.580  10.303  1.00  0.00     0.031 C 
ATOM     40  C   UNL     1       8.898   2.159  10.620  1.00  0.00     0.031 A 
BRANCH  27  41
ATOM     41  C   UNL     1       7.718  -3.418   8.229  1.00  0.00    -0.014 A 
ATOM     42  C   UNL     1       8.478  -4.154   7.306  1.00  0.00     0.009 A 
ATOM     43  C   UNL     1       7.133  -4.093   9.313  1.00  0.00     0.009 A 
ATOM     44  C   UNL     1       8.618  -5.537   7.446  1.00  0.00     0.001 A 
ATOM     45  C   UNL     1       7.300  -5.470   9.468  1.00  0.00     0.001 A 
ATOM     46  C   UNL     1       8.034  -6.193   8.529  1.00  0.00     0.000 A 
ENDBRANCH  27  41
BRANCH  28  47
ATOM     47  C   UNL     1       6.260   6.408   7.215  1.00  0.00    -0.014 A 
ATOM     48  C   UNL     1       7.327   7.270   6.921  1.00  0.00     0.009 A 
ATOM     49  C   UNL     1       4.974   6.950   7.375  1.00  0.00     0.009 A 
ATOM     50  C   UNL     1       7.115   8.646   6.817  1.00  0.00     0.001 A 
ATOM     51  C   UNL     1       4.760   8.322   7.236  1.00  0.00     0.001 A 
ATOM     52  C   UNL     1       5.832   9.170   6.969  1.00  0.00     0.000 A 
ENDBRANCH  28  47
BRANCH  40  53
ATOM     53  C   UNL     1       9.717   2.513  11.831  1.00  0.00    -0.014 A 
ATOM     54  C   UNL     1       9.121   3.009  13.001  1.00  0.00     0.009 A 
ATOM     55  C   UNL     1      11.108   2.327  11.804  1.00  0.00     0.009 A 
ATOM     56  C   UNL     1       9.907   3.351  14.103  1.00  0.00     0.001 A 
ATOM     57  C   UNL     1      11.887   2.637  12.919  1.00  0.00     0.001 A 
ATOM     58  C   UNL     1      11.287   3.160  14.063  1.00  0.00     0.000 A 
ENDBRANCH  40  53
ENDBRANCH  14  15
ENDBRANCH   7   9
ENDBRANCH   4   5
ENDBRANCH   3   4
ENDBRANCH   2   3
ENDBRANCH   1   2
BRANCH   1  59
ATOM     59  C   UNL     1       5.563  -1.358  -4.573  1.00  0.00     0.021 C 
BRANCH  59  60
ATOM     60  C   UNL     1       6.124  -2.735  -4.931  1.00  0.00     0.116 C 
BRANCH  60  61
ATOM     61  N   UNL     1       6.337  -2.852  -6.353  1.00  0.00    -0.354 N 
ATOM     62  C   UNL     1       7.463  -2.789  -7.110  1.00  0.00     0.242 C 
ATOM     63  H   UNL     1       5.514  -3.007  -6.871  1.00  0.00     0.163 HD
ATOM     64  O   UNL     1       7.280  -2.803  -8.335  1.00  0.00    -0.273 OA
BRANCH  62  65
ATOM     65  C   UNL     1       8.910  -2.715  -6.544  1.00  0.00     0.173 C 
BRANCH  65  66
ATOM     66  C   UNL     1       9.291  -1.365  -5.876  1.00  0.00     0.070 C 
BRANCH  66  67
ATOM     67  C   UNL     1       8.950  -0.990  -4.446  1.00  0.00    -0.045 A 
ATOM     68  C   UNL     1       8.577   0.341  -4.175  1.00  0.00     0.007 A 
ATOM     69  C   UNL     1       9.074  -1.867  -3.361  1.00  0.00     0.007 A 
ATOM     70  C   UNL     1       8.200   0.741  -2.889  1.00  0.00     0.046 A 
ATOM     71  C   UNL     1       8.658  -1.483  -2.080  1.00  0.00     0.046 A 
ATOM     72  C   UNL     1       8.198  -0.192  -1.861  1.00  0.00     0.115 A 
BRANCH  72  73
ATOM     73  O   UNL     1       7.732   0.123  -0.620  1.00  0.00    -0.508 OA
ATOM     74  H   UNL     1       7.416   0.987  -0.443  1.00  0.00     0.293 HD
ENDBRANCH  72  73
ENDBRANCH  66  67
ENDBRANCH  65  66
BRANCH  65  75
ATOM     75  N   UNL     1       9.262  -3.908  -5.765  1.00  0.00    -0.372 N 
ATOM     76  H   UNL     1       8.737  -4.048  -4.944  1.00  0.00     0.161 HD
BRANCH  75  77
ATOM     77  C   UNL     1      10.245  -4.878  -6.027  1.00  0.00     0.054 A 
ATOM     78  C   UNL     1      11.502  -4.618  -6.688  1.00  0.00     0.024 A 
ATOM     79  C   UNL     1       9.967  -6.229  -5.601  1.00  0.00     0.024 A 
ATOM     80  C   UNL     1      11.988  -3.375  -7.184  1.00  0.00     0.012 A 
ATOM     81  C   UNL     1      12.386  -5.711  -6.839  1.00  0.00     0.073 A 
ATOM     82  C   UNL     1      10.967  -7.200  -5.806  1.00  0.00     0.073 A 
ATOM     83  C   UNL     1       8.755  -6.678  -4.999  1.00  0.00     0.012 A 
ATOM     84  C   UNL     1      13.222  -3.228  -7.824  1.00  0.00     0.001 A 
ATOM     85  C   UNL     1      13.616  -5.550  -7.465  1.00  0.00     0.029 A 
ATOM     86  N   UNL     1      12.129  -6.942  -6.401  1.00  0.00    -0.248 NA
ATOM     87  C   UNL     1      10.770  -8.509  -5.390  1.00  0.00     0.029 A 
ATOM     88  C   UNL     1       8.570  -8.004  -4.596  1.00  0.00     0.001 A 
ATOM     89  C   UNL     1      14.043  -4.326  -7.968  1.00  0.00     0.002 A 
ATOM     90  C   UNL     1       9.587  -8.923  -4.783  1.00  0.00     0.002 A 
ENDBRANCH  75  77
ENDBRANCH  65  75
ENDBRANCH  62  65
ENDBRANCH  60  61
ENDBRANCH  59  60
ENDBRANCH   1  59
TORSDOF 18
