REMARK SMILES CC(=O)NS(=O)(=O)c1cc(-c2ccn(C(F)F)c(=O)c2)ccc1C(=O)NCCCCCCNC(=O)c1ccc(-c2c3nc(c(-c4ccccc4)c4ccc([nH]4)c(-c4ccccc4)c4nc(c(-c5ccccc5)c5ccc2[nH]5)C=C4)C=C3)cc1
REMARK SMILES IDX 29 1 28 2 27 3 26 4 24 5 25 6 23 8 8 9 9 10 10 11 22 12
REMARK SMILES IDX 21 13 5 14 6 15 7 16 4 17 1 18 2 19 3 20 11 22 12 23 20 24
REMARK SMILES IDX 13 25 18 26 14 27 19 28 15 29 16 30 17 31 30 32 31 33 32 34
REMARK SMILES IDX 33 35 34 36 35 38 36 39 37 40 83 41 38 42 82 43 39 44 40 45
REMARK SMILES IDX 41 46 76 47 42 48 81 49 75 50 77 51 43 52 80 53 74 54 73 55
REMARK SMILES IDX 44 57 66 58 51 59 65 60 52 61 55 62 64 63 78 64 53 65 54 66
REMARK SMILES IDX 63 68 79 69 56 70 45 71 46 72 50 73 47 74 49 75 48 76 67 77
REMARK SMILES IDX 68 78 72 79 69 80 71 81 70 82 57 83 58 84 62 85 59 86 61 87
REMARK SMILES IDX 60 88
REMARK H PARENT 26 7 4 21 33 37 77 56 55 67
REMARK Flexibility Score: inf
ROOT
ATOM      1  C   UNL     1       4.354   4.601   3.117  1.00  0.00     0.002 C 
ENDROOT
BRANCH   1   2
ATOM      2  C   UNL     1       4.267   3.077   3.227  1.00  0.00     0.021 C 
BRANCH   2   3
ATOM      3  C   UNL     1       3.484   2.427   2.100  1.00  0.00     0.116 C 
BRANCH   3   4
ATOM      4  N   UNL     1       4.233   1.468   1.338  1.00  0.00    -0.352 N 
ATOM      5  C   UNL     1       3.904   0.312   0.692  1.00  0.00     0.252 C 
ATOM      6  O   UNL     1       4.485   0.201  -0.398  1.00  0.00    -0.269 OA
ATOM      7  H   UNL     1       5.189   1.694   1.265  1.00  0.00     0.163 HD
BRANCH   5   8
ATOM      8  C   UNL     1       3.135  -0.891   1.188  1.00  0.00     0.060 A 
ATOM      9  C   UNL     1       2.083  -1.114   2.088  1.00  0.00     0.101 A 
ATOM     10  C   UNL     1       1.676  -2.451   2.384  1.00  0.00     0.031 A 
ATOM     11  C   UNL     1       2.198  -3.575   1.746  1.00  0.00    -0.017 A 
ATOM     12  C   UNL     1       3.639  -2.072   0.550  1.00  0.00     0.016 A 
ATOM     13  C   UNL     1       3.179  -3.373   0.797  1.00  0.00     0.009 A 
BRANCH   9  14
ATOM     14  S   UNL     1       0.991   0.049   2.860  1.00  0.00     0.264 S 
ATOM     15  O   UNL     1       1.687   0.593   3.991  1.00  0.00    -0.201 OA
ATOM     16  O   UNL     1      -0.292  -0.614   3.057  1.00  0.00    -0.201 OA
BRANCH  14  17
ATOM     17  N   UNL     1       0.663   1.272   1.801  1.00  0.00    -0.249 N 
ATOM     18  C   UNL     1       0.054   0.013  -0.263  1.00  0.00     0.115 C 
ATOM     19  C   UNL     1      -0.013   1.253   0.576  1.00  0.00     0.230 C 
ATOM     20  O   UNL     1      -0.516   2.285   0.180  1.00  0.00    -0.274 OA
ATOM     21  H   UNL     1       0.996   2.157   2.076  1.00  0.00     0.183 HD
ENDBRANCH  14  17
ENDBRANCH   9  14
BRANCH  11  22
ATOM     22  C   UNL     1       1.735  -4.925   2.112  1.00  0.00    -0.011 A 
ATOM     23  C   UNL     1       2.628  -5.922   2.671  1.00  0.00     0.027 A 
ATOM     24  C   UNL     1       0.429  -5.222   1.981  1.00  0.00     0.080 A 
ATOM     25  C   UNL     1       2.153  -7.097   3.101  1.00  0.00     0.095 A 
ATOM     26  C   UNL     1      -0.112  -6.532   2.439  1.00  0.00     0.255 A 
ATOM     27  N   UNL     1       0.808  -7.400   3.005  1.00  0.00    -0.258 N 
ATOM     28  O   UNL     1      -1.312  -6.747   2.307  1.00  0.00    -0.269 OA
BRANCH  27  29
ATOM     29  C   UNL     1       0.302  -8.650   3.510  1.00  0.00     0.451 C 
ATOM     30  F   UNL     1      -0.623  -8.443   4.479  1.00  0.00    -0.185 F 
ATOM     31  F   UNL     1      -0.276  -9.378   2.524  1.00  0.00    -0.185 F 
ENDBRANCH  27  29
ENDBRANCH  11  22
ENDBRANCH   5   8
ENDBRANCH   3   4
ENDBRANCH   2   3
ENDBRANCH   1   2
BRANCH   1  32
ATOM     32  C   UNL     1       3.029   5.351   2.923  1.00  0.00     0.002 C 
BRANCH  32  33
ATOM     33  C   UNL     1       1.930   5.061   3.947  1.00  0.00     0.021 C 
BRANCH  33  34
ATOM     34  C   UNL     1       2.330   5.263   5.405  1.00  0.00     0.116 C 
BRANCH  34  35
ATOM     35  N   UNL     1       2.906   6.577   5.641  1.00  0.00    -0.352 N 
ATOM     36  C   UNL     1       2.530   7.571   6.504  1.00  0.00     0.251 C 
ATOM     37  H   UNL     1       3.695   6.786   5.091  1.00  0.00     0.163 HD
ATOM     38  O   UNL     1       3.041   8.684   6.412  1.00  0.00    -0.269 OA
BRANCH  36  39
ATOM     39  C   UNL     1       1.509   7.320   7.542  1.00  0.00     0.039 A 
ATOM     40  C   UNL     1       0.554   8.309   7.794  1.00  0.00     0.014 A 
ATOM     41  C   UNL     1       1.522   6.146   8.301  1.00  0.00     0.014 A 
ATOM     42  C   UNL     1      -0.414   8.104   8.778  1.00  0.00     0.010 A 
ATOM     43  C   UNL     1       0.517   5.915   9.237  1.00  0.00     0.010 A 
ATOM     44  C   UNL     1      -0.452   6.897   9.492  1.00  0.00    -0.014 A 
BRANCH  44  45
ATOM     45  C   UNL     1      -1.487   6.652  10.524  1.00  0.00     0.031 A 
ATOM     46  C   UNL     1      -1.096   6.525  11.970  1.00  0.00     0.074 A 
ATOM     47  C   UNL     1      -2.771   6.489  10.153  1.00  0.00     0.049 A 
ATOM     48  N   UNL     1      -1.848   6.261  13.008  1.00  0.00    -0.248 NA
ATOM     49  C   UNL     1       0.331   6.695  12.289  1.00  0.00     0.031 C 
ATOM     50  C   UNL     1      -3.271   6.553   8.778  1.00  0.00     0.029 A 
ATOM     51  N   UNL     1      -3.889   6.229  10.903  1.00  0.00    -0.354 N 
ATOM     52  C   UNL     1      -0.986   6.213  14.096  1.00  0.00     0.074 A 
ATOM     53  C   UNL     1       0.350   6.434  13.587  1.00  0.00     0.031 C 
ATOM     54  C   UNL     1      -4.600   6.361   8.785  1.00  0.00     0.029 A 
ATOM     55  C   UNL     1      -5.038   6.127  10.157  1.00  0.00     0.049 A 
ATOM     56  H   UNL     1      -3.870   6.126  11.882  1.00  0.00     0.167 HD
ATOM     57  C   UNL     1      -1.281   6.019  15.403  1.00  0.00     0.031 A 
ATOM     58  C   UNL     1      -6.303   5.871  10.537  1.00  0.00     0.031 A 
ATOM     59  C   UNL     1      -2.610   5.815  15.911  1.00  0.00     0.049 A 
ATOM     60  C   UNL     1      -6.605   5.661  11.994  1.00  0.00     0.074 A 
ATOM     61  C   UNL     1      -3.019   5.665  17.225  1.00  0.00     0.029 A 
ATOM     62  N   UNL     1      -3.749   5.732  15.125  1.00  0.00    -0.354 N 
ATOM     63  N   UNL     1      -5.786   5.680  13.018  1.00  0.00    -0.248 NA
ATOM     64  C   UNL     1      -8.008   5.406  12.347  1.00  0.00     0.031 C 
ATOM     65  C   UNL     1      -4.402   5.452  17.230  1.00  0.00     0.029 A 
ATOM     66  C   UNL     1      -4.859   5.516  15.924  1.00  0.00     0.049 A 
ATOM     67  H   UNL     1      -3.766   5.816  14.144  1.00  0.00     0.167 HD
ATOM     68  C   UNL     1      -6.578   5.465  14.138  1.00  0.00     0.074 A 
ATOM     69  C   UNL     1      -7.942   5.333  13.669  1.00  0.00     0.031 C 
ATOM     70  C   UNL     1      -6.208   5.386  15.439  1.00  0.00     0.031 A 
BRANCH  57  71
ATOM     71  C   UNL     1      -0.134   6.012  16.375  1.00  0.00    -0.014 A 
ATOM     72  C   UNL     1       0.551   7.195  16.698  1.00  0.00     0.009 A 
ATOM     73  C   UNL     1       0.248   4.814  16.997  1.00  0.00     0.009 A 
ATOM     74  C   UNL     1       1.619   7.170  17.597  1.00  0.00     0.001 A 
ATOM     75  C   UNL     1       1.300   4.797  17.915  1.00  0.00     0.001 A 
ATOM     76  C   UNL     1       1.990   5.972  18.207  1.00  0.00     0.000 A 
ENDBRANCH  57  71
BRANCH  58  77
ATOM     77  C   UNL     1      -7.386   5.821   9.523  1.00  0.00    -0.014 A 
ATOM     78  C   UNL     1      -8.330   6.856   9.442  1.00  0.00     0.009 A 
ATOM     79  C   UNL     1      -7.482   4.742   8.631  1.00  0.00     0.009 A 
ATOM     80  C   UNL     1      -9.363   6.799   8.503  1.00  0.00     0.001 A 
ATOM     81  C   UNL     1      -8.500   4.700   7.677  1.00  0.00     0.001 A 
ATOM     82  C   UNL     1      -9.444   5.724   7.619  1.00  0.00     0.000 A 
ENDBRANCH  58  77
BRANCH  70  83
ATOM     83  C   UNL     1      -7.300   5.178  16.448  1.00  0.00    -0.014 A 
ATOM     84  C   UNL     1      -7.929   3.932  16.593  1.00  0.00     0.009 A 
ATOM     85  C   UNL     1      -7.678   6.236  17.290  1.00  0.00     0.009 A 
ATOM     86  C   UNL     1      -8.939   3.759  17.541  1.00  0.00     0.001 A 
ATOM     87  C   UNL     1      -8.669   6.053  18.254  1.00  0.00     0.001 A 
ATOM     88  C   UNL     1      -9.305   4.817  18.373  1.00  0.00     0.000 A 
ENDBRANCH  70  83
ENDBRANCH  44  45
ENDBRANCH  36  39
ENDBRANCH  34  35
ENDBRANCH  33  34
ENDBRANCH  32  33
ENDBRANCH   1  32
TORSDOF 17
