REMARK SMILES CC[C@](C)(NC(=O)[C@](C)([NH3+])c1ccccc1)C(=O)NCCCCCCNC(=O)c1ccc(-c2c3nc(c(-c4ccccc4)c4ccc([nH]4)c(-c4ccccc4)c4nc(c(-c5ccccc5)c5ccc2[nH]5)C=C4)C=C3)cc1
REMARK SMILES IDX 22 1 21 2 20 3 19 4 17 5 18 6 3 8 4 9 2 10 1 11 5 12 6 13
REMARK SMILES IDX 7 15 8 16 9 17 10 18 11 22 12 23 16 24 13 25 15 26 14 27
REMARK SMILES IDX 23 28 24 29 25 30 26 31 27 32 28 34 29 35 30 36 76 37 31 38
REMARK SMILES IDX 75 39 32 40 33 41 34 42 69 43 35 44 74 45 68 46 70 47 36 48
REMARK SMILES IDX 73 49 67 50 66 51 37 53 59 54 44 55 58 56 45 57 48 58 57 59
REMARK SMILES IDX 71 60 46 61 47 62 56 64 72 65 49 66 38 67 39 68 43 69 40 70
REMARK SMILES IDX 42 71 41 72 60 73 61 74 65 75 62 76 64 77 63 78 50 79 51 80
REMARK SMILES IDX 55 81 52 82 54 83 53 84
REMARK H PARENT 19 7 5 14 10 19 10 20 10 21 26 33 70 52 48 63
REMARK Flexibility Score: inf
ROOT
ATOM      1  C   UNL     1       5.706  -3.625   3.293  1.00  0.00     0.002 C 
ENDROOT
BRANCH   1   2
ATOM      2  C   UNL     1       5.671  -3.268   1.810  1.00  0.00     0.021 C 
BRANCH   2   3
ATOM      3  C   UNL     1       6.260  -4.209   0.755  1.00  0.00     0.116 C 
BRANCH   3   4
ATOM      4  N   UNL     1       5.800  -5.586   0.680  1.00  0.00    -0.354 N 
ATOM      5  C   UNL     1       5.122  -6.277  -0.299  1.00  0.00     0.245 C 
ATOM      6  O   UNL     1       5.361  -7.486  -0.391  1.00  0.00    -0.272 OA
ATOM      7  H   UNL     1       6.013  -6.125   1.476  1.00  0.00     0.163 HD
BRANCH   5   8
ATOM      8  C   UNL     1       4.212  -5.571  -1.343  1.00  0.00     0.116 C 
ATOM      9  C   UNL     1       3.098  -6.489  -1.887  1.00  0.00     0.045 C 
BRANCH   8  10
ATOM     10  C   UNL     1       5.055  -5.275  -2.636  1.00  0.00     0.035 C 
ATOM     11  C   UNL     1       6.273  -4.372  -2.566  1.00  0.00     0.007 C 
ENDBRANCH   8  10
BRANCH   8  12
ATOM     12  N   UNL     1       3.596  -4.365  -0.779  1.00  0.00    -0.336 N 
ATOM     13  C   UNL     1       2.696  -4.115   0.201  1.00  0.00     0.286 C 
ATOM     14  H   UNL     1       3.913  -3.542  -1.217  1.00  0.00     0.164 HD
ATOM     15  O   UNL     1       2.411  -2.899   0.267  1.00  0.00    -0.267 OA
BRANCH  13  16
ATOM     16  C   UNL     1       1.958  -5.088   1.232  1.00  0.00     0.196 C 
ATOM     17  C   UNL     1       0.502  -5.200   0.728  1.00  0.00     0.096 C 
BRANCH  16  18
ATOM     18  N   UNL     1       1.820  -4.274   2.494  1.00  0.00    -0.341 N 
ATOM     19  H   UNL     1       1.354  -4.832   3.209  1.00  0.00     0.345 HD
ATOM     20  H   UNL     1       1.268  -3.438   2.300  1.00  0.00     0.345 HD
ATOM     21  H   UNL     1       2.745  -4.001   2.825  1.00  0.00     0.345 HD
ENDBRANCH  16  18
BRANCH  16  22
ATOM     22  C   UNL     1       2.551  -6.463   1.606  1.00  0.00     0.022 A 
ATOM     23  C   UNL     1       2.024  -7.680   1.135  1.00  0.00     0.011 A 
ATOM     24  C   UNL     1       3.589  -6.593   2.544  1.00  0.00     0.011 A 
ATOM     25  C   UNL     1       2.577  -8.921   1.486  1.00  0.00     0.001 A 
ATOM     26  C   UNL     1       4.147  -7.824   2.912  1.00  0.00     0.001 A 
ATOM     27  C   UNL     1       3.650  -8.993   2.363  1.00  0.00     0.000 A 
ENDBRANCH  16  22
ENDBRANCH  13  16
ENDBRANCH   8  12
ENDBRANCH   5   8
ENDBRANCH   3   4
ENDBRANCH   2   3
ENDBRANCH   1   2
BRANCH   1  28
ATOM     28  C   UNL     1       6.880  -4.459   3.788  1.00  0.00     0.002 C 
BRANCH  28  29
ATOM     29  C   UNL     1       8.209  -3.712   3.819  1.00  0.00     0.021 C 
BRANCH  29  30
ATOM     30  C   UNL     1       8.177  -2.400   4.590  1.00  0.00     0.116 C 
BRANCH  30  31
ATOM     31  N   UNL     1       7.725  -2.541   5.967  1.00  0.00    -0.352 N 
ATOM     32  C   UNL     1       8.068  -1.748   7.035  1.00  0.00     0.251 C 
ATOM     33  H   UNL     1       7.107  -3.285   6.153  1.00  0.00     0.163 HD
ATOM     34  O   UNL     1       7.700  -2.002   8.175  1.00  0.00    -0.269 OA
BRANCH  32  35
ATOM     35  C   UNL     1       8.934  -0.588   6.766  1.00  0.00     0.039 A 
ATOM     36  C   UNL     1      10.182  -0.517   7.386  1.00  0.00     0.014 A 
ATOM     37  C   UNL     1       8.547   0.354   5.809  1.00  0.00     0.014 A 
ATOM     38  C   UNL     1      11.073   0.483   7.003  1.00  0.00     0.010 A 
ATOM     39  C   UNL     1       9.464   1.301   5.377  1.00  0.00     0.010 A 
ATOM     40  C   UNL     1      10.730   1.381   5.977  1.00  0.00    -0.014 A 
BRANCH  40  41
ATOM     41  C   UNL     1      11.668   2.444   5.549  1.00  0.00     0.031 A 
ATOM     42  C   UNL     1      11.306   3.884   5.782  1.00  0.00     0.074 A 
ATOM     43  C   UNL     1      12.811   2.120   4.916  1.00  0.00     0.049 A 
ATOM     44  N   UNL     1      11.960   4.965   5.445  1.00  0.00    -0.248 NA
ATOM     45  C   UNL     1      10.022   4.143   6.457  1.00  0.00     0.031 C 
ATOM     46  C   UNL     1      13.249   0.761   4.588  1.00  0.00     0.029 A 
ATOM     47  N   UNL     1      13.816   2.918   4.431  1.00  0.00    -0.354 N 
ATOM     48  C   UNL     1      11.164   6.026   5.855  1.00  0.00     0.074 A 
ATOM     49  C   UNL     1       9.952   5.464   6.405  1.00  0.00     0.031 C 
ATOM     50  C   UNL     1      14.447   0.820   3.982  1.00  0.00     0.029 A 
ATOM     51  C   UNL     1      14.847   2.217   3.855  1.00  0.00     0.049 A 
ATOM     52  H   UNL     1      13.800   3.901   4.491  1.00  0.00     0.167 HD
ATOM     53  C   UNL     1      11.431   7.353   5.810  1.00  0.00     0.031 A 
ATOM     54  C   UNL     1      15.989   2.657   3.293  1.00  0.00     0.031 A 
ATOM     55  C   UNL     1      12.643   7.911   5.279  1.00  0.00     0.049 A 
ATOM     56  C   UNL     1      16.271   4.134   3.273  1.00  0.00     0.074 A 
ATOM     57  C   UNL     1      13.023   9.239   5.206  1.00  0.00     0.029 A 
ATOM     58  N   UNL     1      13.680   7.164   4.743  1.00  0.00    -0.354 N 
ATOM     59  N   UNL     1      15.529   5.123   3.710  1.00  0.00    -0.248 NA
ATOM     60  C   UNL     1      17.559   4.553   2.704  1.00  0.00     0.031 C 
ATOM     61  C   UNL     1      14.284   9.297   4.601  1.00  0.00     0.029 A 
ATOM     62  C   UNL     1      14.703   8.003   4.340  1.00  0.00     0.049 A 
ATOM     63  H   UNL     1      13.687   6.183   4.661  1.00  0.00     0.167 HD
ATOM     64  C   UNL     1      16.274   6.276   3.500  1.00  0.00     0.074 A 
ATOM     65  C   UNL     1      17.531   5.862   2.911  1.00  0.00     0.031 C 
ATOM     66  C   UNL     1      15.950   7.564   3.770  1.00  0.00     0.031 A 
BRANCH  53  67
ATOM     67  C   UNL     1      10.388   8.279   6.367  1.00  0.00    -0.014 A 
ATOM     68  C   UNL     1      10.144   8.340   7.749  1.00  0.00     0.009 A 
ATOM     69  C   UNL     1       9.649   9.107   5.510  1.00  0.00     0.009 A 
ATOM     70  C   UNL     1       9.154   9.182   8.257  1.00  0.00     0.001 A 
ATOM     71  C   UNL     1       8.680   9.971   6.024  1.00  0.00     0.001 A 
ATOM     72  C   UNL     1       8.426  10.000   7.394  1.00  0.00     0.000 A 
ENDBRANCH  53  67
BRANCH  54  73
ATOM     73  C   UNL     1      16.971   1.693   2.732  1.00  0.00    -0.014 A 
ATOM     74  C   UNL     1      18.199   1.470   3.375  1.00  0.00     0.009 A 
ATOM     75  C   UNL     1      16.698   1.009   1.538  1.00  0.00     0.009 A 
ATOM     76  C   UNL     1      19.148   0.614   2.813  1.00  0.00     0.001 A 
ATOM     77  C   UNL     1      17.637   0.131   0.993  1.00  0.00     0.001 A 
ATOM     78  C   UNL     1      18.866  -0.057   1.624  1.00  0.00     0.000 A 
ENDBRANCH  54  73
BRANCH  66  79
ATOM     79  C   UNL     1      16.990   8.606   3.479  1.00  0.00    -0.014 A 
ATOM     80  C   UNL     1      17.294   8.988   2.164  1.00  0.00     0.009 A 
ATOM     81  C   UNL     1      17.651   9.238   4.544  1.00  0.00     0.009 A 
ATOM     82  C   UNL     1      18.268   9.958   1.920  1.00  0.00     0.001 A 
ATOM     83  C   UNL     1      18.605  10.226   4.298  1.00  0.00     0.001 A 
ATOM     84  C   UNL     1      18.920  10.577   2.987  1.00  0.00     0.000 A 
ENDBRANCH  66  79
ENDBRANCH  40  41
ENDBRANCH  32  35
ENDBRANCH  30  31
ENDBRANCH  29  30
ENDBRANCH  28  29
ENDBRANCH   1  28
TORSDOF 18
