REMARK SMILES CC[C@@H]1SC[C@H](C(=O)NCCCCCCNC(=O)c2ccc(-c3c4nc(c(-c5ccccc5)c5ccc([nH]5)c(-c5ccccc5)c5nc(c(-c6ccccc6)c6ccc3[nH]6)C=C5)C=C4)cc2)N1C(=O)c1ccc(C)cc1F
REMARK SMILES IDX 12 1 11 2 10 3 9 4 7 5 8 6 6 8 3 9 4 10 67 11 5 12 2 13 1 14
REMARK SMILES IDX 68 15 69 16 70 17 71 18 76 19 72 20 75 21 77 22 73 23 74 24
REMARK SMILES IDX 13 25 14 26 15 27 16 28 17 29 18 31 19 32 20 33 66 34 21 35
REMARK SMILES IDX 65 36 22 37 23 38 24 39 59 40 25 41 64 42 58 43 60 44 26 45
REMARK SMILES IDX 63 46 57 47 56 48 27 50 49 51 34 52 48 53 35 54 38 55 47 56
REMARK SMILES IDX 61 57 36 58 37 59 46 61 62 62 39 63 28 64 29 65 33 66 30 67
REMARK SMILES IDX 32 68 31 69 50 70 51 71 55 72 52 73 54 74 53 75 40 76 41 77
REMARK SMILES IDX 45 78 42 79 44 80 43 81
REMARK H PARENT 9 7 16 30 60 49 38 60
REMARK Flexibility Score: inf
ROOT
ATOM      1  C   UNL     1       6.223   2.594   0.015  1.00  0.00     0.002 C 
ENDROOT
BRANCH   1   2
ATOM      2  C   UNL     1       4.727   2.314  -0.176  1.00  0.00     0.021 C 
BRANCH   2   3
ATOM      3  C   UNL     1       4.414   1.435  -1.385  1.00  0.00     0.116 C 
BRANCH   3   4
ATOM      4  N   UNL     1       4.946   0.095  -1.220  1.00  0.00    -0.354 N 
ATOM      5  C   UNL     1       4.282  -1.064  -0.910  1.00  0.00     0.243 C 
ATOM      6  O   UNL     1       4.944  -2.087  -0.726  1.00  0.00    -0.273 OA
ATOM      7  H   UNL     1       5.918   0.006  -1.347  1.00  0.00     0.163 HD
BRANCH   5   8
ATOM      8  C   UNL     1       2.743  -1.056  -0.949  1.00  0.00     0.185 C 
ATOM      9  C   UNL     1       0.725  -2.328  -0.465  1.00  0.00     0.144 C 
ATOM     10  S   UNL     1       0.698  -2.058  -2.288  1.00  0.00    -0.134 SA
ATOM     11  N   UNL     1       2.077  -1.972  -0.015  1.00  0.00    -0.314 N 
ATOM     12  C   UNL     1       2.364  -1.396  -2.380  1.00  0.00     0.107 C 
BRANCH   9  13
ATOM     13  C   UNL     1       0.153  -3.732  -0.211  1.00  0.00     0.033 C 
ATOM     14  C   UNL     1      -0.672  -3.854   1.068  1.00  0.00     0.007 C 
ENDBRANCH   9  13
BRANCH  11  15
ATOM     15  C   UNL     1       2.398  -1.705   1.325  1.00  0.00     0.258 C 
ATOM     16  O   UNL     1       3.026  -0.699   1.662  1.00  0.00    -0.269 OA
BRANCH  15  17
ATOM     17  C   UNL     1       1.969  -2.592   2.406  1.00  0.00     0.075 A 
ATOM     18  C   UNL     1       1.236  -2.040   3.462  1.00  0.00     0.017 A 
ATOM     19  C   UNL     1       2.352  -3.929   2.451  1.00  0.00     0.136 A 
ATOM     20  C   UNL     1       0.776  -2.861   4.492  1.00  0.00     0.004 A 
ATOM     21  C   UNL     1       1.906  -4.750   3.488  1.00  0.00     0.043 A 
ATOM     22  F   UNL     1       3.111  -4.464   1.486  1.00  0.00    -0.206 F 
ATOM     23  C   UNL     1       1.064  -4.233   4.484  1.00  0.00    -0.048 A 
ATOM     24  C   UNL     1       0.468  -5.126   5.532  1.00  0.00     0.044 C 
ENDBRANCH  15  17
ENDBRANCH  11  15
ENDBRANCH   5   8
ENDBRANCH   3   4
ENDBRANCH   2   3
ENDBRANCH   1   2
BRANCH   1  25
ATOM     25  C   UNL     1       6.927   3.207  -1.200  1.00  0.00     0.002 C 
BRANCH  25  26
ATOM     26  C   UNL     1       6.314   4.512  -1.713  1.00  0.00     0.021 C 
BRANCH  26  27
ATOM     27  C   UNL     1       6.298   5.646  -0.694  1.00  0.00     0.116 C 
BRANCH  27  28
ATOM     28  N   UNL     1       7.639   6.053  -0.305  1.00  0.00    -0.352 N 
ATOM     29  C   UNL     1       8.209   7.302  -0.312  1.00  0.00     0.251 C 
ATOM     30  H   UNL     1       8.224   5.326   0.009  1.00  0.00     0.163 HD
ATOM     31  O   UNL     1       9.413   7.434  -0.129  1.00  0.00    -0.269 OA
BRANCH  29  32
ATOM     32  C   UNL     1       7.367   8.491  -0.563  1.00  0.00     0.039 A 
ATOM     33  C   UNL     1       7.835   9.478  -1.434  1.00  0.00     0.014 A 
ATOM     34  C   UNL     1       6.127   8.638   0.065  1.00  0.00     0.014 A 
ATOM     35  C   UNL     1       7.032  10.584  -1.722  1.00  0.00     0.010 A 
ATOM     36  C   UNL     1       5.298   9.701  -0.281  1.00  0.00     0.010 A 
ATOM     37  C   UNL     1       5.744  10.687  -1.174  1.00  0.00    -0.014 A 
BRANCH  37  38
ATOM     38  C   UNL     1       4.849  11.821  -1.518  1.00  0.00     0.031 A 
ATOM     39  C   UNL     1       4.410  12.788  -0.453  1.00  0.00     0.074 A 
ATOM     40  C   UNL     1       4.380  11.944  -2.775  1.00  0.00     0.049 A 
ATOM     41  N   UNL     1       3.583  13.799  -0.545  1.00  0.00    -0.248 NA
ATOM     42  C   UNL     1       4.952  12.578   0.899  1.00  0.00     0.031 C 
ATOM     43  C   UNL     1       4.701  11.054  -3.892  1.00  0.00     0.029 A 
ATOM     44  N   UNL     1       3.524  12.868  -3.321  1.00  0.00    -0.354 N 
ATOM     45  C   UNL     1       3.494  14.331   0.735  1.00  0.00     0.074 A 
ATOM     46  C   UNL     1       4.309  13.502   1.596  1.00  0.00     0.031 C 
ATOM     47  C   UNL     1       4.073  11.491  -4.996  1.00  0.00     0.029 A 
ATOM     48  C   UNL     1       3.271  12.662  -4.656  1.00  0.00     0.049 A 
ATOM     49  H   UNL     1       3.128  13.608  -2.806  1.00  0.00     0.167 HD
ATOM     50  C   UNL     1       2.811  15.423   1.155  1.00  0.00     0.031 A 
ATOM     51  C   UNL     1       2.476  13.334  -5.510  1.00  0.00     0.031 A 
ATOM     52  C   UNL     1       2.005  16.252   0.298  1.00  0.00     0.049 A 
ATOM     53  C   UNL     1       1.708  14.528  -5.013  1.00  0.00     0.074 A 
ATOM     54  C   UNL     1       1.317  17.410   0.618  1.00  0.00     0.029 A 
ATOM     55  N   UNL     1       1.777  16.009  -1.048  1.00  0.00    -0.354 N 
ATOM     56  N   UNL     1       1.687  15.057  -3.814  1.00  0.00    -0.248 NA
ATOM     57  C   UNL     1       0.863  15.224  -5.994  1.00  0.00     0.031 C 
ATOM     58  C   UNL     1       0.626  17.836  -0.521  1.00  0.00     0.029 A 
ATOM     59  C   UNL     1       0.936  16.980  -1.566  1.00  0.00     0.049 A 
ATOM     60  H   UNL     1       2.156  15.258  -1.559  1.00  0.00     0.167 HD
ATOM     61  C   UNL     1       0.852  16.164  -3.904  1.00  0.00     0.074 A 
ATOM     62  C   UNL     1       0.401  16.239  -5.278  1.00  0.00     0.031 C 
ATOM     63  C   UNL     1       0.494  17.042  -2.935  1.00  0.00     0.031 A 
BRANCH  50  64
ATOM     64  C   UNL     1       2.898  15.776   2.614  1.00  0.00    -0.014 A 
ATOM     65  C   UNL     1       4.092  16.256   3.179  1.00  0.00     0.009 A 
ATOM     66  C   UNL     1       1.763  15.660   3.431  1.00  0.00     0.009 A 
ATOM     67  C   UNL     1       4.156  16.572   4.537  1.00  0.00     0.001 A 
ATOM     68  C   UNL     1       1.821  16.008   4.782  1.00  0.00     0.001 A 
ATOM     69  C   UNL     1       3.020  16.453   5.336  1.00  0.00     0.000 A 
ENDBRANCH  50  64
BRANCH  51  70
ATOM     70  C   UNL     1       2.372  12.903  -6.929  1.00  0.00    -0.014 A 
ATOM     71  C   UNL     1       2.913  13.692  -7.955  1.00  0.00     0.009 A 
ATOM     72  C   UNL     1       1.720  11.706  -7.266  1.00  0.00     0.009 A 
ATOM     73  C   UNL     1       2.779  13.306  -9.291  1.00  0.00     0.001 A 
ATOM     74  C   UNL     1       1.615  11.307  -8.600  1.00  0.00     0.001 A 
ATOM     75  C   UNL     1       2.135  12.113  -9.612  1.00  0.00     0.000 A 
ENDBRANCH  51  70
BRANCH  63  76
ATOM     76  C   UNL     1      -0.400  18.183  -3.335  1.00  0.00    -0.014 A 
ATOM     77  C   UNL     1      -1.752  17.979  -3.647  1.00  0.00     0.009 A 
ATOM     78  C   UNL     1       0.115  19.489  -3.358  1.00  0.00     0.009 A 
ATOM     79  C   UNL     1      -2.563  19.057  -4.009  1.00  0.00     0.001 A 
ATOM     80  C   UNL     1      -0.706  20.568  -3.689  1.00  0.00     0.001 A 
ATOM     81  C   UNL     1      -2.041  20.350  -4.024  1.00  0.00     0.000 A 
ENDBRANCH  63  76
ENDBRANCH  37  38
ENDBRANCH  29  32
ENDBRANCH  27  28
ENDBRANCH  26  27
ENDBRANCH  25  26
ENDBRANCH   1  25
TORSDOF 16
