REMARK SMILES Cc1nnc(S[C@@H](C)CCO)c(C(=O)NCCCCCCNC(=O)c2ccc(-c3c4nc(c(-c5ccccc5)c5ccc([nH]5)c(-c5ccccc5)c5nc(c(-c6ccccc6)c6ccc3[nH]6)C=C5)C=C4)cc2)c1C
REMARK SMILES IDX 17 1 16 2 15 3 13 4 14 5 12 7 1 8 2 9 3 10 73 11 4 12 74 13
REMARK SMILES IDX 5 14 6 15 7 16 8 17 9 18 10 19 11 20 18 22 19 23 20 24 21 25
REMARK SMILES IDX 22 26 23 27 24 29 25 30 26 31 72 32 27 33 71 34 28 35 29 36
REMARK SMILES IDX 30 37 65 38 31 39 70 40 64 41 66 42 32 43 69 44 63 45 62 46
REMARK SMILES IDX 33 48 55 49 40 50 54 51 41 52 44 53 53 54 67 55 42 56 43 57
REMARK SMILES IDX 52 59 68 60 45 61 34 62 35 63 39 64 36 65 38 66 37 67 56 68
REMARK SMILES IDX 57 69 61 70 58 71 60 72 59 73 46 74 47 75 51 76 48 77 50 78
REMARK SMILES IDX 49 79
REMARK H PARENT 15 6 11 21 22 28 66 47 44 58
REMARK Flexibility Score: inf
ROOT
ATOM      1  C   UNL     1      -3.951  -0.451  -3.194  1.00  0.00     0.021 C 
ENDROOT
BRANCH   1   2
ATOM      2  C   UNL     1      -3.141  -0.707  -1.928  1.00  0.00     0.116 C 
BRANCH   2   3
ATOM      3  N   UNL     1      -3.455  -1.926  -1.211  1.00  0.00    -0.352 N 
ATOM      4  C   UNL     1      -2.705  -2.712  -0.356  1.00  0.00     0.254 C 
ATOM      5  O   UNL     1      -3.330  -3.475   0.371  1.00  0.00    -0.269 OA
ATOM      6  H   UNL     1      -4.370  -2.256  -1.361  1.00  0.00     0.163 HD
BRANCH   4   7
ATOM      7  C   UNL     1      -1.222  -2.688  -0.282  1.00  0.00     0.078 A 
ATOM      8  C   UNL     1       1.726  -0.263   0.166  1.00  0.00     0.069 C 
ATOM      9  C   UNL     1       0.876  -1.481  -0.049  1.00  0.00     0.064 A 
ATOM     10  N   UNL     1       1.554  -2.613  -0.262  1.00  0.00    -0.155 NA
ATOM     11  C   UNL     1      -0.524  -1.468  -0.028  1.00  0.00    -0.012 A 
ATOM     12  N   UNL     1       0.881  -3.793  -0.366  1.00  0.00    -0.143 NA
ATOM     13  C   UNL     1      -1.197  -0.172   0.339  1.00  0.00     0.047 C 
ATOM     14  C   UNL     1      -0.475  -3.880  -0.331  1.00  0.00     0.132 A 
BRANCH  14  15
ATOM     15  S   UNL     1      -0.827  -5.612  -0.091  1.00  0.00    -0.101 SA
BRANCH  15  16
ATOM     16  C   UNL     1      -2.368  -6.213  -0.877  1.00  0.00     0.052 C 
ATOM     17  C   UNL     1      -3.492  -6.320   0.157  1.00  0.00     0.020 C 
BRANCH  16  18
ATOM     18  C   UNL     1      -2.742  -5.652  -2.251  1.00  0.00     0.043 C 
BRANCH  18  19
ATOM     19  C   UNL     1      -1.923  -6.276  -3.386  1.00  0.00     0.157 C 
BRANCH  19  20
ATOM     20  O   UNL     1      -2.325  -7.624  -3.612  1.00  0.00    -0.396 OA
ATOM     21  H   UNL     1      -2.179  -8.144  -2.807  1.00  0.00     0.210 HD
ENDBRANCH  19  20
ENDBRANCH  18  19
ENDBRANCH  16  18
ENDBRANCH  15  16
ENDBRANCH  14  15
ENDBRANCH   4   7
ENDBRANCH   2   3
ENDBRANCH   1   2
BRANCH   1  22
ATOM     22  C   UNL     1      -5.481  -0.468  -3.095  1.00  0.00     0.002 C 
BRANCH  22  23
ATOM     23  C   UNL     1      -6.161   0.302  -1.960  1.00  0.00     0.002 C 
BRANCH  23  24
ATOM     24  C   UNL     1      -5.745   1.755  -1.741  1.00  0.00     0.021 C 
BRANCH  24  25
ATOM     25  C   UNL     1      -5.699   2.624  -2.988  1.00  0.00     0.116 C 
BRANCH  25  26
ATOM     26  N   UNL     1      -7.001   2.779  -3.610  1.00  0.00    -0.352 N 
ATOM     27  C   UNL     1      -7.699   3.940  -3.842  1.00  0.00     0.251 C 
ATOM     28  H   UNL     1      -7.440   1.948  -3.903  1.00  0.00     0.163 HD
ATOM     29  O   UNL     1      -8.857   3.918  -4.232  1.00  0.00    -0.269 OA
BRANCH  27  30
ATOM     30  C   UNL     1      -7.023   5.227  -3.592  1.00  0.00     0.039 A 
ATOM     31  C   UNL     1      -7.622   6.153  -2.737  1.00  0.00     0.014 A 
ATOM     32  C   UNL     1      -5.781   5.488  -4.180  1.00  0.00     0.014 A 
ATOM     33  C   UNL     1      -6.952   7.340  -2.441  1.00  0.00     0.010 A 
ATOM     34  C   UNL     1      -5.087   6.639  -3.832  1.00  0.00     0.010 A 
ATOM     35  C   UNL     1      -5.678   7.583  -2.979  1.00  0.00    -0.014 A 
BRANCH  35  36
ATOM     36  C   UNL     1      -4.982   8.864  -2.730  1.00  0.00     0.031 A 
ATOM     37  C   UNL     1      -4.829   9.843  -3.858  1.00  0.00     0.074 A 
ATOM     38  C   UNL     1      -4.474   9.136  -1.515  1.00  0.00     0.049 A 
ATOM     39  N   UNL     1      -4.244  11.012  -3.857  1.00  0.00    -0.248 NA
ATOM     40  C   UNL     1      -5.393   9.451  -5.161  1.00  0.00     0.031 C 
ATOM     41  C   UNL     1      -4.553   8.256  -0.348  1.00  0.00     0.029 A 
ATOM     42  N   UNL     1      -3.795  10.238  -1.061  1.00  0.00    -0.354 N 
ATOM     43  C   UNL     1      -4.368  11.489  -5.154  1.00  0.00     0.074 A 
ATOM     44  C   UNL     1      -5.031  10.467  -5.929  1.00  0.00     0.031 C 
ATOM     45  C   UNL     1      -3.973   8.868   0.698  1.00  0.00     0.029 A 
ATOM     46  C   UNL     1      -3.457  10.166   0.268  1.00  0.00     0.049 A 
ATOM     47  H   UNL     1      -3.572  11.007  -1.633  1.00  0.00     0.167 HD
ATOM     48  C   UNL     1      -3.987  12.688  -5.649  1.00  0.00     0.031 A 
ATOM     49  C   UNL     1      -2.811  11.049   1.053  1.00  0.00     0.031 A 
ATOM     50  C   UNL     1      -3.343  13.710  -4.873  1.00  0.00     0.049 A 
ATOM     51  C   UNL     1      -2.361  12.360   0.474  1.00  0.00     0.074 A 
ATOM     52  C   UNL     1      -2.960  14.976  -5.276  1.00  0.00     0.029 A 
ATOM     53  N   UNL     1      -2.989  13.582  -3.541  1.00  0.00    -0.354 N 
ATOM     54  N   UNL     1      -2.521  12.816  -0.744  1.00  0.00    -0.248 NA
ATOM     55  C   UNL     1      -1.648  13.278   1.373  1.00  0.00     0.031 C 
ATOM     56  C   UNL     1      -2.325  15.597  -4.199  1.00  0.00     0.029 A 
ATOM     57  C   UNL     1      -2.363  14.738  -3.111  1.00  0.00     0.049 A 
ATOM     58  H   UNL     1      -3.156  12.788  -2.983  1.00  0.00     0.167 HD
ATOM     59  C   UNL     1      -1.947  14.080  -0.756  1.00  0.00     0.074 A 
ATOM     60  C   UNL     1      -1.438  14.322   0.579  1.00  0.00     0.031 C 
ATOM     61  C   UNL     1      -1.857  14.960  -1.782  1.00  0.00     0.031 A 
BRANCH  48  62
ATOM     62  C   UNL     1      -4.266  12.965  -7.096  1.00  0.00    -0.014 A 
ATOM     63  C   UNL     1      -5.571  13.220  -7.543  1.00  0.00     0.009 A 
ATOM     64  C   UNL     1      -3.204  13.041  -8.010  1.00  0.00     0.009 A 
ATOM     65  C   UNL     1      -5.810  13.530  -8.883  1.00  0.00     0.001 A 
ATOM     66  C   UNL     1      -3.442  13.377  -9.343  1.00  0.00     0.001 A 
ATOM     67  C   UNL     1      -4.745  13.617  -9.779  1.00  0.00     0.000 A 
ENDBRANCH  48  62
BRANCH  49  68
ATOM     68  C   UNL     1      -2.600  10.719   2.485  1.00  0.00    -0.014 A 
ATOM     69  C   UNL     1      -3.407  11.306   3.470  1.00  0.00     0.009 A 
ATOM     70  C   UNL     1      -1.654   9.754   2.865  1.00  0.00     0.009 A 
ATOM     71  C   UNL     1      -3.277  10.926   4.808  1.00  0.00     0.001 A 
ATOM     72  C   UNL     1      -1.539   9.363   4.201  1.00  0.00     0.001 A 
ATOM     73  C   UNL     1      -2.351   9.949   5.171  1.00  0.00     0.000 A 
ENDBRANCH  49  68
BRANCH  61  74
ATOM     74  C   UNL     1      -1.188  16.279  -1.527  1.00  0.00    -0.014 A 
ATOM     75  C   UNL     1       0.210  16.376  -1.470  1.00  0.00     0.009 A 
ATOM     76  C   UNL     1      -1.958  17.453  -1.494  1.00  0.00     0.009 A 
ATOM     77  C   UNL     1       0.825  17.627  -1.385  1.00  0.00     0.001 A 
ATOM     78  C   UNL     1      -1.339  18.702  -1.433  1.00  0.00     0.001 A 
ATOM     79  C   UNL     1       0.051  18.788  -1.379  1.00  0.00     0.000 A 
ENDBRANCH  61  74
ENDBRANCH  35  36
ENDBRANCH  27  30
ENDBRANCH  25  26
ENDBRANCH  24  25
ENDBRANCH  23  24
ENDBRANCH  22  23
ENDBRANCH   1  22
TORSDOF 18
