REMARK SMILES CCc1cc(OC[C@@H]2C[N@@H+](CC)CCO2)c(C(=O)NCCCCCCNC(=O)c2ccc(-c3c4nc(c(-c5ccccc5)c5ccc([nH]5)c(-c5ccccc5)c5nc(c(-c6ccccc6)c6ccc3[nH]6)C=C5)C=C4)cc2)s1
REMARK SMILES IDX 21 1 20 2 19 3 17 4 18 5 16 7 3 8 4 9 77 10 5 11 2 12 1 13
REMARK SMILES IDX 6 14 7 15 8 16 9 17 15 18 10 19 14 20 13 21 11 23 12 24
REMARK SMILES IDX 22 25 23 26 24 27 25 28 26 29 27 30 28 32 29 33 30 34 76 35
REMARK SMILES IDX 31 36 75 37 32 38 33 39 34 40 69 41 35 42 74 43 68 44 70 45
REMARK SMILES IDX 36 46 73 47 67 48 66 49 37 51 59 52 44 53 58 54 45 55 48 56
REMARK SMILES IDX 57 57 71 58 46 59 47 60 56 62 72 63 49 64 38 65 39 66 43 67
REMARK SMILES IDX 40 68 42 69 41 70 60 71 61 72 65 73 62 74 64 75 63 76 50 77
REMARK SMILES IDX 51 78 55 79 52 80 54 81 53 82
REMARK H PARENT 19 6 10 22 26 31 70 50 48 61
REMARK Flexibility Score: inf
ROOT
ATOM      1  C   UNL     1       3.416  -3.799  -6.764  1.00  0.00     0.021 C 
ENDROOT
BRANCH   1   2
ATOM      2  C   UNL     1       1.916  -3.638  -6.505  1.00  0.00     0.116 C 
BRANCH   2   3
ATOM      3  N   UNL     1       1.522  -4.418  -5.359  1.00  0.00    -0.351 N 
ATOM      4  C   UNL     1       1.317  -4.081  -4.045  1.00  0.00     0.265 C 
ATOM      5  O   UNL     1       0.966  -5.039  -3.344  1.00  0.00    -0.268 OA
ATOM      6  H   UNL     1       1.372  -5.370  -5.557  1.00  0.00     0.163 HD
BRANCH   4   7
ATOM      7  C   UNL     1       1.456  -2.729  -3.514  1.00  0.00     0.134 A 
ATOM      8  C   UNL     1       1.000  -0.785  -2.006  1.00  0.00     0.009 A 
ATOM      9  C   UNL     1       2.036  -0.546  -2.877  1.00  0.00     0.062 A 
ATOM     10  S   UNL     1       0.422  -2.376  -2.161  1.00  0.00    -0.131 S 
ATOM     11  C   UNL     1       2.207  -1.605  -3.830  1.00  0.00     0.143 A 
BRANCH   8  12
ATOM     12  C   UNL     1       0.378   0.171  -1.038  1.00  0.00     0.043 C 
ATOM     13  C   UNL     1       0.917  -0.016   0.367  1.00  0.00     0.010 C 
ENDBRANCH   8  12
BRANCH  11  14
ATOM     14  O   UNL     1       2.988  -1.532  -4.941  1.00  0.00    -0.489 OA
BRANCH  14  15
ATOM     15  C   UNL     1       3.078  -0.221  -5.529  1.00  0.00     0.267 C 
BRANCH  15  16
ATOM     16  C   UNL     1       1.753   0.411  -6.073  1.00  0.00     0.210 C 
ATOM     17  C   UNL     1       1.942   1.950  -6.131  1.00  0.00     0.298 C 
ATOM     18  O   UNL     1       0.641   0.053  -5.247  1.00  0.00    -0.363 OA
ATOM     19  N   UNL     1       0.731   2.764  -6.291  1.00  0.00    -0.331 N 
ATOM     20  C   UNL     1      -0.564   0.748  -5.533  1.00  0.00     0.222 C 
ATOM     21  C   UNL     1      -0.357   2.261  -5.446  1.00  0.00     0.291 C 
ATOM     22  H   UNL     1       0.967   3.690  -5.936  1.00  0.00     0.348 HD
BRANCH  19  23
ATOM     23  C   UNL     1       0.365   3.116  -7.658  1.00  0.00     0.258 C 
ATOM     24  C   UNL     1      -0.175   2.024  -8.569  1.00  0.00     0.071 C 
ENDBRANCH  19  23
ENDBRANCH  15  16
ENDBRANCH  14  15
ENDBRANCH  11  14
ENDBRANCH   4   7
ENDBRANCH   2   3
ENDBRANCH   1   2
BRANCH   1  25
ATOM     25  C   UNL     1       3.754  -5.058  -7.572  1.00  0.00     0.002 C 
BRANCH  25  26
ATOM     26  C   UNL     1       3.185  -5.069  -8.996  1.00  0.00     0.002 C 
BRANCH  26  27
ATOM     27  C   UNL     1       3.586  -3.866  -9.853  1.00  0.00     0.021 C 
BRANCH  27  28
ATOM     28  C   UNL     1       5.086  -3.757 -10.095  1.00  0.00     0.116 C 
BRANCH  28  29
ATOM     29  N   UNL     1       5.579  -4.875 -10.889  1.00  0.00    -0.352 N 
ATOM     30  C   UNL     1       6.228  -4.849 -12.095  1.00  0.00     0.251 C 
ATOM     31  H   UNL     1       5.426  -5.769 -10.506  1.00  0.00     0.163 HD
ATOM     32  O   UNL     1       6.360  -5.874 -12.761  1.00  0.00    -0.269 OA
BRANCH  30  33
ATOM     33  C   UNL     1       6.765  -3.569 -12.594  1.00  0.00     0.039 A 
ATOM     34  C   UNL     1       6.541  -3.200 -13.922  1.00  0.00     0.014 A 
ATOM     35  C   UNL     1       7.480  -2.732 -11.734  1.00  0.00     0.014 A 
ATOM     36  C   UNL     1       6.992  -1.958 -14.374  1.00  0.00     0.010 A 
ATOM     37  C   UNL     1       7.856  -1.467 -12.162  1.00  0.00     0.010 A 
ATOM     38  C   UNL     1       7.626  -1.072 -13.489  1.00  0.00    -0.014 A 
BRANCH  38  39
ATOM     39  C   UNL     1       8.094   0.267 -13.924  1.00  0.00     0.031 A 
ATOM     40  C   UNL     1       9.562   0.591 -13.874  1.00  0.00     0.074 A 
ATOM     41  C   UNL     1       7.202   1.211 -14.277  1.00  0.00     0.049 A 
ATOM     42  N   UNL     1      10.164   1.733 -14.083  1.00  0.00    -0.248 NA
ATOM     43  C   UNL     1      10.469  -0.510 -13.507  1.00  0.00     0.031 C 
ATOM     44  C   UNL     1       5.750   1.028 -14.344  1.00  0.00     0.029 A 
ATOM     45  N   UNL     1       7.388   2.523 -14.633  1.00  0.00    -0.354 N 
ATOM     46  C   UNL     1      11.513   1.494 -13.849  1.00  0.00     0.074 A 
ATOM     47  C   UNL     1      11.634   0.115 -13.430  1.00  0.00     0.031 C 
ATOM     48  C   UNL     1       5.181   2.179 -14.738  1.00  0.00     0.029 A 
ATOM     49  C   UNL     1       6.219   3.192 -14.902  1.00  0.00     0.049 A 
ATOM     50  H   UNL     1       8.276   2.945 -14.690  1.00  0.00     0.167 HD
ATOM     51  C   UNL     1      12.560   2.340 -13.988  1.00  0.00     0.031 A 
ATOM     52  C   UNL     1       6.006   4.481 -15.228  1.00  0.00     0.031 A 
ATOM     53  C   UNL     1      12.437   3.708 -14.415  1.00  0.00     0.049 A 
ATOM     54  C   UNL     1       7.184   5.411 -15.347  1.00  0.00     0.074 A 
ATOM     55  C   UNL     1      13.441   4.635 -14.635  1.00  0.00     0.029 A 
ATOM     56  N   UNL     1      11.236   4.343 -14.688  1.00  0.00    -0.354 N 
ATOM     57  N   UNL     1       8.458   5.157 -15.173  1.00  0.00    -0.248 NA
ATOM     58  C   UNL     1       6.892   6.803 -15.718  1.00  0.00     0.031 C 
ATOM     59  C   UNL     1      12.842   5.849 -14.984  1.00  0.00     0.029 A 
ATOM     60  C   UNL     1      11.470   5.658 -15.050  1.00  0.00     0.049 A 
ATOM     61  H   UNL     1      10.348   3.922 -14.631  1.00  0.00     0.167 HD
ATOM     62  C   UNL     1       9.123   6.346 -15.452  1.00  0.00     0.074 A 
ATOM     63  C   UNL     1       8.110   7.316 -15.814  1.00  0.00     0.031 C 
ATOM     64  C   UNL     1      10.452   6.608 -15.417  1.00  0.00     0.031 A 
BRANCH  51  65
ATOM     65  C   UNL     1      13.929   1.809 -13.660  1.00  0.00    -0.014 A 
ATOM     66  C   UNL     1      14.543   0.829 -14.457  1.00  0.00     0.009 A 
ATOM     67  C   UNL     1      14.626   2.316 -12.552  1.00  0.00     0.009 A 
ATOM     68  C   UNL     1      15.808   0.337 -14.126  1.00  0.00     0.001 A 
ATOM     69  C   UNL     1      15.905   1.847 -12.244  1.00  0.00     0.001 A 
ATOM     70  C   UNL     1      16.489   0.851 -13.024  1.00  0.00     0.000 A 
ENDBRANCH  51  65
BRANCH  52  71
ATOM     71  C   UNL     1       4.625   4.973 -15.474  1.00  0.00    -0.014 A 
ATOM     72  C   UNL     1       4.223   5.347 -16.766  1.00  0.00     0.009 A 
ATOM     73  C   UNL     1       3.704   5.083 -14.420  1.00  0.00     0.009 A 
ATOM     74  C   UNL     1       2.940   5.852 -16.991  1.00  0.00     0.001 A 
ATOM     75  C   UNL     1       2.412   5.558 -14.654  1.00  0.00     0.001 A 
ATOM     76  C   UNL     1       2.034   5.953 -15.936  1.00  0.00     0.000 A 
ENDBRANCH  52  71
BRANCH  64  77
ATOM     77  C   UNL     1      10.898   7.981 -15.835  1.00  0.00    -0.014 A 
ATOM     78  C   UNL     1      10.665   9.108 -15.032  1.00  0.00     0.009 A 
ATOM     79  C   UNL     1      11.616   8.136 -17.033  1.00  0.00     0.009 A 
ATOM     80  C   UNL     1      11.116  10.367 -15.436  1.00  0.00     0.001 A 
ATOM     81  C   UNL     1      12.093   9.389 -17.417  1.00  0.00     0.001 A 
ATOM     82  C   UNL     1      11.834  10.505 -16.623  1.00  0.00     0.000 A 
ENDBRANCH  64  77
ENDBRANCH  38  39
ENDBRANCH  30  33
ENDBRANCH  28  29
ENDBRANCH  27  28
ENDBRANCH  26  27
ENDBRANCH  25  26
ENDBRANCH   1  25
TORSDOF 18
