REMARK SMILES C#Cc1cc(Cl)c2c(c1)C=C(C(=O)NCCCCCCNC(=O)c1ccc(-c3c4nc(c(-c5ccccc5)c5ccc([nH]5)c(-c5ccccc5)c5nc(c(-c6ccccc6)c6ccc3[nH]6)C=C5)C=C4)cc1)[C@@H](C(F)(F)F)O2
REMARK SMILES IDX 18 1 17 2 16 3 15 4 14 5 12 6 13 7 11 9 3 10 4 11 9 12 5 13
REMARK SMILES IDX 8 14 6 15 7 16 10 17 77 18 72 19 2 20 1 21 73 22 74 23 75 24
REMARK SMILES IDX 76 25 19 26 20 27 21 28 22 29 23 31 24 32 25 33 71 34 26 35
REMARK SMILES IDX 70 36 27 37 28 38 29 39 64 40 30 41 69 42 63 43 65 44 31 45
REMARK SMILES IDX 68 46 62 47 61 48 32 50 54 51 39 52 53 53 40 54 43 55 52 56
REMARK SMILES IDX 66 57 41 58 42 59 51 61 67 62 44 63 33 64 34 65 38 66 35 67
REMARK SMILES IDX 37 68 36 69 55 70 56 71 60 72 57 73 59 74 58 75 45 76 46 77
REMARK SMILES IDX 50 78 47 79 49 80 48 81
REMARK H PARENT 14 8 21 30 65 49 43 60
REMARK Flexibility Score: inf
ROOT
ATOM      1  C   UNL     1     -11.956   3.867   0.207  1.00  0.00     0.002 C 
ENDROOT
BRANCH   1   2
ATOM      2  C   UNL     1     -11.007   3.963   1.409  1.00  0.00     0.002 C 
BRANCH   2   3
ATOM      3  C   UNL     1      -9.971   2.841   1.488  1.00  0.00     0.021 C 
BRANCH   3   4
ATOM      4  C   UNL     1      -9.137   2.720   0.220  1.00  0.00     0.116 C 
BRANCH   4   5
ATOM      5  N   UNL     1      -8.018   3.645   0.222  1.00  0.00    -0.352 N 
ATOM      6  C   UNL     1      -6.669   3.566   0.142  1.00  0.00     0.251 C 
ATOM      7  O   UNL     1      -6.070   4.646   0.152  1.00  0.00    -0.270 OA
ATOM      8  H   UNL     1      -8.322   4.578   0.303  1.00  0.00     0.163 HD
BRANCH   6   9
ATOM      9  C   UNL     1      -5.896   2.291   0.048  1.00  0.00     0.067 C 
ATOM     10  C   UNL     1      -1.604   0.057   0.042  1.00  0.00     0.027 A 
ATOM     11  C   UNL     1      -2.239  -1.186   0.041  1.00  0.00     0.041 A 
ATOM     12  C   UNL     1      -2.357   1.236   0.065  1.00  0.00     0.029 A 
ATOM     13  C   UNL     1      -3.627  -1.248   0.061  1.00  0.00     0.084 A 
ATOM     14  C   UNL     1      -3.755   1.176   0.084  1.00  0.00     0.020 A 
ATOM     15  Cl  UNL     1      -4.387  -2.800   0.071  1.00  0.00    -0.080 Cl
ATOM     16  C   UNL     1      -4.384  -0.072   0.075  1.00  0.00     0.146 A 
ATOM     17  C   UNL     1      -4.560   2.391   0.164  1.00  0.00     0.025 C 
ATOM     18  O   UNL     1      -5.739  -0.202   0.129  1.00  0.00    -0.474 OA
ATOM     19  C   UNL     1      -6.537   0.958  -0.193  1.00  0.00     0.314 C 
BRANCH  10  20
ATOM     20  C   UNL     1      -0.177   0.110   0.035  1.00  0.00    -0.070 C 
ATOM     21  C   UNL     1       1.024   0.120   0.034  1.00  0.00     0.010 C 
ENDBRANCH  10  20
BRANCH  19  22
ATOM     22  C   UNL     1      -7.084   0.812  -1.626  1.00  0.00     0.429 C 
ATOM     23  F   UNL     1      -8.005  -0.182  -1.683  1.00  0.00    -0.167 F 
ATOM     24  F   UNL     1      -7.705   1.930  -2.070  1.00  0.00    -0.167 F 
ATOM     25  F   UNL     1      -6.112   0.523  -2.520  1.00  0.00    -0.167 F 
ENDBRANCH  19  22
ENDBRANCH   6   9
ENDBRANCH   4   5
ENDBRANCH   3   4
ENDBRANCH   2   3
ENDBRANCH   1   2
BRANCH   1  26
ATOM     26  C   UNL     1     -12.638   2.507   0.038  1.00  0.00     0.021 C 
BRANCH  26  27
ATOM     27  C   UNL     1     -13.448   2.075   1.252  1.00  0.00     0.116 C 
BRANCH  27  28
ATOM     28  N   UNL     1     -14.495   3.036   1.560  1.00  0.00    -0.352 N 
ATOM     29  C   UNL     1     -15.853   2.855   1.585  1.00  0.00     0.251 C 
ATOM     30  H   UNL     1     -14.185   3.944   1.782  1.00  0.00     0.163 HD
ATOM     31  O   UNL     1     -16.611   3.817   1.616  1.00  0.00    -0.269 OA
BRANCH  29  32
ATOM     32  C   UNL     1     -16.392   1.483   1.562  1.00  0.00     0.039 A 
ATOM     33  C   UNL     1     -17.456   1.188   0.711  1.00  0.00     0.014 A 
ATOM     34  C   UNL     1     -15.832   0.492   2.375  1.00  0.00     0.014 A 
ATOM     35  C   UNL     1     -17.932  -0.120   0.641  1.00  0.00     0.010 A 
ATOM     36  C   UNL     1     -16.247  -0.825   2.238  1.00  0.00     0.010 A 
ATOM     37  C   UNL     1     -17.312  -1.140   1.383  1.00  0.00    -0.014 A 
BRANCH  37  38
ATOM     38  C   UNL     1     -17.788  -2.540   1.295  1.00  0.00     0.031 A 
ATOM     39  C   UNL     1     -18.381  -3.206   2.505  1.00  0.00     0.074 A 
ATOM     40  C   UNL     1     -17.667  -3.215   0.136  1.00  0.00     0.049 A 
ATOM     41  N   UNL     1     -18.843  -4.424   2.629  1.00  0.00    -0.248 NA
ATOM     42  C   UNL     1     -18.449  -2.409   3.742  1.00  0.00     0.031 C 
ATOM     43  C   UNL     1     -17.092  -2.678  -1.099  1.00  0.00     0.029 A 
ATOM     44  N   UNL     1     -18.030  -4.495  -0.195  1.00  0.00    -0.354 N 
ATOM     45  C   UNL     1     -19.255  -4.535   3.950  1.00  0.00     0.074 A 
ATOM     46  C   UNL     1     -18.928  -3.289   4.607  1.00  0.00     0.031 C 
ATOM     47  C   UNL     1     -17.184  -3.606  -2.065  1.00  0.00     0.029 A 
ATOM     48  C   UNL     1     -17.777  -4.817  -1.506  1.00  0.00     0.049 A 
ATOM     49  H   UNL     1     -18.434  -5.124   0.446  1.00  0.00     0.167 HD
ATOM     50  C   UNL     1     -19.880  -5.571   4.555  1.00  0.00     0.031 A 
ATOM     51  C   UNL     1     -17.996  -5.961  -2.183  1.00  0.00     0.031 A 
ATOM     52  C   UNL     1     -20.205  -6.808   3.898  1.00  0.00     0.049 A 
ATOM     53  C   UNL     1     -18.634  -7.121  -1.468  1.00  0.00     0.074 A 
ATOM     54  C   UNL     1     -20.863  -7.907   4.418  1.00  0.00     0.029 A 
ATOM     55  N   UNL     1     -19.894  -7.109   2.581  1.00  0.00    -0.354 N 
ATOM     56  N   UNL     1     -19.071  -7.191  -0.234  1.00  0.00    -0.248 NA
ATOM     57  C   UNL     1     -18.816  -8.357  -2.242  1.00  0.00     0.031 C 
ATOM     58  C   UNL     1     -20.889  -8.901   3.437  1.00  0.00     0.029 A 
ATOM     59  C   UNL     1     -20.316  -8.393   2.282  1.00  0.00     0.049 A 
ATOM     60  H   UNL     1     -19.441  -6.501   1.953  1.00  0.00     0.167 HD
ATOM     61  C   UNL     1     -19.602  -8.466  -0.091  1.00  0.00     0.074 A 
ATOM     62  C   UNL     1     -19.452  -9.128  -1.371  1.00  0.00     0.031 C 
ATOM     63  C   UNL     1     -20.160  -9.039   1.003  1.00  0.00     0.031 A 
BRANCH  50  64
ATOM     64  C   UNL     1     -20.261  -5.412   6.001  1.00  0.00    -0.014 A 
ATOM     65  C   UNL     1     -21.274  -4.521   6.390  1.00  0.00     0.009 A 
ATOM     66  C   UNL     1     -19.651  -6.214   6.979  1.00  0.00     0.009 A 
ATOM     67  C   UNL     1     -21.652  -4.420   7.731  1.00  0.00     0.001 A 
ATOM     68  C   UNL     1     -20.054  -6.135   8.312  1.00  0.00     0.001 A 
ATOM     69  C   UNL     1     -21.049  -5.234   8.688  1.00  0.00     0.000 A 
ENDBRANCH  50  64
BRANCH  51  70
ATOM     70  C   UNL     1     -17.631  -6.054  -3.622  1.00  0.00    -0.014 A 
ATOM     71  C   UNL     1     -18.627  -6.163  -4.604  1.00  0.00     0.009 A 
ATOM     72  C   UNL     1     -16.286  -6.017  -4.025  1.00  0.00     0.009 A 
ATOM     73  C   UNL     1     -18.285  -6.252  -5.955  1.00  0.00     0.001 A 
ATOM     74  C   UNL     1     -15.948  -6.072  -5.379  1.00  0.00     0.001 A 
ATOM     75  C   UNL     1     -16.947  -6.198  -6.342  1.00  0.00     0.000 A 
ENDBRANCH  51  70
BRANCH  63  76
ATOM     76  C   UNL     1     -20.673 -10.446   0.872  1.00  0.00    -0.014 A 
ATOM     77  C   UNL     1     -19.794 -11.532   0.742  1.00  0.00     0.009 A 
ATOM     78  C   UNL     1     -22.052 -10.697   0.971  1.00  0.00     0.009 A 
ATOM     79  C   UNL     1     -20.287 -12.837   0.689  1.00  0.00     0.001 A 
ATOM     80  C   UNL     1     -22.538 -12.004   0.956  1.00  0.00     0.001 A 
ATOM     81  C   UNL     1     -21.656 -13.073   0.807  1.00  0.00     0.000 A 
ENDBRANCH  63  76
ENDBRANCH  37  38
ENDBRANCH  29  32
ENDBRANCH  27  28
ENDBRANCH  26  27
ENDBRANCH   1  26
TORSDOF 15
