REMARK SMILES Cc1cccc(-n2c(C)cc(/C=N\c3ccc(O)c(C(=O)NCCCCCCNC(=O)c4ccc(-c5c6nc(c(-c7ccccc7)c7ccc([nH]7)c(-c7ccccc7)c7nc(c(-c8ccccc8)c8ccc5[nH]8)C=C7)C=C6)cc4)c3)c2C)c1
REMARK SMILES IDX 25 1 24 2 23 3 22 4 20 5 21 6 19 8 14 9 15 10 80 11 16 12
REMARK SMILES IDX 17 13 13 14 12 15 11 16 7 17 8 18 81 19 9 20 10 21 82 22
REMARK SMILES IDX 6 23 1 24 2 25 3 26 83 27 4 28 5 29 18 30 26 32 27 33 28 34
REMARK SMILES IDX 29 35 30 36 31 38 32 39 33 40 79 41 34 42 78 43 35 44 36 45
REMARK SMILES IDX 37 46 72 47 38 48 77 49 71 50 73 51 39 52 76 53 70 54 69 55
REMARK SMILES IDX 40 57 62 58 47 59 61 60 48 61 51 62 60 63 74 64 49 65 50 66
REMARK SMILES IDX 59 68 75 69 52 70 41 71 42 72 46 73 43 74 45 75 44 76 63 77
REMARK SMILES IDX 64 78 68 79 65 80 67 81 66 82 53 83 54 84 58 85 55 86 57 87
REMARK SMILES IDX 56 88
REMARK H PARENT 22 7 18 31 29 37 73 56 51 67
REMARK Flexibility Score: inf
ROOT
ATOM      1  C   UNL     1      -5.298  -3.494   7.470  1.00  0.00     0.002 C 
ENDROOT
BRANCH   1   2
ATOM      2  C   UNL     1      -4.432  -2.235   7.572  1.00  0.00     0.021 C 
BRANCH   2   3
ATOM      3  C   UNL     1      -4.195  -1.380   6.334  1.00  0.00     0.116 C 
BRANCH   3   4
ATOM      4  N   UNL     1      -5.365  -0.928   5.617  1.00  0.00    -0.352 N 
ATOM      5  C   UNL     1      -5.540   0.126   4.745  1.00  0.00     0.255 C 
ATOM      6  O   UNL     1      -6.643   0.203   4.197  1.00  0.00    -0.269 OA
ATOM      7  H   UNL     1      -6.176  -1.464   5.778  1.00  0.00     0.163 HD
BRANCH   5   8
ATOM      8  C   UNL     1      -4.510   1.175   4.437  1.00  0.00     0.083 A 
ATOM      9  C   UNL     1      -4.117   3.362   3.392  1.00  0.00     0.064 A 
ATOM     10  C   UNL     1      -2.772   3.302   3.740  1.00  0.00     0.032 A 
ATOM     11  C   UNL     1      -4.992   2.368   3.861  1.00  0.00     0.046 A 
ATOM     12  C   UNL     1      -2.267   2.138   4.306  1.00  0.00     0.049 A 
ATOM     13  C   UNL     1      -3.119   1.052   4.529  1.00  0.00     0.128 A 
BRANCH   9  14
ATOM     14  N   UNL     1      -4.614   4.368   2.562  1.00  0.00    -0.256 NA
ATOM     15  C   UNL     1      -4.226   4.536   1.329  1.00  0.00     0.121 C 
BRANCH  15  16
ATOM     16  C   UNL     1      -3.256   3.808   0.502  1.00  0.00     0.014 A 
ATOM     17  N   UNL     1      -1.865   2.301  -0.467  1.00  0.00    -0.318 N 
ATOM     18  C   UNL     1      -1.642   3.516  -1.093  1.00  0.00     0.021 A 
ATOM     19  C   UNL     1      -2.974   2.445   0.375  1.00  0.00     0.029 A 
ATOM     20  C   UNL     1      -0.733   3.688  -2.263  1.00  0.00     0.065 C 
ATOM     21  C   UNL     1      -2.455   4.452  -0.489  1.00  0.00     0.033 A 
ATOM     22  C   UNL     1      -3.614   1.272   1.027  1.00  0.00     0.065 C 
BRANCH  17  23
ATOM     23  C   UNL     1      -1.050   1.137  -0.600  1.00  0.00     0.046 A 
ATOM     24  C   UNL     1       2.592   0.155  -0.022  1.00  0.00     0.044 C 
ATOM     25  C   UNL     1       1.125   0.083  -0.332  1.00  0.00    -0.049 A 
ATOM     26  C   UNL     1       0.531  -1.166  -0.554  1.00  0.00     0.003 A 
ATOM     27  C   UNL     1       0.329   1.238  -0.360  1.00  0.00     0.030 A 
ATOM     28  C   UNL     1      -0.830  -1.260  -0.840  1.00  0.00     0.002 A 
ATOM     29  C   UNL     1      -1.617  -0.110  -0.876  1.00  0.00     0.026 A 
ENDBRANCH  17  23
ENDBRANCH  15  16
ENDBRANCH   9  14
BRANCH  13  30
ATOM     30  O   UNL     1      -2.464  -0.145   4.611  1.00  0.00    -0.507 OA
ATOM     31  H   UNL     1      -1.529  -0.165   4.671  1.00  0.00     0.293 HD
ENDBRANCH  13  30
ENDBRANCH   5   8
ENDBRANCH   3   4
ENDBRANCH   2   3
ENDBRANCH   1   2
BRANCH   1  32
ATOM     32  C   UNL     1      -5.134  -4.459   6.288  1.00  0.00     0.002 C 
BRANCH  32  33
ATOM     33  C   UNL     1      -3.732  -4.894   5.869  1.00  0.00     0.021 C 
BRANCH  33  34
ATOM     34  C   UNL     1      -2.834  -5.459   6.959  1.00  0.00     0.116 C 
BRANCH  34  35
ATOM     35  N   UNL     1      -2.949  -6.891   7.198  1.00  0.00    -0.352 N 
ATOM     36  C   UNL     1      -2.324  -7.659   8.166  1.00  0.00     0.251 C 
ATOM     37  H   UNL     1      -3.552  -7.377   6.590  1.00  0.00     0.163 HD
ATOM     38  O   UNL     1      -2.505  -8.874   8.199  1.00  0.00    -0.269 OA
BRANCH  36  39
ATOM     39  C   UNL     1      -1.538  -7.003   9.243  1.00  0.00     0.039 A 
ATOM     40  C   UNL     1      -1.751  -7.422  10.562  1.00  0.00     0.014 A 
ATOM     41  C   UNL     1      -0.762  -5.874   8.993  1.00  0.00     0.014 A 
ATOM     42  C   UNL     1      -1.414  -6.573  11.614  1.00  0.00     0.010 A 
ATOM     43  C   UNL     1      -0.521  -4.985  10.021  1.00  0.00     0.010 A 
ATOM     44  C   UNL     1      -0.915  -5.305  11.322  1.00  0.00    -0.014 A 
BRANCH  44  45
ATOM     45  C   UNL     1      -0.913  -4.205  12.278  1.00  0.00     0.031 A 
ATOM     46  C   UNL     1       0.345  -3.712  12.869  1.00  0.00     0.074 A 
ATOM     47  C   UNL     1      -2.078  -3.583  12.564  1.00  0.00     0.049 A 
ATOM     48  N   UNL     1       0.406  -3.016  13.955  1.00  0.00    -0.248 NA
ATOM     49  C   UNL     1       1.660  -4.046  12.326  1.00  0.00     0.031 C 
ATOM     50  C   UNL     1      -2.268  -2.293  13.220  1.00  0.00     0.029 A 
ATOM     51  N   UNL     1      -3.355  -4.132  12.511  1.00  0.00    -0.354 N 
ATOM     52  C   UNL     1       1.691  -2.544  14.063  1.00  0.00     0.074 A 
ATOM     53  C   UNL     1       2.456  -3.333  13.130  1.00  0.00     0.031 C 
ATOM     54  C   UNL     1      -3.516  -2.236  13.714  1.00  0.00     0.029 A 
ATOM     55  C   UNL     1      -4.113  -3.549  13.538  1.00  0.00     0.049 A 
ATOM     56  H   UNL     1      -3.671  -4.807  11.868  1.00  0.00     0.167 HD
ATOM     57  C   UNL     1       1.925  -1.427  14.806  1.00  0.00     0.031 A 
ATOM     58  C   UNL     1      -4.615  -4.311  14.554  1.00  0.00     0.031 A 
ATOM     59  C   UNL     1       0.765  -1.063  15.622  1.00  0.00     0.049 A 
ATOM     60  C   UNL     1      -4.082  -3.942  15.922  1.00  0.00     0.074 A 
ATOM     61  C   UNL     1      -0.173  -0.047  15.546  1.00  0.00     0.029 A 
ATOM     62  N   UNL     1       0.286  -1.970  16.563  1.00  0.00    -0.354 N 
ATOM     63  N   UNL     1      -3.017  -3.215  16.120  1.00  0.00    -0.248 NA
ATOM     64  C   UNL     1      -4.681  -4.402  17.174  1.00  0.00     0.031 C 
ATOM     65  C   UNL     1      -1.269  -0.402  16.379  1.00  0.00     0.029 A 
ATOM     66  C   UNL     1      -0.975  -1.608  16.992  1.00  0.00     0.049 A 
ATOM     67  H   UNL     1       0.780  -2.762  16.879  1.00  0.00     0.167 HD
ATOM     68  C   UNL     1      -2.771  -3.116  17.464  1.00  0.00     0.074 A 
ATOM     69  C   UNL     1      -3.850  -3.863  18.085  1.00  0.00     0.031 C 
ATOM     70  C   UNL     1      -1.690  -2.441  17.951  1.00  0.00     0.031 A 
BRANCH  57  71
ATOM     71  C   UNL     1       3.116  -0.509  14.609  1.00  0.00    -0.014 A 
ATOM     72  C   UNL     1       3.162   0.722  15.290  1.00  0.00     0.009 A 
ATOM     73  C   UNL     1       4.159  -0.728  13.688  1.00  0.00     0.009 A 
ATOM     74  C   UNL     1       4.159   1.679  15.041  1.00  0.00     0.001 A 
ATOM     75  C   UNL     1       5.171   0.211  13.449  1.00  0.00     0.001 A 
ATOM     76  C   UNL     1       5.164   1.423  14.118  1.00  0.00     0.000 A 
ENDBRANCH  57  71
BRANCH  58  77
ATOM     77  C   UNL     1      -4.977  -5.696  14.138  1.00  0.00    -0.014 A 
ATOM     78  C   UNL     1      -6.051  -5.864  13.242  1.00  0.00     0.009 A 
ATOM     79  C   UNL     1      -4.077  -6.756  14.312  1.00  0.00     0.009 A 
ATOM     80  C   UNL     1      -6.154  -7.016  12.456  1.00  0.00     0.001 A 
ATOM     81  C   UNL     1      -4.191  -7.914  13.530  1.00  0.00     0.001 A 
ATOM     82  C   UNL     1      -5.206  -8.027  12.580  1.00  0.00     0.000 A 
ENDBRANCH  58  77
BRANCH  70  83
ATOM     83  C   UNL     1      -1.220  -2.447  19.384  1.00  0.00    -0.014 A 
ATOM     84  C   UNL     1      -1.477  -3.481  20.294  1.00  0.00     0.009 A 
ATOM     85  C   UNL     1      -0.352  -1.421  19.819  1.00  0.00     0.009 A 
ATOM     86  C   UNL     1      -0.933  -3.466  21.587  1.00  0.00     0.001 A 
ATOM     87  C   UNL     1       0.226  -1.424  21.090  1.00  0.00     0.001 A 
ATOM     88  C   UNL     1      -0.075  -2.443  21.981  1.00  0.00     0.000 A 
ENDBRANCH  70  83
ENDBRANCH  44  45
ENDBRANCH  36  39
ENDBRANCH  34  35
ENDBRANCH  33  34
ENDBRANCH  32  33
ENDBRANCH   1  32
TORSDOF 17
