REMARK SMILES CC(C)[C@@](O)(C(=O)NCCCCCCNC(=O)c1ccc(-c2c3nc(c(-c4ccccc4)c4ccc([nH]4)c(-c4ccccc4)c4nc(c(-c5ccccc5)c5ccc2[nH]5)C=C4)C=C3)cc1)[C@H](C)c1ccc(F)cc1
REMARK SMILES IDX 11 1 10 2 9 3 8 4 6 5 7 6 4 8 2 9 1 10 3 11 5 12 66 14 67 15
REMARK SMILES IDX 68 16 69 17 74 18 70 19 73 20 71 21 72 22 12 23 13 24 14 25
REMARK SMILES IDX 15 26 16 27 17 29 18 30 19 31 65 32 20 33 64 34 21 35 22 36
REMARK SMILES IDX 23 37 58 38 24 39 63 40 57 41 59 42 25 43 62 44 56 45 55 46
REMARK SMILES IDX 26 48 48 49 33 50 47 51 34 52 37 53 46 54 60 55 35 56 36 57
REMARK SMILES IDX 45 59 61 60 38 61 27 62 28 63 32 64 29 65 31 66 30 67 49 68
REMARK SMILES IDX 50 69 54 70 51 71 53 72 52 73 39 74 40 75 44 76 41 77 43 78
REMARK SMILES IDX 42 79
REMARK H PARENT 8 7 5 13 15 28 59 47 37 58
REMARK Flexibility Score: inf
ROOT
ATOM      1  C   UNL     1      -2.224  -2.849  -7.348  1.00  0.00     0.002 C 
ENDROOT
BRANCH   1   2
ATOM      2  C   UNL     1      -1.406  -3.196  -6.100  1.00  0.00     0.021 C 
BRANCH   2   3
ATOM      3  C   UNL     1      -0.631  -2.014  -5.500  1.00  0.00     0.116 C 
BRANCH   3   4
ATOM      4  N   UNL     1      -1.545  -1.079  -4.874  1.00  0.00    -0.354 N 
ATOM      5  C   UNL     1      -1.894  -0.902  -3.567  1.00  0.00     0.252 C 
ATOM      6  O   UNL     1      -2.896  -0.203  -3.378  1.00  0.00    -0.272 OA
ATOM      7  H   UNL     1      -1.992  -0.466  -5.501  1.00  0.00     0.163 HD
BRANCH   5   8
ATOM      8  C   UNL     1      -1.115  -1.589  -2.369  1.00  0.00     0.151 C 
BRANCH   8   9
ATOM      9  C   UNL     1      -1.378  -3.126  -2.468  1.00  0.00     0.025 C 
ATOM     10  C   UNL     1      -0.381  -4.010  -1.704  1.00  0.00     0.011 C 
ATOM     11  C   UNL     1      -2.854  -3.522  -2.332  1.00  0.00     0.011 C 
ENDBRANCH   8   9
BRANCH   8  12
ATOM     12  O   UNL     1       0.297  -1.379  -2.558  1.00  0.00    -0.379 OA
ATOM     13  H   UNL     1       0.586  -1.828  -3.367  1.00  0.00     0.212 HD
ENDBRANCH   8  12
BRANCH   8  14
ATOM     14  C   UNL     1      -1.574  -0.837  -1.023  1.00  0.00     0.058 C 
ATOM     15  C   UNL     1      -1.127   0.654  -1.092  1.00  0.00     0.016 C 
BRANCH  14  16
ATOM     16  C   UNL     1      -1.192  -1.449   0.346  1.00  0.00    -0.042 A 
ATOM     17  C   UNL     1      -1.796  -2.641   0.790  1.00  0.00     0.007 A 
ATOM     18  C   UNL     1      -0.316  -0.819   1.253  1.00  0.00     0.007 A 
ATOM     19  C   UNL     1      -1.471  -3.232   2.016  1.00  0.00     0.039 A 
ATOM     20  C   UNL     1      -0.027  -1.379   2.505  1.00  0.00     0.039 A 
ATOM     21  C   UNL     1      -0.589  -2.592   2.865  1.00  0.00     0.123 A 
ATOM     22  F   UNL     1      -0.290  -3.142   4.048  1.00  0.00    -0.207 F 
ENDBRANCH  14  16
ENDBRANCH   8  14
ENDBRANCH   5   8
ENDBRANCH   3   4
ENDBRANCH   2   3
ENDBRANCH   1   2
BRANCH   1  23
ATOM     23  C   UNL     1      -1.399  -2.374  -8.546  1.00  0.00     0.002 C 
BRANCH  23  24
ATOM     24  C   UNL     1      -0.270  -3.319  -8.965  1.00  0.00     0.021 C 
BRANCH  24  25
ATOM     25  C   UNL     1      -0.725  -4.728  -9.334  1.00  0.00     0.116 C 
BRANCH  25  26
ATOM     26  N   UNL     1      -1.580  -4.732 -10.510  1.00  0.00    -0.352 N 
ATOM     27  C   UNL     1      -1.442  -5.434 -11.677  1.00  0.00     0.251 C 
ATOM     28  H   UNL     1      -2.370  -4.147 -10.460  1.00  0.00     0.163 HD
ATOM     29  O   UNL     1      -2.144  -5.156 -12.653  1.00  0.00    -0.269 OA
BRANCH  27  30
ATOM     30  C   UNL     1      -0.446  -6.519 -11.778  1.00  0.00     0.039 A 
ATOM     31  C   UNL     1       0.342  -6.610 -12.929  1.00  0.00     0.014 A 
ATOM     32  C   UNL     1      -0.308  -7.463 -10.756  1.00  0.00     0.014 A 
ATOM     33  C   UNL     1       1.298  -7.621 -13.036  1.00  0.00     0.010 A 
ATOM     34  C   UNL     1       0.691  -8.430 -10.835  1.00  0.00     0.010 A 
ATOM     35  C   UNL     1       1.495  -8.527 -11.980  1.00  0.00    -0.014 A 
BRANCH  35  36
ATOM     36  C   UNL     1       2.524  -9.592 -12.069  1.00  0.00     0.031 A 
ATOM     37  C   UNL     1       2.114 -11.039 -12.098  1.00  0.00     0.074 A 
ATOM     38  C   UNL     1       3.830  -9.261 -12.076  1.00  0.00     0.049 A 
ATOM     39  N   UNL     1       2.867 -12.110 -12.138  1.00  0.00    -0.248 NA
ATOM     40  C   UNL     1       0.671 -11.321 -12.051  1.00  0.00     0.031 C 
ATOM     41  C   UNL     1       4.359  -7.897 -12.014  1.00  0.00     0.029 A 
ATOM     42  N   UNL     1       4.950 -10.050 -12.136  1.00  0.00    -0.354 N 
ATOM     43  C   UNL     1       1.991 -13.188 -12.105  1.00  0.00     0.074 A 
ATOM     44  C   UNL     1       0.655 -12.645 -11.991  1.00  0.00     0.031 C 
ATOM     45  C   UNL     1       5.700  -7.944 -12.069  1.00  0.00     0.029 A 
ATOM     46  C   UNL     1       6.125  -9.339 -12.133  1.00  0.00     0.049 A 
ATOM     47  H   UNL     1       4.915 -11.033 -12.178  1.00  0.00     0.167 HD
ATOM     48  C   UNL     1       2.270 -14.511 -12.182  1.00  0.00     0.031 A 
ATOM     49  C   UNL     1       7.402  -9.763 -12.178  1.00  0.00     0.031 A 
ATOM     50  C   UNL     1       3.596 -15.053 -12.308  1.00  0.00     0.049 A 
ATOM     51  C   UNL     1       7.685 -11.237 -12.262  1.00  0.00     0.074 A 
ATOM     52  C   UNL     1       3.978 -16.376 -12.445  1.00  0.00     0.029 A 
ATOM     53  N   UNL     1       4.758 -14.298 -12.314  1.00  0.00    -0.354 N 
ATOM     54  N   UNL     1       6.842 -12.240 -12.293  1.00  0.00    -0.248 NA
ATOM     55  C   UNL     1       9.099 -11.633 -12.333  1.00  0.00     0.031 C 
ATOM     56  C   UNL     1       5.376 -16.425 -12.488  1.00  0.00     0.029 A 
ATOM     57  C   UNL     1       5.860 -15.128 -12.434  1.00  0.00     0.049 A 
ATOM     58  H   UNL     1       4.795 -13.316 -12.243  1.00  0.00     0.167 HD
ATOM     59  C   UNL     1       7.620 -13.384 -12.419  1.00  0.00     0.074 A 
ATOM     60  C   UNL     1       9.001 -12.948 -12.473  1.00  0.00     0.031 C 
ATOM     61  C   UNL     1       7.227 -14.679 -12.487  1.00  0.00     0.031 A 
BRANCH  48  62
ATOM     62  C   UNL     1       1.109 -15.466 -12.125  1.00  0.00    -0.014 A 
ATOM     63  C   UNL     1       0.199 -15.569 -13.190  1.00  0.00     0.009 A 
ATOM     64  C   UNL     1       0.940 -16.295 -11.006  1.00  0.00     0.009 A 
ATOM     65  C   UNL     1      -0.878 -16.454 -13.118  1.00  0.00     0.001 A 
ATOM     66  C   UNL     1      -0.121 -17.201 -10.949  1.00  0.00     0.001 A 
ATOM     67  C   UNL     1      -1.035 -17.272 -12.000  1.00  0.00     0.000 A 
ENDBRANCH  48  62
BRANCH  49  68
ATOM     68  C   UNL     1       8.514  -8.777 -12.171  1.00  0.00    -0.014 A 
ATOM     69  C   UNL     1       9.279  -8.560 -13.327  1.00  0.00     0.009 A 
ATOM     70  C   UNL     1       8.822  -8.055 -11.007  1.00  0.00     0.009 A 
ATOM     71  C   UNL     1      10.348  -7.662 -13.310  1.00  0.00     0.001 A 
ATOM     72  C   UNL     1       9.873  -7.136 -11.002  1.00  0.00     0.001 A 
ATOM     73  C   UNL     1      10.642  -6.948 -12.149  1.00  0.00     0.000 A 
ENDBRANCH  49  68
BRANCH  61  74
ATOM     74  C   UNL     1       8.302 -15.713 -12.670  1.00  0.00    -0.014 A 
ATOM     75  C   UNL     1       9.180 -16.047 -11.628  1.00  0.00     0.009 A 
ATOM     76  C   UNL     1       8.414 -16.384 -13.898  1.00  0.00     0.009 A 
ATOM     77  C   UNL     1      10.175 -17.007 -11.826  1.00  0.00     0.001 A 
ATOM     78  C   UNL     1       9.390 -17.364 -14.083  1.00  0.00     0.001 A 
ATOM     79  C   UNL     1      10.276 -17.667 -13.050  1.00  0.00     0.000 A 
ENDBRANCH  61  74
ENDBRANCH  35  36
ENDBRANCH  27  30
ENDBRANCH  25  26
ENDBRANCH  24  25
ENDBRANCH  23  24
ENDBRANCH   1  23
TORSDOF 17
