REMARK SMILES Cc1csc(CNC(=O)NC[C@H]2CC[C@@H](C(=O)NCCCCCCNC(=O)c3ccc(-c4c5nc(c(-c6ccccc6)c6ccc([nH]6)c(-c6ccccc6)c6nc(c(-c7ccccc7)c7ccc4[nH]7)C=C6)C=C5)cc3)CC2)n1
REMARK SMILES IDX 20 1 19 2 18 3 16 4 17 5 15 7 12 8 13 9 77 10 14 11 76 12
REMARK SMILES IDX 11 13 10 14 7 15 8 16 9 18 6 20 5 21 1 22 2 23 3 24 78 25
REMARK SMILES IDX 4 26 21 27 22 28 23 29 24 30 25 31 26 32 27 34 28 35 29 36
REMARK SMILES IDX 75 37 30 38 74 39 31 40 32 41 33 42 68 43 34 44 73 45 67 46
REMARK SMILES IDX 69 47 35 48 72 49 66 50 65 51 36 53 58 54 43 55 57 56 44 57
REMARK SMILES IDX 47 58 56 59 70 60 45 61 46 62 55 64 71 65 48 66 37 67 38 68
REMARK SMILES IDX 42 69 39 70 41 71 40 72 59 73 60 74 64 75 61 76 63 77 62 78
REMARK SMILES IDX 49 79 50 80 54 81 51 82 53 83 52 84
REMARK H PARENT 18 6 7 17 10 19 25 33 69 52 47 63
REMARK Flexibility Score: inf
ROOT
ATOM      1  C   UNL     1      -1.259   4.059   4.328  1.00  0.00     0.021 C 
ENDROOT
BRANCH   1   2
ATOM      2  C   UNL     1      -0.865   5.533   4.208  1.00  0.00     0.116 C 
BRANCH   2   3
ATOM      3  N   UNL     1      -0.344   6.123   5.415  1.00  0.00    -0.356 N 
ATOM      4  C   UNL     1       0.823   6.774   5.659  1.00  0.00     0.223 C 
ATOM      5  O   UNL     1       0.863   7.419   6.715  1.00  0.00    -0.275 OA
ATOM      6  H   UNL     1      -0.935   6.040   6.197  1.00  0.00     0.163 HD
BRANCH   4   7
ATOM      7  C   UNL     1       2.071   6.748   4.753  1.00  0.00     0.078 C 
ATOM      8  C   UNL     1       2.020   5.439   2.019  1.00  0.00     0.008 C 
ATOM      9  C   UNL     1       1.577   6.906   2.215  1.00  0.00     0.006 C 
ATOM     10  C   UNL     1       2.267   4.622   3.304  1.00  0.00     0.006 C 
ATOM     11  C   UNL     1       2.053   7.596   3.485  1.00  0.00     0.014 C 
ATOM     12  C   UNL     1       2.723   5.389   4.534  1.00  0.00     0.014 C 
BRANCH   8  13
ATOM     13  C   UNL     1       0.985   4.688   1.147  1.00  0.00     0.121 C 
BRANCH  13  14
ATOM     14  N   UNL     1       0.961   5.146  -0.223  1.00  0.00    -0.338 N 
ATOM     15  N   UNL     1       1.541   3.253  -1.495  1.00  0.00    -0.332 N 
ATOM     16  C   UNL     1       0.987   4.463  -1.374  1.00  0.00     0.315 C 
ATOM     17  H   UNL     1       1.306   2.798  -2.336  1.00  0.00     0.165 HD
ATOM     18  O   UNL     1       0.490   4.987  -2.372  1.00  0.00    -0.249 OA
ATOM     19  H   UNL     1       0.917   6.124  -0.327  1.00  0.00     0.165 HD
BRANCH  15  20
ATOM     20  C   UNL     1       2.417   2.473  -0.641  1.00  0.00     0.185 C 
BRANCH  20  21
ATOM     21  C   UNL     1       1.728   1.195  -0.259  1.00  0.00     0.112 A 
ATOM     22  C   UNL     1      -1.246  -0.514   0.764  1.00  0.00     0.067 C 
ATOM     23  C   UNL     1       0.136  -0.216   0.350  1.00  0.00     0.049 A 
ATOM     24  C   UNL     1       1.110  -1.132   0.012  1.00  0.00     0.090 A 
ATOM     25  N   UNL     1       0.507   1.110   0.232  1.00  0.00    -0.245 NA
ATOM     26  S   UNL     1       2.528  -0.314  -0.483  1.00  0.00    -0.125 S 
ENDBRANCH  20  21
ENDBRANCH  15  20
ENDBRANCH  13  14
ENDBRANCH   8  13
ENDBRANCH   4   7
ENDBRANCH   2   3
ENDBRANCH   1   2
BRANCH   1  27
ATOM     27  C   UNL     1      -2.767   3.799   4.375  1.00  0.00     0.002 C 
BRANCH  27  28
ATOM     28  C   UNL     1      -3.576   4.295   3.166  1.00  0.00     0.002 C 
BRANCH  28  29
ATOM     29  C   UNL     1      -3.252   3.661   1.806  1.00  0.00     0.021 C 
BRANCH  29  30
ATOM     30  C   UNL     1      -3.541   2.163   1.674  1.00  0.00     0.116 C 
BRANCH  30  31
ATOM     31  N   UNL     1      -4.926   1.820   1.976  1.00  0.00    -0.352 N 
ATOM     32  C   UNL     1      -5.849   1.130   1.229  1.00  0.00     0.251 C 
ATOM     33  H   UNL     1      -5.250   2.132   2.852  1.00  0.00     0.163 HD
ATOM     34  O   UNL     1      -7.018   1.044   1.604  1.00  0.00    -0.269 OA
BRANCH  32  35
ATOM     35  C   UNL     1      -5.442   0.475  -0.028  1.00  0.00     0.039 A 
ATOM     36  C   UNL     1      -6.005   0.864  -1.242  1.00  0.00     0.014 A 
ATOM     37  C   UNL     1      -4.494  -0.541  -0.002  1.00  0.00     0.014 A 
ATOM     38  C   UNL     1      -5.533   0.303  -2.438  1.00  0.00     0.010 A 
ATOM     39  C   UNL     1      -3.968  -1.031  -1.204  1.00  0.00     0.010 A 
ATOM     40  C   UNL     1      -4.445  -0.593  -2.448  1.00  0.00    -0.014 A 
BRANCH  40  41
ATOM     41  C   UNL     1      -3.755  -0.996  -3.724  1.00  0.00     0.031 A 
ATOM     42  C   UNL     1      -3.413  -2.439  -4.041  1.00  0.00     0.074 A 
ATOM     43  C   UNL     1      -3.315  -0.046  -4.582  1.00  0.00     0.049 A 
ATOM     44  N   UNL     1      -2.726  -2.926  -5.051  1.00  0.00    -0.248 NA
ATOM     45  C   UNL     1      -3.843  -3.463  -3.077  1.00  0.00     0.031 C 
ATOM     46  C   UNL     1      -3.440   1.401  -4.391  1.00  0.00     0.029 A 
ATOM     47  N   UNL     1      -2.669  -0.154  -5.795  1.00  0.00    -0.354 N 
ATOM     48  C   UNL     1      -2.598  -4.290  -4.810  1.00  0.00     0.074 A 
ATOM     49  C   UNL     1      -3.222  -4.543  -3.529  1.00  0.00     0.031 C 
ATOM     50  C   UNL     1      -2.968   2.037  -5.474  1.00  0.00     0.029 A 
ATOM     51  C   UNL     1      -2.441   1.055  -6.413  1.00  0.00     0.049 A 
ATOM     52  H   UNL     1      -2.396  -1.017  -6.184  1.00  0.00     0.167 HD
ATOM     53  C   UNL     1      -2.050  -5.258  -5.588  1.00  0.00     0.031 A 
ATOM     54  C   UNL     1      -1.872   1.358  -7.597  1.00  0.00     0.031 A 
ATOM     55  C   UNL     1      -1.493  -5.044  -6.899  1.00  0.00     0.049 A 
ATOM     56  C   UNL     1      -1.333   0.264  -8.476  1.00  0.00     0.074 A 
ATOM     57  C   UNL     1      -1.030  -5.989  -7.801  1.00  0.00     0.029 A 
ATOM     58  N   UNL     1      -1.335  -3.808  -7.503  1.00  0.00    -0.354 N 
ATOM     59  N   UNL     1      -1.316  -1.029  -8.269  1.00  0.00    -0.248 NA
ATOM     60  C   UNL     1      -0.735   0.675  -9.756  1.00  0.00     0.031 C 
ATOM     61  C   UNL     1      -0.549  -5.322  -8.932  1.00  0.00     0.029 A 
ATOM     62  C   UNL     1      -0.764  -3.966  -8.757  1.00  0.00     0.049 A 
ATOM     63  H   UNL     1      -1.590  -2.946  -7.102  1.00  0.00     0.167 HD
ATOM     64  C   UNL     1      -0.731  -1.584  -9.401  1.00  0.00     0.074 A 
ATOM     65  C   UNL     1      -0.427  -0.493 -10.301  1.00  0.00     0.031 C 
ATOM     66  C   UNL     1      -0.468  -2.887  -9.662  1.00  0.00     0.031 A 
BRANCH  53  67
ATOM     67  C   UNL     1      -2.048  -6.668  -5.053  1.00  0.00    -0.014 A 
ATOM     68  C   UNL     1      -3.244  -7.384  -4.883  1.00  0.00     0.009 A 
ATOM     69  C   UNL     1      -0.832  -7.311  -4.771  1.00  0.00     0.009 A 
ATOM     70  C   UNL     1      -3.227  -8.690  -4.389  1.00  0.00     0.001 A 
ATOM     71  C   UNL     1      -0.815  -8.632  -4.314  1.00  0.00     0.001 A 
ATOM     72  C   UNL     1      -2.012  -9.314  -4.110  1.00  0.00     0.000 A 
ENDBRANCH  53  67
BRANCH  54  73
ATOM     73  C   UNL     1      -1.804   2.775  -8.050  1.00  0.00    -0.014 A 
ATOM     74  C   UNL     1      -2.590   3.209  -9.130  1.00  0.00     0.009 A 
ATOM     75  C   UNL     1      -0.947   3.692  -7.424  1.00  0.00     0.009 A 
ATOM     76  C   UNL     1      -2.494   4.523  -9.594  1.00  0.00     0.001 A 
ATOM     77  C   UNL     1      -0.880   5.015  -7.868  1.00  0.00     0.001 A 
ATOM     78  C   UNL     1      -1.643   5.426  -8.960  1.00  0.00     0.000 A 
ENDBRANCH  54  73
BRANCH  66  79
ATOM     79  C   UNL     1       0.149  -3.224 -10.992  1.00  0.00    -0.014 A 
ATOM     80  C   UNL     1       1.488  -2.913 -11.276  1.00  0.00     0.009 A 
ATOM     81  C   UNL     1      -0.606  -3.913 -11.954  1.00  0.00     0.009 A 
ATOM     82  C   UNL     1       2.049  -3.264 -12.507  1.00  0.00     0.001 A 
ATOM     83  C   UNL     1      -0.034  -4.288 -13.171  1.00  0.00     0.001 A 
ATOM     84  C   UNL     1       1.291  -3.957 -13.449  1.00  0.00     0.000 A 
ENDBRANCH  66  79
ENDBRANCH  40  41
ENDBRANCH  32  35
ENDBRANCH  30  31
ENDBRANCH  29  30
ENDBRANCH  28  29
ENDBRANCH  27  28
ENDBRANCH   1  27
TORSDOF 17
