REMARK SMILES CC(C)n1c2c(c3ccccc31)[C@@H](c1ccccc1)N(CC(=O)NCCCCCCNC(=O)c1ccc(-c3c4nc(c(-c5ccccc5)c5ccc([nH]5)c(-c5ccccc5)c5nc(c(-c6ccccc6)c6ccc3[nH]6)C=C5)C=C4)cc1)C2=O
REMARK SMILES IDX 27 1 26 2 25 3 24 4 22 5 23 6 21 8 20 9 4 10 5 11 12 12 6 13
REMARK SMILES IDX 82 14 7 15 11 16 13 17 83 18 8 19 10 20 9 21 2 22 1 23 3 24
REMARK SMILES IDX 14 25 15 26 19 27 16 28 18 29 17 30 28 31 29 32 30 33 31 34
REMARK SMILES IDX 32 35 33 37 34 38 35 39 81 40 36 41 80 42 37 43 38 44 39 45
REMARK SMILES IDX 74 46 40 47 79 48 73 49 75 50 41 51 78 52 72 53 71 54 42 56
REMARK SMILES IDX 64 57 49 58 63 59 50 60 53 61 62 62 76 63 51 64 52 65 61 67
REMARK SMILES IDX 77 68 54 69 43 70 44 71 48 72 45 73 47 74 46 75 65 76 66 77
REMARK SMILES IDX 70 78 67 79 69 80 68 81 55 82 56 83 60 84 57 85 59 86 58 87
REMARK H PARENT 24 7 31 36 75 55 53 66
REMARK Flexibility Score: inf
ROOT
ATOM      1  C   UNL     1      -2.769  -2.363   5.817  1.00  0.00     0.002 C 
ENDROOT
BRANCH   1   2
ATOM      2  C   UNL     1      -2.460  -2.862   4.402  1.00  0.00     0.021 C 
BRANCH   2   3
ATOM      3  C   UNL     1      -2.581  -4.376   4.234  1.00  0.00     0.116 C 
BRANCH   3   4
ATOM      4  N   UNL     1      -3.964  -4.768   4.054  1.00  0.00    -0.355 N 
ATOM      5  C   UNL     1      -4.601  -5.123   2.899  1.00  0.00     0.239 C 
ATOM      6  O   UNL     1      -5.822  -5.298   2.930  1.00  0.00    -0.273 OA
ATOM      7  H   UNL     1      -4.516  -4.779   4.869  1.00  0.00     0.163 HD
BRANCH   5   8
ATOM      8  C   UNL     1      -3.817  -5.248   1.586  1.00  0.00     0.220 C 
BRANCH   8   9
ATOM      9  N   UNL     1      -3.434  -3.949   1.061  1.00  0.00    -0.317 N 
ATOM     10  N   UNL     1      -1.392  -1.021   0.908  1.00  0.00    -0.334 N 
ATOM     11  C   UNL     1      -2.210  -2.106   0.874  1.00  0.00     0.114 A 
ATOM     12  C   UNL     1      -2.203   0.115   0.981  1.00  0.00     0.049 A 
ATOM     13  C   UNL     1      -3.517  -1.708   0.823  1.00  0.00     0.018 A 
ATOM     14  C   UNL     1      -2.110  -3.520   0.987  1.00  0.00     0.272 C 
ATOM     15  C   UNL     1      -3.549  -0.310   0.917  1.00  0.00     0.006 A 
ATOM     16  C   UNL     1      -1.897   1.480   1.111  1.00  0.00     0.027 A 
ATOM     17  C   UNL     1      -4.434  -2.877   0.794  1.00  0.00     0.150 C 
ATOM     18  O   UNL     1      -1.095  -4.191   1.125  1.00  0.00    -0.267 OA
ATOM     19  C   UNL     1      -4.587   0.637   0.971  1.00  0.00     0.011 A 
ATOM     20  C   UNL     1      -2.947   2.404   1.146  1.00  0.00     0.002 A 
ATOM     21  C   UNL     1      -4.273   1.993   1.077  1.00  0.00     0.001 A 
BRANCH  10  22
ATOM     22  C   UNL     1       0.068  -1.099   0.921  1.00  0.00     0.082 C 
ATOM     23  C   UNL     1       0.750  -0.195  -0.108  1.00  0.00     0.031 C 
ATOM     24  C   UNL     1       0.642  -0.890   2.321  1.00  0.00     0.031 C 
ENDBRANCH  10  22
BRANCH  17  25
ATOM     25  C   UNL     1      -5.057  -3.017  -0.587  1.00  0.00    -0.021 A 
ATOM     26  C   UNL     1      -6.036  -4.013  -0.773  1.00  0.00     0.006 A 
ATOM     27  C   UNL     1      -4.699  -2.251  -1.713  1.00  0.00     0.006 A 
ATOM     28  C   UNL     1      -6.596  -4.259  -2.030  1.00  0.00     0.000 A 
ATOM     29  C   UNL     1      -5.276  -2.480  -2.965  1.00  0.00     0.000 A 
ATOM     30  C   UNL     1      -6.214  -3.492  -3.127  1.00  0.00     0.000 A 
ENDBRANCH  17  25
ENDBRANCH   8   9
ENDBRANCH   5   8
ENDBRANCH   3   4
ENDBRANCH   2   3
ENDBRANCH   1   2
BRANCH   1  31
ATOM     31  C   UNL     1      -1.823  -2.886   6.903  1.00  0.00     0.002 C 
BRANCH  31  32
ATOM     32  C   UNL     1      -0.330  -2.647   6.643  1.00  0.00     0.021 C 
BRANCH  32  33
ATOM     33  C   UNL     1       0.040  -1.181   6.413  1.00  0.00     0.116 C 
BRANCH  33  34
ATOM     34  N   UNL     1      -0.314  -0.316   7.519  1.00  0.00    -0.352 N 
ATOM     35  C   UNL     1       0.278   0.033   8.699  1.00  0.00     0.251 C 
ATOM     36  H   UNL     1      -1.185   0.124   7.389  1.00  0.00     0.163 HD
ATOM     37  O   UNL     1      -0.298   0.899   9.362  1.00  0.00    -0.269 OA
BRANCH  35  38
ATOM     38  C   UNL     1       1.499  -0.601   9.266  1.00  0.00     0.039 A 
ATOM     39  C   UNL     1       2.310  -1.534   8.622  1.00  0.00     0.014 A 
ATOM     40  C   UNL     1       1.798  -0.258  10.600  1.00  0.00     0.014 A 
ATOM     41  C   UNL     1       3.301  -2.206   9.328  1.00  0.00     0.010 A 
ATOM     42  C   UNL     1       2.803  -0.907  11.303  1.00  0.00     0.010 A 
ATOM     43  C   UNL     1       3.511  -1.926  10.681  1.00  0.00    -0.014 A 
BRANCH  43  44
ATOM     44  C   UNL     1       4.561  -2.662  11.375  1.00  0.00     0.031 A 
ATOM     45  C   UNL     1       5.925  -2.461  10.813  1.00  0.00     0.074 A 
ATOM     46  C   UNL     1       4.344  -3.400  12.482  1.00  0.00     0.049 A 
ATOM     47  N   UNL     1       6.708  -3.348  10.294  1.00  0.00    -0.248 NA
ATOM     48  C   UNL     1       6.425  -1.081  10.705  1.00  0.00     0.031 C 
ATOM     49  C   UNL     1       3.124  -3.473  13.291  1.00  0.00     0.029 A 
ATOM     50  N   UNL     1       5.221  -4.173  13.183  1.00  0.00    -0.354 N 
ATOM     51  C   UNL     1       7.871  -2.671   9.932  1.00  0.00     0.074 A 
ATOM     52  C   UNL     1       7.591  -1.267  10.087  1.00  0.00     0.031 C 
ATOM     53  C   UNL     1       3.412  -4.041  14.485  1.00  0.00     0.029 A 
ATOM     54  C   UNL     1       4.786  -4.511  14.459  1.00  0.00     0.049 A 
ATOM     55  H   UNL     1       6.087  -4.467  12.818  1.00  0.00     0.167 HD
ATOM     56  C   UNL     1       9.045  -3.327   9.718  1.00  0.00     0.031 A 
ATOM     57  C   UNL     1       5.522  -5.085  15.443  1.00  0.00     0.031 A 
ATOM     58  C   UNL     1       8.836  -4.733   9.507  1.00  0.00     0.049 A 
ATOM     59  C   UNL     1       6.683  -5.743  14.807  1.00  0.00     0.074 A 
ATOM     60  C   UNL     1       8.226  -5.491   8.531  1.00  0.00     0.029 A 
ATOM     61  N   UNL     1       8.983  -5.549  10.600  1.00  0.00    -0.354 N 
ATOM     62  N   UNL     1       6.585  -6.775  14.020  1.00  0.00    -0.248 NA
ATOM     63  C   UNL     1       7.928  -5.000  14.715  1.00  0.00     0.031 C 
ATOM     64  C   UNL     1       7.635  -6.582   9.229  1.00  0.00     0.029 A 
ATOM     65  C   UNL     1       7.973  -6.474  10.581  1.00  0.00     0.049 A 
ATOM     66  H   UNL     1       9.691  -5.481  11.281  1.00  0.00     0.167 HD
ATOM     67  C   UNL     1       7.536  -6.554  13.036  1.00  0.00     0.074 A 
ATOM     68  C   UNL     1       8.408  -5.516  13.581  1.00  0.00     0.031 C 
ATOM     69  C   UNL     1       7.357  -7.031  11.769  1.00  0.00     0.031 A 
BRANCH  56  70
ATOM     70  C   UNL     1      10.396  -2.764  10.082  1.00  0.00    -0.014 A 
ATOM     71  C   UNL     1      10.567  -1.627  10.894  1.00  0.00     0.009 A 
ATOM     72  C   UNL     1      11.545  -3.542   9.841  1.00  0.00     0.009 A 
ATOM     73  C   UNL     1      11.803  -1.293  11.455  1.00  0.00     0.001 A 
ATOM     74  C   UNL     1      12.776  -3.232  10.433  1.00  0.00     0.001 A 
ATOM     75  C   UNL     1      12.902  -2.110  11.245  1.00  0.00     0.000 A 
ENDBRANCH  56  70
BRANCH  57  76
ATOM     76  C   UNL     1       5.506  -4.763  16.889  1.00  0.00    -0.014 A 
ATOM     77  C   UNL     1       5.200  -3.454  17.308  1.00  0.00     0.009 A 
ATOM     78  C   UNL     1       6.081  -5.633  17.829  1.00  0.00     0.009 A 
ATOM     79  C   UNL     1       5.497  -3.017  18.603  1.00  0.00     0.001 A 
ATOM     80  C   UNL     1       6.377  -5.194  19.129  1.00  0.00     0.001 A 
ATOM     81  C   UNL     1       6.100  -3.882  19.509  1.00  0.00     0.000 A 
ENDBRANCH  57  76
BRANCH  69  82
ATOM     82  C   UNL     1       6.255  -8.038  11.528  1.00  0.00    -0.014 A 
ATOM     83  C   UNL     1       6.591  -9.229  10.865  1.00  0.00     0.009 A 
ATOM     84  C   UNL     1       4.894  -7.767  11.757  1.00  0.00     0.009 A 
ATOM     85  C   UNL     1       5.603 -10.108  10.416  1.00  0.00     0.001 A 
ATOM     86  C   UNL     1       3.905  -8.663  11.333  1.00  0.00     0.001 A 
ATOM     87  C   UNL     1       4.260  -9.825  10.650  1.00  0.00     0.000 A 
ENDBRANCH  69  82
ENDBRANCH  43  44
ENDBRANCH  35  38
ENDBRANCH  33  34
ENDBRANCH  32  33
ENDBRANCH  31  32
ENDBRANCH   1  31
TORSDOF 16
