REMARK SMILES CCc1cccc(C)c1Nc1ccccc1CC(=O)NCCCCCCNC(=O)c1ccc(-c2c3nc(c(-c4ccccc4)c4ccc([nH]4)c(-c4ccccc4)c4nc(c(-c5ccccc5)c5ccc2[nH]5)C=C4)C=C3)cc1
REMARK SMILES IDX 22 1 21 2 20 3 18 4 19 5 17 7 16 8 11 9 12 10 13 11 15 12
REMARK SMILES IDX 14 13 10 14 9 16 3 17 4 18 5 19 7 20 6 21 8 22 2 23 1 24
REMARK SMILES IDX 23 25 24 26 25 27 26 28 27 29 28 30 29 32 30 33 31 34 77 35
REMARK SMILES IDX 32 36 76 37 33 38 34 39 35 40 70 41 36 42 75 43 69 44 71 45
REMARK SMILES IDX 37 46 74 47 68 48 67 49 38 51 60 52 45 53 59 54 46 55 49 56
REMARK SMILES IDX 58 57 72 58 47 59 48 60 57 62 73 63 50 64 39 65 40 66 44 67
REMARK SMILES IDX 41 68 43 69 42 70 61 71 62 72 66 73 63 74 65 75 64 76 51 77
REMARK SMILES IDX 52 78 56 79 53 80 55 81 54 82
REMARK H PARENT 20 6 10 15 27 31 71 50 49 61
REMARK Flexibility Score: inf
ROOT
ATOM      1  C   UNL     1      -1.204   6.594  -2.592  1.00  0.00     0.021 C 
ENDROOT
BRANCH   1   2
ATOM      2  C   UNL     1      -2.447   5.906  -2.025  1.00  0.00     0.116 C 
BRANCH   2   3
ATOM      3  N   UNL     1      -2.497   4.483  -2.292  1.00  0.00    -0.356 N 
ATOM      4  C   UNL     1      -2.421   3.397  -1.475  1.00  0.00     0.224 C 
ATOM      5  O   UNL     1      -2.787   2.321  -1.963  1.00  0.00    -0.275 OA
ATOM      6  H   UNL     1      -2.607   4.260  -3.245  1.00  0.00     0.163 HD
BRANCH   4   7
ATOM      7  C   UNL     1      -2.083   3.499  -0.005  1.00  0.00     0.137 C 
BRANCH   7   8
ATOM      8  C   UNL     1      -0.740   4.073   0.399  1.00  0.00    -0.015 A 
ATOM      9  C   UNL     1       0.480   3.365   0.324  1.00  0.00     0.042 A 
ATOM     10  C   UNL     1       1.644   3.965   0.849  1.00  0.00     0.026 A 
ATOM     11  C   UNL     1       1.620   5.230   1.435  1.00  0.00     0.002 A 
ATOM     12  C   UNL     1      -0.745   5.339   1.030  1.00  0.00     0.006 A 
ATOM     13  C   UNL     1       0.420   5.918   1.529  1.00  0.00     0.000 A 
BRANCH   9  14
ATOM     14  N   UNL     1       0.640   2.093  -0.268  1.00  0.00    -0.355 N 
ATOM     15  H   UNL     1       0.926   1.391   0.360  1.00  0.00     0.167 HD
BRANCH  14  16
ATOM     16  C   UNL     1       0.464   1.642  -1.597  1.00  0.00     0.045 A 
ATOM     17  C   UNL     1       0.141   0.288  -1.864  1.00  0.00    -0.024 A 
ATOM     18  C   UNL     1      -0.280  -0.063  -3.169  1.00  0.00     0.006 A 
ATOM     19  C   UNL     1      -0.310   0.859  -4.207  1.00  0.00     0.001 A 
ATOM     20  C   UNL     1       0.599   2.524  -2.701  1.00  0.00    -0.027 A 
ATOM     21  C   UNL     1       0.166   2.138  -3.982  1.00  0.00     0.005 A 
ATOM     22  C   UNL     1       1.300   3.849  -2.583  1.00  0.00     0.046 C 
BRANCH  17  23
ATOM     23  C   UNL     1       0.183  -0.891  -0.904  1.00  0.00     0.034 C 
ATOM     24  C   UNL     1       0.902  -0.801   0.432  1.00  0.00     0.009 C 
ENDBRANCH  17  23
ENDBRANCH  14  16
ENDBRANCH   9  14
ENDBRANCH   7   8
ENDBRANCH   4   7
ENDBRANCH   2   3
ENDBRANCH   1   2
BRANCH   1  25
ATOM     25  C   UNL     1      -0.871   6.257  -4.055  1.00  0.00     0.002 C 
BRANCH  25  26
ATOM     26  C   UNL     1      -1.923   6.637  -5.106  1.00  0.00     0.002 C 
BRANCH  26  27
ATOM     27  C   UNL     1      -2.356   8.103  -5.115  1.00  0.00     0.021 C 
BRANCH  27  28
ATOM     28  C   UNL     1      -1.243   9.084  -5.460  1.00  0.00     0.116 C 
BRANCH  28  29
ATOM     29  N   UNL     1      -1.136   9.414  -6.873  1.00  0.00    -0.352 N 
ATOM     30  C   UNL     1      -0.206  10.197  -7.541  1.00  0.00     0.251 C 
ATOM     31  H   UNL     1      -1.834   9.019  -7.446  1.00  0.00     0.163 HD
ATOM     32  O   UNL     1      -0.364  10.438  -8.725  1.00  0.00    -0.269 OA
BRANCH  30  33
ATOM     33  C   UNL     1       1.054  10.614  -6.864  1.00  0.00     0.039 A 
ATOM     34  C   UNL     1       2.232  10.600  -7.626  1.00  0.00     0.014 A 
ATOM     35  C   UNL     1       1.131  10.813  -5.490  1.00  0.00     0.014 A 
ATOM     36  C   UNL     1       3.467  10.514  -6.987  1.00  0.00     0.010 A 
ATOM     37  C   UNL     1       2.337  10.619  -4.850  1.00  0.00     0.010 A 
ATOM     38  C   UNL     1       3.493  10.399  -5.600  1.00  0.00    -0.014 A 
BRANCH  38  39
ATOM     39  C   UNL     1       4.654   9.955  -4.846  1.00  0.00     0.031 A 
ATOM     40  C   UNL     1       5.452  10.919  -4.069  1.00  0.00     0.074 A 
ATOM     41  C   UNL     1       4.968   8.642  -4.808  1.00  0.00     0.049 A 
ATOM     42  N   UNL     1       6.680  10.725  -3.727  1.00  0.00    -0.248 NA
ATOM     43  C   UNL     1       4.945  12.228  -3.675  1.00  0.00     0.031 C 
ATOM     44  C   UNL     1       5.887   7.969  -3.895  1.00  0.00     0.029 A 
ATOM     45  N   UNL     1       4.662   7.671  -5.745  1.00  0.00    -0.354 N 
ATOM     46  C   UNL     1       7.017  11.706  -2.828  1.00  0.00     0.074 A 
ATOM     47  C   UNL     1       5.955  12.679  -2.926  1.00  0.00     0.031 C 
ATOM     48  C   UNL     1       6.250   6.792  -4.431  1.00  0.00     0.029 A 
ATOM     49  C   UNL     1       5.701   6.737  -5.776  1.00  0.00     0.049 A 
ATOM     50  H   UNL     1       3.847   7.642  -6.298  1.00  0.00     0.167 HD
ATOM     51  C   UNL     1       8.079  11.504  -1.998  1.00  0.00     0.031 A 
ATOM     52  C   UNL     1       6.444   6.547  -6.908  1.00  0.00     0.031 A 
ATOM     53  C   UNL     1       8.801  10.274  -2.332  1.00  0.00     0.049 A 
ATOM     54  C   UNL     1       7.912   6.883  -6.743  1.00  0.00     0.074 A 
ATOM     55  C   UNL     1       8.848   9.015  -1.755  1.00  0.00     0.029 A 
ATOM     56  N   UNL     1       9.408  10.159  -3.576  1.00  0.00    -0.354 N 
ATOM     57  N   UNL     1       8.397   7.586  -5.757  1.00  0.00    -0.248 NA
ATOM     58  C   UNL     1       8.944   6.493  -7.701  1.00  0.00     0.031 C 
ATOM     59  C   UNL     1       9.454   8.128  -2.685  1.00  0.00     0.029 A 
ATOM     60  C   UNL     1       9.798   8.856  -3.811  1.00  0.00     0.049 A 
ATOM     61  H   UNL     1       9.542  10.905  -4.205  1.00  0.00     0.167 HD
ATOM     62  C   UNL     1       9.746   7.764  -5.930  1.00  0.00     0.074 A 
ATOM     63  C   UNL     1      10.043   7.044  -7.154  1.00  0.00     0.031 C 
ATOM     64  C   UNL     1      10.482   8.510  -5.052  1.00  0.00     0.031 A 
BRANCH  51  65
ATOM     65  C   UNL     1       8.319  12.271  -0.715  1.00  0.00    -0.014 A 
ATOM     66  C   UNL     1       9.173  11.727   0.264  1.00  0.00     0.009 A 
ATOM     67  C   UNL     1       7.696  13.481  -0.369  1.00  0.00     0.009 A 
ATOM     68  C   UNL     1       9.329  12.312   1.530  1.00  0.00     0.001 A 
ATOM     69  C   UNL     1       7.831  14.065   0.899  1.00  0.00     0.001 A 
ATOM     70  C   UNL     1       8.641  13.472   1.854  1.00  0.00     0.000 A 
ENDBRANCH  51  65
BRANCH  52  71
ATOM     71  C   UNL     1       5.668   6.751  -8.164  1.00  0.00    -0.014 A 
ATOM     72  C   UNL     1       4.644   5.832  -8.469  1.00  0.00     0.009 A 
ATOM     73  C   UNL     1       5.665   7.996  -8.809  1.00  0.00     0.009 A 
ATOM     74  C   UNL     1       3.580   6.197  -9.299  1.00  0.00     0.001 A 
ATOM     75  C   UNL     1       4.603   8.352  -9.650  1.00  0.00     0.001 A 
ATOM     76  C   UNL     1       3.544   7.469  -9.863  1.00  0.00     0.000 A 
ENDBRANCH  52  71
BRANCH  64  77
ATOM     77  C   UNL     1      11.916   8.976  -5.213  1.00  0.00    -0.014 A 
ATOM     78  C   UNL     1      12.652   8.933  -6.402  1.00  0.00     0.009 A 
ATOM     79  C   UNL     1      12.548   9.612  -4.115  1.00  0.00     0.009 A 
ATOM     80  C   UNL     1      13.948   9.469  -6.484  1.00  0.00     0.001 A 
ATOM     81  C   UNL     1      13.818  10.188  -4.203  1.00  0.00     0.001 A 
ATOM     82  C   UNL     1      14.524  10.108  -5.391  1.00  0.00     0.000 A 
ENDBRANCH  64  77
ENDBRANCH  38  39
ENDBRANCH  30  33
ENDBRANCH  28  29
ENDBRANCH  27  28
ENDBRANCH  26  27
ENDBRANCH  25  26
ENDBRANCH   1  25
TORSDOF 17
