REMARK SMILES Cc1c[nH]c(C[N@H+]2C[C@@H]3CN(S(C)(=O)=O)C[C@]3(C(=O)NCCCCCCNC(=O)c3ccc(-c4c5nc(c(-c6ccccc6)c6ccc([nH]6)c(-c6ccccc6)c6nc(c(-c7ccccc7)c7ccc4[nH]7)C=C6)C=C5)cc3)C2)n1
REMARK SMILES IDX 23 1 22 2 21 3 20 4 18 5 19 6 17 8 7 9 8 10 78 11 9 13 10 14
REMARK SMILES IDX 16 15 11 16 6 17 5 18 1 19 2 20 3 21 79 22 4 23 12 25 13 26
REMARK SMILES IDX 14 27 15 28 24 29 25 30 26 31 27 32 28 33 29 35 30 36 31 37
REMARK SMILES IDX 77 38 32 39 76 40 33 41 34 42 35 43 70 44 36 45 75 46 69 47
REMARK SMILES IDX 71 48 37 49 74 50 68 51 67 52 38 54 60 55 45 56 59 57 46 58
REMARK SMILES IDX 49 59 58 60 72 61 47 62 48 63 57 65 73 66 50 67 39 68 40 69
REMARK SMILES IDX 44 70 41 71 43 72 42 73 61 74 62 75 66 76 63 77 65 78 64 79
REMARK SMILES IDX 51 80 52 81 56 82 53 83 55 84 54 85
REMARK H PARENT 20 7 7 12 4 24 27 34 71 53 49 64
REMARK Flexibility Score: inf
ROOT
ATOM      1  C   UNL     1      -0.129   8.745   4.533  1.00  0.00     0.002 C 
ENDROOT
BRANCH   1   2
ATOM      2  C   UNL     1      -0.173   7.231   4.720  1.00  0.00     0.021 C 
BRANCH   2   3
ATOM      3  C   UNL     1      -1.149   6.531   3.769  1.00  0.00     0.116 C 
BRANCH   3   4
ATOM      4  N   UNL     1      -0.434   6.059   2.599  1.00  0.00    -0.355 N 
ATOM      5  C   UNL     1       0.003   4.769   2.377  1.00  0.00     0.233 C 
ATOM      6  O   UNL     1       1.037   4.618   1.728  1.00  0.00    -0.274 OA
ATOM      7  H   UNL     1      -0.242   6.721   1.897  1.00  0.00     0.163 HD
BRANCH   5   8
ATOM      8  C   UNL     1      -0.896   3.604   2.953  1.00  0.00     0.121 C 
ATOM      9  N   UNL     1      -2.362   2.357   1.307  1.00  0.00    -0.327 N 
ATOM     10  C   UNL     1      -2.198   1.520   2.470  1.00  0.00     0.268 C 
ATOM     11  C   UNL     1      -1.301   3.384   1.417  1.00  0.00     0.281 C 
ATOM     12  H   UNL     1      -3.293   2.773   1.292  1.00  0.00     0.348 HD
ATOM     13  C   UNL     1      -0.887   2.002   3.062  1.00  0.00     0.082 C 
ATOM     14  C   UNL     1      -0.821   1.534   4.516  1.00  0.00     0.113 C 
ATOM     15  C   UNL     1       0.141   3.602   4.141  1.00  0.00     0.125 C 
ATOM     16  N   UNL     1      -0.440   2.749   5.207  1.00  0.00    -0.200 NA
BRANCH   9  17
ATOM     17  C   UNL     1      -2.313   1.618   0.024  1.00  0.00     0.338 C 
BRANCH  17  18
ATOM     18  C   UNL     1      -1.158   0.663  -0.125  1.00  0.00     0.161 A 
ATOM     19  C   UNL     1       2.287  -0.219  -0.103  1.00  0.00     0.068 C 
ATOM     20  C   UNL     1       0.809  -0.218  -0.142  1.00  0.00     0.056 A 
ATOM     21  C   UNL     1      -0.076  -1.272  -0.114  1.00  0.00     0.107 A 
ATOM     22  N   UNL     1       0.123   0.969  -0.177  1.00  0.00    -0.233 NA
ATOM     23  N   UNL     1      -1.319  -0.702  -0.139  1.00  0.00    -0.344 N 
ATOM     24  H   UNL     1      -2.177  -1.184  -0.162  1.00  0.00     0.167 HD
ENDBRANCH  17  18
ENDBRANCH   9  17
BRANCH  16  25
ATOM     25  S   UNL     1      -1.483   3.378   6.370  1.00  0.00     0.211 S 
ATOM     26  C   UNL     1      -3.046   3.589   5.521  1.00  0.00     0.176 C 
ATOM     27  O   UNL     1      -1.689   2.354   7.369  1.00  0.00    -0.213 OA
ATOM     28  O   UNL     1      -1.004   4.694   6.741  1.00  0.00    -0.213 OA
ENDBRANCH  16  25
ENDBRANCH   5   8
ENDBRANCH   3   4
ENDBRANCH   2   3
ENDBRANCH   1   2
BRANCH   1  29
ATOM     29  C   UNL     1      -1.470   9.442   4.790  1.00  0.00     0.002 C 
BRANCH  29  30
ATOM     30  C   UNL     1      -2.132   9.087   6.125  1.00  0.00     0.021 C 
BRANCH  30  31
ATOM     31  C   UNL     1      -1.258   9.357   7.346  1.00  0.00     0.116 C 
BRANCH  31  32
ATOM     32  N   UNL     1      -0.835  10.748   7.389  1.00  0.00    -0.352 N 
ATOM     33  C   UNL     1      -1.137  11.721   8.301  1.00  0.00     0.251 C 
ATOM     34  H   UNL     1      -0.245  11.030   6.653  1.00  0.00     0.163 HD
ATOM     35  O   UNL     1      -0.960  12.903   8.021  1.00  0.00    -0.269 OA
BRANCH  33  36
ATOM     36  C   UNL     1      -1.666  11.347   9.627  1.00  0.00     0.039 A 
ATOM     37  C   UNL     1      -2.657  12.142  10.206  1.00  0.00     0.014 A 
ATOM     38  C   UNL     1      -1.147  10.249  10.320  1.00  0.00     0.014 A 
ATOM     39  C   UNL     1      -3.144  11.819  11.472  1.00  0.00     0.010 A 
ATOM     40  C   UNL     1      -1.694   9.879  11.543  1.00  0.00     0.010 A 
ATOM     41  C   UNL     1      -2.679  10.675  12.143  1.00  0.00    -0.014 A 
BRANCH  41  42
ATOM     42  C   UNL     1      -3.197  10.321  13.486  1.00  0.00     0.031 A 
ATOM     43  C   UNL     1      -2.278  10.325  14.677  1.00  0.00     0.074 A 
ATOM     44  C   UNL     1      -4.489   9.970  13.625  1.00  0.00     0.049 A 
ATOM     45  N   UNL     1      -2.550  10.051  15.928  1.00  0.00    -0.248 NA
ATOM     46  C   UNL     1      -0.865  10.657  14.430  1.00  0.00     0.031 C 
ATOM     47  C   UNL     1      -5.468   9.891  12.539  1.00  0.00     0.029 A 
ATOM     48  N   UNL     1      -5.203   9.619  14.742  1.00  0.00    -0.354 N 
ATOM     49  C   UNL     1      -1.345  10.166  16.610  1.00  0.00     0.074 A 
ATOM     50  C   UNL     1      -0.330  10.476  15.628  1.00  0.00     0.031 C 
ATOM     51  C   UNL     1      -6.663   9.555  13.049  1.00  0.00     0.029 A 
ATOM     52  C   UNL     1      -6.526   9.352  14.487  1.00  0.00     0.049 A 
ATOM     53  H   UNL     1      -4.805   9.564  15.641  1.00  0.00     0.167 HD
ATOM     54  C   UNL     1      -1.106  10.048  17.938  1.00  0.00     0.031 A 
ATOM     55  C   UNL     1      -7.517   8.984  15.319  1.00  0.00     0.031 A 
ATOM     56  C   UNL     1      -2.118   9.738  18.912  1.00  0.00     0.049 A 
ATOM     57  C   UNL     1      -7.221   8.836  16.786  1.00  0.00     0.074 A 
ATOM     58  C   UNL     1      -1.991   9.643  20.287  1.00  0.00     0.029 A 
ATOM     59  N   UNL     1      -3.444   9.464  18.612  1.00  0.00    -0.354 N 
ATOM     60  N   UNL     1      -6.092   9.024  17.426  1.00  0.00    -0.248 NA
ATOM     61  C   UNL     1      -8.344   8.440  17.647  1.00  0.00     0.031 C 
ATOM     62  C   UNL     1      -3.226   9.249  20.812  1.00  0.00     0.029 A 
ATOM     63  C   UNL     1      -4.140   9.171  19.773  1.00  0.00     0.049 A 
ATOM     64  H   UNL     1      -3.833   9.476  17.708  1.00  0.00     0.167 HD
ATOM     65  C   UNL     1      -6.375   8.800  18.767  1.00  0.00     0.074 A 
ATOM     66  C   UNL     1      -7.787   8.483  18.849  1.00  0.00     0.031 C 
ATOM     67  C   UNL     1      -5.543   8.854  19.837  1.00  0.00     0.031 A 
BRANCH  54  68
ATOM     68  C   UNL     1       0.310  10.242  18.409  1.00  0.00    -0.014 A 
ATOM     69  C   UNL     1       0.935  11.499  18.349  1.00  0.00     0.009 A 
ATOM     70  C   UNL     1       1.021   9.159  18.949  1.00  0.00     0.009 A 
ATOM     71  C   UNL     1       2.254  11.656  18.781  1.00  0.00     0.001 A 
ATOM     72  C   UNL     1       2.327   9.327  19.413  1.00  0.00     0.001 A 
ATOM     73  C   UNL     1       2.946  10.572  19.318  1.00  0.00     0.000 A 
ENDBRANCH  54  68
BRANCH  55  74
ATOM     74  C   UNL     1      -8.886   8.746  14.790  1.00  0.00    -0.014 A 
ATOM     75  C   UNL     1      -9.941   9.609  15.120  1.00  0.00     0.009 A 
ATOM     76  C   UNL     1      -9.146   7.646  13.957  1.00  0.00     0.009 A 
ATOM     77  C   UNL     1     -11.234   9.358  14.656  1.00  0.00     0.001 A 
ATOM     78  C   UNL     1     -10.433   7.417  13.466  1.00  0.00     0.001 A 
ATOM     79  C   UNL     1     -11.478   8.265  13.826  1.00  0.00     0.000 A 
ENDBRANCH  55  74
BRANCH  67  80
ATOM     80  C   UNL     1      -6.149   8.605  21.191  1.00  0.00    -0.014 A 
ATOM     81  C   UNL     1      -6.605   7.333  21.570  1.00  0.00     0.009 A 
ATOM     82  C   UNL     1      -6.237   9.661  22.113  1.00  0.00     0.009 A 
ATOM     83  C   UNL     1      -7.177   7.134  22.829  1.00  0.00     0.001 A 
ATOM     84  C   UNL     1      -6.775   9.451  23.383  1.00  0.00     0.001 A 
ATOM     85  C   UNL     1      -7.256   8.191  23.735  1.00  0.00     0.000 A 
ENDBRANCH  67  80
ENDBRANCH  41  42
ENDBRANCH  33  36
ENDBRANCH  31  32
ENDBRANCH  30  31
ENDBRANCH  29  30
ENDBRANCH   1  29
TORSDOF 16
