REMARK SMILES CC(C)C(=O)N1c2ccc(S(=O)(=O)N3CCOCC3)cc2C[C@H]1C(=O)NCCCCCCNC(=O)c1ccc(-c2c3nc(c(-c4ccccc4)c4ccc([nH]4)c(-c4ccccc4)c4nc(c(-c5ccccc5)c5ccc2[nH]5)C=C4)C=C3)cc1
REMARK SMILES IDX 29 1 28 2 27 3 26 4 24 5 25 6 23 8 6 9 7 10 8 11 21 12 22 13
REMARK SMILES IDX 9 14 20 15 10 16 4 17 5 18 2 19 1 20 3 21 11 22 12 23 13 24
REMARK SMILES IDX 14 25 15 26 19 27 16 28 18 29 17 30 30 31 31 32 32 33 33 34
REMARK SMILES IDX 34 35 35 37 36 38 37 39 83 40 38 41 82 42 39 43 40 44 41 45
REMARK SMILES IDX 76 46 42 47 81 48 75 49 77 50 43 51 80 52 74 53 73 54 44 56
REMARK SMILES IDX 66 57 51 58 65 59 52 60 55 61 64 62 78 63 53 64 54 65 63 67
REMARK SMILES IDX 79 68 56 69 45 70 46 71 50 72 47 73 49 74 48 75 67 76 68 77
REMARK SMILES IDX 72 78 69 79 71 80 70 81 57 82 58 83 62 84 59 85 61 86 60 87
REMARK H PARENT 26 7 33 36 77 55 55 66
REMARK Flexibility Score: inf
ROOT
ATOM      1  C   UNL     1      -5.107   0.453  -2.556  1.00  0.00     0.002 C 
ENDROOT
BRANCH   1   2
ATOM      2  C   UNL     1      -4.006   0.656  -1.507  1.00  0.00     0.021 C 
BRANCH   2   3
ATOM      3  C   UNL     1      -4.423   0.345  -0.072  1.00  0.00     0.116 C 
BRANCH   3   4
ATOM      4  N   UNL     1      -4.756  -1.048   0.125  1.00  0.00    -0.354 N 
ATOM      5  C   UNL     1      -4.143  -2.024   0.846  1.00  0.00     0.243 C 
ATOM      6  O   UNL     1      -4.784  -3.072   1.004  1.00  0.00    -0.273 OA
ATOM      7  H   UNL     1      -5.569  -1.342  -0.346  1.00  0.00     0.163 HD
BRANCH   5   8
ATOM      8  C   UNL     1      -2.836  -1.813   1.633  1.00  0.00     0.184 C 
ATOM      9  N   UNL     1      -1.733  -1.089   0.966  1.00  0.00    -0.299 N 
ATOM     10  C   UNL     1      -1.412   0.038   1.724  1.00  0.00     0.048 A 
ATOM     11  C   UNL     1      -0.630   1.111   1.364  1.00  0.00     0.028 A 
ATOM     12  C   UNL     1      -2.150   0.070   2.909  1.00  0.00    -0.020 A 
ATOM     13  C   UNL     1      -3.112  -1.080   2.968  1.00  0.00     0.073 C 
ATOM     14  C   UNL     1      -0.484   2.164   2.261  1.00  0.00     0.024 A 
ATOM     15  C   UNL     1      -2.010   1.111   3.824  1.00  0.00     0.027 A 
ATOM     16  C   UNL     1      -1.147   2.161   3.492  1.00  0.00     0.083 A 
BRANCH   9  17
ATOM     17  C   UNL     1      -1.087  -1.684  -0.095  1.00  0.00     0.230 C 
ATOM     18  O   UNL     1      -1.744  -2.297  -0.945  1.00  0.00    -0.274 OA
BRANCH  17  19
ATOM     19  C   UNL     1       0.447  -1.818  -0.128  1.00  0.00     0.073 C 
ATOM     20  C   UNL     1       1.280  -0.600  -0.489  1.00  0.00     0.018 C 
ATOM     21  C   UNL     1       0.968  -2.505   1.132  1.00  0.00     0.018 C 
ENDBRANCH  17  19
ENDBRANCH   9  17
BRANCH  16  22
ATOM     22  S   UNL     1      -0.945   3.522   4.627  1.00  0.00     0.243 S 
ATOM     23  O   UNL     1      -2.101   4.374   4.436  1.00  0.00    -0.207 OA
ATOM     24  O   UNL     1      -0.626   2.935   5.909  1.00  0.00    -0.207 OA
BRANCH  22  25
ATOM     25  N   UNL     1       0.412   4.338   4.079  1.00  0.00    -0.193 NA
ATOM     26  C   UNL     1       0.330   5.490   3.157  1.00  0.00     0.131 C 
ATOM     27  C   UNL     1       1.772   3.968   4.513  1.00  0.00     0.131 C 
ATOM     28  C   UNL     1       1.395   5.404   2.049  1.00  0.00     0.177 C 
ATOM     29  C   UNL     1       2.698   3.872   3.299  1.00  0.00     0.177 C 
ATOM     30  O   UNL     1       2.700   5.097   2.553  1.00  0.00    -0.379 OA
ENDBRANCH  22  25
ENDBRANCH  16  22
ENDBRANCH   5   8
ENDBRANCH   3   4
ENDBRANCH   2   3
ENDBRANCH   1   2
BRANCH   1  31
ATOM     31  C   UNL     1      -6.431   1.177  -2.285  1.00  0.00     0.002 C 
BRANCH  31  32
ATOM     32  C   UNL     1      -6.325   2.680  -2.017  1.00  0.00     0.021 C 
BRANCH  32  33
ATOM     33  C   UNL     1      -5.676   3.495  -3.130  1.00  0.00     0.116 C 
BRANCH  33  34
ATOM     34  N   UNL     1      -6.449   3.475  -4.359  1.00  0.00    -0.352 N 
ATOM     35  C   UNL     1      -6.831   4.518  -5.165  1.00  0.00     0.251 C 
ATOM     36  H   UNL     1      -6.742   2.583  -4.657  1.00  0.00     0.163 HD
ATOM     37  O   UNL     1      -7.618   4.326  -6.088  1.00  0.00    -0.269 OA
BRANCH  35  38
ATOM     38  C   UNL     1      -6.314   5.882  -4.918  1.00  0.00     0.039 A 
ATOM     39  C   UNL     1      -7.203   6.959  -4.981  1.00  0.00     0.014 A 
ATOM     40  C   UNL     1      -4.958   6.107  -4.660  1.00  0.00     0.014 A 
ATOM     41  C   UNL     1      -6.743   8.256  -4.741  1.00  0.00     0.010 A 
ATOM     42  C   UNL     1      -4.512   7.394  -4.364  1.00  0.00     0.010 A 
ATOM     43  C   UNL     1      -5.398   8.481  -4.411  1.00  0.00    -0.014 A 
BRANCH  43  44
ATOM     44  C   UNL     1      -4.892   9.849  -4.138  1.00  0.00     0.031 A 
ATOM     45  C   UNL     1      -3.904  10.488  -5.075  1.00  0.00     0.074 A 
ATOM     46  C   UNL     1      -5.275  10.496  -3.020  1.00  0.00     0.049 A 
ATOM     47  N   UNL     1      -3.294  11.642  -4.971  1.00  0.00    -0.248 NA
ATOM     48  C   UNL     1      -3.535   9.717  -6.273  1.00  0.00     0.031 C 
ATOM     49  C   UNL     1      -6.203   9.977  -2.014  1.00  0.00     0.029 A 
ATOM     50  N   UNL     1      -4.920  11.732  -2.541  1.00  0.00    -0.354 N 
ATOM     51  C   UNL     1      -2.454  11.724  -6.075  1.00  0.00     0.074 A 
ATOM     52  C   UNL     1      -2.604  10.489  -6.814  1.00  0.00     0.031 C 
ATOM     53  C   UNL     1      -6.360  10.897  -1.048  1.00  0.00     0.029 A 
ATOM     54  C   UNL     1      -5.522  12.053  -1.349  1.00  0.00     0.049 A 
ATOM     55  H   UNL     1      -4.295  12.332  -3.008  1.00  0.00     0.167 HD
ATOM     56  C   UNL     1      -1.643  12.741  -6.449  1.00  0.00     0.031 A 
ATOM     57  C   UNL     1      -5.409  13.154  -0.583  1.00  0.00     0.031 A 
ATOM     58  C   UNL     1      -1.510  13.980  -5.732  1.00  0.00     0.049 A 
ATOM     59  C   UNL     1      -4.509  14.273  -1.025  1.00  0.00     0.074 A 
ATOM     60  C   UNL     1      -0.754  15.092  -6.063  1.00  0.00     0.029 A 
ATOM     61  N   UNL     1      -2.153  14.273  -4.540  1.00  0.00    -0.354 N 
ATOM     62  N   UNL     1      -3.760  14.355  -2.097  1.00  0.00    -0.248 NA
ATOM     63  C   UNL     1      -4.450  15.457  -0.155  1.00  0.00     0.031 C 
ATOM     64  C   UNL     1      -0.914  16.046  -5.052  1.00  0.00     0.029 A 
ATOM     65  C   UNL     1      -1.801  15.542  -4.114  1.00  0.00     0.049 A 
ATOM     66  H   UNL     1      -2.769  13.668  -4.067  1.00  0.00     0.167 HD
ATOM     67  C   UNL     1      -3.161  15.607  -2.044  1.00  0.00     0.074 A 
ATOM     68  C   UNL     1      -3.642  16.254  -0.841  1.00  0.00     0.031 C 
ATOM     69  C   UNL     1      -2.291  16.171  -2.917  1.00  0.00     0.031 A 
BRANCH  56  70
ATOM     70  C   UNL     1      -0.829  12.548  -7.697  1.00  0.00    -0.014 A 
ATOM     71  C   UNL     1      -1.429  12.570  -8.966  1.00  0.00     0.009 A 
ATOM     72  C   UNL     1       0.559  12.367  -7.604  1.00  0.00     0.009 A 
ATOM     73  C   UNL     1      -0.659  12.377 -10.115  1.00  0.00     0.001 A 
ATOM     74  C   UNL     1       1.330  12.199  -8.756  1.00  0.00     0.001 A 
ATOM     75  C   UNL     1       0.719  12.195 -10.009  1.00  0.00     0.000 A 
ENDBRANCH  56  70
BRANCH  57  76
ATOM     76  C   UNL     1      -6.187  13.264   0.677  1.00  0.00    -0.014 A 
ATOM     77  C   UNL     1      -7.294  14.123   0.753  1.00  0.00     0.009 A 
ATOM     78  C   UNL     1      -5.826  12.517   1.808  1.00  0.00     0.009 A 
ATOM     79  C   UNL     1      -8.010  14.249   1.945  1.00  0.00     0.001 A 
ATOM     80  C   UNL     1      -6.559  12.627   2.991  1.00  0.00     0.001 A 
ATOM     81  C   UNL     1      -7.645  13.499   3.062  1.00  0.00     0.000 A 
ENDBRANCH  57  76
BRANCH  69  82
ATOM     82  C   UNL     1      -1.831  17.568  -2.618  1.00  0.00    -0.014 A 
ATOM     83  C   UNL     1      -0.891  17.823  -1.609  1.00  0.00     0.009 A 
ATOM     84  C   UNL     1      -2.318  18.638  -3.386  1.00  0.00     0.009 A 
ATOM     85  C   UNL     1      -0.467  19.130  -1.356  1.00  0.00     0.001 A 
ATOM     86  C   UNL     1      -1.875  19.939  -3.145  1.00  0.00     0.001 A 
ATOM     87  C   UNL     1      -0.957  20.185  -2.126  1.00  0.00     0.000 A 
ENDBRANCH  69  82
ENDBRANCH  43  44
ENDBRANCH  35  38
ENDBRANCH  33  34
ENDBRANCH  32  33
ENDBRANCH  31  32
ENDBRANCH   1  31
TORSDOF 17
