REMARK SMILES Cc1c(C(=O)NCCCCCCNC(=O)c2ccc(-c3c4nc(c(-c5ccccc5)c5ccc([nH]5)c(-c5ccccc5)c5nc(c(-c6ccccc6)c6ccc3[nH]6)C=C5)C=C4)cc2)oc2c1/C(=N/NC(=O)C(c1ccccc1)c1ccccc1)CCC2
REMARK SMILES IDX 9 1 8 2 7 3 6 4 4 5 5 6 3 8 1 9 2 10 66 11 64 12 65 13 67 14
REMARK SMILES IDX 87 15 68 16 85 17 86 18 69 19 70 20 71 22 72 23 73 24 74 25
REMARK SMILES IDX 78 26 75 27 77 28 76 29 79 30 80 31 84 32 81 33 83 34 82 35
REMARK SMILES IDX 10 36 11 37 12 38 13 39 14 40 15 42 16 43 17 44 63 45 18 46
REMARK SMILES IDX 62 47 19 48 20 49 21 50 56 51 22 52 61 53 55 54 57 55 23 56
REMARK SMILES IDX 60 57 54 58 53 59 24 61 46 62 31 63 45 64 32 65 35 66 44 67
REMARK SMILES IDX 58 68 33 69 34 70 43 72 59 73 36 74 25 75 26 76 30 77 27 78
REMARK SMILES IDX 29 79 28 80 47 81 48 82 52 83 49 84 51 85 50 86 37 87 38 88
REMARK SMILES IDX 42 89 39 90 41 91 40 92
REMARK H PARENT 6 7 69 21 13 41 57 60 35 71
REMARK Flexibility Score: inf
ROOT
ATOM      1  C   UNL     1       1.127  -6.594  -4.753  1.00  0.00     0.002 C 
ENDROOT
BRANCH   1   2
ATOM      2  C   UNL     1       0.843  -5.092  -4.723  1.00  0.00     0.021 C 
BRANCH   2   3
ATOM      3  C   UNL     1      -0.202  -4.753  -3.660  1.00  0.00     0.116 C 
BRANCH   3   4
ATOM      4  N   UNL     1       0.421  -4.558  -2.358  1.00  0.00    -0.349 N 
ATOM      5  C   UNL     1       0.769  -3.390  -1.714  1.00  0.00     0.287 C 
ATOM      6  O   UNL     1       1.257  -3.473  -0.588  1.00  0.00    -0.266 OA
ATOM      7  H   UNL     1       0.625  -5.385  -1.864  1.00  0.00     0.163 HD
BRANCH   5   8
ATOM      8  C   UNL     1       0.501  -2.141  -2.382  1.00  0.00     0.195 A 
ATOM      9  C   UNL     1       0.811  -0.317  -0.591  1.00  0.00     0.049 C 
ATOM     10  C   UNL     1       0.465  -0.822  -1.949  1.00  0.00     0.010 A 
ATOM     11  C   UNL     1       0.008  -0.084  -3.091  1.00  0.00     0.043 A 
ATOM     12  O   UNL     1       0.183  -2.194  -3.703  1.00  0.00    -0.455 OA
ATOM     13  C   UNL     1      -0.273  -1.002  -4.058  1.00  0.00     0.114 A 
ATOM     14  C   UNL     1      -0.190   1.317  -3.361  1.00  0.00     0.072 C 
ATOM     15  C   UNL     1      -0.933  -0.861  -5.357  1.00  0.00     0.076 C 
ATOM     16  N   UNL     1      -0.077   1.975  -2.240  1.00  0.00    -0.177 NA
ATOM     17  C   UNL     1      -0.384   1.606  -4.917  1.00  0.00     0.059 C 
ATOM     18  C   UNL     1      -0.494   0.454  -5.939  1.00  0.00     0.014 C 
BRANCH  16  19
ATOM     19  N   UNL     1      -0.055   3.229  -1.714  1.00  0.00    -0.246 N 
ATOM     20  C   UNL     1      -0.254   4.487  -2.229  1.00  0.00     0.252 C 
ATOM     21  H   UNL     1       0.149   3.237  -0.750  1.00  0.00     0.193 HD
ATOM     22  O   UNL     1       0.004   5.503  -1.581  1.00  0.00    -0.272 OA
BRANCH  20  23
ATOM     23  C   UNL     1      -0.854   4.537  -3.618  1.00  0.00     0.140 C 
BRANCH  23  24
ATOM     24  C   UNL     1       0.399   4.290  -4.567  1.00  0.00    -0.031 A 
ATOM     25  C   UNL     1       1.602   3.613  -4.136  1.00  0.00     0.005 A 
ATOM     26  C   UNL     1       0.510   4.844  -5.848  1.00  0.00     0.005 A 
ATOM     27  C   UNL     1       2.644   3.223  -4.994  1.00  0.00     0.000 A 
ATOM     28  C   UNL     1       1.626   4.559  -6.682  1.00  0.00     0.000 A 
ATOM     29  C   UNL     1       2.643   3.684  -6.290  1.00  0.00     0.000 A 
ENDBRANCH  23  24
BRANCH  23  30
ATOM     30  C   UNL     1      -2.339   3.908  -3.310  1.00  0.00    -0.031 A 
ATOM     31  C   UNL     1      -3.053   4.682  -2.345  1.00  0.00     0.005 A 
ATOM     32  C   UNL     1      -2.877   2.607  -3.453  1.00  0.00     0.005 A 
ATOM     33  C   UNL     1      -4.029   4.148  -1.476  1.00  0.00     0.000 A 
ATOM     34  C   UNL     1      -3.846   2.057  -2.571  1.00  0.00     0.000 A 
ATOM     35  C   UNL     1      -4.391   2.815  -1.555  1.00  0.00     0.000 A 
ENDBRANCH  23  30
ENDBRANCH  20  23
ENDBRANCH  16  19
ENDBRANCH   5   8
ENDBRANCH   3   4
ENDBRANCH   2   3
ENDBRANCH   1   2
BRANCH   1  36
ATOM     36  C   UNL     1      -0.123  -7.465  -4.960  1.00  0.00     0.002 C 
BRANCH  36  37
ATOM     37  C   UNL     1      -0.994  -7.088  -6.169  1.00  0.00     0.021 C 
BRANCH  37  38
ATOM     38  C   UNL     1      -0.302  -7.365  -7.493  1.00  0.00     0.116 C 
BRANCH  38  39
ATOM     39  N   UNL     1      -0.053  -8.790  -7.663  1.00  0.00    -0.352 N 
ATOM     40  C   UNL     1       0.624  -9.442  -8.672  1.00  0.00     0.251 C 
ATOM     41  H   UNL     1      -0.420  -9.370  -6.958  1.00  0.00     0.163 HD
ATOM     42  O   UNL     1       0.479 -10.630  -8.853  1.00  0.00    -0.269 OA
BRANCH  40  43
ATOM     43  C   UNL     1       1.512  -8.651  -9.546  1.00  0.00     0.039 A 
ATOM     44  C   UNL     1       1.470  -8.848 -10.926  1.00  0.00     0.014 A 
ATOM     45  C   UNL     1       2.363  -7.699  -8.985  1.00  0.00     0.014 A 
ATOM     46  C   UNL     1       2.222  -8.011 -11.745  1.00  0.00     0.010 A 
ATOM     47  C   UNL     1       3.023  -6.803  -9.801  1.00  0.00     0.010 A 
ATOM     48  C   UNL     1       2.970  -6.960 -11.183  1.00  0.00    -0.014 A 
BRANCH  48  49
ATOM     49  C   UNL     1       3.557  -5.948 -12.065  1.00  0.00     0.031 A 
ATOM     50  C   UNL     1       2.619  -5.401 -13.084  1.00  0.00     0.074 A 
ATOM     51  C   UNL     1       4.784  -5.401 -11.923  1.00  0.00     0.049 A 
ATOM     52  N   UNL     1       2.661  -5.600 -14.358  1.00  0.00    -0.248 NA
ATOM     53  C   UNL     1       1.435  -4.652 -12.635  1.00  0.00     0.031 C 
ATOM     54  C   UNL     1       5.744  -5.600 -10.832  1.00  0.00     0.029 A 
ATOM     55  N   UNL     1       5.404  -4.463 -12.702  1.00  0.00    -0.354 N 
ATOM     56  C   UNL     1       1.625  -4.848 -14.904  1.00  0.00     0.074 A 
ATOM     57  C   UNL     1       0.820  -4.404 -13.795  1.00  0.00     0.031 C 
ATOM     58  C   UNL     1       6.707  -4.653 -10.894  1.00  0.00     0.029 A 
ATOM     59  C   UNL     1       6.541  -3.908 -12.128  1.00  0.00     0.049 A 
ATOM     60  H   UNL     1       5.073  -4.203 -13.592  1.00  0.00     0.167 HD
ATOM     61  C   UNL     1       1.667  -4.450 -16.206  1.00  0.00     0.031 A 
ATOM     62  C   UNL     1       7.323  -2.928 -12.638  1.00  0.00     0.031 A 
ATOM     63  C   UNL     1       2.717  -5.124 -16.925  1.00  0.00     0.049 A 
ATOM     64  C   UNL     1       7.142  -2.927 -14.101  1.00  0.00     0.074 A 
ATOM     65  C   UNL     1       2.935  -6.369 -17.468  1.00  0.00     0.029 A 
ATOM     66  N   UNL     1       3.933  -4.501 -16.824  1.00  0.00    -0.354 N 
ATOM     67  N   UNL     1       7.565  -3.891 -14.864  1.00  0.00    -0.248 NA
ATOM     68  C   UNL     1       6.228  -1.983 -14.728  1.00  0.00     0.031 C 
ATOM     69  C   UNL     1       4.353  -6.549 -17.478  1.00  0.00     0.029 A 
ATOM     70  C   UNL     1       4.955  -5.396 -16.978  1.00  0.00     0.049 A 
ATOM     71  H   UNL     1       4.054  -3.537 -16.663  1.00  0.00     0.167 HD
ATOM     72  C   UNL     1       6.638  -3.940 -15.884  1.00  0.00     0.074 A 
ATOM     73  C   UNL     1       5.980  -2.640 -15.865  1.00  0.00     0.031 C 
ATOM     74  C   UNL     1       6.266  -5.134 -16.426  1.00  0.00     0.031 A 
BRANCH  61  75
ATOM     75  C   UNL     1       1.143  -3.123 -16.710  1.00  0.00    -0.014 A 
ATOM     76  C   UNL     1       1.281  -2.831 -18.083  1.00  0.00     0.009 A 
ATOM     77  C   UNL     1       0.826  -2.044 -15.866  1.00  0.00     0.009 A 
ATOM     78  C   UNL     1       1.185  -1.521 -18.568  1.00  0.00     0.001 A 
ATOM     79  C   UNL     1       0.696  -0.738 -16.353  1.00  0.00     0.001 A 
ATOM     80  C   UNL     1       0.903  -0.473 -17.700  1.00  0.00     0.000 A 
ENDBRANCH  61  75
BRANCH  62  81
ATOM     81  C   UNL     1       8.187  -1.930 -11.983  1.00  0.00    -0.014 A 
ATOM     82  C   UNL     1       9.265  -1.356 -12.678  1.00  0.00     0.009 A 
ATOM     83  C   UNL     1       7.761  -1.315 -10.795  1.00  0.00     0.009 A 
ATOM     84  C   UNL     1       9.852  -0.166 -12.235  1.00  0.00     0.001 A 
ATOM     85  C   UNL     1       8.349  -0.124 -10.353  1.00  0.00     0.001 A 
ATOM     86  C   UNL     1       9.379   0.461 -11.085  1.00  0.00     0.000 A 
ENDBRANCH  62  81
BRANCH  74  87
ATOM     87  C   UNL     1       7.206  -6.292 -16.247  1.00  0.00    -0.014 A 
ATOM     88  C   UNL     1       7.520  -6.852 -14.997  1.00  0.00     0.009 A 
ATOM     89  C   UNL     1       7.755  -6.872 -17.398  1.00  0.00     0.009 A 
ATOM     90  C   UNL     1       8.390  -7.942 -14.904  1.00  0.00     0.001 A 
ATOM     91  C   UNL     1       8.606  -7.973 -17.307  1.00  0.00     0.001 A 
ATOM     92  C   UNL     1       8.930  -8.503 -16.060  1.00  0.00     0.000 A 
ENDBRANCH  74  87
ENDBRANCH  48  49
ENDBRANCH  40  43
ENDBRANCH  38  39
ENDBRANCH  37  38
ENDBRANCH  36  37
ENDBRANCH   1  36
TORSDOF 17
