REMARK SMILES O=C(NCCCCCCNC(=O)[C@H]1[C@H]2CC[C@H](C2)[C@@H]1C(=O)N1CCN(c2cccc(Cl)c2)CC1)c1ccc(-c2c3nc(c(-c4ccccc4)c4ccc([nH]4)c(-c4ccccc4)c4nc(c(-c5ccccc5)c5ccc2[nH]5)C=C4)C=C3)cc1
REMARK SMILES IDX 6 1 5 2 4 3 3 4 1 5 2 6 35 8 36 9 82 10 37 11 81 12 38 13
REMARK SMILES IDX 39 14 40 15 75 16 41 17 80 18 74 19 76 20 42 21 79 22 73 23
REMARK SMILES IDX 72 24 43 26 65 27 50 28 64 29 51 30 54 31 63 32 77 33 52 34
REMARK SMILES IDX 53 35 62 37 78 38 55 39 44 40 45 41 49 42 46 43 48 44 47 45
REMARK SMILES IDX 66 46 67 47 71 48 68 49 70 50 69 51 56 52 57 53 61 54 58 55
REMARK SMILES IDX 60 56 59 57 7 58 8 59 9 60 10 61 11 62 12 64 13 65 14 66
REMARK SMILES IDX 19 67 15 68 18 69 17 70 16 71 20 72 21 73 22 74 23 75 34 76
REMARK SMILES IDX 24 77 33 78 25 79 26 80 27 81 32 82 28 83 30 84 29 85 31 86
REMARK H PARENT 3 7 76 25 54 36 10 63
REMARK Flexibility Score: inf
ROOT
ATOM      1  C   UNL     1       6.261   6.033  -4.027  1.00  0.00     0.002 C 
ENDROOT
BRANCH   1   2
ATOM      2  C   UNL     1       5.437   6.795  -5.065  1.00  0.00     0.021 C 
BRANCH   2   3
ATOM      3  C   UNL     1       3.931   6.622  -4.921  1.00  0.00     0.116 C 
BRANCH   3   4
ATOM      4  N   UNL     1       3.417   7.236  -3.708  1.00  0.00    -0.352 N 
ATOM      5  O   UNL     1       2.171   8.676  -2.491  1.00  0.00    -0.269 OA
ATOM      6  C   UNL     1       2.372   8.116  -3.565  1.00  0.00     0.251 C 
ATOM      7  H   UNL     1       3.880   6.987  -2.876  1.00  0.00     0.163 HD
BRANCH   6   8
ATOM      8  C   UNL     1       1.500   8.404  -4.724  1.00  0.00     0.039 A 
ATOM      9  C   UNL     1       1.035   7.365  -5.533  1.00  0.00     0.014 A 
ATOM     10  C   UNL     1       1.146   9.727  -5.005  1.00  0.00     0.014 A 
ATOM     11  C   UNL     1       0.336   7.659  -6.696  1.00  0.00     0.010 A 
ATOM     12  C   UNL     1       0.366  10.014  -6.129  1.00  0.00     0.010 A 
ATOM     13  C   UNL     1      -0.023   8.984  -6.998  1.00  0.00    -0.014 A 
BRANCH  13  14
ATOM     14  C   UNL     1      -0.866   9.239  -8.193  1.00  0.00     0.031 A 
ATOM     15  C   UNL     1      -0.348  10.014  -9.371  1.00  0.00     0.074 A 
ATOM     16  C   UNL     1      -2.102   8.702  -8.226  1.00  0.00     0.049 A 
ATOM     17  N   UNL     1      -0.936  10.252 -10.518  1.00  0.00    -0.248 NA
ATOM     18  C   UNL     1       0.993  10.605  -9.251  1.00  0.00     0.031 C 
ATOM     19  C   UNL     1      -2.720   7.942  -7.135  1.00  0.00     0.029 A 
ATOM     20  N   UNL     1      -3.044   8.681  -9.221  1.00  0.00    -0.354 N 
ATOM     21  C   UNL     1      -0.043  11.022 -11.251  1.00  0.00     0.074 A 
ATOM     22  C   UNL     1       1.115  11.239 -10.410  1.00  0.00     0.031 C 
ATOM     23  C   UNL     1      -3.909   7.477  -7.543  1.00  0.00     0.029 A 
ATOM     24  C   UNL     1      -4.163   7.953  -8.897  1.00  0.00     0.049 A 
ATOM     25  H   UNL     1      -2.931   9.142 -10.083  1.00  0.00     0.167 HD
ATOM     26  C   UNL     1      -0.174  11.499 -12.513  1.00  0.00     0.031 A 
ATOM     27  C   UNL     1      -5.277   7.698  -9.606  1.00  0.00     0.031 A 
ATOM     28  C   UNL     1      -1.330  11.289 -13.347  1.00  0.00     0.049 A 
ATOM     29  C   UNL     1      -5.397   8.247 -10.995  1.00  0.00     0.074 A 
ATOM     30  C   UNL     1      -1.554  11.732 -14.639  1.00  0.00     0.029 A 
ATOM     31  N   UNL     1      -2.456  10.574 -12.970  1.00  0.00    -0.354 N 
ATOM     32  N   UNL     1      -4.533   8.958 -11.678  1.00  0.00    -0.248 NA
ATOM     33  C   UNL     1      -6.645   7.957 -11.712  1.00  0.00     0.031 C 
ATOM     34  C   UNL     1      -2.832  11.318 -15.030  1.00  0.00     0.029 A 
ATOM     35  C   UNL     1      -3.383  10.575 -13.999  1.00  0.00     0.049 A 
ATOM     36  H   UNL     1      -2.578  10.130 -12.100  1.00  0.00     0.167 HD
ATOM     37  C   UNL     1      -5.129   9.195 -12.907  1.00  0.00     0.074 A 
ATOM     38  C   UNL     1      -6.414   8.524 -12.887  1.00  0.00     0.031 C 
ATOM     39  C   UNL     1      -4.661   9.913 -13.956  1.00  0.00     0.031 A 
BRANCH  26  40
ATOM     40  C   UNL     1       0.962  12.312 -13.070  1.00  0.00    -0.014 A 
ATOM     41  C   UNL     1       2.164  11.704 -13.464  1.00  0.00     0.009 A 
ATOM     42  C   UNL     1       0.808  13.695 -13.255  1.00  0.00     0.009 A 
ATOM     43  C   UNL     1       3.197  12.469 -14.010  1.00  0.00     0.001 A 
ATOM     44  C   UNL     1       1.834  14.453 -13.823  1.00  0.00     0.001 A 
ATOM     45  C   UNL     1       3.030  13.841 -14.194  1.00  0.00     0.000 A 
ENDBRANCH  26  40
BRANCH  27  46
ATOM     46  C   UNL     1      -6.369   6.894  -9.001  1.00  0.00    -0.014 A 
ATOM     47  C   UNL     1      -6.654   5.603  -9.467  1.00  0.00     0.009 A 
ATOM     48  C   UNL     1      -7.127   7.418  -7.941  1.00  0.00     0.009 A 
ATOM     49  C   UNL     1      -7.692   4.861  -8.899  1.00  0.00     0.001 A 
ATOM     50  C   UNL     1      -8.143   6.662  -7.355  1.00  0.00     0.001 A 
ATOM     51  C   UNL     1      -8.431   5.389  -7.840  1.00  0.00     0.000 A 
ENDBRANCH  27  46
BRANCH  39  52
ATOM     52  C   UNL     1      -5.544   9.992 -15.167  1.00  0.00    -0.014 A 
ATOM     53  C   UNL     1      -6.709  10.775 -15.164  1.00  0.00     0.009 A 
ATOM     54  C   UNL     1      -5.205   9.277 -16.326  1.00  0.00     0.009 A 
ATOM     55  C   UNL     1      -7.539  10.809 -16.286  1.00  0.00     0.001 A 
ATOM     56  C   UNL     1      -6.023   9.333 -17.455  1.00  0.00     0.001 A 
ATOM     57  C   UNL     1      -7.194  10.089 -17.430  1.00  0.00     0.000 A 
ENDBRANCH  39  52
ENDBRANCH  13  14
ENDBRANCH   6   8
ENDBRANCH   3   4
ENDBRANCH   2   3
ENDBRANCH   1   2
BRANCH   1  58
ATOM     58  C   UNL     1       6.043   4.515  -4.014  1.00  0.00     0.002 C 
BRANCH  58  59
ATOM     59  C   UNL     1       6.207   3.822  -5.374  1.00  0.00     0.021 C 
BRANCH  59  60
ATOM     60  C   UNL     1       7.566   4.070  -6.030  1.00  0.00     0.116 C 
BRANCH  60  61
ATOM     61  N   UNL     1       8.620   3.418  -5.277  1.00  0.00    -0.356 N 
ATOM     62  C   UNL     1       9.319   2.285  -5.576  1.00  0.00     0.224 C 
ATOM     63  H   UNL     1       8.866   3.854  -4.429  1.00  0.00     0.163 HD
ATOM     64  O   UNL     1      10.038   1.789  -4.712  1.00  0.00    -0.275 OA
BRANCH  62  65
ATOM     65  C   UNL     1       9.236   1.753  -6.992  1.00  0.00     0.094 C 
ATOM     66  C   UNL     1      10.223   2.488  -7.933  1.00  0.00     0.002 C 
ATOM     67  C   UNL     1       9.629   0.267  -7.159  1.00  0.00     0.094 C 
ATOM     68  C   UNL     1      11.682   2.333  -7.465  1.00  0.00     0.005 C 
ATOM     69  C   UNL     1      10.215   1.554  -9.136  1.00  0.00     0.009 C 
ATOM     70  C   UNL     1      10.645   0.329  -8.320  1.00  0.00     0.002 C 
ATOM     71  C   UNL     1      11.980   0.849  -7.739  1.00  0.00     0.005 C 
BRANCH  67  72
ATOM     72  C   UNL     1       8.361  -0.590  -7.294  1.00  0.00     0.226 C 
ATOM     73  O   UNL     1       8.007  -1.308  -6.356  1.00  0.00    -0.275 OA
ATOM     74  N   UNL     1       7.499  -0.329  -8.344  1.00  0.00    -0.339 N 
ATOM     75  C   UNL     1       6.064  -0.292  -8.041  1.00  0.00     0.141 C 
ATOM     76  C   UNL     1       7.785  -0.762  -9.713  1.00  0.00     0.141 C 
ATOM     77  C   UNL     1       5.309   0.611  -9.034  1.00  0.00     0.138 C 
ATOM     78  C   UNL     1       7.032   0.084 -10.760  1.00  0.00     0.138 C 
ATOM     79  N   UNL     1       5.601   0.198 -10.416  1.00  0.00    -0.368 N 
BRANCH  79  80
ATOM     80  C   UNL     1       4.751   0.567 -11.451  1.00  0.00     0.038 A 
ATOM     81  C   UNL     1       4.574  -0.306 -12.536  1.00  0.00     0.026 A 
ATOM     82  C   UNL     1       4.053   1.780 -11.469  1.00  0.00     0.046 A 
ATOM     83  C   UNL     1       3.730   0.012 -13.602  1.00  0.00     0.004 A 
ATOM     84  C   UNL     1       3.217   2.105 -12.541  1.00  0.00     0.043 A 
ATOM     85  C   UNL     1       3.050   1.225 -13.607  1.00  0.00     0.020 A 
ATOM     86  Cl  UNL     1       2.391   3.616 -12.549  1.00  0.00    -0.084 Cl
ENDBRANCH  79  80
ENDBRANCH  67  72
ENDBRANCH  62  65
ENDBRANCH  60  61
ENDBRANCH  59  60
ENDBRANCH  58  59
ENDBRANCH   1  58
TORSDOF 15
