REMARK SMILES C[C@H](CNC(=O)Cn1cccc1C(=O)NCCCCCCNC(=O)c1ccc(-c2c3nc(c(-c4ccccc4)c4ccc([nH]4)c(-c4ccccc4)c4nc(c(-c5ccccc5)c5ccc2[nH]5)C=C4)C=C3)cc1)[NH+](C)C
REMARK SMILES IDX 17 1 16 2 15 3 13 4 14 5 12 7 8 8 9 9 10 10 11 11 7 12 5 13
REMARK SMILES IDX 4 14 6 16 3 17 2 18 1 19 73 20 74 21 75 22 18 24 19 25 20 26
REMARK SMILES IDX 21 27 22 28 23 29 24 31 25 32 26 33 72 34 27 35 71 36 28 37
REMARK SMILES IDX 29 38 30 39 65 40 31 41 70 42 64 43 66 44 32 45 69 46 63 47
REMARK SMILES IDX 62 48 33 50 55 51 40 52 54 53 41 54 44 55 53 56 67 57 42 58
REMARK SMILES IDX 43 59 52 61 68 62 45 63 34 64 35 65 39 66 36 67 38 68 37 69
REMARK SMILES IDX 56 70 57 71 61 72 58 73 60 74 59 75 46 76 47 77 51 78 48 79
REMARK SMILES IDX 50 80 49 81
REMARK H PARENT 15 6 4 15 73 23 22 30 66 49 44 60
REMARK Flexibility Score: inf
ROOT
ATOM      1  C   UNL     1       3.669   0.331   3.248  1.00  0.00     0.021 C 
ENDROOT
BRANCH   1   2
ATOM      2  C   UNL     1       2.955   0.077   1.929  1.00  0.00     0.116 C 
BRANCH   2   3
ATOM      3  N   UNL     1       3.779   0.351   0.785  1.00  0.00    -0.351 N 
ATOM      4  C   UNL     1       4.053  -0.234  -0.415  1.00  0.00     0.267 C 
ATOM      5  O   UNL     1       4.647   0.550  -1.169  1.00  0.00    -0.268 OA
ATOM      6  H   UNL     1       4.283   1.189   0.898  1.00  0.00     0.163 HD
BRANCH   4   7
ATOM      7  C   UNL     1       3.719  -1.584  -0.885  1.00  0.00     0.107 A 
ATOM      8  N   UNL     1       2.985  -2.679  -0.433  1.00  0.00    -0.334 N 
ATOM      9  C   UNL     1       3.066  -3.710  -1.363  1.00  0.00     0.087 A 
ATOM     10  C   UNL     1       3.797  -3.296  -2.438  1.00  0.00     0.020 A 
ATOM     11  C   UNL     1       4.184  -1.980  -2.152  1.00  0.00     0.033 A 
BRANCH   8  12
ATOM     12  C   UNL     1       2.387  -2.986   0.855  1.00  0.00     0.222 C 
BRANCH  12  13
ATOM     13  C   UNL     1       0.911  -2.701   1.091  1.00  0.00     0.240 C 
ATOM     14  N   UNL     1       0.169  -1.681   0.600  1.00  0.00    -0.349 N 
ATOM     15  H   UNL     1      -0.789  -1.785   0.804  1.00  0.00     0.163 HD
ATOM     16  O   UNL     1       0.304  -3.433   1.891  1.00  0.00    -0.273 OA
BRANCH  14  17
ATOM     17  C   UNL     1       0.445  -0.469  -0.156  1.00  0.00     0.180 C 
BRANCH  17  18
ATOM     18  C   UNL     1      -0.173  -0.328  -1.575  1.00  0.00     0.199 C 
ATOM     19  C   UNL     1       0.469  -1.322  -2.547  1.00  0.00     0.077 C 
BRANCH  18  20
ATOM     20  N   UNL     1      -1.653  -0.243  -1.622  1.00  0.00    -0.336 N 
ATOM     21  C   UNL     1      -2.115   0.209  -2.941  1.00  0.00     0.332 C 
ATOM     22  C   UNL     1      -2.356  -1.468  -1.253  1.00  0.00     0.332 C 
ATOM     23  H   UNL     1      -1.888   0.445  -0.906  1.00  0.00     0.347 HD
ENDBRANCH  18  20
ENDBRANCH  17  18
ENDBRANCH  14  17
ENDBRANCH  12  13
ENDBRANCH   8  12
ENDBRANCH   4   7
ENDBRANCH   2   3
ENDBRANCH   1   2
BRANCH   1  24
ATOM     24  C   UNL     1       3.092   1.537   3.990  1.00  0.00     0.002 C 
BRANCH  24  25
ATOM     25  C   UNL     1       1.588   1.458   4.296  1.00  0.00     0.002 C 
BRANCH  25  26
ATOM     26  C   UNL     1       1.122   0.200   5.042  1.00  0.00     0.021 C 
BRANCH  26  27
ATOM     27  C   UNL     1       1.783   0.019   6.405  1.00  0.00     0.116 C 
BRANCH  27  28
ATOM     28  N   UNL     1       1.532   1.173   7.249  1.00  0.00    -0.352 N 
ATOM     29  C   UNL     1       2.030   1.513   8.477  1.00  0.00     0.251 C 
ATOM     30  H   UNL     1       0.894   1.822   6.873  1.00  0.00     0.163 HD
ATOM     31  O   UNL     1       1.461   2.373   9.136  1.00  0.00    -0.269 OA
BRANCH  29  32
ATOM     32  C   UNL     1       3.228   0.854   9.028  1.00  0.00     0.039 A 
ATOM     33  C   UNL     1       3.239   0.580  10.402  1.00  0.00     0.014 A 
ATOM     34  C   UNL     1       4.359   0.600   8.245  1.00  0.00     0.014 A 
ATOM     35  C   UNL     1       4.361   0.004  10.979  1.00  0.00     0.010 A 
ATOM     36  C   UNL     1       5.472  -0.008   8.811  1.00  0.00     0.010 A 
ATOM     37  C   UNL     1       5.465  -0.311  10.176  1.00  0.00    -0.014 A 
BRANCH  37  38
ATOM     38  C   UNL     1       6.553  -1.117  10.762  1.00  0.00     0.031 A 
ATOM     39  C   UNL     1       6.158  -2.604  10.854  1.00  0.00     0.074 A 
ATOM     40  C   UNL     1       7.673  -0.434  11.151  1.00  0.00     0.049 A 
ATOM     41  N   UNL     1       6.598  -3.532  11.644  1.00  0.00    -0.248 NA
ATOM     42  C   UNL     1       5.078  -3.134   9.970  1.00  0.00     0.031 C 
ATOM     43  C   UNL     1       7.901   1.014  10.921  1.00  0.00     0.029 A 
ATOM     44  N   UNL     1       8.833  -0.783  11.811  1.00  0.00    -0.354 N 
ATOM     45  C   UNL     1       5.984  -4.752  11.275  1.00  0.00     0.074 A 
ATOM     46  C   UNL     1       5.002  -4.429  10.287  1.00  0.00     0.031 C 
ATOM     47  C   UNL     1       9.053   1.423  11.495  1.00  0.00     0.029 A 
ATOM     48  C   UNL     1       9.689   0.299  12.151  1.00  0.00     0.049 A 
ATOM     49  H   UNL     1       9.053  -1.717  12.031  1.00  0.00     0.167 HD
ATOM     50  C   UNL     1       6.409  -5.967  11.735  1.00  0.00     0.031 A 
ATOM     51  C   UNL     1      10.799   0.303  12.952  1.00  0.00     0.031 A 
ATOM     52  C   UNL     1       7.424  -5.787  12.714  1.00  0.00     0.049 A 
ATOM     53  C   UNL     1      11.048  -1.103  13.292  1.00  0.00     0.074 A 
ATOM     54  C   UNL     1       7.391  -5.319  14.001  1.00  0.00     0.029 A 
ATOM     55  N   UNL     1       8.714  -5.741  12.246  1.00  0.00    -0.354 N 
ATOM     56  N   UNL     1      11.534  -1.988  12.478  1.00  0.00    -0.248 NA
ATOM     57  C   UNL     1      10.655  -1.589  14.620  1.00  0.00     0.031 C 
ATOM     58  C   UNL     1       8.551  -4.521  14.074  1.00  0.00     0.029 A 
ATOM     59  C   UNL     1       9.344  -4.742  12.942  1.00  0.00     0.049 A 
ATOM     60  H   UNL     1       9.109  -6.313  11.549  1.00  0.00     0.167 HD
ATOM     61  C   UNL     1      11.120  -3.161  13.055  1.00  0.00     0.074 A 
ATOM     62  C   UNL     1      10.916  -2.883  14.460  1.00  0.00     0.031 C 
ATOM     63  C   UNL     1      10.450  -4.074  12.306  1.00  0.00     0.031 A 
BRANCH  50  64
ATOM     64  C   UNL     1       6.182  -7.369  11.241  1.00  0.00    -0.014 A 
ATOM     65  C   UNL     1       6.614  -8.430  12.077  1.00  0.00     0.009 A 
ATOM     66  C   UNL     1       5.908  -7.680   9.906  1.00  0.00     0.009 A 
ATOM     67  C   UNL     1       6.893  -9.702  11.576  1.00  0.00     0.001 A 
ATOM     68  C   UNL     1       6.151  -8.971   9.410  1.00  0.00     0.001 A 
ATOM     69  C   UNL     1       6.680  -9.966  10.232  1.00  0.00     0.000 A 
ENDBRANCH  50  64
BRANCH  51  70
ATOM     70  C   UNL     1      11.713   1.303  13.620  1.00  0.00    -0.014 A 
ATOM     71  C   UNL     1      11.744   2.680  13.391  1.00  0.00     0.009 A 
ATOM     72  C   UNL     1      12.594   0.837  14.638  1.00  0.00     0.009 A 
ATOM     73  C   UNL     1      12.528   3.535  14.200  1.00  0.00     0.001 A 
ATOM     74  C   UNL     1      13.334   1.679  15.472  1.00  0.00     0.001 A 
ATOM     75  C   UNL     1      13.289   3.041  15.260  1.00  0.00     0.000 A 
ENDBRANCH  51  70
BRANCH  63  76
ATOM     76  C   UNL     1      10.672  -3.972  10.803  1.00  0.00    -0.014 A 
ATOM     77  C   UNL     1      11.970  -4.100  10.282  1.00  0.00     0.009 A 
ATOM     78  C   UNL     1       9.650  -3.639   9.895  1.00  0.00     0.009 A 
ATOM     79  C   UNL     1      12.239  -3.885   8.924  1.00  0.00     0.001 A 
ATOM     80  C   UNL     1       9.914  -3.425   8.532  1.00  0.00     0.001 A 
ATOM     81  C   UNL     1      11.212  -3.545   8.048  1.00  0.00     0.000 A 
ENDBRANCH  63  76
ENDBRANCH  37  38
ENDBRANCH  29  32
ENDBRANCH  27  28
ENDBRANCH  26  27
ENDBRANCH  25  26
ENDBRANCH  24  25
ENDBRANCH   1  24
TORSDOF 18
