REMARK SMILES Cc1ccc2[nH]cc([C@@H](C(=O)NCCCCCCNC(=O)c3ccc(-c4c5nc(c(-c6ccccc6)c6ccc([nH]6)c(-c6ccccc6)c6nc(c(-c7ccccc7)c7ccc4[nH]7)C=C6)C=C5)cc3)[NH+]3CCN(c4ccc(F)cc4)CC3)c2c1
REMARK SMILES IDX 15 1 14 2 13 3 12 4 10 5 11 6 9 8 8 9 1 10 2 11 3 12 84 13
REMARK SMILES IDX 4 14 83 15 5 16 6 17 7 18 70 20 71 21 82 22 72 24 81 25
REMARK SMILES IDX 73 26 74 27 75 28 80 29 76 30 79 31 77 32 78 33 16 34 17 35
REMARK SMILES IDX 18 36 19 37 20 38 21 40 22 41 23 42 69 43 24 44 68 45 25 46
REMARK SMILES IDX 26 47 27 48 62 49 28 50 67 51 61 52 63 53 29 54 66 55 60 56
REMARK SMILES IDX 59 57 30 59 52 60 37 61 51 62 38 63 41 64 50 65 64 66 39 67
REMARK SMILES IDX 40 68 49 70 65 71 42 72 31 73 32 74 36 75 33 76 35 77 34 78
REMARK SMILES IDX 53 79 54 80 58 81 55 82 57 83 56 84 43 85 44 86 48 87 45 88
REMARK SMILES IDX 47 89 46 90
REMARK H PARENT 12 7 6 19 70 23 19 39 63 58 41 69
REMARK Flexibility Score: inf
ROOT
ATOM      1  C   UNL     1      -1.626  -1.547   5.062  1.00  0.00     0.002 C 
ENDROOT
BRANCH   1   2
ATOM      2  C   UNL     1      -1.056  -1.339   3.656  1.00  0.00     0.021 C 
BRANCH   2   3
ATOM      3  C   UNL     1      -0.772  -2.647   2.917  1.00  0.00     0.116 C 
BRANCH   3   4
ATOM      4  N   UNL     1      -2.005  -3.308   2.555  1.00  0.00    -0.351 N 
ATOM      5  C   UNL     1      -2.675  -3.283   1.359  1.00  0.00     0.283 C 
ATOM      6  O   UNL     1      -3.780  -3.833   1.356  1.00  0.00    -0.268 OA
ATOM      7  H   UNL     1      -2.420  -3.852   3.263  1.00  0.00     0.163 HD
BRANCH   5   8
ATOM      8  C   UNL     1      -1.987  -2.658   0.098  1.00  0.00     0.307 C 
BRANCH   8   9
ATOM      9  C   UNL     1      -1.710  -1.177   0.231  1.00  0.00     0.044 A 
ATOM     10  C   UNL     1       3.383  -0.643  -0.190  1.00  0.00     0.044 C 
ATOM     11  C   UNL     1       1.979  -0.115  -0.114  1.00  0.00    -0.050 A 
ATOM     12  C   UNL     1       1.737   1.256  -0.002  1.00  0.00     0.005 A 
ATOM     13  C   UNL     1       0.898  -1.014  -0.106  1.00  0.00     0.014 A 
ATOM     14  C   UNL     1       0.442   1.754   0.172  1.00  0.00     0.027 A 
ATOM     15  C   UNL     1      -0.419  -0.541   0.102  1.00  0.00     0.009 A 
ATOM     16  C   UNL     1      -0.605   0.831   0.259  1.00  0.00     0.046 A 
ATOM     17  N   UNL     1      -1.939   1.031   0.510  1.00  0.00    -0.361 N 
ATOM     18  C   UNL     1      -2.590  -0.170   0.587  1.00  0.00     0.094 A 
ATOM     19  H   UNL     1      -2.366   1.911   0.620  1.00  0.00     0.166 HD
ENDBRANCH   8   9
BRANCH   8  20
ATOM     20  N   UNL     1      -2.678  -3.029  -1.159  1.00  0.00    -0.318 N 
ATOM     21  C   UNL     1      -4.072  -2.596  -1.347  1.00  0.00     0.284 C 
ATOM     22  C   UNL     1      -1.904  -2.805  -2.390  1.00  0.00     0.284 C 
ATOM     23  H   UNL     1      -2.744  -4.033  -0.992  1.00  0.00     0.349 HD
ATOM     24  C   UNL     1      -4.314  -1.229  -2.017  1.00  0.00     0.178 C 
ATOM     25  C   UNL     1      -2.029  -1.407  -3.037  1.00  0.00     0.178 C 
ATOM     26  N   UNL     1      -3.434  -1.001  -3.167  1.00  0.00    -0.360 N 
BRANCH  26  27
ATOM     27  C   UNL     1      -3.664   0.151  -3.913  1.00  0.00     0.037 A 
ATOM     28  C   UNL     1      -3.823   1.417  -3.329  1.00  0.00     0.029 A 
ATOM     29  C   UNL     1      -3.766   0.040  -5.305  1.00  0.00     0.029 A 
ATOM     30  C   UNL     1      -4.123   2.534  -4.112  1.00  0.00     0.041 A 
ATOM     31  C   UNL     1      -4.072   1.150  -6.091  1.00  0.00     0.041 A 
ATOM     32  C   UNL     1      -4.256   2.385  -5.486  1.00  0.00     0.123 A 
ATOM     33  F   UNL     1      -4.570   3.449  -6.237  1.00  0.00    -0.207 F 
ENDBRANCH  26  27
ENDBRANCH   8  20
ENDBRANCH   5   8
ENDBRANCH   3   4
ENDBRANCH   2   3
ENDBRANCH   1   2
BRANCH   1  34
ATOM     34  C   UNL     1      -0.735  -2.380   5.986  1.00  0.00     0.002 C 
BRANCH  34  35
ATOM     35  C   UNL     1       0.701  -1.866   6.106  1.00  0.00     0.021 C 
BRANCH  35  36
ATOM     36  C   UNL     1       0.803  -0.435   6.619  1.00  0.00     0.116 C 
BRANCH  36  37
ATOM     37  N   UNL     1       0.263  -0.311   7.964  1.00  0.00    -0.352 N 
ATOM     38  C   UNL     1       0.884   0.116   9.109  1.00  0.00     0.251 C 
ATOM     39  H   UNL     1      -0.681  -0.572   8.066  1.00  0.00     0.163 HD
ATOM     40  O   UNL     1       0.370  -0.073  10.204  1.00  0.00    -0.269 OA
BRANCH  38  41
ATOM     41  C   UNL     1       2.187   0.802   9.009  1.00  0.00     0.039 A 
ATOM     42  C   UNL     1       3.209   0.449   9.892  1.00  0.00     0.014 A 
ATOM     43  C   UNL     1       2.394   1.794   8.045  1.00  0.00     0.014 A 
ATOM     44  C   UNL     1       4.459   1.057   9.774  1.00  0.00     0.010 A 
ATOM     45  C   UNL     1       3.661   2.339   7.878  1.00  0.00     0.010 A 
ATOM     46  C   UNL     1       4.703   1.984   8.746  1.00  0.00    -0.014 A 
BRANCH  46  47
ATOM     47  C   UNL     1       6.041   2.599   8.570  1.00  0.00     0.031 A 
ATOM     48  C   UNL     1       6.218   4.082   8.740  1.00  0.00     0.074 A 
ATOM     49  C   UNL     1       7.084   1.830   8.202  1.00  0.00     0.049 A 
ATOM     50  N   UNL     1       7.295   4.809   8.583  1.00  0.00    -0.248 NA
ATOM     51  C   UNL     1       5.021   4.855   9.112  1.00  0.00     0.031 C 
ATOM     52  C   UNL     1       7.034   0.384   7.975  1.00  0.00     0.029 A 
ATOM     53  N   UNL     1       8.392   2.161   7.955  1.00  0.00    -0.354 N 
ATOM     54  C   UNL     1       6.905   6.119   8.826  1.00  0.00     0.074 A 
ATOM     55  C   UNL     1       5.481   6.097   9.080  1.00  0.00     0.031 C 
ATOM     56  C   UNL     1       8.263  -0.052   7.657  1.00  0.00     0.029 A 
ATOM     57  C   UNL     1       9.175   1.086   7.612  1.00  0.00     0.049 A 
ATOM     58  H   UNL     1       8.737   3.081   8.017  1.00  0.00     0.167 HD
ATOM     59  C   UNL     1       7.665   7.240   8.857  1.00  0.00     0.031 A 
ATOM     60  C   UNL     1      10.481   1.025   7.291  1.00  0.00     0.031 A 
ATOM     61  C   UNL     1       9.081   7.261   8.601  1.00  0.00     0.049 A 
ATOM     62  C   UNL     1      11.295   2.289   7.292  1.00  0.00     0.074 A 
ATOM     63  C   UNL     1       9.950   8.336   8.650  1.00  0.00     0.029 A 
ATOM     64  N   UNL     1       9.834   6.153   8.243  1.00  0.00    -0.354 N 
ATOM     65  N   UNL     1      10.925   3.512   7.586  1.00  0.00    -0.248 NA
ATOM     66  C   UNL     1      12.712   2.160   6.924  1.00  0.00     0.031 C 
ATOM     67  C   UNL     1      11.218   7.891   8.263  1.00  0.00     0.029 A 
ATOM     68  C   UNL     1      11.152   6.525   8.039  1.00  0.00     0.049 A 
ATOM     69  H   UNL     1       9.483   5.238   8.148  1.00  0.00     0.167 HD
ATOM     70  C   UNL     1      12.068   4.292   7.472  1.00  0.00     0.074 A 
ATOM     71  C   UNL     1      13.147   3.401   7.097  1.00  0.00     0.031 C 
ATOM     72  C   UNL     1      12.214   5.626   7.664  1.00  0.00     0.031 A 
BRANCH  59  73
ATOM     73  C   UNL     1       6.970   8.538   9.167  1.00  0.00    -0.014 A 
ATOM     74  C   UNL     1       6.435   8.793  10.441  1.00  0.00     0.009 A 
ATOM     75  C   UNL     1       6.867   9.530   8.180  1.00  0.00     0.009 A 
ATOM     76  C   UNL     1       5.773   9.994  10.705  1.00  0.00     0.001 A 
ATOM     77  C   UNL     1       6.234  10.743   8.456  1.00  0.00     0.001 A 
ATOM     78  C   UNL     1       5.678  10.970   9.714  1.00  0.00     0.000 A 
ENDBRANCH  59  73
BRANCH  60  79
ATOM     79  C   UNL     1      11.109  -0.281   6.959  1.00  0.00    -0.014 A 
ATOM     80  C   UNL     1      12.051  -0.858   7.824  1.00  0.00     0.009 A 
ATOM     81  C   UNL     1      10.779  -0.954   5.772  1.00  0.00     0.009 A 
ATOM     82  C   UNL     1      12.672  -2.064   7.494  1.00  0.00     0.001 A 
ATOM     83  C   UNL     1      11.377  -2.177   5.460  1.00  0.00     0.001 A 
ATOM     84  C   UNL     1      12.332  -2.725   6.314  1.00  0.00     0.000 A 
ENDBRANCH  60  79
BRANCH  72  85
ATOM     85  C   UNL     1      13.597   6.196   7.511  1.00  0.00    -0.014 A 
ATOM     86  C   UNL     1      14.212   6.300   6.254  1.00  0.00     0.009 A 
ATOM     87  C   UNL     1      14.278   6.672   8.643  1.00  0.00     0.009 A 
ATOM     88  C   UNL     1      15.497   6.835   6.139  1.00  0.00     0.001 A 
ATOM     89  C   UNL     1      15.548   7.237   8.521  1.00  0.00     0.001 A 
ATOM     90  C   UNL     1      16.161   7.308   7.271  1.00  0.00     0.000 A 
ENDBRANCH  72  85
ENDBRANCH  46  47
ENDBRANCH  38  41
ENDBRANCH  36  37
ENDBRANCH  35  36
ENDBRANCH  34  35
ENDBRANCH   1  34
TORSDOF 16
