REMARK SMILES O=C(CCc1ccco1)N[C@H]1CCCCC[C@H]1C(=O)NCCCCCCNC(=O)c1ccc(-c2c3nc(c(-c4ccccc4)c4ccc([nH]4)c(-c4ccccc4)c4nc(c(-c5ccccc5)c5ccc2[nH]5)C=C4)C=C3)cc1
REMARK SMILES IDX 22 1 21 2 20 3 18 4 19 5 17 7 11 8 10 10 1 11 2 12 3 14 4 15
REMARK SMILES IDX 5 16 6 17 9 18 7 19 8 20 16 21 15 22 14 23 13 24 12 25 23 27
REMARK SMILES IDX 24 28 25 29 26 30 27 31 28 32 29 34 30 35 31 36 77 37 32 38
REMARK SMILES IDX 76 39 33 40 34 41 35 42 70 43 36 44 75 45 69 46 71 47 37 48
REMARK SMILES IDX 74 49 68 50 67 51 38 53 60 54 45 55 59 56 46 57 49 58 58 59
REMARK SMILES IDX 72 60 47 61 48 62 57 64 73 65 50 66 39 67 40 68 44 69 41 70
REMARK SMILES IDX 43 71 42 72 61 73 62 74 66 75 63 76 65 77 64 78 51 79 52 80
REMARK SMILES IDX 56 81 53 82 55 83 54 84
REMARK H PARENT 20 6 10 13 27 33 71 52 49 63
REMARK Flexibility Score: 100.00
ROOT
ATOM      1  C   UNL     1      -0.198   5.262   2.671  1.00  0.00     0.021 C 
ENDROOT
BRANCH   1   2
ATOM      2  C   UNL     1       0.693   4.510   3.653  1.00  0.00     0.116 C 
BRANCH   2   3
ATOM      3  N   UNL     1       0.288   3.153   3.928  1.00  0.00    -0.356 N 
ATOM      4  C   UNL     1       0.977   1.987   3.811  1.00  0.00     0.225 C 
ATOM      5  O   UNL     1       0.432   0.983   4.287  1.00  0.00    -0.275 OA
ATOM      6  H   UNL     1      -0.637   3.055   4.252  1.00  0.00     0.163 HD
BRANCH   4   7
ATOM      7  C   UNL     1       2.333   1.837   3.087  1.00  0.00     0.101 C 
BRANCH   7   8
ATOM      8  C   UNL     1       2.365   2.159   1.569  1.00  0.00     0.094 CG0
ATOM      9  G   UNL     1       3.546   3.016   1.080  1.00  0.00     0.000 G0
BRANCH   8  10
ATOM     10  N   UNL     1       1.024   2.448   1.054  1.00  0.00    -0.353 N 
ATOM     11  O   UNL     1       1.364   3.880  -0.724  1.00  0.00    -0.275 OA
ATOM     12  C   UNL     1       0.632   3.192  -0.033  1.00  0.00     0.220 C 
ATOM     13  H   UNL     1       0.288   2.046   1.567  1.00  0.00     0.163 HD
BRANCH  12  14
ATOM     14  C   UNL     1      -0.865   3.088  -0.299  1.00  0.00     0.108 C 
BRANCH  14  15
ATOM     15  C   UNL     1      -1.208   1.925  -1.223  1.00  0.00     0.085 C 
BRANCH  15  16
ATOM     16  C   UNL     1      -0.843   0.609  -0.635  1.00  0.00     0.104 A 
ATOM     17  C   UNL     1       0.157  -0.300  -0.908  1.00  0.00     0.045 A 
ATOM     18  O   UNL     1      -1.570   0.197   0.441  1.00  0.00    -0.469 OA
ATOM     19  C   UNL     1       0.035  -1.326   0.059  1.00  0.00     0.042 A 
ATOM     20  C   UNL     1      -1.034  -0.983   0.852  1.00  0.00     0.195 A 
ENDBRANCH  15  16
ENDBRANCH  14  15
ENDBRANCH  12  14
ENDBRANCH   8  10
ENDBRANCH   7   8
BRANCH   7  21
ATOM     21  C   UNL     1       3.563   2.201   3.932  1.00  0.00     0.015 C 
BRANCH  21  22
ATOM     22  C   UNL     1       3.881   3.665   4.191  1.00  0.00     0.001 C 
BRANCH  22  23
ATOM     23  C   UNL     1       4.387   4.497   3.013  1.00  0.00     0.000 C 
BRANCH  23  24
ATOM     24  C   UNL     1       3.687   4.416   1.655  1.00  0.00     0.002 C 
BRANCH  24  25
ATOM     25  C   UNL     1       3.546   3.016   1.080  1.00  0.00     0.026 CG0
ATOM     26  G   UNL     1       2.365   2.159   1.569  1.00  0.00     0.000 G0
ENDBRANCH  24  25
ENDBRANCH  23  24
ENDBRANCH  22  23
ENDBRANCH  21  22
ENDBRANCH   7  21
ENDBRANCH   4   7
ENDBRANCH   2   3
ENDBRANCH   1   2
BRANCH   1  27
ATOM     27  C   UNL     1      -0.988   6.422   3.278  1.00  0.00     0.002 C 
BRANCH  27  28
ATOM     28  C   UNL     1      -0.176   7.474   4.042  1.00  0.00     0.002 C 
BRANCH  28  29
ATOM     29  C   UNL     1       0.980   8.126   3.280  1.00  0.00     0.021 C 
BRANCH  29  30
ATOM     30  C   UNL     1       0.604   8.791   1.958  1.00  0.00     0.116 C 
BRANCH  30  31
ATOM     31  N   UNL     1      -0.491   9.738   2.105  1.00  0.00    -0.352 N 
ATOM     32  C   UNL     1      -0.534  11.094   1.911  1.00  0.00     0.251 C 
ATOM     33  H   UNL     1      -1.343   9.338   2.391  1.00  0.00     0.163 HD
ATOM     34  O   UNL     1      -1.514  11.732   2.287  1.00  0.00    -0.269 OA
BRANCH  32  35
ATOM     35  C   UNL     1       0.590  11.800   1.262  1.00  0.00     0.039 A 
ATOM     36  C   UNL     1       1.000  13.033   1.780  1.00  0.00     0.014 A 
ATOM     37  C   UNL     1       1.202  11.284   0.118  1.00  0.00     0.014 A 
ATOM     38  C   UNL     1       2.060  13.720   1.185  1.00  0.00     0.010 A 
ATOM     39  C   UNL     1       2.302  11.936  -0.435  1.00  0.00     0.010 A 
ATOM     40  C   UNL     1       2.737  13.163   0.089  1.00  0.00    -0.014 A 
BRANCH  40  41
ATOM     41  C   UNL     1       3.896  13.850  -0.535  1.00  0.00     0.031 A 
ATOM     42  C   UNL     1       3.805  14.342  -1.953  1.00  0.00     0.074 A 
ATOM     43  C   UNL     1       5.050  13.966   0.149  1.00  0.00     0.049 A 
ATOM     44  N   UNL     1       4.736  14.878  -2.702  1.00  0.00    -0.248 NA
ATOM     45  C   UNL     1       2.505  14.191  -2.625  1.00  0.00     0.031 C 
ATOM     46  C   UNL     1       5.274  13.507   1.521  1.00  0.00     0.029 A 
ATOM     47  N   UNL     1       6.259  14.497  -0.226  1.00  0.00    -0.354 N 
ATOM     48  C   UNL     1       4.140  15.107  -3.936  1.00  0.00     0.074 A 
ATOM     49  C   UNL     1       2.783  14.614  -3.849  1.00  0.00     0.031 C 
ATOM     50  C   UNL     1       6.537  13.791   1.878  1.00  0.00     0.029 A 
ATOM     51  C   UNL     1       7.223  14.412   0.749  1.00  0.00     0.049 A 
ATOM     52  H   UNL     1       6.420  14.901  -1.109  1.00  0.00     0.167 HD
ATOM     53  C   UNL     1       4.671  15.688  -5.038  1.00  0.00     0.031 A 
ATOM     54  C   UNL     1       8.518  14.780   0.732  1.00  0.00     0.031 A 
ATOM     55  C   UNL     1       6.017  16.188  -5.121  1.00  0.00     0.049 A 
ATOM     56  C   UNL     1       9.088  15.404  -0.511  1.00  0.00     0.074 A 
ATOM     57  C   UNL     1       6.631  16.838  -6.177  1.00  0.00     0.029 A 
ATOM     58  N   UNL     1       6.957  16.091  -4.107  1.00  0.00    -0.354 N 
ATOM     59  N   UNL     1       8.496  15.664  -1.651  1.00  0.00    -0.248 NA
ATOM     60  C   UNL     1      10.505  15.794  -0.465  1.00  0.00     0.031 C 
ATOM     61  C   UNL     1       7.959  17.093  -5.818  1.00  0.00     0.029 A 
ATOM     62  C   UNL     1       8.153  16.652  -4.519  1.00  0.00     0.049 A 
ATOM     63  H   UNL     1       6.797  15.685  -3.225  1.00  0.00     0.167 HD
ATOM     64  C   UNL     1       9.457  16.277  -2.445  1.00  0.00     0.074 A 
ATOM     65  C   UNL     1      10.667  16.359  -1.653  1.00  0.00     0.031 C 
ATOM     66  C   UNL     1       9.345  16.733  -3.716  1.00  0.00     0.031 A 
BRANCH  53  67
ATOM     67  C   UNL     1       3.790  15.805  -6.252  1.00  0.00    -0.014 A 
ATOM     68  C   UNL     1       2.704  16.695  -6.280  1.00  0.00     0.009 A 
ATOM     69  C   UNL     1       4.072  15.042  -7.396  1.00  0.00     0.009 A 
ATOM     70  C   UNL     1       1.897  16.791  -7.416  1.00  0.00     0.001 A 
ATOM     71  C   UNL     1       3.281  15.162  -8.540  1.00  0.00     0.001 A 
ATOM     72  C   UNL     1       2.189  16.028  -8.546  1.00  0.00     0.000 A 
ENDBRANCH  53  67
BRANCH  54  73
ATOM     73  C   UNL     1       9.366  14.577   1.936  1.00  0.00    -0.014 A 
ATOM     74  C   UNL     1       9.798  15.676   2.694  1.00  0.00     0.009 A 
ATOM     75  C   UNL     1       9.755  13.287   2.329  1.00  0.00     0.009 A 
ATOM     76  C   UNL     1      10.625  15.490   3.804  1.00  0.00     0.001 A 
ATOM     77  C   UNL     1      10.557  13.102   3.456  1.00  0.00     0.001 A 
ATOM     78  C   UNL     1      11.000  14.203   4.187  1.00  0.00     0.000 A 
ENDBRANCH  54  73
BRANCH  66  79
ATOM     79  C   UNL     1      10.548  17.404  -4.316  1.00  0.00    -0.014 A 
ATOM     80  C   UNL     1      11.674  16.668  -4.715  1.00  0.00     0.009 A 
ATOM     81  C   UNL     1      10.530  18.792  -4.530  1.00  0.00     0.009 A 
ATOM     82  C   UNL     1      12.770  17.313  -5.291  1.00  0.00     0.001 A 
ATOM     83  C   UNL     1      11.615  19.430  -5.132  1.00  0.00     0.001 A 
ATOM     84  C   UNL     1      12.737  18.691  -5.505  1.00  0.00     0.000 A 
ENDBRANCH  66  79
ENDBRANCH  40  41
ENDBRANCH  32  35
ENDBRANCH  30  31
ENDBRANCH  29  30
ENDBRANCH  28  29
ENDBRANCH  27  28
ENDBRANCH   1  27
TORSDOF 17
