REMARK SMILES O=C(NCCCCCCNC(=O)c1cccc(NC(=S)N/N=C\c2c[nH]c3ccccc23)c1)c1ccc(-c2c3nc(c(-c4ccccc4)c4ccc([nH]4)c(-c4ccccc4)c4nc(c(-c5ccccc5)c5ccc2[nH]5)C=C4)C=C3)cc1
REMARK SMILES IDX 8 1 7 2 6 3 5 4 4 5 3 6 1 7 2 8 34 10 35 11 81 12 36 13
REMARK SMILES IDX 80 14 37 15 38 16 39 17 74 18 40 19 79 20 73 21 75 22 41 23
REMARK SMILES IDX 78 24 72 25 71 26 42 28 64 29 49 30 63 31 50 32 53 33 62 34
REMARK SMILES IDX 76 35 51 36 52 37 61 39 77 40 54 41 43 42 44 43 48 44 45 45
REMARK SMILES IDX 47 46 46 47 65 48 66 49 70 50 67 51 69 52 68 53 55 54 56 55
REMARK SMILES IDX 60 56 57 57 59 58 58 59 9 60 10 61 11 62 12 64 13 65 14 66
REMARK SMILES IDX 33 67 15 68 17 69 16 70 18 71 19 73 20 74 21 75 22 77 23 78
REMARK SMILES IDX 24 79 25 80 32 81 26 82 27 83 31 84 28 86 30 87 29 88
REMARK H PARENT 3 9 75 27 53 38 10 63 18 72 21 76 26 85
REMARK Flexibility Score: inf
ROOT
ATOM      1  C   UNL     1       6.065  -1.887   3.982  1.00  0.00     0.021 C 
ENDROOT
BRANCH   1   2
ATOM      2  C   UNL     1       4.559  -1.636   3.992  1.00  0.00     0.002 C 
BRANCH   2   3
ATOM      3  C   UNL     1       4.126  -0.184   3.772  1.00  0.00     0.002 C 
BRANCH   3   4
ATOM      4  C   UNL     1       4.688   0.497   2.523  1.00  0.00     0.021 C 
BRANCH   4   5
ATOM      5  C   UNL     1       4.456  -0.251   1.215  1.00  0.00     0.116 C 
BRANCH   5   6
ATOM      6  N   UNL     1       3.045  -0.441   0.930  1.00  0.00    -0.352 N 
ATOM      7  O   UNL     1       1.103  -0.173  -0.182  1.00  0.00    -0.269 OA
ATOM      8  C   UNL     1       2.327  -0.086  -0.183  1.00  0.00     0.251 C 
ATOM      9  H   UNL     1       2.530  -0.889   1.638  1.00  0.00     0.163 HD
BRANCH   8  10
ATOM     10  C   UNL     1       3.027   0.422  -1.381  1.00  0.00     0.039 A 
ATOM     11  C   UNL     1       4.165  -0.222  -1.875  1.00  0.00     0.014 A 
ATOM     12  C   UNL     1       2.510   1.541  -2.039  1.00  0.00     0.014 A 
ATOM     13  C   UNL     1       4.848   0.315  -2.962  1.00  0.00     0.010 A 
ATOM     14  C   UNL     1       3.156   2.038  -3.172  1.00  0.00     0.010 A 
ATOM     15  C   UNL     1       4.340   1.439  -3.631  1.00  0.00    -0.014 A 
BRANCH  15  16
ATOM     16  C   UNL     1       5.008   1.935  -4.857  1.00  0.00     0.031 A 
ATOM     17  C   UNL     1       5.659   3.286  -4.893  1.00  0.00     0.074 A 
ATOM     18  C   UNL     1       4.998   1.158  -5.957  1.00  0.00     0.049 A 
ATOM     19  N   UNL     1       6.251   3.887  -5.894  1.00  0.00    -0.248 NA
ATOM     20  C   UNL     1       5.636   4.069  -3.648  1.00  0.00     0.031 C 
ATOM     21  C   UNL     1       4.381  -0.168  -6.046  1.00  0.00     0.029 A 
ATOM     22  N   UNL     1       5.513   1.372  -7.209  1.00  0.00    -0.354 N 
ATOM     23  C   UNL     1       6.649   5.126  -5.411  1.00  0.00     0.074 A 
ATOM     24  C   UNL     1       6.215   5.199  -4.031  1.00  0.00     0.031 C 
ATOM     25  C   UNL     1       4.567  -0.655  -7.280  1.00  0.00     0.029 A 
ATOM     26  C   UNL     1       5.264   0.343  -8.083  1.00  0.00     0.049 A 
ATOM     27  H   UNL     1       6.013   2.183  -7.456  1.00  0.00     0.167 HD
ATOM     28  C   UNL     1       7.315   6.112  -6.059  1.00  0.00     0.031 A 
ATOM     29  C   UNL     1       5.535   0.225  -9.395  1.00  0.00     0.031 A 
ATOM     30  C   UNL     1       7.737   6.036  -7.434  1.00  0.00     0.049 A 
ATOM     31  C   UNL     1       6.247   1.341 -10.099  1.00  0.00     0.074 A 
ATOM     32  C   UNL     1       8.463   6.960  -8.165  1.00  0.00     0.029 A 
ATOM     33  N   UNL     1       7.458   4.980  -8.289  1.00  0.00    -0.354 N 
ATOM     34  N   UNL     1       6.668   2.483  -9.612  1.00  0.00    -0.248 NA
ATOM     35  C   UNL     1       6.522   1.152 -11.529  1.00  0.00     0.031 C 
ATOM     36  C   UNL     1       8.575   6.488  -9.478  1.00  0.00     0.029 A 
ATOM     37  C   UNL     1       7.967   5.245  -9.549  1.00  0.00     0.049 A 
ATOM     38  H   UNL     1       6.970   4.163  -8.037  1.00  0.00     0.167 HD
ATOM     39  C   UNL     1       7.271   3.145 -10.672  1.00  0.00     0.074 A 
ATOM     40  C   UNL     1       7.175   2.269 -11.823  1.00  0.00     0.031 C 
ATOM     41  C   UNL     1       7.854   4.368 -10.687  1.00  0.00     0.031 A 
BRANCH  28  42
ATOM     42  C   UNL     1       7.595   7.376  -5.295  1.00  0.00    -0.014 A 
ATOM     43  C   UNL     1       8.546   7.414  -4.262  1.00  0.00     0.009 A 
ATOM     44  C   UNL     1       6.913   8.556  -5.631  1.00  0.00     0.009 A 
ATOM     45  C   UNL     1       8.777   8.598  -3.557  1.00  0.00     0.001 A 
ATOM     46  C   UNL     1       7.165   9.744  -4.943  1.00  0.00     0.001 A 
ATOM     47  C   UNL     1       8.089   9.761  -3.899  1.00  0.00     0.000 A 
ENDBRANCH  28  42
BRANCH  29  48
ATOM     48  C   UNL     1       5.102  -0.998 -10.117  1.00  0.00    -0.014 A 
ATOM     49  C   UNL     1       6.035  -1.966 -10.511  1.00  0.00     0.009 A 
ATOM     50  C   UNL     1       3.738  -1.226 -10.363  1.00  0.00     0.009 A 
ATOM     51  C   UNL     1       5.611  -3.136 -11.145  1.00  0.00     0.001 A 
ATOM     52  C   UNL     1       3.315  -2.408 -10.972  1.00  0.00     0.001 A 
ATOM     53  C   UNL     1       4.253  -3.360 -11.367  1.00  0.00     0.000 A 
ENDBRANCH  29  48
BRANCH  41  54
ATOM     54  C   UNL     1       8.451   4.825 -11.986  1.00  0.00    -0.014 A 
ATOM     55  C   UNL     1       7.640   5.255 -13.047  1.00  0.00     0.009 A 
ATOM     56  C   UNL     1       9.846   4.872 -12.131  1.00  0.00     0.009 A 
ATOM     57  C   UNL     1       8.216   5.701 -14.238  1.00  0.00     0.001 A 
ATOM     58  C   UNL     1      10.419   5.342 -13.313  1.00  0.00     0.001 A 
ATOM     59  C   UNL     1       9.604   5.750 -14.368  1.00  0.00     0.000 A 
ENDBRANCH  41  54
ENDBRANCH  15  16
ENDBRANCH   8  10
ENDBRANCH   5   6
ENDBRANCH   4   5
ENDBRANCH   3   4
ENDBRANCH   2   3
ENDBRANCH   1   2
BRANCH   1  60
ATOM     60  C   UNL     1       6.879  -1.000   4.913  1.00  0.00     0.116 C 
BRANCH  60  61
ATOM     61  N   UNL     1       6.532  -1.161   6.316  1.00  0.00    -0.352 N 
ATOM     62  C   UNL     1       7.301  -1.549   7.386  1.00  0.00     0.251 C 
ATOM     63  H   UNL     1       5.593  -0.959   6.534  1.00  0.00     0.163 HD
ATOM     64  O   UNL     1       6.774  -1.723   8.484  1.00  0.00    -0.269 OA
BRANCH  62  65
ATOM     65  C   UNL     1       8.751  -1.794   7.224  1.00  0.00     0.041 A 
ATOM     66  C   UNL     1       9.323  -2.920   7.822  1.00  0.00     0.014 A 
ATOM     67  C   UNL     1       9.539  -0.945   6.450  1.00  0.00     0.040 A 
ATOM     68  C   UNL     1      10.671  -3.215   7.601  1.00  0.00     0.003 A 
ATOM     69  C   UNL     1      10.852  -1.295   6.155  1.00  0.00     0.041 A 
ATOM     70  C   UNL     1      11.435  -2.406   6.759  1.00  0.00     0.026 A 
BRANCH  69  71
ATOM     71  N   UNL     1      11.469  -0.633   5.089  1.00  0.00    -0.331 N 
ATOM     72  H   UNL     1      10.860  -0.190   4.454  1.00  0.00     0.169 HD
BRANCH  71  73
ATOM     73  C   UNL     1      12.791  -0.517   4.810  1.00  0.00     0.191 C 
ATOM     74  S   UNL     1      13.277  -0.526   3.205  1.00  0.00    -0.039 S 
BRANCH  73  75
ATOM     75  N   UNL     1      13.688  -0.234   5.803  1.00  0.00    -0.254 N 
ATOM     76  H   UNL     1      14.642  -0.290   5.566  1.00  0.00     0.193 HD
BRANCH  75  77
ATOM     77  N   UNL     1      13.390   0.125   7.106  1.00  0.00    -0.181 NA
ATOM     78  C   UNL     1      13.070   1.369   7.371  1.00  0.00     0.143 C 
BRANCH  78  79
ATOM     79  C   UNL     1      12.884   2.373   6.346  1.00  0.00     0.020 A 
ATOM     80  C   UNL     1      11.876   2.341   5.401  1.00  0.00     0.093 A 
ATOM     81  C   UNL     1      13.693   3.478   5.970  1.00  0.00     0.008 A 
ATOM     82  N   UNL     1      12.461   2.805   4.254  1.00  0.00    -0.361 N 
ATOM     83  C   UNL     1      13.605   3.488   4.577  1.00  0.00     0.046 A 
ATOM     84  C   UNL     1      14.594   4.363   6.587  1.00  0.00     0.011 A 
ATOM     85  H   UNL     1      12.115   2.671   3.342  1.00  0.00     0.166 HD
ATOM     86  C   UNL     1      14.552   4.103   3.762  1.00  0.00     0.027 A 
ATOM     87  C   UNL     1      15.407   5.163   5.772  1.00  0.00     0.001 A 
ATOM     88  C   UNL     1      15.447   4.967   4.391  1.00  0.00     0.002 A 
ENDBRANCH  78  79
ENDBRANCH  75  77
ENDBRANCH  73  75
ENDBRANCH  71  73
ENDBRANCH  69  71
ENDBRANCH  62  65
ENDBRANCH  60  61
ENDBRANCH   1  60
TORSDOF 18
