REMARK SMILES CC(C)(C)c1cc2c(cc1Cl)C=C(C(=O)NCCCCCCNC(=O)c1ccc(-c3c4nc(c(-c5ccccc5)c5ccc([nH]5)c(-c5ccccc5)c5nc(c(-c6ccccc6)c6ccc3[nH]6)C=C5)C=C4)cc1)[C@@H](C(F)(F)F)O2
REMARK SMILES IDX 20 1 19 2 18 3 17 4 16 5 14 6 15 7 13 9 5 10 6 11 10 12 7 13
REMARK SMILES IDX 9 14 11 15 8 16 79 17 12 18 74 19 2 20 1 21 3 22 4 23 75 24
REMARK SMILES IDX 76 25 77 26 78 27 21 28 22 29 23 30 24 31 25 33 26 34 27 35
REMARK SMILES IDX 73 36 28 37 72 38 29 39 30 40 31 41 66 42 32 43 71 44 65 45
REMARK SMILES IDX 67 46 33 47 70 48 64 49 63 50 34 52 56 53 41 54 55 55 42 56
REMARK SMILES IDX 45 57 54 58 68 59 43 60 44 61 53 63 69 64 46 65 35 66 36 67
REMARK SMILES IDX 40 68 37 69 39 70 38 71 57 72 58 73 62 74 59 75 61 76 60 77
REMARK SMILES IDX 47 78 48 79 52 80 49 81 51 82 50 83
REMARK H PARENT 16 8 23 32 67 51 45 62
REMARK Flexibility Score: inf
ROOT
ATOM      1  C   UNL     1       0.912  10.641  -6.251  1.00  0.00     0.002 C 
ENDROOT
BRANCH   1   2
ATOM      2  C   UNL     1       2.200   9.892  -5.880  1.00  0.00     0.002 C 
BRANCH   2   3
ATOM      3  C   UNL     1       2.028   8.728  -4.900  1.00  0.00     0.021 C 
BRANCH   3   4
ATOM      4  C   UNL     1       1.018   7.677  -5.349  1.00  0.00     0.116 C 
BRANCH   4   5
ATOM      5  N   UNL     1       1.602   6.722  -6.273  1.00  0.00    -0.352 N 
ATOM      6  C   UNL     1       1.821   5.387  -6.315  1.00  0.00     0.251 C 
ATOM      7  O   UNL     1       2.352   4.977  -7.353  1.00  0.00    -0.270 OA
ATOM      8  H   UNL     1       1.927   7.165  -7.090  1.00  0.00     0.163 HD
BRANCH   6   9
ATOM      9  C   UNL     1       1.473   4.417  -5.234  1.00  0.00     0.067 C 
ATOM     10  C   UNL     1       0.949   0.203  -2.414  1.00  0.00    -0.020 A 
ATOM     11  C   UNL     1       0.674   1.585  -2.261  1.00  0.00     0.053 A 
ATOM     12  C   UNL     1       1.585  -0.162  -3.620  1.00  0.00     0.045 A 
ATOM     13  C   UNL     1       0.995   2.531  -3.232  1.00  0.00     0.128 A 
ATOM     14  C   UNL     1       1.915   0.806  -4.595  1.00  0.00     0.032 A 
ATOM     15  Cl  UNL     1       2.023  -1.771  -4.069  1.00  0.00    -0.084 Cl
ATOM     16  C   UNL     1       1.616   2.154  -4.407  1.00  0.00     0.019 A 
ATOM     17  O   UNL     1       0.692   3.823  -2.930  1.00  0.00    -0.475 OA
ATOM     18  C   UNL     1       1.952   3.169  -5.397  1.00  0.00     0.025 C 
ATOM     19  C   UNL     1       0.611   4.747  -4.047  1.00  0.00     0.314 C 
BRANCH  10  20
ATOM     20  C   UNL     1       0.480  -0.712  -1.256  1.00  0.00    -0.012 C 
ATOM     21  C   UNL     1       1.044  -0.187   0.092  1.00  0.00     0.016 C 
ATOM     22  C   UNL     1       0.873  -2.201  -1.312  1.00  0.00     0.016 C 
ATOM     23  C   UNL     1      -1.067  -0.669  -1.200  1.00  0.00     0.016 C 
ENDBRANCH  10  20
BRANCH  19  24
ATOM     24  C   UNL     1      -0.871   4.944  -4.413  1.00  0.00     0.429 C 
ATOM     25  F   UNL     1      -1.534   5.546  -3.393  1.00  0.00    -0.167 F 
ATOM     26  F   UNL     1      -1.043   5.736  -5.496  1.00  0.00    -0.167 F 
ATOM     27  F   UNL     1      -1.501   3.776  -4.673  1.00  0.00    -0.167 F 
ENDBRANCH  19  24
ENDBRANCH   6   9
ENDBRANCH   4   5
ENDBRANCH   3   4
ENDBRANCH   2   3
ENDBRANCH   1   2
BRANCH   1  28
ATOM     28  C   UNL     1       0.024  11.057  -5.077  1.00  0.00     0.021 C 
BRANCH  28  29
ATOM     29  C   UNL     1       0.704  11.939  -4.038  1.00  0.00     0.116 C 
BRANCH  29  30
ATOM     30  N   UNL     1       1.121  13.222  -4.580  1.00  0.00    -0.352 N 
ATOM     31  C   UNL     1       0.884  14.485  -4.097  1.00  0.00     0.251 C 
ATOM     32  H   UNL     1       1.648  13.178  -5.410  1.00  0.00     0.163 HD
ATOM     33  O   UNL     1       1.184  15.471  -4.763  1.00  0.00    -0.269 OA
BRANCH  31  34
ATOM     34  C   UNL     1       0.232  14.654  -2.781  1.00  0.00     0.039 A 
ATOM     35  C   UNL     1       0.649  13.906  -1.679  1.00  0.00     0.014 A 
ATOM     36  C   UNL     1      -0.826  15.559  -2.659  1.00  0.00     0.014 A 
ATOM     37  C   UNL     1      -0.087  13.948  -0.500  1.00  0.00     0.010 A 
ATOM     38  C   UNL     1      -1.515  15.659  -1.448  1.00  0.00     0.010 A 
ATOM     39  C   UNL     1      -1.180  14.822  -0.372  1.00  0.00    -0.014 A 
BRANCH  39  40
ATOM     40  C   UNL     1      -1.951  14.846   0.896  1.00  0.00     0.031 A 
ATOM     41  C   UNL     1      -3.387  14.399   0.933  1.00  0.00     0.074 A 
ATOM     42  C   UNL     1      -1.334  15.227   2.031  1.00  0.00     0.049 A 
ATOM     43  N   UNL     1      -4.199  14.330   1.959  1.00  0.00    -0.248 NA
ATOM     44  C   UNL     1      -3.994  13.973  -0.338  1.00  0.00     0.031 C 
ATOM     45  C   UNL     1       0.061  15.664   2.124  1.00  0.00     0.029 A 
ATOM     46  N   UNL     1      -1.787  15.281   3.325  1.00  0.00    -0.354 N 
ATOM     47  C   UNL     1      -5.410  13.873   1.456  1.00  0.00     0.074 A 
ATOM     48  C   UNL     1      -5.239  13.704   0.030  1.00  0.00     0.031 C 
ATOM     49  C   UNL     1       0.365  15.886   3.411  1.00  0.00     0.029 A 
ATOM     50  C   UNL     1      -0.826  15.672   4.226  1.00  0.00     0.049 A 
ATOM     51  H   UNL     1      -2.711  15.060   3.583  1.00  0.00     0.167 HD
ATOM     52  C   UNL     1      -6.557  13.609   2.125  1.00  0.00     0.031 A 
ATOM     53  C   UNL     1      -0.893  15.852   5.559  1.00  0.00     0.031 A 
ATOM     54  C   UNL     1      -6.720  13.766   3.546  1.00  0.00     0.049 A 
ATOM     55  C   UNL     1      -2.190  15.596   6.269  1.00  0.00     0.074 A 
ATOM     56  C   UNL     1      -7.842  13.502   4.314  1.00  0.00     0.029 A 
ATOM     57  N   UNL     1      -5.740  14.225   4.412  1.00  0.00    -0.354 N 
ATOM     58  N   UNL     1      -3.322  15.154   5.778  1.00  0.00    -0.248 NA
ATOM     59  C   UNL     1      -2.222  15.865   7.713  1.00  0.00     0.031 C 
ATOM     60  C   UNL     1      -7.558  13.854   5.635  1.00  0.00     0.029 A 
ATOM     61  C   UNL     1      -6.240  14.277   5.702  1.00  0.00     0.049 A 
ATOM     62  H   UNL     1      -4.826  14.477   4.148  1.00  0.00     0.167 HD
ATOM     63  C   UNL     1      -4.199  15.083   6.852  1.00  0.00     0.074 A 
ATOM     64  C   UNL     1      -3.461  15.505   8.025  1.00  0.00     0.031 C 
ATOM     65  C   UNL     1      -5.499  14.704   6.860  1.00  0.00     0.031 A 
BRANCH  52  66
ATOM     66  C   UNL     1      -7.744  13.130   1.337  1.00  0.00    -0.014 A 
ATOM     67  C   UNL     1      -8.865  13.964   1.191  1.00  0.00     0.009 A 
ATOM     68  C   UNL     1      -7.800  11.823   0.829  1.00  0.00     0.009 A 
ATOM     69  C   UNL     1     -10.022  13.496   0.566  1.00  0.00     0.001 A 
ATOM     70  C   UNL     1      -8.950  11.366   0.181  1.00  0.00     0.001 A 
ATOM     71  C   UNL     1     -10.062  12.198   0.059  1.00  0.00     0.000 A 
ENDBRANCH  52  66
BRANCH  53  72
ATOM     72  C   UNL     1       0.319  16.297   6.295  1.00  0.00    -0.014 A 
ATOM     73  C   UNL     1       0.840  17.586   6.096  1.00  0.00     0.009 A 
ATOM     74  C   UNL     1       0.995  15.418   7.154  1.00  0.00     0.009 A 
ATOM     75  C   UNL     1       2.028  17.976   6.717  1.00  0.00     0.001 A 
ATOM     76  C   UNL     1       2.167  15.821   7.798  1.00  0.00     0.001 A 
ATOM     77  C   UNL     1       2.688  17.095   7.571  1.00  0.00     0.000 A 
ENDBRANCH  53  72
BRANCH  65  78
ATOM     78  C   UNL     1      -6.224  14.715   8.176  1.00  0.00    -0.014 A 
ATOM     79  C   UNL     1      -6.600  13.502   8.775  1.00  0.00     0.009 A 
ATOM     80  C   UNL     1      -6.627  15.922   8.767  1.00  0.00     0.009 A 
ATOM     81  C   UNL     1      -7.380  13.497   9.932  1.00  0.00     0.001 A 
ATOM     82  C   UNL     1      -7.385  15.913   9.939  1.00  0.00     0.001 A 
ATOM     83  C   UNL     1      -7.769  14.702  10.515  1.00  0.00     0.000 A 
ENDBRANCH  65  78
ENDBRANCH  39  40
ENDBRANCH  31  34
ENDBRANCH  29  30
ENDBRANCH  28  29
ENDBRANCH   1  28
TORSDOF 15
