REMARK SMILES Cc1nn(C)c(=O)c(C(=O)N2CCCC[C@H]2C(=O)NCCCCCCNC(=O)c2ccc(-c3c4nc(c(-c5ccccc5)c5ccc([nH]5)c(-c5ccccc5)c5nc(c(-c6ccccc6)c6ccc3[nH]6)C=C5)C=C4)cc2)c1C
REMARK SMILES IDX 22 1 21 2 20 3 19 4 17 5 18 6 16 8 11 9 12 10 13 11 15 12
REMARK SMILES IDX 14 13 9 14 10 15 8 16 1 17 2 18 3 19 77 20 4 21 78 22 5 23
REMARK SMILES IDX 6 24 7 25 23 26 24 27 25 28 26 29 27 30 28 32 29 33 30 34
REMARK SMILES IDX 76 35 31 36 75 37 32 38 33 39 34 40 69 41 35 42 74 43 68 44
REMARK SMILES IDX 70 45 36 46 73 47 67 48 66 49 37 51 59 52 44 53 58 54 45 55
REMARK SMILES IDX 48 56 57 57 71 58 46 59 47 60 56 62 72 63 49 64 38 65 39 66
REMARK SMILES IDX 43 67 40 68 42 69 41 70 60 71 61 72 65 73 62 74 64 75 63 76
REMARK SMILES IDX 50 77 51 78 55 79 52 80 54 81 53 82
REMARK H PARENT 19 7 26 31 70 50 48 61
REMARK Flexibility Score: inf
ROOT
ATOM      1  C   UNL     1       4.409   3.735   1.671  1.00  0.00     0.002 C 
ENDROOT
BRANCH   1   2
ATOM      2  C   UNL     1       3.187   3.120   2.339  1.00  0.00     0.021 C 
BRANCH   2   3
ATOM      3  C   UNL     1       2.187   4.120   2.908  1.00  0.00     0.116 C 
BRANCH   3   4
ATOM      4  N   UNL     1       1.440   4.865   1.914  1.00  0.00    -0.354 N 
ATOM      5  C   UNL     1       0.102   5.065   1.723  1.00  0.00     0.242 C 
ATOM      6  O   UNL     1      -0.188   5.756   0.736  1.00  0.00    -0.273 OA
ATOM      7  H   UNL     1       2.007   5.315   1.247  1.00  0.00     0.163 HD
BRANCH   5   8
ATOM      8  C   UNL     1      -1.050   4.369   2.557  1.00  0.00     0.174 C 
ATOM      9  N   UNL     1      -0.708   3.719   3.831  1.00  0.00    -0.326 N 
ATOM     10  C   UNL     1      -0.385   4.676   4.928  1.00  0.00     0.120 C 
ATOM     11  C   UNL     1      -1.329   5.868   5.073  1.00  0.00     0.022 C 
ATOM     12  C   UNL     1      -2.146   5.437   2.776  1.00  0.00     0.035 C 
ATOM     13  C   UNL     1      -1.661   6.513   3.740  1.00  0.00     0.004 C 
BRANCH   9  14
ATOM     14  C   UNL     1      -0.440   2.362   4.085  1.00  0.00     0.260 C 
ATOM     15  O   UNL     1       0.031   2.094   5.205  1.00  0.00    -0.269 OA
BRANCH  14  16
ATOM     16  C   UNL     1      -0.518   1.138   3.142  1.00  0.00     0.111 A 
ATOM     17  C   UNL     1       0.636  -0.612  -0.073  1.00  0.00     0.069 C 
ATOM     18  C   UNL     1       0.114  -0.402   1.340  1.00  0.00     0.062 A 
ATOM     19  N   UNL     1       0.076  -1.466   2.062  1.00  0.00    -0.175 NA
ATOM     20  C   UNL     1      -0.198   0.987   1.832  1.00  0.00    -0.010 A 
ATOM     21  N   UNL     1      -0.366  -1.349   3.335  1.00  0.00    -0.232 N 
ATOM     22  C   UNL     1       0.092   2.027   0.815  1.00  0.00     0.047 C 
ATOM     23  C   UNL     1      -0.436  -2.607   4.060  1.00  0.00     0.178 C 
ATOM     24  C   UNL     1      -0.822  -0.161   3.892  1.00  0.00     0.279 A 
ATOM     25  O   UNL     1      -1.467  -0.144   4.941  1.00  0.00    -0.267 OA
ENDBRANCH  14  16
ENDBRANCH   9  14
ENDBRANCH   5   8
ENDBRANCH   3   4
ENDBRANCH   2   3
ENDBRANCH   1   2
BRANCH   1  26
ATOM     26  C   UNL     1       5.112   4.821   2.486  1.00  0.00     0.002 C 
BRANCH  26  27
ATOM     27  C   UNL     1       5.440   4.453   3.936  1.00  0.00     0.021 C 
BRANCH  27  28
ATOM     28  C   UNL     1       6.212   3.153   4.111  1.00  0.00     0.116 C 
BRANCH  28  29
ATOM     29  N   UNL     1       7.472   3.171   3.393  1.00  0.00    -0.352 N 
ATOM     30  C   UNL     1       8.748   3.068   3.886  1.00  0.00     0.251 C 
ATOM     31  H   UNL     1       7.402   3.271   2.417  1.00  0.00     0.163 HD
ATOM     32  O   UNL     1       9.711   3.315   3.174  1.00  0.00    -0.269 OA
BRANCH  30  33
ATOM     33  C   UNL     1       8.946   2.671   5.294  1.00  0.00     0.039 A 
ATOM     34  C   UNL     1       9.839   3.402   6.079  1.00  0.00     0.014 A 
ATOM     35  C   UNL     1       8.248   1.586   5.834  1.00  0.00     0.014 A 
ATOM     36  C   UNL     1      10.000   3.069   7.423  1.00  0.00     0.010 A 
ATOM     37  C   UNL     1       8.349   1.308   7.192  1.00  0.00     0.010 A 
ATOM     38  C   UNL     1       9.238   2.036   7.995  1.00  0.00    -0.014 A 
BRANCH  38  39
ATOM     39  C   UNL     1       9.384   1.688   9.428  1.00  0.00     0.031 A 
ATOM     40  C   UNL     1       9.943   0.350   9.820  1.00  0.00     0.074 A 
ATOM     41  C   UNL     1       8.991   2.565  10.371  1.00  0.00     0.049 A 
ATOM     42  N   UNL     1      10.139  -0.141  11.017  1.00  0.00    -0.248 NA
ATOM     43  C   UNL     1      10.316  -0.565   8.728  1.00  0.00     0.031 C 
ATOM     44  C   UNL     1       8.413   3.886  10.112  1.00  0.00     0.029 A 
ATOM     45  N   UNL     1       9.026   2.480  11.740  1.00  0.00    -0.354 N 
ATOM     46  C   UNL     1      10.652  -1.416  10.820  1.00  0.00     0.074 A 
ATOM     47  C   UNL     1      10.681  -1.649   9.394  1.00  0.00     0.031 C 
ATOM     48  C   UNL     1       8.187   4.502  11.283  1.00  0.00     0.029 A 
ATOM     49  C   UNL     1       8.561   3.607  12.373  1.00  0.00     0.049 A 
ATOM     50  H   UNL     1       9.354   1.687  12.223  1.00  0.00     0.167 HD
ATOM     51  C   UNL     1      11.087  -2.304  11.744  1.00  0.00     0.031 A 
ATOM     52  C   UNL     1       8.449   3.888  13.686  1.00  0.00     0.031 A 
ATOM     53  C   UNL     1      11.060  -2.068  13.162  1.00  0.00     0.049 A 
ATOM     54  C   UNL     1       8.894   2.865  14.694  1.00  0.00     0.074 A 
ATOM     55  C   UNL     1      11.514  -2.891  14.178  1.00  0.00     0.029 A 
ATOM     56  N   UNL     1      10.551  -0.928  13.763  1.00  0.00    -0.354 N 
ATOM     57  N   UNL     1       9.432   1.687  14.491  1.00  0.00    -0.248 NA
ATOM     58  C   UNL     1       8.723   3.213  16.111  1.00  0.00     0.031 C 
ATOM     59  C   UNL     1      11.223  -2.274  15.397  1.00  0.00     0.029 A 
ATOM     60  C   UNL     1      10.650  -1.039  15.139  1.00  0.00     0.049 A 
ATOM     61  H   UNL     1      10.175  -0.155  13.283  1.00  0.00     0.167 HD
ATOM     62  C   UNL     1       9.684   1.162  15.751  1.00  0.00     0.074 A 
ATOM     63  C   UNL     1       9.258   2.158  16.713  1.00  0.00     0.031 C 
ATOM     64  C   UNL     1      10.218  -0.039  16.082  1.00  0.00     0.031 A 
BRANCH  51  65
ATOM     65  C   UNL     1      11.633  -3.614  11.250  1.00  0.00    -0.014 A 
ATOM     66  C   UNL     1      12.861  -3.677  10.571  1.00  0.00     0.009 A 
ATOM     67  C   UNL     1      10.944  -4.807  11.517  1.00  0.00     0.009 A 
ATOM     68  C   UNL     1      13.375  -4.904  10.148  1.00  0.00     0.001 A 
ATOM     69  C   UNL     1      11.475  -6.036  11.120  1.00  0.00     0.001 A 
ATOM     70  C   UNL     1      12.685  -6.083  10.430  1.00  0.00     0.000 A 
ENDBRANCH  51  65
BRANCH  52  71
ATOM     71  C   UNL     1       7.914   5.207  14.117  1.00  0.00    -0.014 A 
ATOM     72  C   UNL     1       8.758   6.154  14.716  1.00  0.00     0.009 A 
ATOM     73  C   UNL     1       6.565   5.536  13.911  1.00  0.00     0.009 A 
ATOM     74  C   UNL     1       8.259   7.396  15.115  1.00  0.00     0.001 A 
ATOM     75  C   UNL     1       6.075   6.790  14.283  1.00  0.00     0.001 A 
ATOM     76  C   UNL     1       6.921   7.716  14.891  1.00  0.00     0.000 A 
ENDBRANCH  52  71
BRANCH  64  77
ATOM     77  C   UNL     1      10.391  -0.347  17.543  1.00  0.00    -0.014 A 
ATOM     78  C   UNL     1       9.287  -0.634  18.359  1.00  0.00     0.009 A 
ATOM     79  C   UNL     1      11.682  -0.437  18.088  1.00  0.00     0.009 A 
ATOM     80  C   UNL     1       9.472  -0.986  19.698  1.00  0.00     0.001 A 
ATOM     81  C   UNL     1      11.866  -0.821  19.417  1.00  0.00     0.001 A 
ATOM     82  C   UNL     1      10.760  -1.089  20.222  1.00  0.00     0.000 A 
ENDBRANCH  64  77
ENDBRANCH  38  39
ENDBRANCH  30  33
ENDBRANCH  28  29
ENDBRANCH  27  28
ENDBRANCH  26  27
ENDBRANCH   1  26
TORSDOF 15
