REMARK SMILES CCCc1cc(OC(F)(F)F)cc2c1O[C@@H](C(F)(F)F)C(C(=O)NCCCCCCNC(=O)c1ccc(-c3c4nc(c(-c5ccccc5)c5ccc([nH]5)c(-c5ccccc5)c5nc(c(-c6ccccc6)c6ccc3[nH]6)C=C5)C=C4)cc1)=C2
REMARK SMILES IDX 27 1 26 2 25 3 24 4 22 5 23 6 21 8 4 9 5 10 14 11 6 12 13 13
REMARK SMILES IDX 15 14 12 15 82 16 16 17 3 18 2 19 1 20 7 21 8 22 9 23 10 24
REMARK SMILES IDX 11 25 17 26 18 27 19 28 20 29 28 30 29 31 30 32 31 33 32 34
REMARK SMILES IDX 33 36 34 37 35 38 81 39 36 40 80 41 37 42 38 43 39 44 74 45
REMARK SMILES IDX 40 46 79 47 73 48 75 49 41 50 78 51 72 52 71 53 42 55 64 56
REMARK SMILES IDX 49 57 63 58 50 59 53 60 62 61 76 62 51 63 52 64 61 66 77 67
REMARK SMILES IDX 54 68 43 69 44 70 48 71 45 72 47 73 46 74 65 75 66 76 70 77
REMARK SMILES IDX 67 78 69 79 68 80 55 81 56 82 60 83 57 84 59 85 58 86
REMARK H PARENT 24 7 31 35 75 54 53 65
REMARK Flexibility Score: inf
ROOT
ATOM      1  C   UNL     1      -2.907   2.894  -7.627  1.00  0.00     0.002 C 
ENDROOT
BRANCH   1   2
ATOM      2  C   UNL     1      -2.315   3.280  -6.264  1.00  0.00     0.021 C 
BRANCH   2   3
ATOM      3  C   UNL     1      -3.118   2.711  -5.088  1.00  0.00     0.116 C 
BRANCH   3   4
ATOM      4  N   UNL     1      -2.804   1.303  -4.946  1.00  0.00    -0.352 N 
ATOM      5  C   UNL     1      -1.852   0.661  -4.224  1.00  0.00     0.251 C 
ATOM      6  O   UNL     1      -1.599  -0.507  -4.505  1.00  0.00    -0.270 OA
ATOM      7  H   UNL     1      -3.386   0.705  -5.467  1.00  0.00     0.163 HD
BRANCH   5   8
ATOM      8  C   UNL     1      -1.189   1.285  -3.053  1.00  0.00     0.067 C 
ATOM      9  C   UNL     1       0.544   2.731   0.497  1.00  0.00    -0.002 A 
ATOM     10  C   UNL     1       0.942   4.087   0.545  1.00  0.00     0.054 A 
ATOM     11  C   UNL     1      -0.080   2.270  -0.670  1.00  0.00     0.131 A 
ATOM     12  C   UNL     1       0.762   4.939  -0.547  1.00  0.00     0.130 A 
ATOM     13  C   UNL     1      -0.187   3.089  -1.797  1.00  0.00     0.021 A 
ATOM     14  O   UNL     1      -0.677   1.044  -0.650  1.00  0.00    -0.475 OA
ATOM     15  C   UNL     1       0.228   4.421  -1.727  1.00  0.00     0.058 A 
ATOM     16  C   UNL     1      -0.790   2.566  -3.018  1.00  0.00     0.025 C 
ATOM     17  C   UNL     1      -0.837   0.344  -1.911  1.00  0.00     0.314 C 
BRANCH   9  18
ATOM     18  C   UNL     1       0.815   1.896   1.738  1.00  0.00     0.039 C 
BRANCH  18  19
ATOM     19  C   UNL     1       0.710   0.365   1.691  1.00  0.00     0.001 C 
ATOM     20  C   UNL     1       1.712  -0.304   0.757  1.00  0.00     0.004 C 
ENDBRANCH  18  19
ENDBRANCH   9  18
BRANCH  12  21
ATOM     21  O   UNL     1       1.059   6.270  -0.601  1.00  0.00    -0.406 OA
BRANCH  21  22
ATOM     22  C   UNL     1       1.497   6.903   0.590  1.00  0.00     0.573 C 
ATOM     23  F   UNL     1       0.594   6.763   1.583  1.00  0.00    -0.132 F 
ATOM     24  F   UNL     1       2.688   6.408   0.987  1.00  0.00    -0.132 F 
ATOM     25  F   UNL     1       1.650   8.223   0.345  1.00  0.00    -0.132 F 
ENDBRANCH  21  22
ENDBRANCH  12  21
BRANCH  17  26
ATOM     26  C   UNL     1      -1.796  -0.841  -1.647  1.00  0.00     0.429 C 
ATOM     27  F   UNL     1      -1.534  -1.911  -2.430  1.00  0.00    -0.167 F 
ATOM     28  F   UNL     1      -1.667  -1.292  -0.369  1.00  0.00    -0.167 F 
ATOM     29  F   UNL     1      -3.095  -0.502  -1.808  1.00  0.00    -0.167 F 
ENDBRANCH  17  26
ENDBRANCH   5   8
ENDBRANCH   3   4
ENDBRANCH   2   3
ENDBRANCH   1   2
BRANCH   1  30
ATOM     30  C   UNL     1      -4.317   3.439  -7.878  1.00  0.00     0.002 C 
BRANCH  30  31
ATOM     31  C   UNL     1      -4.452   4.953  -7.704  1.00  0.00     0.021 C 
BRANCH  31  32
ATOM     32  C   UNL     1      -3.574   5.762  -8.651  1.00  0.00     0.116 C 
BRANCH  32  33
ATOM     33  N   UNL     1      -3.980   5.577 -10.034  1.00  0.00    -0.352 N 
ATOM     34  C   UNL     1      -4.350   6.521 -10.956  1.00  0.00     0.251 C 
ATOM     35  H   UNL     1      -3.990   4.645 -10.352  1.00  0.00     0.163 HD
ATOM     36  O   UNL     1      -4.911   6.188 -11.994  1.00  0.00    -0.269 OA
BRANCH  34  37
ATOM     37  C   UNL     1      -4.069   7.946 -10.692  1.00  0.00     0.039 A 
ATOM     38  C   UNL     1      -5.051   8.896 -10.983  1.00  0.00     0.014 A 
ATOM     39  C   UNL     1      -2.826   8.344 -10.190  1.00  0.00     0.014 A 
ATOM     40  C   UNL     1      -4.795  10.246 -10.743  1.00  0.00     0.010 A 
ATOM     41  C   UNL     1      -2.599   9.682  -9.884  1.00  0.00     0.010 A 
ATOM     42  C   UNL     1      -3.573  10.647 -10.179  1.00  0.00    -0.014 A 
BRANCH  42  43
ATOM     43  C   UNL     1      -3.278  12.079  -9.931  1.00  0.00     0.031 A 
ATOM     44  C   UNL     1      -2.177  12.759 -10.698  1.00  0.00     0.074 A 
ATOM     45  C   UNL     1      -3.963  12.750  -8.988  1.00  0.00     0.049 A 
ATOM     46  N   UNL     1      -1.734  13.987 -10.594  1.00  0.00    -0.248 NA
ATOM     47  C   UNL     1      -1.461  11.946 -11.695  1.00  0.00     0.031 C 
ATOM     48  C   UNL     1      -5.029  12.192  -8.154  1.00  0.00     0.029 A 
ATOM     49  N   UNL     1      -3.860  14.053  -8.569  1.00  0.00    -0.354 N 
ATOM     50  C   UNL     1      -0.681  14.085 -11.494  1.00  0.00     0.074 A 
ATOM     51  C   UNL     1      -0.515  12.781 -12.098  1.00  0.00     0.031 C 
ATOM     52  C   UNL     1      -5.501  13.154  -7.343  1.00  0.00     0.029 A 
ATOM     53  C   UNL     1      -4.747  14.382  -7.574  1.00  0.00     0.049 A 
ATOM     54  H   UNL     1      -3.212  14.690  -8.946  1.00  0.00     0.167 HD
ATOM     55  C   UNL     1       0.069  15.168 -11.808  1.00  0.00     0.031 A 
ATOM     56  C   UNL     1      -4.931  15.544  -6.921  1.00  0.00     0.031 A 
ATOM     57  C   UNL     1      -0.108  16.468 -11.220  1.00  0.00     0.049 A 
ATOM     58  C   UNL     1      -4.082  16.731  -7.283  1.00  0.00     0.074 A 
ATOM     59  C   UNL     1       0.561  17.644 -11.509  1.00  0.00     0.029 A 
ATOM     60  N   UNL     1      -1.024  16.762 -10.222  1.00  0.00    -0.354 N 
ATOM     61  N   UNL     1      -3.133  16.825  -8.182  1.00  0.00    -0.248 NA
ATOM     62  C   UNL     1      -4.340  17.976  -6.546  1.00  0.00     0.031 C 
ATOM     63  C   UNL     1       0.083  18.640 -10.652  1.00  0.00     0.029 A 
ATOM     64  C   UNL     1      -0.922  18.096  -9.868  1.00  0.00     0.049 A 
ATOM     65  H   UNL     1      -1.653  16.118  -9.824  1.00  0.00     0.167 HD
ATOM     66  C   UNL     1      -2.701  18.144  -8.141  1.00  0.00     0.074 A 
ATOM     67  C   UNL     1      -3.502  18.816  -7.138  1.00  0.00     0.031 C 
ATOM     68  C   UNL     1      -1.729  18.747  -8.868  1.00  0.00     0.031 A 
BRANCH  55  69
ATOM     69  C   UNL     1       1.154  14.984 -12.832  1.00  0.00    -0.014 A 
ATOM     70  C   UNL     1       0.849  14.764 -14.185  1.00  0.00     0.009 A 
ATOM     71  C   UNL     1       2.501  15.059 -12.445  1.00  0.00     0.009 A 
ATOM     72  C   UNL     1       1.869  14.582 -15.121  1.00  0.00     0.001 A 
ATOM     73  C   UNL     1       3.519  14.907 -13.387  1.00  0.00     0.001 A 
ATOM     74  C   UNL     1       3.203  14.658 -14.722  1.00  0.00     0.000 A 
ENDBRANCH  55  69
BRANCH  56  75
ATOM     75  C   UNL     1      -5.977  15.651  -5.871  1.00  0.00    -0.014 A 
ATOM     76  C   UNL     1      -7.138  16.408  -6.098  1.00  0.00     0.009 A 
ATOM     77  C   UNL     1      -5.820  15.003  -4.636  1.00  0.00     0.009 A 
ATOM     78  C   UNL     1      -8.105  16.536  -5.099  1.00  0.00     0.001 A 
ATOM     79  C   UNL     1      -6.803  15.110  -3.650  1.00  0.00     0.001 A 
ATOM     80  C   UNL     1      -7.939  15.885  -3.878  1.00  0.00     0.000 A 
ENDBRANCH  56  75
BRANCH  68  81
ATOM     81  C   UNL     1      -1.504  20.213  -8.632  1.00  0.00    -0.014 A 
ATOM     82  C   UNL     1      -0.889  20.677  -7.460  1.00  0.00     0.009 A 
ATOM     83  C   UNL     1      -1.877  21.139  -9.619  1.00  0.00     0.009 A 
ATOM     84  C   UNL     1      -0.682  22.045  -7.266  1.00  0.00     0.001 A 
ATOM     85  C   UNL     1      -1.642  22.502  -9.436  1.00  0.00     0.001 A 
ATOM     86  C   UNL     1      -1.053  22.954  -8.256  1.00  0.00     0.000 A 
ENDBRANCH  68  81
ENDBRANCH  42  43
ENDBRANCH  34  37
ENDBRANCH  32  33
ENDBRANCH  31  32
ENDBRANCH  30  31
ENDBRANCH   1  30
TORSDOF 18
