REMARK SMILES CN(CCCC(=O)NCCCCCCNC(=O)c1ccc(-c2c3nc(c(-c4ccccc4)c4ccc([nH]4)c(-c4ccccc4)c4nc(c(-c5ccccc5)c5ccc2[nH]5)C=C4)C=C3)cc1)c1cccc(F)c1C(N)=O
REMARK SMILES IDX 10 1 9 2 8 3 6 4 7 5 5 7 4 8 3 9 2 10 1 11 66 12 67 13 72 14
REMARK SMILES IDX 68 15 70 16 69 17 71 18 73 19 74 20 75 21 11 24 12 25 13 26
REMARK SMILES IDX 14 27 15 28 16 29 17 31 18 32 19 33 65 34 20 35 64 36 21 37
REMARK SMILES IDX 22 38 23 39 58 40 24 41 63 42 57 43 59 44 25 45 62 46 56 47
REMARK SMILES IDX 55 48 26 50 48 51 33 52 47 53 34 54 37 55 46 56 60 57 35 58
REMARK SMILES IDX 36 59 45 61 61 62 38 63 27 64 28 65 32 66 29 67 31 68 30 69
REMARK SMILES IDX 49 70 50 71 54 72 51 73 53 74 52 75 39 76 40 77 44 78 41 79
REMARK SMILES IDX 43 80 42 81
REMARK H PARENT 8 6 74 22 74 23 15 30 59 49 37 60
REMARK Flexibility Score: inf
ROOT
ATOM      1  C   UNL     1       1.679  -2.519  -3.311  1.00  0.00     0.021 C 
ENDROOT
BRANCH   1   2
ATOM      2  C   UNL     1       1.292  -1.253  -4.072  1.00  0.00     0.116 C 
BRANCH   2   3
ATOM      3  N   UNL     1       0.171  -1.528  -4.939  1.00  0.00    -0.356 N 
ATOM      4  C   UNL     1      -1.124  -1.135  -4.799  1.00  0.00     0.220 C 
ATOM      5  O   UNL     1      -1.974  -1.638  -5.535  1.00  0.00    -0.275 OA
ATOM      6  H   UNL     1       0.370  -2.072  -5.736  1.00  0.00     0.163 HD
BRANCH   4   7
ATOM      7  C   UNL     1      -1.476  -0.019  -3.834  1.00  0.00     0.102 C 
BRANCH   7   8
ATOM      8  C   UNL     1      -1.764  -0.374  -2.372  1.00  0.00     0.031 C 
BRANCH   8   9
ATOM      9  C   UNL     1      -0.627  -0.491  -1.341  1.00  0.00     0.117 C 
BRANCH   9  10
ATOM     10  N   UNL     1       0.025   0.755  -0.872  1.00  0.00    -0.374 N 
ATOM     11  C   UNL     1       0.433   0.774   0.535  1.00  0.00     0.143 C 
BRANCH  10  12
ATOM     12  C   UNL     1       0.708   1.603  -1.742  1.00  0.00     0.052 A 
ATOM     13  C   UNL     1      -0.092   2.533  -2.441  1.00  0.00     0.027 A 
ATOM     14  C   UNL     1       2.106   1.626  -2.000  1.00  0.00     0.098 A 
ATOM     15  C   UNL     1       0.412   3.351  -3.453  1.00  0.00     0.005 A 
ATOM     16  C   UNL     1       2.595   2.465  -3.021  1.00  0.00     0.138 A 
ATOM     17  C   UNL     1       1.761   3.299  -3.758  1.00  0.00     0.040 A 
ATOM     18  F   UNL     1       3.898   2.477  -3.348  1.00  0.00    -0.206 F 
BRANCH  14  19
ATOM     19  C   UNL     1       3.095   0.762  -1.275  1.00  0.00     0.253 C 
ATOM     20  N   UNL     1       4.400   1.191  -1.234  1.00  0.00    -0.365 N 
ATOM     21  O   UNL     1       2.803  -0.289  -0.725  1.00  0.00    -0.269 OA
ATOM     22  H   UNL     1       4.654   2.036  -1.671  1.00  0.00     0.159 HD
ATOM     23  H   UNL     1       5.080   0.654  -0.767  1.00  0.00     0.159 HD
ENDBRANCH  14  19
ENDBRANCH  10  12
ENDBRANCH   9  10
ENDBRANCH   8   9
ENDBRANCH   7   8
ENDBRANCH   4   7
ENDBRANCH   2   3
ENDBRANCH   1   2
BRANCH   1  24
ATOM     24  C   UNL     1       2.688  -3.371  -4.078  1.00  0.00     0.002 C 
BRANCH  24  25
ATOM     25  C   UNL     1       4.080  -2.737  -4.182  1.00  0.00     0.002 C 
BRANCH  25  26
ATOM     26  C   UNL     1       4.752  -2.425  -2.842  1.00  0.00     0.021 C 
BRANCH  26  27
ATOM     27  C   UNL     1       4.864  -3.614  -1.897  1.00  0.00     0.116 C 
BRANCH  27  28
ATOM     28  N   UNL     1       5.658  -4.678  -2.490  1.00  0.00    -0.352 N 
ATOM     29  C   UNL     1       6.843  -5.217  -2.067  1.00  0.00     0.251 C 
ATOM     30  H   UNL     1       5.289  -5.068  -3.316  1.00  0.00     0.163 HD
ATOM     31  O   UNL     1       7.522  -5.895  -2.833  1.00  0.00    -0.269 OA
BRANCH  29  32
ATOM     32  C   UNL     1       7.306  -4.982  -0.684  1.00  0.00     0.039 A 
ATOM     33  C   UNL     1       8.663  -4.743  -0.457  1.00  0.00     0.014 A 
ATOM     34  C   UNL     1       6.412  -5.043   0.389  1.00  0.00     0.014 A 
ATOM     35  C   UNL     1       9.118  -4.531   0.844  1.00  0.00     0.010 A 
ATOM     36  C   UNL     1       6.853  -4.752   1.676  1.00  0.00     0.010 A 
ATOM     37  C   UNL     1       8.213  -4.514   1.919  1.00  0.00    -0.014 A 
BRANCH  37  38
ATOM     38  C   UNL     1       8.682  -4.267   3.305  1.00  0.00     0.031 A 
ATOM     39  C   UNL     1       8.545  -5.337   4.353  1.00  0.00     0.074 A 
ATOM     40  C   UNL     1       9.189  -3.063   3.629  1.00  0.00     0.049 A 
ATOM     41  N   UNL     1       8.882  -5.300   5.618  1.00  0.00    -0.248 NA
ATOM     42  C   UNL     1       7.926  -6.605   3.934  1.00  0.00     0.031 C 
ATOM     43  C   UNL     1       9.330  -1.929   2.714  1.00  0.00     0.029 A 
ATOM     44  N   UNL     1       9.678  -2.592   4.821  1.00  0.00    -0.354 N 
ATOM     45  C   UNL     1       8.501  -6.528   6.145  1.00  0.00     0.074 A 
ATOM     46  C   UNL     1       7.858  -7.265   5.080  1.00  0.00     0.031 C 
ATOM     47  C   UNL     1       9.895  -0.903   3.370  1.00  0.00     0.029 A 
ATOM     48  C   UNL     1      10.117  -1.292   4.759  1.00  0.00     0.049 A 
ATOM     49  H   UNL     1       9.710  -3.133   5.643  1.00  0.00     0.167 HD
ATOM     50  C   UNL     1       8.686  -7.007   7.399  1.00  0.00     0.031 A 
ATOM     51  C   UNL     1      10.635  -0.498   5.715  1.00  0.00     0.031 A 
ATOM     52  C   UNL     1       9.327  -6.272   8.456  1.00  0.00     0.049 A 
ATOM     53  C   UNL     1      10.823  -1.049   7.101  1.00  0.00     0.074 A 
ATOM     54  C   UNL     1       9.620  -6.690   9.742  1.00  0.00     0.029 A 
ATOM     55  N   UNL     1       9.765  -4.960   8.351  1.00  0.00    -0.354 N 
ATOM     56  N   UNL     1      10.536  -2.242   7.562  1.00  0.00    -0.248 NA
ATOM     57  C   UNL     1      11.423  -0.147   8.093  1.00  0.00     0.031 C 
ATOM     58  C   UNL     1      10.176  -5.609  10.436  1.00  0.00     0.029 A 
ATOM     59  C   UNL     1      10.296  -4.542   9.560  1.00  0.00     0.049 A 
ATOM     60  H   UNL     1       9.708  -4.409   7.538  1.00  0.00     0.167 HD
ATOM     61  C   UNL     1      10.943  -2.243   8.890  1.00  0.00     0.074 A 
ATOM     62  C   UNL     1      11.515  -0.938   9.153  1.00  0.00     0.031 C 
ATOM     63  C   UNL     1      10.853  -3.236   9.809  1.00  0.00     0.031 A 
BRANCH  50  64
ATOM     64  C   UNL     1       8.166  -8.389   7.695  1.00  0.00    -0.014 A 
ATOM     65  C   UNL     1       8.737  -9.530   7.107  1.00  0.00     0.009 A 
ATOM     66  C   UNL     1       7.102  -8.554   8.595  1.00  0.00     0.009 A 
ATOM     67  C   UNL     1       8.223 -10.800   7.377  1.00  0.00     0.001 A 
ATOM     68  C   UNL     1       6.612  -9.828   8.890  1.00  0.00     0.001 A 
ATOM     69  C   UNL     1       7.164 -10.948   8.272  1.00  0.00     0.000 A 
ENDBRANCH  50  64
BRANCH  51  70
ATOM     70  C   UNL     1      11.018   0.900   5.388  1.00  0.00    -0.014 A 
ATOM     71  C   UNL     1      12.367   1.285   5.354  1.00  0.00     0.009 A 
ATOM     72  C   UNL     1      10.033   1.858   5.099  1.00  0.00     0.009 A 
ATOM     73  C   UNL     1      12.719   2.606   5.064  1.00  0.00     0.001 A 
ATOM     74  C   UNL     1      10.389   3.169   4.778  1.00  0.00     0.001 A 
ATOM     75  C   UNL     1      11.731   3.545   4.771  1.00  0.00     0.000 A 
ENDBRANCH  51  70
BRANCH  63  76
ATOM     76  C   UNL     1      11.414  -2.959  11.177  1.00  0.00    -0.014 A 
ATOM     77  C   UNL     1      10.792  -2.061  12.057  1.00  0.00     0.009 A 
ATOM     78  C   UNL     1      12.567  -3.638  11.603  1.00  0.00     0.009 A 
ATOM     79  C   UNL     1      11.336  -1.819  13.321  1.00  0.00     0.001 A 
ATOM     80  C   UNL     1      13.089  -3.420  12.878  1.00  0.00     0.001 A 
ATOM     81  C   UNL     1      12.480  -2.502  13.732  1.00  0.00     0.000 A 
ENDBRANCH  63  76
ENDBRANCH  37  38
ENDBRANCH  29  32
ENDBRANCH  27  28
ENDBRANCH  26  27
ENDBRANCH  25  26
ENDBRANCH  24  25
ENDBRANCH   1  24
TORSDOF 18
