REMARK SMILES O=C(NCCCCCCNC(=O)c1nnn(-c2cccc(C(F)(F)F)c2)c1[C@@H]1COc2ccccc2O1)c1ccc(-c2c3nc(c(-c4ccccc4)c4ccc([nH]4)c(-c4ccccc4)c4nc(c(-c5ccccc5)c5ccc2[nH]5)C=C4)C=C3)cc1
REMARK SMILES IDX 6 1 5 2 4 3 3 4 1 5 2 6 38 8 39 9 85 10 40 11 84 12 41 13
REMARK SMILES IDX 42 14 43 15 78 16 44 17 83 18 77 19 79 20 45 21 82 22 76 23
REMARK SMILES IDX 75 24 46 26 68 27 53 28 67 29 54 30 57 31 66 32 80 33 55 34
REMARK SMILES IDX 56 35 65 37 81 38 58 39 47 40 48 41 52 42 49 43 51 44 50 45
REMARK SMILES IDX 69 46 70 47 74 48 71 49 73 50 72 51 59 52 60 53 64 54 61 55
REMARK SMILES IDX 63 56 62 57 7 58 8 59 9 60 10 61 11 62 12 64 13 65 14 66
REMARK SMILES IDX 27 67 15 68 16 69 28 70 29 71 37 72 30 73 36 74 31 75 35 76
REMARK SMILES IDX 32 77 34 78 33 79 17 80 18 81 26 82 19 83 21 84 20 85 22 86
REMARK SMILES IDX 23 87 24 88 25 89
REMARK H PARENT 3 7 79 25 57 36 10 63
REMARK Flexibility Score: inf
ROOT
ATOM      1  C   UNL     1       4.068   1.921   2.850  1.00  0.00     0.002 C 
ENDROOT
BRANCH   1   2
ATOM      2  C   UNL     1       4.758   1.690   1.496  1.00  0.00     0.021 C 
BRANCH   2   3
ATOM      3  C   UNL     1       4.580   0.305   0.876  1.00  0.00     0.116 C 
BRANCH   3   4
ATOM      4  N   UNL     1       3.202  -0.118   0.728  1.00  0.00    -0.352 N 
ATOM      5  O   UNL     1       1.166  -0.569   0.022  1.00  0.00    -0.269 OA
ATOM      6  C   UNL     1       2.202   0.072  -0.183  1.00  0.00     0.251 C 
ATOM      7  H   UNL     1       2.913  -0.689   1.476  1.00  0.00     0.163 HD
BRANCH   6   8
ATOM      8  C   UNL     1       2.233   0.997  -1.353  1.00  0.00     0.039 A 
ATOM      9  C   UNL     1       3.366   1.593  -1.905  1.00  0.00     0.014 A 
ATOM     10  C   UNL     1       0.984   1.257  -1.958  1.00  0.00     0.014 A 
ATOM     11  C   UNL     1       3.244   2.453  -3.004  1.00  0.00     0.010 A 
ATOM     12  C   UNL     1       0.858   2.112  -3.052  1.00  0.00     0.010 A 
ATOM     13  C   UNL     1       1.990   2.726  -3.572  1.00  0.00    -0.014 A 
BRANCH  13  14
ATOM     14  C   UNL     1       1.935   3.483  -4.827  1.00  0.00     0.031 A 
ATOM     15  C   UNL     1       2.583   2.802  -5.984  1.00  0.00     0.074 A 
ATOM     16  C   UNL     1       1.245   4.623  -5.044  1.00  0.00     0.049 A 
ATOM     17  N   UNL     1       3.634   3.177  -6.636  1.00  0.00    -0.248 NA
ATOM     18  C   UNL     1       2.043   1.502  -6.412  1.00  0.00     0.031 C 
ATOM     19  C   UNL     1       0.291   5.287  -4.156  1.00  0.00     0.029 A 
ATOM     20  N   UNL     1       1.193   5.389  -6.178  1.00  0.00    -0.354 N 
ATOM     21  C   UNL     1       3.799   2.257  -7.670  1.00  0.00     0.074 A 
ATOM     22  C   UNL     1       2.875   1.182  -7.404  1.00  0.00     0.031 C 
ATOM     23  C   UNL     1      -0.393   6.227  -4.854  1.00  0.00     0.029 A 
ATOM     24  C   UNL     1       0.165   6.325  -6.194  1.00  0.00     0.049 A 
ATOM     25  H   UNL     1       1.831   5.286  -6.921  1.00  0.00     0.167 HD
ATOM     26  C   UNL     1       4.529   2.552  -8.781  1.00  0.00     0.031 A 
ATOM     27  C   UNL     1      -0.224   7.100  -7.239  1.00  0.00     0.031 A 
ATOM     28  C   UNL     1       5.377   3.699  -8.577  1.00  0.00     0.049 A 
ATOM     29  C   UNL     1       0.888   7.153  -8.211  1.00  0.00     0.074 A 
ATOM     30  C   UNL     1       6.386   4.031  -7.696  1.00  0.00     0.029 A 
ATOM     31  N   UNL     1       4.984   4.880  -9.158  1.00  0.00    -0.354 N 
ATOM     32  N   UNL     1       1.996   7.801  -8.008  1.00  0.00    -0.248 NA
ATOM     33  C   UNL     1       0.922   6.171  -9.281  1.00  0.00     0.031 C 
ATOM     34  C   UNL     1       6.206   5.423  -7.439  1.00  0.00     0.029 A 
ATOM     35  C   UNL     1       5.140   5.865  -8.223  1.00  0.00     0.049 A 
ATOM     36  H   UNL     1       4.652   4.996 -10.078  1.00  0.00     0.167 HD
ATOM     37  C   UNL     1       2.971   7.009  -8.589  1.00  0.00     0.074 A 
ATOM     38  C   UNL     1       2.243   6.090  -9.460  1.00  0.00     0.031 C 
ATOM     39  C   UNL     1       4.243   6.990  -8.093  1.00  0.00     0.031 A 
BRANCH  26  40
ATOM     40  C   UNL     1       4.165   2.082 -10.174  1.00  0.00    -0.014 A 
ATOM     41  C   UNL     1       4.967   2.501 -11.254  1.00  0.00     0.009 A 
ATOM     42  C   UNL     1       2.918   1.520 -10.500  1.00  0.00     0.009 A 
ATOM     43  C   UNL     1       4.495   2.469 -12.572  1.00  0.00     0.001 A 
ATOM     44  C   UNL     1       2.463   1.443 -11.820  1.00  0.00     0.001 A 
ATOM     45  C   UNL     1       3.236   1.952 -12.852  1.00  0.00     0.000 A 
ENDBRANCH  26  40
BRANCH  27  46
ATOM     46  C   UNL     1      -1.552   7.655  -7.582  1.00  0.00    -0.014 A 
ATOM     47  C   UNL     1      -1.675   8.701  -8.516  1.00  0.00     0.009 A 
ATOM     48  C   UNL     1      -2.720   6.963  -7.222  1.00  0.00     0.009 A 
ATOM     49  C   UNL     1      -2.911   9.005  -9.104  1.00  0.00     0.001 A 
ATOM     50  C   UNL     1      -3.955   7.269  -7.805  1.00  0.00     0.001 A 
ATOM     51  C   UNL     1      -4.047   8.277  -8.760  1.00  0.00     0.000 A 
ENDBRANCH  27  46
BRANCH  39  52
ATOM     52  C   UNL     1       4.652   8.073  -7.127  1.00  0.00    -0.014 A 
ATOM     53  C   UNL     1       3.981   8.332  -5.920  1.00  0.00     0.009 A 
ATOM     54  C   UNL     1       5.838   8.774  -7.392  1.00  0.00     0.009 A 
ATOM     55  C   UNL     1       4.462   9.295  -5.027  1.00  0.00     0.001 A 
ATOM     56  C   UNL     1       6.333   9.715  -6.488  1.00  0.00     0.001 A 
ATOM     57  C   UNL     1       5.640   9.982  -5.310  1.00  0.00     0.000 A 
ENDBRANCH  39  52
ENDBRANCH  13  14
ENDBRANCH   6   8
ENDBRANCH   3   4
ENDBRANCH   2   3
ENDBRANCH   1   2
BRANCH   1  58
ATOM     58  C   UNL     1       4.449   1.000   4.019  1.00  0.00     0.002 C 
BRANCH  58  59
ATOM     59  C   UNL     1       5.931   0.902   4.372  1.00  0.00     0.021 C 
BRANCH  59  60
ATOM     60  C   UNL     1       6.644   2.204   4.728  1.00  0.00     0.116 C 
BRANCH  60  61
ATOM     61  N   UNL     1       6.722   2.543   6.129  1.00  0.00    -0.351 N 
ATOM     62  C   UNL     1       7.695   3.063   6.963  1.00  0.00     0.273 C 
ATOM     63  H   UNL     1       5.880   2.361   6.605  1.00  0.00     0.163 HD
ATOM     64  O   UNL     1       7.299   3.194   8.130  1.00  0.00    -0.267 OA
BRANCH  62  65
ATOM     65  C   UNL     1       9.090   3.448   6.627  1.00  0.00     0.178 A 
ATOM     66  N   UNL     1       9.947   3.657   7.703  1.00  0.00    -0.124 NA
ATOM     67  C   UNL     1       9.853   3.627   5.466  1.00  0.00     0.122 A 
ATOM     68  N   UNL     1      11.164   3.923   7.263  1.00  0.00    -0.061 NA
ATOM     69  N   UNL     1      11.100   4.029   5.929  1.00  0.00    -0.213 N 
BRANCH  67  70
ATOM     70  C   UNL     1       9.600   3.239   4.048  1.00  0.00     0.262 C 
ATOM     71  C   UNL     1       9.899   1.731   3.881  1.00  0.00     0.281 C 
ATOM     72  O   UNL     1      10.234   4.082   3.082  1.00  0.00    -0.477 OA
ATOM     73  O   UNL     1      11.283   1.488   3.638  1.00  0.00    -0.485 OA
ATOM     74  C   UNL     1      11.029   3.405   2.195  1.00  0.00     0.162 A 
ATOM     75  C   UNL     1      11.613   2.173   2.500  1.00  0.00     0.161 A 
ATOM     76  C   UNL     1      11.310   4.019   0.981  1.00  0.00     0.050 A 
ATOM     77  C   UNL     1      12.555   1.600   1.657  1.00  0.00     0.050 A 
ATOM     78  C   UNL     1      12.206   3.416   0.098  1.00  0.00     0.004 A 
ATOM     79  C   UNL     1      12.849   2.224   0.447  1.00  0.00     0.004 A 
ENDBRANCH  67  70
BRANCH  69  80
ATOM     80  C   UNL     1      12.197   4.521   5.199  1.00  0.00     0.067 A 
ATOM     81  C   UNL     1      13.312   3.707   4.990  1.00  0.00     0.028 A 
ATOM     82  C   UNL     1      12.071   5.756   4.552  1.00  0.00     0.041 A 
ATOM     83  C   UNL     1      14.257   4.090   4.036  1.00  0.00     0.003 A 
ATOM     84  C   UNL     1      13.034   6.157   3.616  1.00  0.00     0.058 A 
ATOM     85  C   UNL     1      14.110   5.296   3.342  1.00  0.00     0.013 A 
BRANCH  84  86
ATOM     86  C   UNL     1      12.868   7.445   2.851  1.00  0.00     0.416 C 
ATOM     87  F   UNL     1      14.028   8.152   2.748  1.00  0.00    -0.166 F 
ATOM     88  F   UNL     1      12.438   7.242   1.574  1.00  0.00    -0.166 F 
ATOM     89  F   UNL     1      11.964   8.295   3.415  1.00  0.00    -0.166 F 
ENDBRANCH  84  86
ENDBRANCH  69  80
ENDBRANCH  62  65
ENDBRANCH  60  61
ENDBRANCH  59  60
ENDBRANCH  58  59
ENDBRANCH   1  58
TORSDOF 16
