REMARK SMILES O=C(Cc1ccc(F)c(F)c1)NC1(C(=O)NCCCCCCNC(=O)c2ccc(-c3c4nc(c(-c5ccccc5)c5ccc([nH]5)c(-c5ccccc5)c5nc(c(-c6ccccc6)c6ccc3[nH]6)C=C5)C=C4)cc2)CCCC1
REMARK SMILES IDX 19 1 18 2 17 3 16 4 14 5 15 6 13 8 74 9 77 10 75 11 76 12
REMARK SMILES IDX 12 13 1 14 2 15 3 17 4 18 5 19 11 20 6 21 9 22 7 23 10 24
REMARK SMILES IDX 8 25 20 26 21 27 22 28 23 29 24 30 25 32 26 33 27 34 73 35
REMARK SMILES IDX 28 36 72 37 29 38 30 39 31 40 66 41 32 42 71 43 65 44 67 45
REMARK SMILES IDX 33 46 70 47 64 48 63 49 34 51 56 52 41 53 55 54 42 55 45 56
REMARK SMILES IDX 54 57 68 58 43 59 44 60 53 62 69 63 46 64 35 65 36 66 40 67
REMARK SMILES IDX 37 68 39 69 38 70 57 71 58 72 62 73 59 74 61 75 60 76 47 77
REMARK SMILES IDX 48 78 52 79 49 80 51 81 50 82
REMARK H PARENT 16 7 12 16 23 31 67 50 45 61
REMARK Flexibility Score: inf
ROOT
ATOM      1  C   UNL     1       0.103   3.260   6.277  1.00  0.00     0.002 C 
ENDROOT
BRANCH   1   2
ATOM      2  C   UNL     1      -0.076   3.196   4.759  1.00  0.00     0.021 C 
BRANCH   2   3
ATOM      3  C   UNL     1       1.195   3.500   3.978  1.00  0.00     0.116 C 
BRANCH   3   4
ATOM      4  N   UNL     1       2.036   2.340   3.822  1.00  0.00    -0.354 N 
ATOM      5  C   UNL     1       2.472   1.695   2.709  1.00  0.00     0.245 C 
ATOM      6  O   UNL     1       3.322   0.814   2.911  1.00  0.00    -0.272 OA
ATOM      7  H   UNL     1       2.348   1.947   4.669  1.00  0.00     0.163 HD
BRANCH   5   8
ATOM      8  C   UNL     1       2.056   2.090   1.247  1.00  0.00     0.119 C 
ATOM      9  C   UNL     1       2.672   3.442   0.832  1.00  0.00     0.038 C 
ATOM     10  C   UNL     1       0.550   2.228   0.970  1.00  0.00     0.038 C 
ATOM     11  C   UNL     1       1.549   4.452   0.648  1.00  0.00     0.003 C 
ATOM     12  C   UNL     1       0.241   3.684   0.635  1.00  0.00     0.003 C 
BRANCH   8  13
ATOM     13  N   UNL     1       2.704   1.052   0.408  1.00  0.00    -0.341 N 
ATOM     14  O   UNL     1       1.026  -0.516   0.277  1.00  0.00    -0.275 OA
ATOM     15  C   UNL     1       2.156  -0.136  -0.015  1.00  0.00     0.225 C 
ATOM     16  H   UNL     1       3.628   1.234   0.124  1.00  0.00     0.164 HD
BRANCH  15  17
ATOM     17  C   UNL     1       3.090  -0.998  -0.852  1.00  0.00     0.135 C 
BRANCH  17  18
ATOM     18  C   UNL     1       3.817  -0.353  -2.024  1.00  0.00    -0.036 A 
ATOM     19  C   UNL     1       4.717  -1.153  -2.755  1.00  0.00     0.007 A 
ATOM     20  C   UNL     1       3.657   0.985  -2.420  1.00  0.00     0.046 A 
ATOM     21  C   UNL     1       5.462  -0.622  -3.813  1.00  0.00     0.043 A 
ATOM     22  C   UNL     1       4.426   1.517  -3.454  1.00  0.00     0.159 A 
ATOM     23  C   UNL     1       5.324   0.719  -4.145  1.00  0.00     0.158 A 
ATOM     24  F   UNL     1       4.294   2.814  -3.764  1.00  0.00    -0.204 F 
ATOM     25  F   UNL     1       6.061   1.234  -5.138  1.00  0.00    -0.204 F 
ENDBRANCH  17  18
ENDBRANCH  15  17
ENDBRANCH   8  13
ENDBRANCH   5   8
ENDBRANCH   3   4
ENDBRANCH   2   3
ENDBRANCH   1   2
BRANCH   1  26
ATOM     26  C   UNL     1       0.611   4.603   6.817  1.00  0.00     0.002 C 
BRANCH  26  27
ATOM     27  C   UNL     1      -0.180   5.835   6.365  1.00  0.00     0.021 C 
BRANCH  27  28
ATOM     28  C   UNL     1      -1.666   5.801   6.711  1.00  0.00     0.116 C 
BRANCH  28  29
ATOM     29  N   UNL     1      -1.888   5.668   8.142  1.00  0.00    -0.352 N 
ATOM     30  C   UNL     1      -2.553   6.495   9.007  1.00  0.00     0.251 C 
ATOM     31  H   UNL     1      -1.502   4.860   8.551  1.00  0.00     0.163 HD
ATOM     32  O   UNL     1      -2.444   6.332  10.223  1.00  0.00    -0.269 OA
BRANCH  30  33
ATOM     33  C   UNL     1      -3.388   7.595   8.488  1.00  0.00     0.039 A 
ATOM     34  C   UNL     1      -3.296   8.854   9.086  1.00  0.00     0.014 A 
ATOM     35  C   UNL     1      -4.268   7.385   7.422  1.00  0.00     0.014 A 
ATOM     36  C   UNL     1      -4.032   9.921   8.570  1.00  0.00     0.010 A 
ATOM     37  C   UNL     1      -4.951   8.463   6.865  1.00  0.00     0.010 A 
ATOM     38  C   UNL     1      -4.832   9.743   7.428  1.00  0.00    -0.014 A 
BRANCH  38  39
ATOM     39  C   UNL     1      -5.510  10.894   6.783  1.00  0.00     0.031 A 
ATOM     40  C   UNL     1      -7.009  10.968   6.728  1.00  0.00     0.074 A 
ATOM     41  C   UNL     1      -4.763  11.841   6.183  1.00  0.00     0.049 A 
ATOM     42  N   UNL     1      -7.767  11.871   6.158  1.00  0.00    -0.248 NA
ATOM     43  C   UNL     1      -7.753   9.878   7.376  1.00  0.00     0.031 C 
ATOM     44  C   UNL     1      -3.299  11.860   6.134  1.00  0.00     0.029 A 
ATOM     45  N   UNL     1      -5.132  12.967   5.492  1.00  0.00    -0.354 N 
ATOM     46  C   UNL     1      -9.075  11.453   6.370  1.00  0.00     0.074 A 
ATOM     47  C   UNL     1      -9.006  10.194   7.079  1.00  0.00     0.031 C 
ATOM     48  C   UNL     1      -2.895  12.956   5.473  1.00  0.00     0.029 A 
ATOM     49  C   UNL     1      -4.068  13.691   5.010  1.00  0.00     0.049 A 
ATOM     50  H   UNL     1      -6.070  13.232   5.353  1.00  0.00     0.167 HD
ATOM     51  C   UNL     1     -10.228  12.071   6.019  1.00  0.00     0.031 A 
ATOM     52  C   UNL     1      -4.037  14.812   4.267  1.00  0.00     0.031 A 
ATOM     53  C   UNL     1     -10.293  13.323   5.311  1.00  0.00     0.049 A 
ATOM     54  C   UNL     1      -5.331  15.456   3.857  1.00  0.00     0.074 A 
ATOM     55  C   UNL     1     -11.413  14.060   4.966  1.00  0.00     0.029 A 
ATOM     56  N   UNL     1      -9.194  14.016   4.829  1.00  0.00    -0.354 N 
ATOM     57  N   UNL     1      -6.559  15.091   4.137  1.00  0.00    -0.248 NA
ATOM     58  C   UNL     1      -5.234  16.667   3.031  1.00  0.00     0.031 C 
ATOM     59  C   UNL     1     -10.994  15.166   4.219  1.00  0.00     0.029 A 
ATOM     60  C   UNL     1      -9.611  15.150   4.152  1.00  0.00     0.049 A 
ATOM     61  H   UNL     1      -8.256  13.742   4.950  1.00  0.00     0.167 HD
ATOM     62  C   UNL     1      -7.380  16.035   3.535  1.00  0.00     0.074 A 
ATOM     63  C   UNL     1      -6.509  17.003   2.897  1.00  0.00     0.031 C 
ATOM     64  C   UNL     1      -8.733  16.094   3.509  1.00  0.00     0.031 A 
BRANCH  51  65
ATOM     65  C   UNL     1     -11.520  11.391   6.383  1.00  0.00    -0.014 A 
ATOM     66  C   UNL     1     -11.944  11.298   7.719  1.00  0.00     0.009 A 
ATOM     67  C   UNL     1     -12.346  10.876   5.372  1.00  0.00     0.009 A 
ATOM     68  C   UNL     1     -13.150  10.670   8.036  1.00  0.00     0.001 A 
ATOM     69  C   UNL     1     -13.566  10.276   5.690  1.00  0.00     0.001 A 
ATOM     70  C   UNL     1     -13.963  10.165   7.022  1.00  0.00     0.000 A 
ENDBRANCH  51  65
BRANCH  52  71
ATOM     71  C   UNL     1      -2.733  15.396   3.857  1.00  0.00    -0.014 A 
ATOM     72  C   UNL     1      -2.295  16.615   4.397  1.00  0.00     0.009 A 
ATOM     73  C   UNL     1      -1.919  14.738   2.921  1.00  0.00     0.009 A 
ATOM     74  C   UNL     1      -1.081  17.174   3.990  1.00  0.00     0.001 A 
ATOM     75  C   UNL     1      -0.691  15.284   2.540  1.00  0.00     0.001 A 
ATOM     76  C   UNL     1      -0.278  16.506   3.067  1.00  0.00     0.000 A 
ENDBRANCH  52  71
BRANCH  64  77
ATOM     77  C   UNL     1      -9.355  17.246   2.771  1.00  0.00    -0.014 A 
ATOM     78  C   UNL     1      -9.326  17.310   1.369  1.00  0.00     0.009 A 
ATOM     79  C   UNL     1     -10.014  18.260   3.485  1.00  0.00     0.009 A 
ATOM     80  C   UNL     1      -9.918  18.382   0.699  1.00  0.00     0.001 A 
ATOM     81  C   UNL     1     -10.631  19.314   2.811  1.00  0.00     0.001 A 
ATOM     82  C   UNL     1     -10.575  19.379   1.419  1.00  0.00     0.000 A 
ENDBRANCH  64  77
ENDBRANCH  38  39
ENDBRANCH  30  33
ENDBRANCH  28  29
ENDBRANCH  27  28
ENDBRANCH  26  27
ENDBRANCH   1  26
TORSDOF 16
