REMARK SMILES O=C(NCCCCCCNC(=O)[C@H]1Cc2c([nH]c3ccccc23)[C@H](c2c[nH]c3ccccc23)[NH2+]1)c1ccc(-c2c3nc(c(-c4ccccc4)c4ccc([nH]4)c(-c4ccccc4)c4nc(c(-c5ccccc5)c5ccc2[nH]5)C=C4)C=C3)cc1
REMARK SMILES IDX 6 1 5 2 4 3 3 4 1 5 2 6 35 8 36 9 82 10 37 11 81 12 38 13
REMARK SMILES IDX 39 14 40 15 75 16 41 17 80 18 74 19 76 20 42 21 79 22 73 23
REMARK SMILES IDX 72 24 43 26 65 27 50 28 64 29 51 30 54 31 63 32 77 33 52 34
REMARK SMILES IDX 53 35 62 37 78 38 55 39 44 40 45 41 49 42 46 43 48 44 47 45
REMARK SMILES IDX 66 46 67 47 71 48 68 49 70 50 69 51 56 52 57 53 61 54 58 55
REMARK SMILES IDX 60 56 59 57 7 58 8 59 9 60 10 61 11 62 12 64 13 65 14 66
REMARK SMILES IDX 34 67 15 68 24 69 16 72 23 73 17 74 18 75 22 76 19 78 21 79
REMARK SMILES IDX 20 80 25 81 26 82 33 83 27 84 28 85 32 86 29 88 31 89 30 90
REMARK H PARENT 3 7 76 25 54 36 10 63 34 70 34 71 17 77 27 87
REMARK Flexibility Score: inf
ROOT
ATOM      1  C   UNL     1       4.213   0.857  -3.950  1.00  0.00     0.002 C 
ENDROOT
BRANCH   1   2
ATOM      2  C   UNL     1       4.620  -0.175  -2.900  1.00  0.00     0.021 C 
BRANCH   2   3
ATOM      3  C   UNL     1       4.418   0.268  -1.457  1.00  0.00     0.116 C 
BRANCH   3   4
ATOM      4  N   UNL     1       3.015   0.406  -1.099  1.00  0.00    -0.352 N 
ATOM      5  O   UNL     1       1.131  -0.005   0.080  1.00  0.00    -0.269 OA
ATOM      6  C   UNL     1       2.352  -0.096  -0.004  1.00  0.00     0.251 C 
ATOM      7  H   UNL     1       2.466   0.930  -1.726  1.00  0.00     0.163 HD
BRANCH   6   8
ATOM      8  C   UNL     1       3.117  -0.773   1.066  1.00  0.00     0.039 A 
ATOM      9  C   UNL     1       4.306  -0.220   1.544  1.00  0.00     0.014 A 
ATOM     10  C   UNL     1       2.644  -1.980   1.591  1.00  0.00     0.014 A 
ATOM     11  C   UNL     1       5.094  -0.944   2.430  1.00  0.00     0.010 A 
ATOM     12  C   UNL     1       3.396  -2.664   2.553  1.00  0.00     0.010 A 
ATOM     13  C   UNL     1       4.643  -2.166   2.958  1.00  0.00    -0.014 A 
BRANCH  13  14
ATOM     14  C   UNL     1       5.476  -2.850   3.979  1.00  0.00     0.031 A 
ATOM     15  C   UNL     1       6.116  -4.184   3.712  1.00  0.00     0.074 A 
ATOM     16  C   UNL     1       5.710  -2.210   5.141  1.00  0.00     0.049 A 
ATOM     17  N   UNL     1       6.950  -4.857   4.466  1.00  0.00    -0.248 NA
ATOM     18  C   UNL     1       5.778  -4.853   2.447  1.00  0.00     0.031 C 
ATOM     19  C   UNL     1       5.130  -0.919   5.523  1.00  0.00     0.029 A 
ATOM     20  N   UNL     1       6.524  -2.532   6.196  1.00  0.00    -0.354 N 
ATOM     21  C   UNL     1       7.229  -6.030   3.774  1.00  0.00     0.074 A 
ATOM     22  C   UNL     1       6.453  -5.990   2.552  1.00  0.00     0.031 C 
ATOM     23  C   UNL     1       5.658  -0.528   6.691  1.00  0.00     0.029 A 
ATOM     24  C   UNL     1       6.566  -1.564   7.169  1.00  0.00     0.049 A 
ATOM     25  H   UNL     1       7.029  -3.376   6.251  1.00  0.00     0.167 HD
ATOM     26  C   UNL     1       8.060  -7.042   4.122  1.00  0.00     0.031 A 
ATOM     27  C   UNL     1       7.255  -1.510   8.323  1.00  0.00     0.031 A 
ATOM     28  C   UNL     1       8.826  -7.084   5.341  1.00  0.00     0.049 A 
ATOM     29  C   UNL     1       8.164  -2.646   8.682  1.00  0.00     0.074 A 
ATOM     30  C   UNL     1       9.698  -8.067   5.779  1.00  0.00     0.029 A 
ATOM     31  N   UNL     1       8.814  -6.100   6.317  1.00  0.00    -0.354 N 
ATOM     32  N   UNL     1       8.430  -3.735   8.003  1.00  0.00    -0.248 NA
ATOM     33  C   UNL     1       8.869  -2.544   9.966  1.00  0.00     0.031 C 
ATOM     34  C   UNL     1      10.184  -7.695   7.038  1.00  0.00     0.029 A 
ATOM     35  C   UNL     1       9.652  -6.458   7.361  1.00  0.00     0.049 A 
ATOM     36  H   UNL     1       8.287  -5.269   6.275  1.00  0.00     0.167 HD
ATOM     37  C   UNL     1       9.335  -4.447   8.776  1.00  0.00     0.074 A 
ATOM     38  C   UNL     1       9.600  -3.650   9.956  1.00  0.00     0.031 C 
ATOM     39  C   UNL     1       9.890  -5.660   8.535  1.00  0.00     0.031 A 
BRANCH  26  40
ATOM     40  C   UNL     1       8.176  -8.204   3.175  1.00  0.00    -0.014 A 
ATOM     41  C   UNL     1       8.887  -8.088   1.970  1.00  0.00     0.009 A 
ATOM     42  C   UNL     1       7.619  -9.446   3.517  1.00  0.00     0.009 A 
ATOM     43  C   UNL     1       9.017  -9.187   1.116  1.00  0.00     0.001 A 
ATOM     44  C   UNL     1       7.770 -10.548   2.673  1.00  0.00     0.001 A 
ATOM     45  C   UNL     1       8.463 -10.416   1.471  1.00  0.00     0.000 A 
ENDBRANCH  26  40
BRANCH  27  46
ATOM     46  C   UNL     1       7.094  -0.341   9.224  1.00  0.00    -0.014 A 
ATOM     47  C   UNL     1       8.139   0.577   9.403  1.00  0.00     0.009 A 
ATOM     48  C   UNL     1       5.882  -0.133   9.901  1.00  0.00     0.009 A 
ATOM     49  C   UNL     1       7.980   1.668  10.261  1.00  0.00     0.001 A 
ATOM     50  C   UNL     1       5.715   0.975  10.732  1.00  0.00     0.001 A 
ATOM     51  C   UNL     1       6.767   1.869  10.919  1.00  0.00     0.000 A 
ENDBRANCH  27  46
BRANCH  39  52
ATOM     52  C   UNL     1      10.842  -6.182   9.572  1.00  0.00    -0.014 A 
ATOM     53  C   UNL     1      10.377  -6.648  10.811  1.00  0.00     0.009 A 
ATOM     54  C   UNL     1      12.219  -6.209   9.305  1.00  0.00     0.009 A 
ATOM     55  C   UNL     1      11.278  -7.093  11.780  1.00  0.00     0.001 A 
ATOM     56  C   UNL     1      13.115  -6.679  10.265  1.00  0.00     0.001 A 
ATOM     57  C   UNL     1      12.646  -7.109  11.506  1.00  0.00     0.000 A 
ENDBRANCH  39  52
ENDBRANCH  13  14
ENDBRANCH   6   8
ENDBRANCH   3   4
ENDBRANCH   2   3
ENDBRANCH   1   2
BRANCH   1  58
ATOM     58  C   UNL     1       4.917   2.214  -3.845  1.00  0.00     0.002 C 
BRANCH  58  59
ATOM     59  C   UNL     1       6.452   2.166  -3.818  1.00  0.00     0.021 C 
BRANCH  59  60
ATOM     60  C   UNL     1       7.086   1.432  -4.999  1.00  0.00     0.116 C 
BRANCH  60  61
ATOM     61  N   UNL     1       6.766   2.085  -6.254  1.00  0.00    -0.351 N 
ATOM     62  C   UNL     1       7.588   2.704  -7.153  1.00  0.00     0.278 C 
ATOM     63  H   UNL     1       5.812   2.083  -6.494  1.00  0.00     0.163 HD
ATOM     64  O   UNL     1       7.054   3.304  -8.088  1.00  0.00    -0.268 OA
BRANCH  62  65
ATOM     65  C   UNL     1       9.110   2.618  -6.962  1.00  0.00     0.277 C 
ATOM     66  C   UNL     1       9.582   1.242  -7.487  1.00  0.00     0.114 C 
ATOM     67  N   UNL     1       9.780   3.754  -7.651  1.00  0.00    -0.324 N 
ATOM     68  C   UNL     1      11.066   1.222  -7.538  1.00  0.00    -0.006 A 
ATOM     69  C   UNL     1      11.232   3.800  -7.446  1.00  0.00     0.264 C 
ATOM     70  H   UNL     1       9.379   4.624  -7.300  1.00  0.00     0.347 HD
ATOM     71  H   UNL     1       9.626   3.627  -8.651  1.00  0.00     0.347 HD
ATOM     72  C   UNL     1      11.788   2.401  -7.530  1.00  0.00     0.083 A 
ATOM     73  C   UNL     1      11.979   0.140  -7.612  1.00  0.00     0.003 A 
ATOM     74  N   UNL     1      13.111   2.069  -7.652  1.00  0.00    -0.353 N 
ATOM     75  C   UNL     1      13.258   0.698  -7.680  1.00  0.00     0.046 A 
ATOM     76  C   UNL     1      11.848  -1.262  -7.634  1.00  0.00     0.010 A 
ATOM     77  H   UNL     1      13.851   2.716  -7.712  1.00  0.00     0.166 HD
ATOM     78  C   UNL     1      14.416  -0.083  -7.768  1.00  0.00     0.026 A 
ATOM     79  C   UNL     1      12.998  -2.056  -7.715  1.00  0.00     0.001 A 
ATOM     80  C   UNL     1      14.261  -1.473  -7.781  1.00  0.00     0.002 A 
BRANCH  69  81
ATOM     81  C   UNL     1      11.659   4.538  -6.182  1.00  0.00     0.041 A 
ATOM     82  C   UNL     1      12.984   4.884  -5.935  1.00  0.00     0.093 A 
ATOM     83  C   UNL     1      10.911   5.068  -5.054  1.00  0.00     0.009 A 
ATOM     84  N   UNL     1      13.079   5.485  -4.715  1.00  0.00    -0.361 N 
ATOM     85  C   UNL     1      11.836   5.610  -4.153  1.00  0.00     0.046 A 
ATOM     86  C   UNL     1       9.547   5.157  -4.683  1.00  0.00     0.011 A 
ATOM     87  H   UNL     1      13.919   5.785  -4.298  1.00  0.00     0.166 HD
ATOM     88  C   UNL     1      11.480   6.177  -2.921  1.00  0.00     0.026 A 
ATOM     89  C   UNL     1       9.171   5.720  -3.455  1.00  0.00     0.001 A 
ATOM     90  C   UNL     1      10.129   6.216  -2.583  1.00  0.00     0.002 A 
ENDBRANCH  69  81
ENDBRANCH  62  65
ENDBRANCH  60  61
ENDBRANCH  59  60
ENDBRANCH  58  59
ENDBRANCH   1  58
TORSDOF 14
