REMARK SMILES CSc1cccc([C@@H](C(=O)NCCCCCCNC(=O)c2ccc(-c3c4nc(c(-c5ccccc5)c5ccc([nH]5)c(-c5ccccc5)c5nc(c(-c6ccccc6)c6ccc3[nH]6)C=C5)C=C4)cc2)[N@@H+](C)Cc2ccon2)c1
REMARK SMILES IDX 14 1 13 2 12 3 11 4 9 5 10 6 8 8 7 9 3 10 4 11 77 12 5 13
REMARK SMILES IDX 6 14 2 15 1 16 69 17 70 18 71 20 72 21 73 22 76 23 74 24
REMARK SMILES IDX 75 25 15 26 16 27 17 28 18 29 19 30 20 32 21 33 22 34 68 35
REMARK SMILES IDX 23 36 67 37 24 38 25 39 26 40 61 41 27 42 66 43 60 44 62 45
REMARK SMILES IDX 28 46 65 47 59 48 58 49 29 51 51 52 36 53 50 54 37 55 40 56
REMARK SMILES IDX 49 57 63 58 38 59 39 60 48 62 64 63 41 64 30 65 31 66 35 67
REMARK SMILES IDX 32 68 34 69 33 70 52 71 53 72 57 73 54 74 56 75 55 76 42 77
REMARK SMILES IDX 43 78 47 79 44 80 46 81 45 82
REMARK H PARENT 11 7 69 19 18 31 62 50 40 61
REMARK Flexibility Score: inf
ROOT
ATOM      1  C   UNL     1       6.401  -1.535  -2.183  1.00  0.00     0.002 C 
ENDROOT
BRANCH   1   2
ATOM      2  C   UNL     1       4.878  -1.349  -2.157  1.00  0.00     0.021 C 
BRANCH   2   3
ATOM      3  C   UNL     1       4.419   0.039  -2.591  1.00  0.00     0.116 C 
BRANCH   3   4
ATOM      4  N   UNL     1       4.812   0.335  -3.946  1.00  0.00    -0.351 N 
ATOM      5  C   UNL     1       4.080   0.580  -5.065  1.00  0.00     0.283 C 
ATOM      6  O   UNL     1       4.728   1.148  -5.955  1.00  0.00    -0.268 OA
ATOM      7  H   UNL     1       5.786   0.366  -4.086  1.00  0.00     0.163 HD
BRANCH   5   8
ATOM      8  C   UNL     1       2.536   0.355  -5.146  1.00  0.00     0.305 C 
BRANCH   8   9
ATOM      9  C   UNL     1       1.961  -0.848  -4.384  1.00  0.00     0.020 A 
ATOM     10  C   UNL     1       0.701  -1.664  -2.438  1.00  0.00     0.007 A 
ATOM     11  C   UNL     1       1.002  -2.978  -2.795  1.00  0.00     0.015 A 
ATOM     12  C   UNL     1       1.123  -0.619  -3.269  1.00  0.00     0.025 A 
ATOM     13  C   UNL     1       1.771  -3.234  -3.927  1.00  0.00     0.002 A 
ATOM     14  C   UNL     1       2.273  -2.177  -4.691  1.00  0.00     0.010 A 
BRANCH  10  15
ATOM     15  S   UNL     1      -0.173  -1.367  -0.909  1.00  0.00    -0.130 SA
ATOM     16  C   UNL     1       0.850  -0.051  -0.186  1.00  0.00     0.091 C 
ENDBRANCH  10  15
ENDBRANCH   8   9
BRANCH   8  17
ATOM     17  N   UNL     1       1.955   0.529  -6.510  1.00  0.00    -0.318 N 
ATOM     18  C   UNL     1       2.059   1.891  -7.023  1.00  0.00     0.334 C 
ATOM     19  H   UNL     1       0.975   0.341  -6.299  1.00  0.00     0.349 HD
BRANCH  17  20
ATOM     20  C   UNL     1       2.199  -0.498  -7.539  1.00  0.00     0.324 C 
BRANCH  20  21
ATOM     21  C   UNL     1       3.627  -0.815  -7.873  1.00  0.00     0.138 A 
ATOM     22  C   UNL     1       4.595  -0.023  -8.540  1.00  0.00     0.075 A 
ATOM     23  N   UNL     1       4.137  -2.022  -7.576  1.00  0.00    -0.079 NA
ATOM     24  C   UNL     1       5.736  -0.781  -8.512  1.00  0.00     0.231 A 
ATOM     25  O   UNL     1       5.466  -1.982  -7.950  1.00  0.00    -0.364 OA
ENDBRANCH  20  21
ENDBRANCH  17  20
ENDBRANCH   8  17
ENDBRANCH   5   8
ENDBRANCH   3   4
ENDBRANCH   2   3
ENDBRANCH   1   2
BRANCH   1  26
ATOM     26  C   UNL     1       7.198  -0.471  -1.422  1.00  0.00     0.002 C 
BRANCH  26  27
ATOM     27  C   UNL     1       6.767  -0.261   0.030  1.00  0.00     0.021 C 
BRANCH  27  28
ATOM     28  C   UNL     1       6.834  -1.515   0.889  1.00  0.00     0.116 C 
BRANCH  28  29
ATOM     29  N   UNL     1       8.196  -2.003   1.031  1.00  0.00    -0.352 N 
ATOM     30  C   UNL     1       8.896  -2.281   2.176  1.00  0.00     0.251 C 
ATOM     31  H   UNL     1       8.682  -2.156   0.189  1.00  0.00     0.163 HD
ATOM     32  O   UNL     1      10.106  -2.486   2.132  1.00  0.00    -0.269 OA
BRANCH  30  33
ATOM     33  C   UNL     1       8.188  -2.309   3.472  1.00  0.00     0.039 A 
ATOM     34  C   UNL     1       8.761  -1.665   4.570  1.00  0.00     0.014 A 
ATOM     35  C   UNL     1       6.957  -2.960   3.598  1.00  0.00     0.014 A 
ATOM     36  C   UNL     1       8.072  -1.628   5.783  1.00  0.00     0.010 A 
ATOM     37  C   UNL     1       6.236  -2.851   4.782  1.00  0.00     0.010 A 
ATOM     38  C   UNL     1       6.789  -2.191   5.889  1.00  0.00    -0.014 A 
BRANCH  38  39
ATOM     39  C   UNL     1       6.014  -2.100   7.151  1.00  0.00     0.031 A 
ATOM     40  C   UNL     1       5.644  -3.349   7.903  1.00  0.00     0.074 A 
ATOM     41  C   UNL     1       5.597  -0.897   7.591  1.00  0.00     0.049 A 
ATOM     42  N   UNL     1       4.935  -3.473   8.997  1.00  0.00    -0.248 NA
ATOM     43  C   UNL     1       6.109  -4.627   7.340  1.00  0.00     0.031 C 
ATOM     44  C   UNL     1       5.858   0.385   6.933  1.00  0.00     0.029 A 
ATOM     45  N   UNL     1       4.860  -0.557   8.698  1.00  0.00    -0.354 N 
ATOM     46  C   UNL     1       4.862  -4.838   9.244  1.00  0.00     0.074 A 
ATOM     47  C   UNL     1       5.546  -5.503   8.158  1.00  0.00     0.031 C 
ATOM     48  C   UNL     1       5.318   1.373   7.665  1.00  0.00     0.029 A 
ATOM     49  C   UNL     1       4.634   0.793   8.816  1.00  0.00     0.049 A 
ATOM     50  H   UNL     1       4.526  -1.218   9.346  1.00  0.00     0.167 HD
ATOM     51  C   UNL     1       4.293  -5.481  10.292  1.00  0.00     0.031 A 
ATOM     52  C   UNL     1       3.946   1.486   9.742  1.00  0.00     0.031 A 
ATOM     53  C   UNL     1       3.613  -4.818  11.373  1.00  0.00     0.049 A 
ATOM     54  C   UNL     1       3.298   0.747  10.880  1.00  0.00     0.074 A 
ATOM     55  C   UNL     1       3.046  -5.376  12.505  1.00  0.00     0.029 A 
ATOM     56  N   UNL     1       3.402  -3.450  11.452  1.00  0.00    -0.354 N 
ATOM     57  N   UNL     1       3.296  -0.539  11.136  1.00  0.00    -0.248 NA
ATOM     58  C   UNL     1       2.567   1.558  11.863  1.00  0.00     0.031 C 
ATOM     59  C   UNL     1       2.437  -4.353  13.238  1.00  0.00     0.029 A 
ATOM     60  C   UNL     1       2.687  -3.149  12.599  1.00  0.00     0.049 A 
ATOM     61  H   UNL     1       3.713  -2.791  10.791  1.00  0.00     0.167 HD
ATOM     62  C   UNL     1       2.592  -0.688  12.324  1.00  0.00     0.074 A 
ATOM     63  C   UNL     1       2.198   0.641  12.746  1.00  0.00     0.031 C 
ATOM     64  C   UNL     1       2.299  -1.822  13.005  1.00  0.00     0.031 A 
BRANCH  51  65
ATOM     65  C   UNL     1       4.377  -6.983  10.313  1.00  0.00    -0.014 A 
ATOM     66  C   UNL     1       5.601  -7.643  10.508  1.00  0.00     0.009 A 
ATOM     67  C   UNL     1       3.209  -7.749  10.172  1.00  0.00     0.009 A 
ATOM     68  C   UNL     1       5.659  -9.039  10.521  1.00  0.00     0.001 A 
ATOM     69  C   UNL     1       3.265  -9.143  10.219  1.00  0.00     0.001 A 
ATOM     70  C   UNL     1       4.491  -9.787  10.383  1.00  0.00     0.000 A 
ENDBRANCH  51  65
BRANCH  52  71
ATOM     71  C   UNL     1       3.838   2.966   9.638  1.00  0.00    -0.014 A 
ATOM     72  C   UNL     1       4.479   3.797  10.569  1.00  0.00     0.009 A 
ATOM     73  C   UNL     1       3.083   3.556   8.611  1.00  0.00     0.009 A 
ATOM     74  C   UNL     1       4.342   5.185  10.492  1.00  0.00     0.001 A 
ATOM     75  C   UNL     1       2.975   4.945   8.517  1.00  0.00     0.001 A 
ATOM     76  C   UNL     1       3.595   5.758   9.464  1.00  0.00     0.000 A 
ENDBRANCH  52  71
BRANCH  64  77
ATOM     77  C   UNL     1       1.548  -1.675  14.299  1.00  0.00    -0.014 A 
ATOM     78  C   UNL     1       0.196  -1.297  14.324  1.00  0.00     0.009 A 
ATOM     79  C   UNL     1       2.196  -1.959  15.512  1.00  0.00     0.009 A 
ATOM     80  C   UNL     1      -0.479  -1.172  15.540  1.00  0.00     0.001 A 
ATOM     81  C   UNL     1       1.509  -1.866  16.723  1.00  0.00     0.001 A 
ATOM     82  C   UNL     1       0.175  -1.462  16.737  1.00  0.00     0.000 A 
ENDBRANCH  64  77
ENDBRANCH  38  39
ENDBRANCH  30  33
ENDBRANCH  28  29
ENDBRANCH  27  28
ENDBRANCH  26  27
ENDBRANCH   1  26
TORSDOF 18
