REMARK SMILES CCc1ccc(OCC(=O)Nc2cc(C)c(O)c(C(=O)NCCCCCCNC(=O)c3ccc(-c4c5nc(c(-c6ccccc6)c6ccc([nH]6)c(-c6ccccc6)c6nc(c(-c7ccccc7)c7ccc4[nH]7)C=C6)C=C5)cc3)c2)cc1
REMARK SMILES IDX 23 1 22 2 21 3 19 4 20 5 18 7 12 8 13 9 79 10 14 11 15 12
REMARK SMILES IDX 16 13 11 14 9 15 10 16 8 18 7 19 6 20 3 21 4 22 81 23 5 24
REMARK SMILES IDX 80 25 2 26 1 27 17 28 24 30 25 31 26 32 27 33 28 34 29 35
REMARK SMILES IDX 30 37 31 38 32 39 78 40 33 41 77 42 34 43 35 44 36 45 71 46
REMARK SMILES IDX 37 47 76 48 70 49 72 50 38 51 75 52 69 53 68 54 39 56 61 57
REMARK SMILES IDX 46 58 60 59 47 60 50 61 59 62 73 63 48 64 49 65 58 67 74 68
REMARK SMILES IDX 51 69 40 70 41 71 45 72 42 73 44 74 43 75 62 76 63 77 67 78
REMARK SMILES IDX 64 79 66 80 65 81 52 82 53 83 57 84 54 85 56 86 55 87
REMARK H PARENT 21 6 11 17 17 29 28 36 72 55 50 66
REMARK Flexibility Score: inf
ROOT
ATOM      1  C   UNL     1       0.678  -3.397  -3.350  1.00  0.00     0.021 C 
ENDROOT
BRANCH   1   2
ATOM      2  C   UNL     1       1.162  -2.993  -4.744  1.00  0.00     0.116 C 
BRANCH   2   3
ATOM      3  N   UNL     1       1.069  -4.074  -5.713  1.00  0.00    -0.352 N 
ATOM      4  C   UNL     1       0.668  -4.119  -7.026  1.00  0.00     0.255 C 
ATOM      5  O   UNL     1       0.615  -5.232  -7.561  1.00  0.00    -0.269 OA
ATOM      6  H   UNL     1       1.350  -4.948  -5.356  1.00  0.00     0.163 HD
BRANCH   4   7
ATOM      7  C   UNL     1       0.247  -2.939  -7.842  1.00  0.00     0.083 A 
ATOM      8  C   UNL     1       0.311  -0.563  -8.404  1.00  0.00     0.042 A 
ATOM      9  C   UNL     1      -0.632  -0.804  -9.416  1.00  0.00     0.033 A 
ATOM     10  C   UNL     1       0.761  -1.643  -7.640  1.00  0.00     0.043 A 
ATOM     11  C   UNL     1      -1.119  -2.089  -9.688  1.00  0.00    -0.006 A 
ATOM     12  C   UNL     1      -2.077  -2.269 -10.833  1.00  0.00     0.048 C 
ATOM     13  C   UNL     1      -0.667  -3.151  -8.899  1.00  0.00     0.131 A 
BRANCH   8  14
ATOM     14  N   UNL     1       0.648   0.790  -8.227  1.00  0.00    -0.323 N 
ATOM     15  C   UNL     1       1.581   1.508  -7.547  1.00  0.00     0.262 C 
ATOM     16  O   UNL     1       1.416   2.735  -7.531  1.00  0.00    -0.271 OA
ATOM     17  H   UNL     1       0.043   1.379  -8.733  1.00  0.00     0.170 HD
BRANCH  15  18
ATOM     18  C   UNL     1       2.835   0.895  -6.924  1.00  0.00     0.329 C 
BRANCH  18  19
ATOM     19  O   UNL     1       3.278   1.420  -5.677  1.00  0.00    -0.484 OA
BRANCH  19  20
ATOM     20  C   UNL     1       2.319   1.541  -4.713  1.00  0.00     0.120 A 
ATOM     21  C   UNL     1       0.572   1.863  -2.521  1.00  0.00    -0.048 A 
ATOM     22  C   UNL     1       0.694   0.626  -3.162  1.00  0.00     0.007 A 
ATOM     23  C   UNL     1       1.296   2.948  -3.041  1.00  0.00     0.007 A 
ATOM     24  C   UNL     1       1.577   0.470  -4.239  1.00  0.00     0.047 A 
ATOM     25  C   UNL     1       2.172   2.783  -4.117  1.00  0.00     0.047 A 
BRANCH  21  26
ATOM     26  C   UNL     1      -0.331   2.089  -1.328  1.00  0.00     0.032 C 
ATOM     27  C   UNL     1      -0.491   0.917  -0.364  1.00  0.00     0.009 C 
ENDBRANCH  21  26
ENDBRANCH  19  20
ENDBRANCH  18  19
ENDBRANCH  15  18
ENDBRANCH   8  14
BRANCH  13  28
ATOM     28  O   UNL     1      -1.158  -4.397  -9.203  1.00  0.00    -0.507 OA
ATOM     29  H   UNL     1      -1.764  -4.502  -9.910  1.00  0.00     0.293 HD
ENDBRANCH  13  28
ENDBRANCH   4   7
ENDBRANCH   2   3
ENDBRANCH   1   2
BRANCH   1  30
ATOM     30  C   UNL     1       1.553  -3.147  -2.099  1.00  0.00     0.002 C 
BRANCH  30  31
ATOM     31  C   UNL     1       3.081  -3.044  -2.194  1.00  0.00     0.002 C 
BRANCH  31  32
ATOM     32  C   UNL     1       3.712  -1.638  -2.198  1.00  0.00     0.021 C 
BRANCH  32  33
ATOM     33  C   UNL     1       3.286  -0.628  -1.118  1.00  0.00     0.116 C 
BRANCH  33  34
ATOM     34  N   UNL     1       3.627  -1.014   0.238  1.00  0.00    -0.352 N 
ATOM     35  C   UNL     1       4.024  -0.256   1.318  1.00  0.00     0.251 C 
ATOM     36  H   UNL     1       3.565  -1.980   0.417  1.00  0.00     0.163 HD
ATOM     37  O   UNL     1       4.280  -0.835   2.374  1.00  0.00    -0.269 OA
BRANCH  35  38
ATOM     38  C   UNL     1       4.188   1.226   1.263  1.00  0.00     0.039 A 
ATOM     39  C   UNL     1       5.256   1.790   1.976  1.00  0.00     0.014 A 
ATOM     40  C   UNL     1       3.292   2.080   0.616  1.00  0.00     0.014 A 
ATOM     41  C   UNL     1       5.456   3.178   1.994  1.00  0.00     0.010 A 
ATOM     42  C   UNL     1       3.503   3.470   0.612  1.00  0.00     0.010 A 
ATOM     43  C   UNL     1       4.594   4.033   1.291  1.00  0.00    -0.014 A 
BRANCH  43  44
ATOM     44  C   UNL     1       4.884   5.492   1.198  1.00  0.00     0.031 A 
ATOM     45  C   UNL     1       4.056   6.516   1.926  1.00  0.00     0.074 A 
ATOM     46  C   UNL     1       5.898   5.907   0.414  1.00  0.00     0.049 A 
ATOM     47  N   UNL     1       4.203   7.819   1.964  1.00  0.00    -0.248 NA
ATOM     48  C   UNL     1       2.911   6.017   2.700  1.00  0.00     0.031 C 
ATOM     49  C   UNL     1       6.765   5.032  -0.376  1.00  0.00     0.029 A 
ATOM     50  N   UNL     1       6.370   7.171   0.151  1.00  0.00    -0.354 N 
ATOM     51  C   UNL     1       3.173   8.297   2.765  1.00  0.00     0.074 A 
ATOM     52  C   UNL     1       2.387   7.146   3.161  1.00  0.00     0.031 C 
ATOM     53  C   UNL     1       7.673   5.781  -1.021  1.00  0.00     0.029 A 
ATOM     54  C   UNL     1       7.438   7.189  -0.713  1.00  0.00     0.049 A 
ATOM     55  H   UNL     1       5.980   7.985   0.543  1.00  0.00     0.167 HD
ATOM     56  C   UNL     1       2.911   9.573   3.145  1.00  0.00     0.031 A 
ATOM     57  C   UNL     1       8.154   8.218  -1.206  1.00  0.00     0.031 A 
ATOM     58  C   UNL     1       3.680  10.726   2.747  1.00  0.00     0.049 A 
ATOM     59  C   UNL     1       7.827   9.624  -0.791  1.00  0.00     0.074 A 
ATOM     60  C   UNL     1       3.518  12.047   3.137  1.00  0.00     0.029 A 
ATOM     61  N   UNL     1       4.745  10.703   1.861  1.00  0.00    -0.354 N 
ATOM     62  N   UNL     1       6.902  10.047   0.034  1.00  0.00    -0.248 NA
ATOM     63  C   UNL     1       8.655  10.693  -1.369  1.00  0.00     0.031 C 
ATOM     64  C   UNL     1       4.452  12.829   2.446  1.00  0.00     0.029 A 
ATOM     65  C   UNL     1       5.228  11.988   1.667  1.00  0.00     0.049 A 
ATOM     66  H   UNL     1       5.105   9.893   1.433  1.00  0.00     0.167 HD
ATOM     67  C   UNL     1       7.051  11.427   0.093  1.00  0.00     0.074 A 
ATOM     68  C   UNL     1       8.164  11.768  -0.768  1.00  0.00     0.031 C 
ATOM     69  C   UNL     1       6.328  12.327   0.801  1.00  0.00     0.031 A 
BRANCH  56  70
ATOM     70  C   UNL     1       1.724   9.801   4.041  1.00  0.00    -0.014 A 
ATOM     71  C   UNL     1       1.750   9.416   5.391  1.00  0.00     0.009 A 
ATOM     72  C   UNL     1       0.588  10.462   3.546  1.00  0.00     0.009 A 
ATOM     73  C   UNL     1       0.651   9.659   6.218  1.00  0.00     0.001 A 
ATOM     74  C   UNL     1      -0.499  10.726   4.382  1.00  0.00     0.001 A 
ATOM     75  C   UNL     1      -0.471  10.316   5.714  1.00  0.00     0.000 A 
ENDBRANCH  56  70
BRANCH  57  76
ATOM     76  C   UNL     1       9.275   7.952  -2.143  1.00  0.00    -0.014 A 
ATOM     77  C   UNL     1      10.604   8.098  -1.720  1.00  0.00     0.009 A 
ATOM     78  C   UNL     1       9.020   7.547  -3.462  1.00  0.00     0.009 A 
ATOM     79  C   UNL     1      11.657   7.863  -2.606  1.00  0.00     0.001 A 
ATOM     80  C   UNL     1      10.075   7.288  -4.338  1.00  0.00     0.001 A 
ATOM     81  C   UNL     1      11.392   7.454  -3.912  1.00  0.00     0.000 A 
ENDBRANCH  57  76
BRANCH  69  82
ATOM     82  C   UNL     1       6.732  13.771   0.692  1.00  0.00    -0.014 A 
ATOM     83  C   UNL     1       6.469  14.514  -0.470  1.00  0.00     0.009 A 
ATOM     84  C   UNL     1       7.362  14.404   1.774  1.00  0.00     0.009 A 
ATOM     85  C   UNL     1       6.859  15.852  -0.557  1.00  0.00     0.001 A 
ATOM     86  C   UNL     1       7.728  15.749   1.694  1.00  0.00     0.001 A 
ATOM     87  C   UNL     1       7.484  16.470   0.526  1.00  0.00     0.000 A 
ENDBRANCH  69  82
ENDBRANCH  43  44
ENDBRANCH  35  38
ENDBRANCH  33  34
ENDBRANCH  32  33
ENDBRANCH  31  32
ENDBRANCH  30  31
ENDBRANCH   1  30
TORSDOF 19
