REMARK SMILES CCCc1cc(OC(F)(F)F)cc2c1O[C@H](C(F)(F)F)C(C(=O)NCCCCCCNC(=O)c1ccc(-c3c4nc(c(-c5ccccc5)c5ccc([nH]5)c(-c5ccccc5)c5nc(c(-c6ccccc6)c6ccc3[nH]6)C=C5)C=C4)cc1)=C2
REMARK SMILES IDX 27 1 26 2 25 3 24 4 22 5 23 6 21 8 4 9 5 10 14 11 6 12 13 13
REMARK SMILES IDX 15 14 12 15 82 16 16 17 3 18 2 19 1 20 7 21 8 22 9 23 10 24
REMARK SMILES IDX 11 25 17 26 18 27 19 28 20 29 28 30 29 31 30 32 31 33 32 34
REMARK SMILES IDX 33 36 34 37 35 38 81 39 36 40 80 41 37 42 38 43 39 44 74 45
REMARK SMILES IDX 40 46 79 47 73 48 75 49 41 50 78 51 72 52 71 53 42 55 64 56
REMARK SMILES IDX 49 57 63 58 50 59 53 60 62 61 76 62 51 63 52 64 61 66 77 67
REMARK SMILES IDX 54 68 43 69 44 70 48 71 45 72 47 73 46 74 65 75 66 76 70 77
REMARK SMILES IDX 67 78 69 79 68 80 55 81 56 82 60 83 57 84 59 85 58 86
REMARK H PARENT 24 7 31 35 75 54 53 65
REMARK Flexibility Score: inf
ROOT
ATOM      1  C   UNL     1      -2.426  -5.539   9.263  1.00  0.00     0.002 C 
ENDROOT
BRANCH   1   2
ATOM      2  C   UNL     1      -1.923  -4.623   8.140  1.00  0.00     0.021 C 
BRANCH   2   3
ATOM      3  C   UNL     1      -0.671  -5.160   7.442  1.00  0.00     0.116 C 
BRANCH   3   4
ATOM      4  N   UNL     1      -1.037  -6.150   6.446  1.00  0.00    -0.352 N 
ATOM      5  C   UNL     1      -1.238  -6.088   5.106  1.00  0.00     0.251 C 
ATOM      6  O   UNL     1      -1.520  -7.139   4.531  1.00  0.00    -0.270 OA
ATOM      7  H   UNL     1      -1.166  -7.051   6.820  1.00  0.00     0.163 HD
BRANCH   5   8
ATOM      8  C   UNL     1      -1.007  -4.856   4.298  1.00  0.00     0.067 C 
ATOM      9  C   UNL     1       0.614  -1.837   1.858  1.00  0.00    -0.002 A 
ATOM     10  C   UNL     1       0.682  -0.533   2.382  1.00  0.00     0.054 A 
ATOM     11  C   UNL     1       0.015  -2.841   2.639  1.00  0.00     0.131 A 
ATOM     12  C   UNL     1       0.097  -0.209   3.606  1.00  0.00     0.130 A 
ATOM     13  C   UNL     1      -0.553  -2.532   3.881  1.00  0.00     0.021 A 
ATOM     14  O   UNL     1       0.098  -4.132   2.187  1.00  0.00    -0.475 OA
ATOM     15  C   UNL     1      -0.520  -1.214   4.349  1.00  0.00     0.058 A 
ATOM     16  C   UNL     1      -1.045  -3.596   4.750  1.00  0.00     0.025 C 
ATOM     17  C   UNL     1      -0.749  -5.126   2.826  1.00  0.00     0.314 C 
BRANCH   9  18
ATOM     18  C   UNL     1       1.228  -2.129   0.503  1.00  0.00     0.039 C 
BRANCH  18  19
ATOM     19  C   UNL     1       0.545  -1.433  -0.685  1.00  0.00     0.001 C 
ATOM     20  C   UNL     1       0.914   0.035  -0.861  1.00  0.00     0.004 C 
ENDBRANCH  18  19
ENDBRANCH   9  18
BRANCH  12  21
ATOM     21  O   UNL     1       0.096   1.022   4.196  1.00  0.00    -0.406 OA
BRANCH  21  22
ATOM     22  C   UNL     1       0.450   2.135   3.389  1.00  0.00     0.573 C 
ATOM     23  F   UNL     1       1.757   2.092   3.052  1.00  0.00    -0.132 F 
ATOM     24  F   UNL     1      -0.304   2.188   2.271  1.00  0.00    -0.132 F 
ATOM     25  F   UNL     1       0.236   3.266   4.096  1.00  0.00    -0.132 F 
ENDBRANCH  21  22
ENDBRANCH  12  21
BRANCH  17  26
ATOM     26  C   UNL     1      -2.055  -5.279   2.020  1.00  0.00     0.429 C 
ATOM     27  F   UNL     1      -2.806  -4.150   2.056  1.00  0.00    -0.167 F 
ATOM     28  F   UNL     1      -1.790  -5.535   0.714  1.00  0.00    -0.167 F 
ATOM     29  F   UNL     1      -2.843  -6.285   2.457  1.00  0.00    -0.167 F 
ENDBRANCH  17  26
ENDBRANCH   5   8
ENDBRANCH   3   4
ENDBRANCH   2   3
ENDBRANCH   1   2
BRANCH   1  30
ATOM     30  C   UNL     1      -1.474  -5.672  10.459  1.00  0.00     0.002 C 
BRANCH  30  31
ATOM     31  C   UNL     1      -1.065  -4.350  11.114  1.00  0.00     0.021 C 
BRANCH  31  32
ATOM     32  C   UNL     1      -2.227  -3.541  11.683  1.00  0.00     0.116 C 
BRANCH  32  33
ATOM     33  N   UNL     1      -2.872  -4.231  12.788  1.00  0.00    -0.352 N 
ATOM     34  C   UNL     1      -3.095  -3.801  14.069  1.00  0.00     0.251 C 
ATOM     35  H   UNL     1      -3.194  -5.139  12.586  1.00  0.00     0.163 HD
ATOM     36  O   UNL     1      -3.447  -4.602  14.934  1.00  0.00    -0.269 OA
BRANCH  34  37
ATOM     37  C   UNL     1      -2.910  -2.378  14.421  1.00  0.00     0.039 A 
ATOM     38  C   UNL     1      -2.282  -2.057  15.627  1.00  0.00     0.014 A 
ATOM     39  C   UNL     1      -3.395  -1.364  13.589  1.00  0.00     0.014 A 
ATOM     40  C   UNL     1      -2.108  -0.718  15.983  1.00  0.00     0.010 A 
ATOM     41  C   UNL     1      -3.164  -0.030  13.914  1.00  0.00     0.010 A 
ATOM     42  C   UNL     1      -2.533   0.306  15.121  1.00  0.00    -0.014 A 
BRANCH  42  43
ATOM     43  C   UNL     1      -2.352   1.733  15.484  1.00  0.00     0.031 A 
ATOM     44  C   UNL     1      -3.549   2.602  15.753  1.00  0.00     0.074 A 
ATOM     45  C   UNL     1      -1.113   2.258  15.529  1.00  0.00     0.049 A 
ATOM     46  N   UNL     1      -3.594   3.876  16.054  1.00  0.00    -0.248 NA
ATOM     47  C   UNL     1      -4.871   1.963  15.646  1.00  0.00     0.031 C 
ATOM     48  C   UNL     1       0.128   1.531  15.252  1.00  0.00     0.029 A 
ATOM     49  N   UNL     1      -0.694   3.531  15.824  1.00  0.00    -0.354 N 
ATOM     50  C   UNL     1      -4.943   4.192  16.154  1.00  0.00     0.074 A 
ATOM     51  C   UNL     1      -5.684   2.991  15.836  1.00  0.00     0.031 C 
ATOM     52  C   UNL     1       1.169   2.363  15.416  1.00  0.00     0.029 A 
ATOM     53  C   UNL     1       0.669   3.685  15.780  1.00  0.00     0.049 A 
ATOM     54  H   UNL     1      -1.313   4.264  16.047  1.00  0.00     0.167 HD
ATOM     55  C   UNL     1      -5.516   5.370  16.499  1.00  0.00     0.031 A 
ATOM     56  C   UNL     1       1.432   4.770  16.009  1.00  0.00     0.031 A 
ATOM     57  C   UNL     1      -4.781   6.560  16.832  1.00  0.00     0.049 A 
ATOM     58  C   UNL     1       0.773   6.065  16.395  1.00  0.00     0.074 A 
ATOM     59  C   UNL     1      -5.268   7.786  17.251  1.00  0.00     0.029 A 
ATOM     60  N   UNL     1      -3.401   6.672  16.786  1.00  0.00    -0.354 N 
ATOM     61  N   UNL     1      -0.501   6.329  16.549  1.00  0.00    -0.248 NA
ATOM     62  C   UNL     1       1.663   7.206  16.651  1.00  0.00     0.031 C 
ATOM     63  C   UNL     1      -4.183   8.653  17.418  1.00  0.00     0.029 A 
ATOM     64  C   UNL     1      -3.019   7.952  17.148  1.00  0.00     0.049 A 
ATOM     65  H   UNL     1      -2.783   5.948  16.532  1.00  0.00     0.167 HD
ATOM     66  C   UNL     1      -0.566   7.659  16.942  1.00  0.00     0.074 A 
ATOM     67  C   UNL     1       0.798   8.141  17.020  1.00  0.00     0.031 C 
ATOM     68  C   UNL     1      -1.657   8.415  17.215  1.00  0.00     0.031 A 
BRANCH  55  69
ATOM     69  C   UNL     1      -7.018   5.424  16.527  1.00  0.00    -0.014 A 
ATOM     70  C   UNL     1      -7.751   4.759  17.524  1.00  0.00     0.009 A 
ATOM     71  C   UNL     1      -7.709   6.168  15.559  1.00  0.00     0.009 A 
ATOM     72  C   UNL     1      -9.146   4.807  17.527  1.00  0.00     0.001 A 
ATOM     73  C   UNL     1      -9.103   6.237  15.581  1.00  0.00     0.001 A 
ATOM     74  C   UNL     1      -9.821   5.549  16.558  1.00  0.00     0.000 A 
ENDBRANCH  55  69
BRANCH  56  75
ATOM     75  C   UNL     1       2.910   4.675  15.904  1.00  0.00    -0.014 A 
ATOM     76  C   UNL     1       3.707   4.710  17.059  1.00  0.00     0.009 A 
ATOM     77  C   UNL     1       3.532   4.555  14.652  1.00  0.00     0.009 A 
ATOM     78  C   UNL     1       5.099   4.652  16.960  1.00  0.00     0.001 A 
ATOM     79  C   UNL     1       4.923   4.471  14.558  1.00  0.00     0.001 A 
ATOM     80  C   UNL     1       5.705   4.528  15.710  1.00  0.00     0.000 A 
ENDBRANCH  56  75
BRANCH  68  81
ATOM     81  C   UNL     1      -1.415   9.833  17.647  1.00  0.00    -0.014 A 
ATOM     82  C   UNL     1      -0.996  10.810  16.731  1.00  0.00     0.009 A 
ATOM     83  C   UNL     1      -1.637  10.201  18.983  1.00  0.00     0.009 A 
ATOM     84  C   UNL     1      -0.770  12.121  17.154  1.00  0.00     0.001 A 
ATOM     85  C   UNL     1      -1.436  11.518  19.397  1.00  0.00     0.001 A 
ATOM     86  C   UNL     1      -0.994  12.475  18.484  1.00  0.00     0.000 A 
ENDBRANCH  68  81
ENDBRANCH  42  43
ENDBRANCH  34  37
ENDBRANCH  32  33
ENDBRANCH  31  32
ENDBRANCH  30  31
ENDBRANCH   1  30
TORSDOF 18
