REMARK SMILES C[C@H](CNS(=O)(=O)CCC(=O)NCCCCCCNC(=O)c1ccc(-c2c3nc(c(-c4ccccc4)c4ccc([nH]4)c(-c4ccccc4)c4nc(c(-c5ccccc5)c5ccc2[nH]5)C=C4)C=C3)cc1)c1ccccc1
REMARK SMILES IDX 13 1 12 2 10 3 11 4 9 6 8 7 5 8 6 9 7 10 4 11 3 13 2 14 1 15
REMARK SMILES IDX 70 16 71 17 75 18 72 19 74 20 73 21 14 22 15 23 16 24 17 25
REMARK SMILES IDX 18 26 19 27 20 28 21 30 22 31 23 32 69 33 24 34 68 35 25 36
REMARK SMILES IDX 26 37 27 38 62 39 28 40 67 41 61 42 63 43 29 44 66 45 60 46
REMARK SMILES IDX 59 47 30 49 52 50 37 51 51 52 38 53 41 54 50 55 64 56 39 57
REMARK SMILES IDX 40 58 49 60 65 61 42 62 31 63 32 64 36 65 33 66 35 67 34 68
REMARK SMILES IDX 53 69 54 70 58 71 55 72 57 73 56 74 43 75 44 76 48 77 45 78
REMARK SMILES IDX 47 79 46 80
REMARK H PARENT 12 5 4 12 19 29 63 48 41 59
REMARK Flexibility Score: inf
ROOT
ATOM      1  C   UNL     1       4.895   0.009   0.981  1.00  0.00     0.116 C 
ENDROOT
BRANCH   1   2
ATOM      2  N   UNL     1       4.153  -1.007   0.232  1.00  0.00    -0.356 N 
ATOM      3  C   UNL     1       3.895  -1.171  -1.091  1.00  0.00     0.221 C 
ATOM      4  O   UNL     1       3.247  -2.164  -1.427  1.00  0.00    -0.275 OA
ATOM      5  H   UNL     1       3.765  -1.711   0.800  1.00  0.00     0.163 HD
BRANCH   3   6
ATOM      6  C   UNL     1       4.262  -0.122  -2.103  1.00  0.00     0.117 C 
BRANCH   6   7
ATOM      7  C   UNL     1       3.008   0.543  -2.655  1.00  0.00     0.164 C 
BRANCH   7   8
ATOM      8  S   UNL     1       2.199   1.610  -1.471  1.00  0.00     0.212 S 
ATOM      9  O   UNL     1       1.111   2.290  -2.143  1.00  0.00    -0.212 OA
ATOM     10  O   UNL     1       3.240   2.365  -0.816  1.00  0.00    -0.212 OA
BRANCH   8  11
ATOM     11  N   UNL     1       1.522   0.534  -0.350  1.00  0.00    -0.215 NA
ATOM     12  H   UNL     1       2.121  -0.291  -0.315  1.00  0.00     0.141 HD
BRANCH  11  13
ATOM     13  C   UNL     1       0.144   0.074  -0.613  1.00  0.00     0.106 C 
BRANCH  13  14
ATOM     14  C   UNL     1      -0.341  -1.169   0.186  1.00  0.00     0.031 C 
ATOM     15  C   UNL     1       0.285  -1.473   1.545  1.00  0.00     0.014 C 
BRANCH  14  16
ATOM     16  C   UNL     1      -1.845  -1.168   0.427  1.00  0.00    -0.044 A 
ATOM     17  C   UNL     1      -2.534  -0.019   0.847  1.00  0.00     0.004 A 
ATOM     18  C   UNL     1      -2.538  -2.388   0.378  1.00  0.00     0.004 A 
ATOM     19  C   UNL     1      -3.891  -0.079   1.157  1.00  0.00     0.000 A 
ATOM     20  C   UNL     1      -3.889  -2.450   0.716  1.00  0.00     0.000 A 
ATOM     21  C   UNL     1      -4.566  -1.293   1.094  1.00  0.00     0.000 A 
ENDBRANCH  14  16
ENDBRANCH  13  14
ENDBRANCH  11  13
ENDBRANCH   8  11
ENDBRANCH   7   8
ENDBRANCH   6   7
ENDBRANCH   3   6
ENDBRANCH   1   2
BRANCH   1  22
ATOM     22  C   UNL     1       4.032   0.894   1.895  1.00  0.00     0.021 C 
BRANCH  22  23
ATOM     23  C   UNL     1       2.933   0.157   2.651  1.00  0.00     0.002 C 
BRANCH  23  24
ATOM     24  C   UNL     1       3.297  -0.408   4.012  1.00  0.00     0.002 C 
BRANCH  24  25
ATOM     25  C   UNL     1       3.547   0.663   5.061  1.00  0.00     0.021 C 
BRANCH  25  26
ATOM     26  C   UNL     1       2.343   1.558   5.320  1.00  0.00     0.116 C 
BRANCH  26  27
ATOM     27  N   UNL     1       1.311   0.879   6.092  1.00  0.00    -0.352 N 
ATOM     28  C   UNL     1       0.805   1.264   7.311  1.00  0.00     0.251 C 
ATOM     29  H   UNL     1       0.936   0.058   5.699  1.00  0.00     0.163 HD
ATOM     30  O   UNL     1       0.102   0.520   7.984  1.00  0.00    -0.269 OA
BRANCH  28  31
ATOM     31  C   UNL     1       1.157   2.611   7.795  1.00  0.00     0.039 A 
ATOM     32  C   UNL     1       1.779   2.757   9.034  1.00  0.00     0.014 A 
ATOM     33  C   UNL     1       0.970   3.708   6.948  1.00  0.00     0.014 A 
ATOM     34  C   UNL     1       2.253   4.015   9.410  1.00  0.00     0.010 A 
ATOM     35  C   UNL     1       1.535   4.930   7.280  1.00  0.00     0.010 A 
ATOM     36  C   UNL     1       2.154   5.104   8.527  1.00  0.00    -0.014 A 
BRANCH  36  37
ATOM     37  C   UNL     1       2.627   6.456   8.916  1.00  0.00     0.031 A 
ATOM     38  C   UNL     1       1.631   7.582   9.014  1.00  0.00     0.074 A 
ATOM     39  C   UNL     1       3.935   6.682   9.145  1.00  0.00     0.049 A 
ATOM     40  N   UNL     1       1.833   8.841   9.306  1.00  0.00    -0.248 NA
ATOM     41  C   UNL     1       0.225   7.255   8.716  1.00  0.00     0.031 C 
ATOM     42  C   UNL     1       5.002   5.684   9.048  1.00  0.00     0.029 A 
ATOM     43  N   UNL     1       4.588   7.831   9.514  1.00  0.00    -0.354 N 
ATOM     44  C   UNL     1       0.588   9.451   9.212  1.00  0.00     0.074 A 
ATOM     45  C   UNL     1      -0.347   8.447   8.763  1.00  0.00     0.031 C 
ATOM     46  C   UNL     1       6.169   6.254   9.391  1.00  0.00     0.029 A 
ATOM     47  C   UNL     1       5.941   7.664   9.690  1.00  0.00     0.049 A 
ATOM     48  H   UNL     1       4.131   8.693   9.640  1.00  0.00     0.167 HD
ATOM     49  C   UNL     1       0.242  10.725   9.506  1.00  0.00     0.031 A 
ATOM     50  C   UNL     1       6.887   8.551  10.054  1.00  0.00     0.031 A 
ATOM     51  C   UNL     1       1.170  11.721   9.964  1.00  0.00     0.049 A 
ATOM     52  C   UNL     1       6.482   9.972  10.345  1.00  0.00     0.074 A 
ATOM     53  C   UNL     1       0.918  13.032  10.327  1.00  0.00     0.029 A 
ATOM     54  N   UNL     1       2.531  11.513  10.123  1.00  0.00    -0.354 N 
ATOM     55  N   UNL     1       5.289  10.517  10.313  1.00  0.00    -0.248 NA
ATOM     56  C   UNL     1       7.555  10.896  10.739  1.00  0.00     0.031 C 
ATOM     57  C   UNL     1       2.137  13.633  10.653  1.00  0.00     0.029 A 
ATOM     58  C   UNL     1       3.137  12.677  10.561  1.00  0.00     0.049 A 
ATOM     59  H   UNL     1       2.998  10.663   9.950  1.00  0.00     0.167 HD
ATOM     60  C   UNL     1       5.463  11.834  10.723  1.00  0.00     0.074 A 
ATOM     61  C   UNL     1       6.873  11.999  11.010  1.00  0.00     0.031 C 
ATOM     62  C   UNL     1       4.540  12.818  10.853  1.00  0.00     0.031 A 
BRANCH  49  63
ATOM     63  C   UNL     1      -1.203  11.105   9.339  1.00  0.00    -0.014 A 
ATOM     64  C   UNL     1      -2.198  10.572  10.177  1.00  0.00     0.009 A 
ATOM     65  C   UNL     1      -1.576  12.024   8.347  1.00  0.00     0.009 A 
ATOM     66  C   UNL     1      -3.538  10.919   9.997  1.00  0.00     0.001 A 
ATOM     67  C   UNL     1      -2.912  12.398   8.193  1.00  0.00     0.001 A 
ATOM     68  C   UNL     1      -3.893  11.837   9.010  1.00  0.00     0.000 A 
ENDBRANCH  49  63
BRANCH  50  69
ATOM     69  C   UNL     1       8.307   8.129  10.188  1.00  0.00    -0.014 A 
ATOM     70  C   UNL     1       8.931   8.108  11.446  1.00  0.00     0.009 A 
ATOM     71  C   UNL     1       9.059   7.775   9.056  1.00  0.00     0.009 A 
ATOM     72  C   UNL     1      10.284   7.782  11.563  1.00  0.00     0.001 A 
ATOM     73  C   UNL     1      10.403   7.416   9.180  1.00  0.00     0.001 A 
ATOM     74  C   UNL     1      11.018   7.433  10.431  1.00  0.00     0.000 A 
ENDBRANCH  50  69
BRANCH  62  75
ATOM     75  C   UNL     1       5.012  14.142  11.385  1.00  0.00    -0.014 A 
ATOM     76  C   UNL     1       5.829  14.993  10.625  1.00  0.00     0.009 A 
ATOM     77  C   UNL     1       4.590  14.562  12.658  1.00  0.00     0.009 A 
ATOM     78  C   UNL     1       6.246  16.220  11.147  1.00  0.00     0.001 A 
ATOM     79  C   UNL     1       4.979  15.803  13.161  1.00  0.00     0.001 A 
ATOM     80  C   UNL     1       5.816  16.626  12.410  1.00  0.00     0.000 A 
ENDBRANCH  62  75
ENDBRANCH  36  37
ENDBRANCH  28  31
ENDBRANCH  26  27
ENDBRANCH  25  26
ENDBRANCH  24  25
ENDBRANCH  23  24
ENDBRANCH  22  23
ENDBRANCH   1  22
TORSDOF 19
