REMARK SMILES COc1ccc(C(=O)Nc2ccccc2C(=O)N[C@@H](C(=O)NCCCCCCNC(=O)c2ccc(-c3c4nc(c(-c5ccccc5)c5ccc([nH]5)c(-c5ccccc5)c5nc(c(-c6ccccc6)c6ccc3[nH]6)C=C5)C=C4)cc2)C(C)C)cc1
REMARK SMILES IDX 24 1 23 2 22 3 20 4 21 5 19 7 18 8 16 9 17 10 15 12 10 13
REMARK SMILES IDX 11 14 12 15 14 16 13 17 9 18 7 19 8 20 6 22 3 23 4 24 84 25
REMARK SMILES IDX 5 26 83 27 2 28 1 29 80 30 81 31 82 32 25 33 26 34 27 35
REMARK SMILES IDX 28 36 29 37 30 38 31 40 32 41 33 42 79 43 34 44 78 45 35 46
REMARK SMILES IDX 36 47 37 48 72 49 38 50 77 51 71 52 73 53 39 54 76 55 70 56
REMARK SMILES IDX 69 57 40 59 62 60 47 61 61 62 48 63 51 64 60 65 74 66 49 67
REMARK SMILES IDX 50 68 59 70 75 71 52 72 41 73 42 74 46 75 43 76 45 77 44 78
REMARK SMILES IDX 63 79 64 80 68 81 65 82 67 83 66 84 53 85 54 86 58 87 55 88
REMARK SMILES IDX 57 89 56 90
REMARK H PARENT 22 6 18 11 9 21 29 39 73 58 51 69
REMARK Flexibility Score: inf
ROOT
ATOM      1  C   UNL     1       5.375   7.276   3.581  1.00  0.00     0.021 C 
ENDROOT
BRANCH   1   2
ATOM      2  C   UNL     1       4.960   6.702   4.939  1.00  0.00     0.116 C 
BRANCH   2   3
ATOM      3  N   UNL     1       3.759   7.358   5.388  1.00  0.00    -0.354 N 
ATOM      4  C   UNL     1       2.478   6.953   5.197  1.00  0.00     0.242 C 
ATOM      5  O   UNL     1       1.645   7.853   5.054  1.00  0.00    -0.273 OA
ATOM      6  H   UNL     1       3.881   8.196   5.890  1.00  0.00     0.163 HD
BRANCH   4   7
ATOM      7  C   UNL     1       2.103   5.436   5.138  1.00  0.00     0.174 C 
BRANCH   7   8
ATOM      8  N   UNL     1       2.227   5.001   3.736  1.00  0.00    -0.340 N 
ATOM      9  C   UNL     1       3.189   4.348   2.989  1.00  0.00     0.254 C 
ATOM     10  O   UNL     1       3.116   4.531   1.769  1.00  0.00    -0.269 OA
ATOM     11  H   UNL     1       1.433   5.233   3.201  1.00  0.00     0.164 HD
BRANCH   9  12
ATOM     12  C   UNL     1       4.326   3.490   3.485  1.00  0.00     0.063 A 
ATOM     13  C   UNL     1       4.408   2.760   4.679  1.00  0.00     0.054 A 
ATOM     14  C   UNL     1       5.628   2.167   5.073  1.00  0.00     0.027 A 
ATOM     15  C   UNL     1       6.715   2.120   4.205  1.00  0.00     0.002 A 
ATOM     16  C   UNL     1       5.439   3.403   2.613  1.00  0.00     0.016 A 
ATOM     17  C   UNL     1       6.604   2.702   2.952  1.00  0.00     0.001 A 
BRANCH  13  18
ATOM     18  N   UNL     1       3.319   2.381   5.477  1.00  0.00    -0.321 N 
ATOM     19  C   UNL     1       2.240   1.629   5.057  1.00  0.00     0.255 C 
ATOM     20  O   UNL     1       1.477   1.138   5.886  1.00  0.00    -0.269 OA
ATOM     21  H   UNL     1       3.325   2.675   6.417  1.00  0.00     0.170 HD
BRANCH  19  22
ATOM     22  C   UNL     1       2.036   1.326   3.627  1.00  0.00     0.040 A 
ATOM     23  C   UNL     1       1.561   0.782   0.937  1.00  0.00     0.118 A 
ATOM     24  C   UNL     1       0.873   1.812   1.562  1.00  0.00     0.047 A 
ATOM     25  C   UNL     1       2.512   0.039   1.644  1.00  0.00     0.047 A 
ATOM     26  C   UNL     1       1.088   2.054   2.911  1.00  0.00     0.017 A 
ATOM     27  C   UNL     1       2.753   0.309   2.997  1.00  0.00     0.017 A 
BRANCH  23  28
ATOM     28  O   UNL     1       1.262   0.592  -0.382  1.00  0.00    -0.497 OA
ATOM     29  C   UNL     1       1.064  -0.776  -0.717  1.00  0.00     0.278 C 
ENDBRANCH  23  28
ENDBRANCH  19  22
ENDBRANCH  13  18
ENDBRANCH   9  12
ENDBRANCH   7   8
BRANCH   7  30
ATOM     30  C   UNL     1       0.629   5.389   5.702  1.00  0.00     0.015 C 
ATOM     31  C   UNL     1      -0.232   4.170   5.405  1.00  0.00     0.010 C 
ATOM     32  C   UNL     1       0.646   5.596   7.223  1.00  0.00     0.010 C 
ENDBRANCH   7  30
ENDBRANCH   4   7
ENDBRANCH   2   3
ENDBRANCH   1   2
BRANCH   1  33
ATOM     33  C   UNL     1       5.904   8.715   3.675  1.00  0.00     0.002 C 
BRANCH  33  34
ATOM     34  C   UNL     1       7.196   8.859   4.486  1.00  0.00     0.002 C 
BRANCH  34  35
ATOM     35  C   UNL     1       8.387   8.083   3.920  1.00  0.00     0.021 C 
BRANCH  35  36
ATOM     36  C   UNL     1       8.791   8.499   2.508  1.00  0.00     0.116 C 
BRANCH  36  37
ATOM     37  N   UNL     1       9.197   9.895   2.452  1.00  0.00    -0.352 N 
ATOM     38  C   UNL     1      10.388  10.441   2.042  1.00  0.00     0.251 C 
ATOM     39  H   UNL     1       8.520  10.543   2.752  1.00  0.00     0.163 HD
ATOM     40  O   UNL     1      10.645  11.616   2.271  1.00  0.00    -0.269 OA
BRANCH  38  41
ATOM     41  C   UNL     1      11.369   9.594   1.335  1.00  0.00     0.039 A 
ATOM     42  C   UNL     1      12.708   9.636   1.730  1.00  0.00     0.014 A 
ATOM     43  C   UNL     1      10.965   8.765   0.284  1.00  0.00     0.014 A 
ATOM     44  C   UNL     1      13.633   8.791   1.116  1.00  0.00     0.010 A 
ATOM     45  C   UNL     1      11.876   7.882  -0.286  1.00  0.00     0.010 A 
ATOM     46  C   UNL     1      13.216   7.881   0.131  1.00  0.00    -0.014 A 
BRANCH  46  47
ATOM     47  C   UNL     1      14.158   6.897  -0.453  1.00  0.00     0.031 A 
ATOM     48  C   UNL     1      14.532   6.973  -1.905  1.00  0.00     0.074 A 
ATOM     49  C   UNL     1      14.615   5.889   0.313  1.00  0.00     0.049 A 
ATOM     50  N   UNL     1      15.277   6.156  -2.607  1.00  0.00    -0.248 NA
ATOM     51  C   UNL     1      13.982   8.100  -2.675  1.00  0.00     0.031 C 
ATOM     52  C   UNL     1      14.290   5.683   1.727  1.00  0.00     0.029 A 
ATOM     53  N   UNL     1      15.440   4.837   0.006  1.00  0.00    -0.354 N 
ATOM     54  C   UNL     1      15.278   6.664  -3.899  1.00  0.00     0.074 A 
ATOM     55  C   UNL     1      14.425   7.833  -3.896  1.00  0.00     0.031 C 
ATOM     56  C   UNL     1      14.921   4.583   2.167  1.00  0.00     0.029 A 
ATOM     57  C   UNL     1      15.662   3.986   1.060  1.00  0.00     0.049 A 
ATOM     58  H   UNL     1      15.836   4.705  -0.886  1.00  0.00     0.167 HD
ATOM     59  C   UNL     1      15.942   6.207  -4.987  1.00  0.00     0.031 A 
ATOM     60  C   UNL     1      16.370   2.844   1.127  1.00  0.00     0.031 A 
ATOM     61  C   UNL     1      16.792   5.046  -4.991  1.00  0.00     0.049 A 
ATOM     62  C   UNL     1      17.080   2.347  -0.100  1.00  0.00     0.074 A 
ATOM     63  C   UNL     1      17.547   4.534  -6.031  1.00  0.00     0.029 A 
ATOM     64  N   UNL     1      16.995   4.215  -3.901  1.00  0.00    -0.354 N 
ATOM     65  N   UNL     1      17.119   2.873  -1.300  1.00  0.00    -0.248 NA
ATOM     66  C   UNL     1      17.847   1.101   0.039  1.00  0.00     0.031 C 
ATOM     67  C   UNL     1      18.173   3.366  -5.583  1.00  0.00     0.029 A 
ATOM     68  C   UNL     1      17.844   3.178  -4.250  1.00  0.00     0.049 A 
ATOM     69  H   UNL     1      16.595   4.342  -3.010  1.00  0.00     0.167 HD
ATOM     70  C   UNL     1      17.926   2.033  -2.054  1.00  0.00     0.074 A 
ATOM     71  C   UNL     1      18.372   0.974  -1.172  1.00  0.00     0.031 C 
ATOM     72  C   UNL     1      18.266   2.128  -3.362  1.00  0.00     0.031 A 
BRANCH  59  73
ATOM     73  C   UNL     1      15.773   6.970  -6.270  1.00  0.00    -0.014 A 
ATOM     74  C   UNL     1      16.364   8.232  -6.444  1.00  0.00     0.009 A 
ATOM     75  C   UNL     1      15.048   6.405  -7.331  1.00  0.00     0.009 A 
ATOM     76  C   UNL     1      16.206   8.926  -7.646  1.00  0.00     0.001 A 
ATOM     77  C   UNL     1      14.914   7.091  -8.539  1.00  0.00     0.001 A 
ATOM     78  C   UNL     1      15.486   8.353  -8.693  1.00  0.00     0.000 A 
ENDBRANCH  59  73
BRANCH  60  79
ATOM     79  C   UNL     1      16.441   2.087   2.402  1.00  0.00    -0.014 A 
ATOM     80  C   UNL     1      17.627   2.060   3.150  1.00  0.00     0.009 A 
ATOM     81  C   UNL     1      15.322   1.385   2.876  1.00  0.00     0.009 A 
ATOM     82  C   UNL     1      17.699   1.323   4.334  1.00  0.00     0.001 A 
ATOM     83  C   UNL     1      15.389   0.671   4.074  1.00  0.00     0.001 A 
ATOM     84  C   UNL     1      16.579   0.633   4.797  1.00  0.00     0.000 A 
ENDBRANCH  60  79
BRANCH  72  85
ATOM     85  C   UNL     1      19.172   1.064  -3.911  1.00  0.00    -0.014 A 
ATOM     86  C   UNL     1      18.693  -0.230  -4.170  1.00  0.00     0.009 A 
ATOM     87  C   UNL     1      20.510   1.368  -4.203  1.00  0.00     0.009 A 
ATOM     88  C   UNL     1      19.547  -1.206  -4.686  1.00  0.00     0.001 A 
ATOM     89  C   UNL     1      21.355   0.397  -4.742  1.00  0.00     0.001 A 
ATOM     90  C   UNL     1      20.875  -0.891  -4.975  1.00  0.00     0.000 A 
ENDBRANCH  72  85
ENDBRANCH  46  47
ENDBRANCH  38  41
ENDBRANCH  36  37
ENDBRANCH  35  36
ENDBRANCH  34  35
ENDBRANCH  33  34
ENDBRANCH   1  33
TORSDOF 19
