REMARK SMILES Cc1nccn1C1(C(=O)NCCCCCCNC(=O)c2ccc(-c3c4nc(c(-c5ccccc5)c5ccc([nH]5)c(-c5ccccc5)c5nc(c(-c6ccccc6)c6ccc3[nH]6)C=C5)C=C4)cc2)CCN(C(=O)[C@@H]2C[C@H]2c2ccccc2)CC1
REMARK SMILES IDX 13 1 12 2 11 3 10 4 8 5 9 6 7 8 68 9 83 10 69 11 82 12 70 13
REMARK SMILES IDX 71 14 72 15 6 16 1 17 2 18 3 19 4 20 5 21 73 22 74 23 75 24
REMARK SMILES IDX 76 25 77 26 81 27 78 28 80 29 79 30 14 31 15 32 16 33 17 34
REMARK SMILES IDX 18 35 19 37 20 38 21 39 67 40 22 41 66 42 23 43 24 44 25 45
REMARK SMILES IDX 60 46 26 47 65 48 59 49 61 50 27 51 64 52 58 53 57 54 28 56
REMARK SMILES IDX 50 57 35 58 49 59 36 60 39 61 48 62 62 63 37 64 38 65 47 67
REMARK SMILES IDX 63 68 40 69 29 70 30 71 34 72 31 73 33 74 32 75 51 76 52 77
REMARK SMILES IDX 56 78 53 79 55 80 54 81 41 82 42 83 46 84 43 85 45 86 44 87
REMARK H PARENT 10 7 17 36 61 55 39 66
REMARK Flexibility Score: inf
ROOT
ATOM      1  C   UNL     1       5.431   5.315   3.374  1.00  0.00     0.002 C 
ENDROOT
BRANCH   1   2
ATOM      2  C   UNL     1       5.116   3.859   2.997  1.00  0.00     0.021 C 
BRANCH   2   3
ATOM      3  C   UNL     1       3.631   3.475   2.990  1.00  0.00     0.116 C 
BRANCH   3   4
ATOM      4  N   UNL     1       2.897   4.228   1.992  1.00  0.00    -0.354 N 
ATOM      5  C   UNL     1       2.190   3.904   0.869  1.00  0.00     0.246 C 
ATOM      6  O   UNL     1       1.956   4.908   0.191  1.00  0.00    -0.272 OA
ATOM      7  H   UNL     1       2.910   5.197   2.164  1.00  0.00     0.163 HD
BRANCH   5   8
ATOM      8  C   UNL     1       1.760   2.419   0.473  1.00  0.00     0.127 C 
ATOM      9  C   UNL     1       3.104   1.664   0.214  1.00  0.00     0.061 C 
ATOM     10  C   UNL     1       0.925   1.878   1.663  1.00  0.00     0.061 C 
ATOM     11  C   UNL     1       3.363   0.340   0.956  1.00  0.00     0.122 C 
ATOM     12  C   UNL     1       1.101   0.390   1.828  1.00  0.00     0.122 C 
ATOM     13  N   UNL     1       2.481   0.069   2.085  1.00  0.00    -0.342 N 
ATOM     14  C   UNL     1       2.953  -0.775   3.096  1.00  0.00     0.226 C 
ATOM     15  O   UNL     1       4.021  -1.366   2.967  1.00  0.00    -0.275 OA
BRANCH   8  16
ATOM     16  N   UNL     1       0.870   2.357  -0.767  1.00  0.00    -0.320 N 
ATOM     17  C   UNL     1       0.633  -0.201  -1.345  1.00  0.00     0.087 C 
ATOM     18  C   UNL     1       0.400   1.255  -1.509  1.00  0.00     0.106 A 
ATOM     19  N   UNL     1      -0.404   1.639  -2.483  1.00  0.00    -0.242 NA
ATOM     20  C   UNL     1      -0.504   2.980  -2.401  1.00  0.00     0.131 A 
ATOM     21  C   UNL     1       0.229   3.438  -1.344  1.00  0.00     0.108 A 
ENDBRANCH   8  16
BRANCH  14  22
ATOM     22  C   UNL     1       2.280  -0.915   4.428  1.00  0.00     0.087 C 
ATOM     23  C   UNL     1       1.133  -1.877   4.629  1.00  0.00     0.023 C 
ATOM     24  C   UNL     1       0.934  -0.408   4.868  1.00  0.00     0.032 C 
BRANCH  24  25
ATOM     25  C   UNL     1       0.695   0.229   6.200  1.00  0.00    -0.044 A 
ATOM     26  C   UNL     1      -0.512  -0.023   6.871  1.00  0.00     0.004 A 
ATOM     27  C   UNL     1       1.483   1.305   6.634  1.00  0.00     0.004 A 
ATOM     28  C   UNL     1      -0.967   0.831   7.873  1.00  0.00     0.000 A 
ATOM     29  C   UNL     1       1.034   2.158   7.642  1.00  0.00     0.000 A 
ATOM     30  C   UNL     1      -0.203   1.935   8.241  1.00  0.00     0.000 A 
ENDBRANCH  24  25
ENDBRANCH  14  22
ENDBRANCH   5   8
ENDBRANCH   3   4
ENDBRANCH   2   3
ENDBRANCH   1   2
BRANCH   1  31
ATOM     31  C   UNL     1       4.830   5.849   4.685  1.00  0.00     0.002 C 
BRANCH  31  32
ATOM     32  C   UNL     1       5.056   5.027   5.962  1.00  0.00     0.021 C 
BRANCH  32  33
ATOM     33  C   UNL     1       6.512   4.844   6.356  1.00  0.00     0.116 C 
BRANCH  33  34
ATOM     34  N   UNL     1       7.197   6.096   6.704  1.00  0.00    -0.352 N 
ATOM     35  C   UNL     1       8.540   6.313   6.992  1.00  0.00     0.251 C 
ATOM     36  H   UNL     1       6.624   6.896   6.737  1.00  0.00     0.163 HD
ATOM     37  O   UNL     1       8.900   7.308   7.604  1.00  0.00    -0.269 OA
BRANCH  35  38
ATOM     38  C   UNL     1       9.533   5.322   6.534  1.00  0.00     0.039 A 
ATOM     39  C   UNL     1      10.729   5.045   7.204  1.00  0.00     0.014 A 
ATOM     40  C   UNL     1       9.226   4.648   5.365  1.00  0.00     0.014 A 
ATOM     41  C   UNL     1      11.574   4.068   6.674  1.00  0.00     0.010 A 
ATOM     42  C   UNL     1       9.852   3.481   5.070  1.00  0.00     0.010 A 
ATOM     43  C   UNL     1      11.117   3.305   5.591  1.00  0.00    -0.014 A 
BRANCH  43  44
ATOM     44  C   UNL     1      11.926   2.342   4.872  1.00  0.00     0.031 A 
ATOM     45  C   UNL     1      12.268   1.112   5.609  1.00  0.00     0.074 A 
ATOM     46  C   UNL     1      12.089   2.418   3.533  1.00  0.00     0.049 A 
ATOM     47  N   UNL     1      13.435   0.754   6.019  1.00  0.00    -0.248 NA
ATOM     48  C   UNL     1      11.178   0.222   6.027  1.00  0.00     0.031 C 
ATOM     49  C   UNL     1      11.486   3.356   2.571  1.00  0.00     0.029 A 
ATOM     50  N   UNL     1      12.746   1.551   2.725  1.00  0.00    -0.354 N 
ATOM     51  C   UNL     1      13.268  -0.485   6.624  1.00  0.00     0.074 A 
ATOM     52  C   UNL     1      11.844  -0.683   6.746  1.00  0.00     0.031 C 
ATOM     53  C   UNL     1      11.627   2.870   1.317  1.00  0.00     0.029 A 
ATOM     54  C   UNL     1      12.469   1.689   1.374  1.00  0.00     0.049 A 
ATOM     55  H   UNL     1      13.373   0.875   3.071  1.00  0.00     0.167 HD
ATOM     56  C   UNL     1      14.317  -1.336   6.797  1.00  0.00     0.031 A 
ATOM     57  C   UNL     1      12.880   0.861   0.385  1.00  0.00     0.031 A 
ATOM     58  C   UNL     1      15.572  -0.698   6.480  1.00  0.00     0.049 A 
ATOM     59  C   UNL     1      14.037   0.094   0.913  1.00  0.00     0.074 A 
ATOM     60  C   UNL     1      16.268   0.379   6.992  1.00  0.00     0.029 A 
ATOM     61  N   UNL     1      16.081  -0.914   5.219  1.00  0.00    -0.354 N 
ATOM     62  N   UNL     1      15.180   0.645   1.213  1.00  0.00    -0.248 NA
ATOM     63  C   UNL     1      13.780  -1.187   1.556  1.00  0.00     0.031 C 
ATOM     64  C   UNL     1      16.794   1.049   5.847  1.00  0.00     0.029 A 
ATOM     65  C   UNL     1      16.449   0.308   4.713  1.00  0.00     0.049 A 
ATOM     66  H   UNL     1      16.167  -1.783   4.765  1.00  0.00     0.167 HD
ATOM     67  C   UNL     1      15.579   0.024   2.390  1.00  0.00     0.074 A 
ATOM     68  C   UNL     1      14.737  -1.168   2.490  1.00  0.00     0.031 C 
ATOM     69  C   UNL     1      16.340   0.680   3.317  1.00  0.00     0.031 A 
BRANCH  56  70
ATOM     70  C   UNL     1      14.203  -2.830   6.919  1.00  0.00    -0.014 A 
ATOM     71  C   UNL     1      15.365  -3.570   7.200  1.00  0.00     0.009 A 
ATOM     72  C   UNL     1      13.063  -3.560   6.537  1.00  0.00     0.009 A 
ATOM     73  C   UNL     1      15.402  -4.960   7.041  1.00  0.00     0.001 A 
ATOM     74  C   UNL     1      13.084  -4.953   6.419  1.00  0.00     0.001 A 
ATOM     75  C   UNL     1      14.262  -5.650   6.644  1.00  0.00     0.000 A 
ENDBRANCH  56  70
BRANCH  57  76
ATOM     76  C   UNL     1      12.189   0.519  -0.875  1.00  0.00    -0.014 A 
ATOM     77  C   UNL     1      12.877  -0.081  -1.940  1.00  0.00     0.009 A 
ATOM     78  C   UNL     1      10.783   0.549  -0.940  1.00  0.00     0.009 A 
ATOM     79  C   UNL     1      12.181  -0.663  -3.009  1.00  0.00     0.001 A 
ATOM     80  C   UNL     1      10.088  -0.029  -2.007  1.00  0.00     0.001 A 
ATOM     81  C   UNL     1      10.788  -0.650  -3.035  1.00  0.00     0.000 A 
ENDBRANCH  57  76
BRANCH  69  82
ATOM     82  C   UNL     1      16.884   2.044   2.946  1.00  0.00    -0.014 A 
ATOM     83  C   UNL     1      16.052   3.134   2.628  1.00  0.00     0.009 A 
ATOM     84  C   UNL     1      18.257   2.285   3.090  1.00  0.00     0.009 A 
ATOM     85  C   UNL     1      16.580   4.415   2.433  1.00  0.00     0.001 A 
ATOM     86  C   UNL     1      18.783   3.568   2.917  1.00  0.00     0.001 A 
ATOM     87  C   UNL     1      17.946   4.632   2.584  1.00  0.00     0.000 A 
ENDBRANCH  69  82
ENDBRANCH  43  44
ENDBRANCH  35  38
ENDBRANCH  33  34
ENDBRANCH  32  33
ENDBRANCH  31  32
ENDBRANCH   1  31
TORSDOF 16
