REMARK SMILES Cc1cccc(NC(=O)C[C@@H]2CCCCO2)c1C(=O)NCCCCCCNC(=O)c1ccc(-c2c3nc(c(-c4ccccc4)c4ccc([nH]4)c(-c4ccccc4)c4nc(c(-c5ccccc5)c5ccc2[nH]5)C=C4)C=C3)cc1
REMARK SMILES IDX 23 1 22 2 21 3 20 4 18 5 19 6 17 8 1 9 2 10 3 11 4 12 6 13
REMARK SMILES IDX 5 14 7 15 8 16 9 18 10 19 11 20 12 21 16 22 13 23 15 24
REMARK SMILES IDX 14 25 24 26 25 27 26 28 27 29 28 30 29 32 30 33 31 34 77 35
REMARK SMILES IDX 32 36 76 37 33 38 34 39 35 40 70 41 36 42 75 43 69 44 71 45
REMARK SMILES IDX 37 46 74 47 68 48 67 49 38 51 60 52 45 53 59 54 46 55 49 56
REMARK SMILES IDX 58 57 72 58 47 59 48 60 57 62 73 63 50 64 39 65 40 66 44 67
REMARK SMILES IDX 41 68 43 69 42 70 61 71 62 72 66 73 63 74 65 75 64 76 51 77
REMARK SMILES IDX 52 78 56 79 53 80 55 81 54 82
REMARK H PARENT 20 7 7 17 27 31 71 50 49 61
REMARK Flexibility Score: inf
ROOT
ATOM      1  C   UNL     1       5.522   2.876  -0.814  1.00  0.00     0.002 C 
ENDROOT
BRANCH   1   2
ATOM      2  C   UNL     1       4.432   1.807  -0.672  1.00  0.00     0.021 C 
BRANCH   2   3
ATOM      3  C   UNL     1       3.391   2.105   0.415  1.00  0.00     0.116 C 
BRANCH   3   4
ATOM      4  N   UNL     1       2.244   2.764  -0.180  1.00  0.00    -0.352 N 
ATOM      5  C   UNL     1       0.929   2.396  -0.319  1.00  0.00     0.253 C 
ATOM      6  O   UNL     1       0.184   3.191  -0.891  1.00  0.00    -0.269 OA
ATOM      7  H   UNL     1       2.449   3.649  -0.559  1.00  0.00     0.163 HD
BRANCH   5   8
ATOM      8  C   UNL     1       0.366   1.168   0.321  1.00  0.00     0.066 A 
ATOM      9  C   UNL     1       1.962  -0.481  -0.826  1.00  0.00     0.045 C 
ATOM     10  C   UNL     1       0.962  -0.108   0.234  1.00  0.00    -0.036 A 
ATOM     11  C   UNL     1       0.497  -1.144   1.066  1.00  0.00     0.004 A 
ATOM     12  C   UNL     1      -0.590  -0.943   1.910  1.00  0.00     0.002 A 
ATOM     13  C   UNL     1      -0.891   1.269   0.966  1.00  0.00     0.054 A 
ATOM     14  C   UNL     1      -1.298   0.254   1.840  1.00  0.00     0.027 A 
BRANCH  13  15
ATOM     15  N   UNL     1      -1.767   2.326   0.624  1.00  0.00    -0.325 N 
ATOM     16  C   UNL     1      -3.092   2.296   0.260  1.00  0.00     0.227 C 
ATOM     17  H   UNL     1      -1.364   3.224   0.650  1.00  0.00     0.169 HD
ATOM     18  O   UNL     1      -3.641   3.357  -0.057  1.00  0.00    -0.275 OA
BRANCH  16  19
ATOM     19  C   UNL     1      -3.878   1.000   0.194  1.00  0.00     0.132 C 
BRANCH  19  20
ATOM     20  C   UNL     1      -4.189   0.513  -1.234  1.00  0.00     0.127 C 
ATOM     21  C   UNL     1      -4.941  -0.829  -1.207  1.00  0.00     0.033 C 
ATOM     22  O   UNL     1      -3.056   0.388  -2.098  1.00  0.00    -0.378 OA
ATOM     23  C   UNL     1      -4.030  -1.981  -0.784  1.00  0.00     0.005 C 
ATOM     24  C   UNL     1      -2.142  -0.651  -1.782  1.00  0.00     0.160 C 
ATOM     25  C   UNL     1      -2.785  -2.022  -1.658  1.00  0.00     0.029 C 
ENDBRANCH  19  20
ENDBRANCH  16  19
ENDBRANCH  13  15
ENDBRANCH   5   8
ENDBRANCH   3   4
ENDBRANCH   2   3
ENDBRANCH   1   2
BRANCH   1  26
ATOM     26  C   UNL     1       6.419   3.088   0.417  1.00  0.00     0.002 C 
BRANCH  26  27
ATOM     27  C   UNL     1       6.946   1.816   1.087  1.00  0.00     0.021 C 
BRANCH  27  28
ATOM     28  C   UNL     1       7.940   1.037   0.233  1.00  0.00     0.116 C 
BRANCH  28  29
ATOM     29  N   UNL     1       9.333   1.361   0.517  1.00  0.00    -0.352 N 
ATOM     30  C   UNL     1      10.472   1.028  -0.186  1.00  0.00     0.251 C 
ATOM     31  H   UNL     1       9.482   1.895   1.330  1.00  0.00     0.163 HD
ATOM     32  O   UNL     1      11.576   1.365   0.240  1.00  0.00    -0.269 OA
BRANCH  30  33
ATOM     33  C   UNL     1      10.361   0.375  -1.510  1.00  0.00     0.039 A 
ATOM     34  C   UNL     1      11.141   0.881  -2.557  1.00  0.00     0.014 A 
ATOM     35  C   UNL     1       9.393  -0.595  -1.766  1.00  0.00     0.014 A 
ATOM     36  C   UNL     1      10.792   0.592  -3.874  1.00  0.00     0.010 A 
ATOM     37  C   UNL     1       8.994  -0.820  -3.070  1.00  0.00     0.010 A 
ATOM     38  C   UNL     1       9.652  -0.173  -4.119  1.00  0.00    -0.014 A 
BRANCH  38  39
ATOM     39  C   UNL     1       9.017  -0.248  -5.428  1.00  0.00     0.031 A 
ATOM     40  C   UNL     1       9.204  -1.425  -6.293  1.00  0.00     0.074 A 
ATOM     41  C   UNL     1       8.240   0.772  -5.851  1.00  0.00     0.049 A 
ATOM     42  N   UNL     1       9.089  -1.400  -7.578  1.00  0.00    -0.248 NA
ATOM     43  C   UNL     1       9.592  -2.729  -5.770  1.00  0.00     0.031 C 
ATOM     44  C   UNL     1       7.352   0.803  -7.010  1.00  0.00     0.029 A 
ATOM     45  N   UNL     1       8.305   2.098  -5.427  1.00  0.00    -0.354 N 
ATOM     46  C   UNL     1       9.119  -2.698  -8.022  1.00  0.00     0.074 A 
ATOM     47  C   UNL     1       9.505  -3.483  -6.870  1.00  0.00     0.031 C 
ATOM     48  C   UNL     1       7.159   2.082  -7.369  1.00  0.00     0.029 A 
ATOM     49  C   UNL     1       8.036   2.902  -6.550  1.00  0.00     0.049 A 
ATOM     50  H   UNL     1       8.501   2.412  -4.515  1.00  0.00     0.167 HD
ATOM     51  C   UNL     1       8.699  -2.990  -9.284  1.00  0.00     0.031 A 
ATOM     52  C   UNL     1       8.984   3.761  -7.027  1.00  0.00     0.031 A 
ATOM     53  C   UNL     1       8.343  -1.796 -10.047  1.00  0.00     0.049 A 
ATOM     54  C   UNL     1       9.449   3.467  -8.441  1.00  0.00     0.074 A 
ATOM     55  C   UNL     1       7.148  -1.199 -10.414  1.00  0.00     0.029 A 
ATOM     56  N   UNL     1       9.334  -0.868 -10.324  1.00  0.00    -0.354 N 
ATOM     57  N   UNL     1       9.080   2.433  -9.144  1.00  0.00    -0.248 NA
ATOM     58  C   UNL     1      10.465   4.270  -9.127  1.00  0.00     0.031 C 
ATOM     59  C   UNL     1       7.437   0.101 -10.919  1.00  0.00     0.029 A 
ATOM     60  C   UNL     1       8.805   0.285 -10.868  1.00  0.00     0.049 A 
ATOM     61  H   UNL     1      10.293  -1.013 -10.154  1.00  0.00     0.167 HD
ATOM     62  C   UNL     1       9.807   2.391 -10.303  1.00  0.00     0.074 A 
ATOM     63  C   UNL     1      10.659   3.563 -10.252  1.00  0.00     0.031 C 
ATOM     64  C   UNL     1       9.703   1.374 -11.203  1.00  0.00     0.031 A 
BRANCH  51  65
ATOM     65  C   UNL     1       8.395  -4.392  -9.744  1.00  0.00    -0.014 A 
ATOM     66  C   UNL     1       7.396  -4.606 -10.711  1.00  0.00     0.009 A 
ATOM     67  C   UNL     1       9.025  -5.542  -9.241  1.00  0.00     0.009 A 
ATOM     68  C   UNL     1       6.979  -5.893 -11.074  1.00  0.00     0.001 A 
ATOM     69  C   UNL     1       8.585  -6.832  -9.565  1.00  0.00     0.001 A 
ATOM     70  C   UNL     1       7.551  -7.007 -10.475  1.00  0.00     0.000 A 
ENDBRANCH  51  65
BRANCH  52  71
ATOM     71  C   UNL     1       9.860   4.325  -5.960  1.00  0.00    -0.014 A 
ATOM     72  C   UNL     1       9.272   5.124  -4.958  1.00  0.00     0.009 A 
ATOM     73  C   UNL     1      11.147   3.815  -5.740  1.00  0.00     0.009 A 
ATOM     74  C   UNL     1       9.903   5.305  -3.725  1.00  0.00     0.001 A 
ATOM     75  C   UNL     1      11.785   4.017  -4.511  1.00  0.00     0.001 A 
ATOM     76  C   UNL     1      11.149   4.728  -3.494  1.00  0.00     0.000 A 
ENDBRANCH  52  71
BRANCH  64  77
ATOM     77  C   UNL     1      10.483   1.317 -12.483  1.00  0.00    -0.014 A 
ATOM     78  C   UNL     1      10.635   2.432 -13.319  1.00  0.00     0.009 A 
ATOM     79  C   UNL     1      10.989   0.086 -12.948  1.00  0.00     0.009 A 
ATOM     80  C   UNL     1      11.310   2.331 -14.541  1.00  0.00     0.001 A 
ATOM     81  C   UNL     1      11.642  -0.022 -14.177  1.00  0.00     0.001 A 
ATOM     82  C   UNL     1      11.812   1.104 -14.970  1.00  0.00     0.000 A 
ENDBRANCH  64  77
ENDBRANCH  38  39
ENDBRANCH  30  33
ENDBRANCH  28  29
ENDBRANCH  27  28
ENDBRANCH  26  27
ENDBRANCH   1  26
TORSDOF 16
