REMARK SMILES O=C(NCCCCCCNC(=O)[C@H]1CC2=c3ccccc3=N[C@H]2[C@@H](c2ccccc2)[NH2+]1)c1ccc(-c2c3nc(c(-c4ccccc4)c4ccc([nH]4)c(-c4ccccc4)c4nc(c(-c5ccccc5)c5ccc2[nH]5)C=C4)C=C3)cc1
REMARK SMILES IDX 6 1 5 2 4 3 3 4 1 5 2 6 32 8 33 9 79 10 34 11 78 12 35 13
REMARK SMILES IDX 36 14 37 15 72 16 38 17 77 18 71 19 73 20 39 21 76 22 70 23
REMARK SMILES IDX 69 24 40 26 62 27 47 28 61 29 48 30 51 31 60 32 74 33 49 34
REMARK SMILES IDX 50 35 59 37 75 38 52 39 41 40 42 41 46 42 43 43 45 44 44 45
REMARK SMILES IDX 63 46 64 47 68 48 65 49 67 50 66 51 53 52 54 53 58 54 55 55
REMARK SMILES IDX 57 56 56 57 7 58 8 59 9 60 10 61 11 62 12 64 13 65 14 66
REMARK SMILES IDX 31 67 15 68 24 69 16 72 23 73 17 74 21 75 22 76 18 77 20 78
REMARK SMILES IDX 19 79 25 80 26 81 30 82 27 83 29 84 28 85
REMARK H PARENT 3 7 73 25 51 36 10 63 31 70 31 71
REMARK Flexibility Score: inf
ROOT
ATOM      1  C   UNL     1       4.248  -3.249  -2.314  1.00  0.00     0.002 C 
ENDROOT
BRANCH   1   2
ATOM      2  C   UNL     1       4.702  -2.654  -0.980  1.00  0.00     0.021 C 
BRANCH   2   3
ATOM      3  C   UNL     1       4.500  -1.150  -0.837  1.00  0.00     0.116 C 
BRANCH   3   4
ATOM      4  N   UNL     1       3.103  -0.768  -0.904  1.00  0.00    -0.352 N 
ATOM      5  O   UNL     1       1.149   0.090  -0.202  1.00  0.00    -0.269 OA
ATOM      6  C   UNL     1       2.364   0.010  -0.051  1.00  0.00     0.251 C 
ATOM      7  H   UNL     1       2.611  -1.120  -1.681  1.00  0.00     0.163 HD
BRANCH   6   8
ATOM      8  C   UNL     1       3.013   0.749   1.058  1.00  0.00     0.039 A 
ATOM      9  C   UNL     1       2.336   0.842   2.278  1.00  0.00     0.014 A 
ATOM     10  C   UNL     1       4.234   1.410   0.890  1.00  0.00     0.014 A 
ATOM     11  C   UNL     1       2.881   1.590   3.323  1.00  0.00     0.010 A 
ATOM     12  C   UNL     1       4.817   2.087   1.960  1.00  0.00     0.010 A 
ATOM     13  C   UNL     1       4.126   2.220   3.173  1.00  0.00    -0.014 A 
BRANCH  13  14
ATOM     14  C   UNL     1       4.661   3.104   4.239  1.00  0.00     0.031 A 
ATOM     15  C   UNL     1       4.786   4.585   3.987  1.00  0.00     0.074 A 
ATOM     16  C   UNL     1       5.022   2.590   5.431  1.00  0.00     0.049 A 
ATOM     17  N   UNL     1       5.207   5.526   4.793  1.00  0.00    -0.248 NA
ATOM     18  C   UNL     1       4.408   5.072   2.649  1.00  0.00     0.031 C 
ATOM     19  C   UNL     1       4.963   1.174   5.795  1.00  0.00     0.029 A 
ATOM     20  N   UNL     1       5.490   3.207   6.565  1.00  0.00    -0.354 N 
ATOM     21  C   UNL     1       5.160   6.703   4.056  1.00  0.00     0.074 A 
ATOM     22  C   UNL     1       4.724   6.356   2.724  1.00  0.00     0.031 C 
ATOM     23  C   UNL     1       5.327   1.037   7.081  1.00  0.00     0.029 A 
ATOM     24  C   UNL     1       5.674   2.349   7.623  1.00  0.00     0.049 A 
ATOM     25  H   UNL     1       5.675   4.173   6.616  1.00  0.00     0.167 HD
ATOM     26  C   UNL     1       5.424   7.967   4.460  1.00  0.00     0.031 A 
ATOM     27  C   UNL     1       6.058   2.593   8.891  1.00  0.00     0.031 A 
ATOM     28  C   UNL     1       5.815   8.322   5.796  1.00  0.00     0.049 A 
ATOM     29  C   UNL     1       6.335   4.009   9.319  1.00  0.00     0.074 A 
ATOM     30  C   UNL     1       6.067   9.581   6.311  1.00  0.00     0.029 A 
ATOM     31  N   UNL     1       5.992   7.419   6.831  1.00  0.00    -0.354 N 
ATOM     32  N   UNL     1       6.248   5.114   8.618  1.00  0.00    -0.248 NA
ATOM     33  C   UNL     1       6.741   4.214  10.717  1.00  0.00     0.031 C 
ATOM     34  C   UNL     1       6.438   9.437   7.649  1.00  0.00     0.029 A 
ATOM     35  C   UNL     1       6.356   8.094   7.982  1.00  0.00     0.049 A 
ATOM     36  H   UNL     1       5.876   6.444   6.759  1.00  0.00     0.167 HD
ATOM     37  C   UNL     1       6.548   6.146   9.499  1.00  0.00     0.074 A 
ATOM     38  C   UNL     1       6.814   5.537  10.786  1.00  0.00     0.031 C 
ATOM     39  C   UNL     1       6.593   7.479   9.261  1.00  0.00     0.031 A 
BRANCH  26  40
ATOM     40  C   UNL     1       5.284   9.074   3.452  1.00  0.00    -0.014 A 
ATOM     41  C   UNL     1       6.422   9.768   3.013  1.00  0.00     0.009 A 
ATOM     42  C   UNL     1       4.019   9.488   3.004  1.00  0.00     0.009 A 
ATOM     43  C   UNL     1       6.297  10.862   2.155  1.00  0.00     0.001 A 
ATOM     44  C   UNL     1       3.900  10.564   2.123  1.00  0.00     0.001 A 
ATOM     45  C   UNL     1       5.037  11.256   1.707  1.00  0.00     0.000 A 
ENDBRANCH  26  40
BRANCH  27  46
ATOM     46  C   UNL     1       6.131   1.475   9.869  1.00  0.00    -0.014 A 
ATOM     47  C   UNL     1       7.129   0.493   9.770  1.00  0.00     0.009 A 
ATOM     48  C   UNL     1       5.183   1.375  10.899  1.00  0.00     0.009 A 
ATOM     49  C   UNL     1       7.169  -0.571  10.674  1.00  0.00     0.001 A 
ATOM     50  C   UNL     1       5.242   0.325  11.819  1.00  0.00     0.001 A 
ATOM     51  C   UNL     1       6.230  -0.650  11.701  1.00  0.00     0.000 A 
ENDBRANCH  27  46
BRANCH  39  52
ATOM     52  C   UNL     1       6.891   8.395  10.414  1.00  0.00    -0.014 A 
ATOM     53  C   UNL     1       5.883   9.249  10.893  1.00  0.00     0.009 A 
ATOM     54  C   UNL     1       8.182   8.499  10.949  1.00  0.00     0.009 A 
ATOM     55  C   UNL     1       6.166  10.199  11.875  1.00  0.00     0.001 A 
ATOM     56  C   UNL     1       8.456   9.432  11.952  1.00  0.00     0.001 A 
ATOM     57  C   UNL     1       7.451  10.286  12.406  1.00  0.00     0.000 A 
ENDBRANCH  39  52
ENDBRANCH  13  14
ENDBRANCH   6   8
ENDBRANCH   3   4
ENDBRANCH   2   3
ENDBRANCH   1   2
BRANCH   1  58
ATOM     58  C   UNL     1       4.834  -2.591  -3.568  1.00  0.00     0.002 C 
BRANCH  58  59
ATOM     59  C   UNL     1       6.358  -2.430  -3.579  1.00  0.00     0.021 C 
BRANCH  59  60
ATOM     60  C   UNL     1       7.135  -3.731  -3.406  1.00  0.00     0.116 C 
BRANCH  60  61
ATOM     61  N   UNL     1       7.015  -4.576  -4.575  1.00  0.00    -0.351 N 
ATOM     62  C   UNL     1       7.974  -5.147  -5.361  1.00  0.00     0.278 C 
ATOM     63  H   UNL     1       6.089  -4.771  -4.849  1.00  0.00     0.163 HD
ATOM     64  O   UNL     1       7.600  -5.765  -6.361  1.00  0.00    -0.268 OA
BRANCH  62  65
ATOM     65  C   UNL     1       9.473  -5.005  -5.028  1.00  0.00     0.277 C 
ATOM     66  C   UNL     1       9.951  -3.547  -5.212  1.00  0.00     0.109 C 
ATOM     67  N   UNL     1       9.751  -5.630  -3.712  1.00  0.00    -0.327 N 
ATOM     68  C   UNL     1      10.934  -3.170  -4.155  1.00  0.00    -0.024 C 
ATOM     69  C   UNL     1      11.192  -5.587  -3.344  1.00  0.00     0.243 C 
ATOM     70  H   UNL     1       9.452  -6.604  -3.745  1.00  0.00     0.347 HD
ATOM     71  H   UNL     1       9.239  -5.099  -3.007  1.00  0.00     0.347 HD
ATOM     72  C   UNL     1      11.055  -2.051  -3.450  1.00  0.00     0.002 A 
ATOM     73  C   UNL     1      11.911  -4.222  -3.697  1.00  0.00     0.196 C 
ATOM     74  C   UNL     1      10.402  -0.783  -3.426  1.00  0.00     0.010 A 
ATOM     75  C   UNL     1      12.134  -2.390  -2.509  1.00  0.00     0.066 A 
ATOM     76  N   UNL     1      12.667  -3.570  -2.595  1.00  0.00    -0.270 NA
ATOM     77  C   UNL     1      10.777   0.114  -2.498  1.00  0.00     0.001 A 
ATOM     78  C   UNL     1      12.483  -1.355  -1.512  1.00  0.00     0.028 A 
ATOM     79  C   UNL     1      11.815  -0.189  -1.525  1.00  0.00     0.002 A 
BRANCH  69  80
ATOM     80  C   UNL     1      11.331  -6.228  -1.961  1.00  0.00     0.012 A 
ATOM     81  C   UNL     1      11.484  -5.516  -0.764  1.00  0.00     0.010 A 
ATOM     82  C   UNL     1      11.221  -7.630  -1.867  1.00  0.00     0.010 A 
ATOM     83  C   UNL     1      11.620  -6.177   0.462  1.00  0.00     0.001 A 
ATOM     84  C   UNL     1      11.329  -8.292  -0.641  1.00  0.00     0.001 A 
ATOM     85  C   UNL     1      11.549  -7.565   0.523  1.00  0.00     0.000 A 
ENDBRANCH  69  80
ENDBRANCH  62  65
ENDBRANCH  60  61
ENDBRANCH  59  60
ENDBRANCH  58  59
ENDBRANCH   1  58
TORSDOF 14
