REMARK SMILES Cc1ccc(-c2cc(OCC(=O)NCCCCCCNC(=O)c3ccc(-c4c5nc(c(-c6ccccc6)c6ccc([nH]6)c(-c6ccccc6)c6nc(c(-c7ccccc7)c7ccc4[nH]7)C=C6)C=C5)cc3)nc(NCc3ccc4c(c3)OCO4)n2)cc1
REMARK SMILES IDX 15 1 14 2 13 3 11 4 12 5 10 7 9 8 8 9 6 10 7 11 84 12 72 13
REMARK SMILES IDX 71 14 5 15 1 16 2 17 3 18 86 19 4 20 85 21 73 22 74 24 75 25
REMARK SMILES IDX 76 26 80 27 77 28 79 29 78 30 81 31 83 32 82 33 16 34 17 35
REMARK SMILES IDX 18 36 19 37 20 38 21 39 22 41 23 42 24 43 70 44 25 45 69 46
REMARK SMILES IDX 26 47 27 48 28 49 63 50 29 51 68 52 62 53 64 54 30 55 67 56
REMARK SMILES IDX 61 57 60 58 31 60 53 61 38 62 52 63 39 64 42 65 51 66 65 67
REMARK SMILES IDX 40 68 41 69 50 71 66 72 43 73 32 74 33 75 37 76 34 77 36 78
REMARK SMILES IDX 35 79 54 80 55 81 59 82 56 83 58 84 57 85 44 86 45 87 49 88
REMARK SMILES IDX 46 89 48 90 47 91
REMARK H PARENT 13 6 73 23 20 40 64 59 42 70
REMARK Flexibility Score: inf
ROOT
ATOM      1  C   UNL     1      -6.704   4.281  -0.325  1.00  0.00     0.021 C 
ENDROOT
BRANCH   1   2
ATOM      2  C   UNL     1      -6.519   4.089  -1.829  1.00  0.00     0.116 C 
BRANCH   2   3
ATOM      3  N   UNL     1      -5.129   3.955  -2.210  1.00  0.00    -0.353 N 
ATOM      4  C   UNL     1      -4.519   2.904  -2.827  1.00  0.00     0.258 C 
ATOM      5  O   UNL     1      -3.329   3.001  -3.130  1.00  0.00    -0.271 OA
ATOM      6  H   UNL     1      -4.550   4.722  -1.995  1.00  0.00     0.163 HD
BRANCH   4   7
ATOM      7  C   UNL     1      -5.322   1.637  -3.144  1.00  0.00     0.331 C 
BRANCH   7   8
ATOM      8  O   UNL     1      -5.947   0.995  -2.046  1.00  0.00    -0.467 OA
BRANCH   8   9
ATOM      9  C   UNL     1      -5.147   0.524  -1.044  1.00  0.00     0.219 A 
ATOM     10  C   UNL     1      -3.158  -0.061   0.023  1.00  0.00     0.080 A 
ATOM     11  C   UNL     1      -3.787   0.388  -1.118  1.00  0.00     0.097 A 
ATOM     12  N   UNL     1      -3.833  -0.428   1.129  1.00  0.00    -0.213 NA
ATOM     13  C   UNL     1      -5.161  -0.273   1.107  1.00  0.00     0.226 A 
ATOM     14  N   UNL     1      -5.841   0.210   0.060  1.00  0.00    -0.177 NA
BRANCH  10  15
ATOM     15  C   UNL     1      -1.695  -0.083   0.097  1.00  0.00     0.000 A 
ATOM     16  C   UNL     1       2.631  -0.088   0.037  1.00  0.00     0.044 C 
ATOM     17  C   UNL     1       1.132  -0.079   0.081  1.00  0.00    -0.051 A 
ATOM     18  C   UNL     1       0.420  -1.282   0.160  1.00  0.00     0.004 A 
ATOM     19  C   UNL     1       0.425   1.125   0.022  1.00  0.00     0.004 A 
ATOM     20  C   UNL     1      -0.980  -1.284   0.176  1.00  0.00     0.010 A 
ATOM     21  C   UNL     1      -0.971   1.121   0.030  1.00  0.00     0.010 A 
ENDBRANCH  10  15
BRANCH  13  22
ATOM     22  N   UNL     1      -5.924  -0.586   2.199  1.00  0.00    -0.350 N 
ATOM     23  H   UNL     1      -6.789  -0.131   2.324  1.00  0.00     0.164 HD
BRANCH  22  24
ATOM     24  C   UNL     1      -5.499  -1.560   3.170  1.00  0.00     0.152 C 
BRANCH  24  25
ATOM     25  C   UNL     1      -5.836  -2.988   2.772  1.00  0.00    -0.025 A 
ATOM     26  C   UNL     1      -5.247  -4.049   3.505  1.00  0.00     0.009 A 
ATOM     27  C   UNL     1      -6.721  -3.299   1.723  1.00  0.00     0.056 A 
ATOM     28  C   UNL     1      -5.493  -5.388   3.176  1.00  0.00     0.051 A 
ATOM     29  C   UNL     1      -6.926  -4.626   1.407  1.00  0.00     0.166 A 
ATOM     30  C   UNL     1      -6.323  -5.641   2.109  1.00  0.00     0.165 A 
ATOM     31  O   UNL     1      -7.699  -5.087   0.387  1.00  0.00    -0.454 OA
ATOM     32  O   UNL     1      -6.636  -6.869   1.612  1.00  0.00    -0.454 OA
ATOM     33  C   UNL     1      -7.389  -6.494   0.440  1.00  0.00     0.468 C 
ENDBRANCH  24  25
ENDBRANCH  22  24
ENDBRANCH  13  22
ENDBRANCH   8   9
ENDBRANCH   7   8
ENDBRANCH   4   7
ENDBRANCH   2   3
ENDBRANCH   1   2
BRANCH   1  34
ATOM     34  C   UNL     1      -6.013   5.506   0.291  1.00  0.00     0.002 C 
BRANCH  34  35
ATOM     35  C   UNL     1      -6.225   6.861  -0.402  1.00  0.00     0.002 C 
BRANCH  35  36
ATOM     36  C   UNL     1      -7.663   7.238  -0.762  1.00  0.00     0.021 C 
BRANCH  36  37
ATOM     37  C   UNL     1      -8.600   7.398   0.425  1.00  0.00     0.116 C 
BRANCH  37  38
ATOM     38  N   UNL     1      -8.768   8.766   0.890  1.00  0.00    -0.352 N 
ATOM     39  C   UNL     1      -9.485   9.251   1.974  1.00  0.00     0.251 C 
ATOM     40  H   UNL     1      -8.303   9.450   0.355  1.00  0.00     0.163 HD
ATOM     41  O   UNL     1      -9.571  10.453   2.153  1.00  0.00    -0.269 OA
BRANCH  39  42
ATOM     42  C   UNL     1     -10.016   8.307   2.996  1.00  0.00     0.039 A 
ATOM     43  C   UNL     1      -9.864   8.665   4.342  1.00  0.00     0.014 A 
ATOM     44  C   UNL     1     -10.437   7.024   2.666  1.00  0.00     0.014 A 
ATOM     45  C   UNL     1      -9.857   7.672   5.318  1.00  0.00     0.010 A 
ATOM     46  C   UNL     1     -10.321   6.023   3.606  1.00  0.00     0.010 A 
ATOM     47  C   UNL     1      -9.956   6.343   4.915  1.00  0.00    -0.014 A 
BRANCH  47  48
ATOM     48  C   UNL     1      -9.574   5.218   5.754  1.00  0.00     0.031 A 
ATOM     49  C   UNL     1     -10.602   4.356   6.357  1.00  0.00     0.074 A 
ATOM     50  C   UNL     1      -8.265   4.916   5.886  1.00  0.00     0.049 A 
ATOM     51  N   UNL     1     -10.409   3.607   7.389  1.00  0.00    -0.248 NA
ATOM     52  C   UNL     1     -11.977   4.329   5.872  1.00  0.00     0.031 C 
ATOM     53  C   UNL     1      -7.676   3.684   6.401  1.00  0.00     0.029 A 
ATOM     54  N   UNL     1      -7.187   5.787   5.765  1.00  0.00    -0.354 N 
ATOM     55  C   UNL     1     -11.501   2.779   7.501  1.00  0.00     0.074 A 
ATOM     56  C   UNL     1     -12.494   3.354   6.625  1.00  0.00     0.031 C 
ATOM     57  C   UNL     1      -6.409   3.931   6.773  1.00  0.00     0.029 A 
ATOM     58  C   UNL     1      -6.195   5.365   6.662  1.00  0.00     0.049 A 
ATOM     59  H   UNL     1      -7.131   6.561   5.159  1.00  0.00     0.167 HD
ATOM     60  C   UNL     1     -11.379   1.609   8.191  1.00  0.00     0.031 A 
ATOM     61  C   UNL     1      -5.813   6.170   7.698  1.00  0.00     0.031 A 
ATOM     62  C   UNL     1     -10.089   1.525   8.882  1.00  0.00     0.049 A 
ATOM     63  C   UNL     1      -6.122   5.591   9.063  1.00  0.00     0.074 A 
ATOM     64  C   UNL     1      -8.915   0.841   8.610  1.00  0.00     0.029 A 
ATOM     65  N   UNL     1      -9.781   2.458   9.868  1.00  0.00    -0.354 N 
ATOM     66  N   UNL     1      -6.962   4.615   9.269  1.00  0.00    -0.248 NA
ATOM     67  C   UNL     1      -5.535   6.089  10.306  1.00  0.00     0.031 C 
ATOM     68  C   UNL     1      -7.875   1.437   9.372  1.00  0.00     0.029 A 
ATOM     69  C   UNL     1      -8.425   2.453  10.134  1.00  0.00     0.049 A 
ATOM     70  H   UNL     1     -10.437   3.039  10.315  1.00  0.00     0.167 HD
ATOM     71  C   UNL     1      -7.041   4.349  10.609  1.00  0.00     0.074 A 
ATOM     72  C   UNL     1      -6.121   5.293  11.219  1.00  0.00     0.031 C 
ATOM     73  C   UNL     1      -7.862   3.380  11.108  1.00  0.00     0.031 A 
BRANCH  60  74
ATOM     74  C   UNL     1     -12.293   0.417   7.990  1.00  0.00    -0.014 A 
ATOM     75  C   UNL     1     -11.845  -0.868   8.352  1.00  0.00     0.009 A 
ATOM     76  C   UNL     1     -13.557   0.463   7.376  1.00  0.00     0.009 A 
ATOM     77  C   UNL     1     -12.570  -2.029   8.041  1.00  0.00     0.001 A 
ATOM     78  C   UNL     1     -14.279  -0.691   7.041  1.00  0.00     0.001 A 
ATOM     79  C   UNL     1     -13.778  -1.941   7.363  1.00  0.00     0.000 A 
ENDBRANCH  60  74
BRANCH  61  80
ATOM     80  C   UNL     1      -5.855   7.622   7.361  1.00  0.00    -0.014 A 
ATOM     81  C   UNL     1      -4.932   8.109   6.415  1.00  0.00     0.009 A 
ATOM     82  C   UNL     1      -6.994   8.391   7.643  1.00  0.00     0.009 A 
ATOM     83  C   UNL     1      -5.203   9.268   5.679  1.00  0.00     0.001 A 
ATOM     84  C   UNL     1      -7.255   9.558   6.911  1.00  0.00     0.001 A 
ATOM     85  C   UNL     1      -6.381   9.973   5.906  1.00  0.00     0.000 A 
ENDBRANCH  61  80
BRANCH  73  86
ATOM     86  C   UNL     1      -8.170   3.156  12.566  1.00  0.00    -0.014 A 
ATOM     87  C   UNL     1      -8.110   4.156  13.545  1.00  0.00     0.009 A 
ATOM     88  C   UNL     1      -8.687   1.903  12.967  1.00  0.00     0.009 A 
ATOM     89  C   UNL     1      -8.502   3.904  14.867  1.00  0.00     0.001 A 
ATOM     90  C   UNL     1      -9.120   1.661  14.272  1.00  0.00     0.001 A 
ATOM     91  C   UNL     1      -9.016   2.662  15.227  1.00  0.00     0.000 A 
ENDBRANCH  73  86
ENDBRANCH  47  48
ENDBRANCH  39  42
ENDBRANCH  37  38
ENDBRANCH  36  37
ENDBRANCH  35  36
ENDBRANCH  34  35
ENDBRANCH   1  34
TORSDOF 19
