REMARK SMILES O=C(NCCCCCCNC(=O)c1ccc(NC(=O)N2CCOCC2)c([N+](=O)[O-])c1)c1ccc(-c2c3nc(c(-c4ccccc4)c4ccc([nH]4)c(-c4ccccc4)c4nc(c(-c5ccccc5)c5ccc2[nH]5)C=C4)C=C3)cc1
REMARK SMILES IDX 6 1 5 2 4 3 3 4 1 5 2 6 31 8 32 9 78 10 33 11 77 12 34 13
REMARK SMILES IDX 35 14 36 15 71 16 37 17 76 18 70 19 72 20 38 21 75 22 69 23
REMARK SMILES IDX 68 24 39 26 61 27 46 28 60 29 47 30 50 31 59 32 73 33 48 34
REMARK SMILES IDX 49 35 58 37 74 38 51 39 40 40 41 41 45 42 42 43 44 44 43 45
REMARK SMILES IDX 62 46 63 47 67 48 64 49 66 50 65 51 52 52 53 53 57 54 54 55
REMARK SMILES IDX 56 56 55 57 7 58 8 59 9 60 10 61 11 62 12 64 13 65 14 66
REMARK SMILES IDX 30 67 15 68 26 69 16 70 27 71 28 72 29 73 17 74 18 75 19 77
REMARK SMILES IDX 20 78 21 79 25 80 22 81 24 82 23 83
REMARK H PARENT 3 7 72 25 50 36 10 63 17 76
REMARK Flexibility Score: inf
ROOT
ATOM      1  C   UNL     1       4.302  -2.751   2.653  1.00  0.00     0.002 C 
ENDROOT
BRANCH   1   2
ATOM      2  C   UNL     1       4.778  -1.368   2.209  1.00  0.00     0.021 C 
BRANCH   2   3
ATOM      3  C   UNL     1       4.535  -1.037   0.741  1.00  0.00     0.116 C 
BRANCH   3   4
ATOM      4  N   UNL     1       3.122  -1.024   0.399  1.00  0.00    -0.352 N 
ATOM      5  O   UNL     1       1.153  -0.129  -0.245  1.00  0.00    -0.269 OA
ATOM      6  C   UNL     1       2.378  -0.025  -0.172  1.00  0.00     0.251 C 
ATOM      7  H   UNL     1       2.630  -1.851   0.607  1.00  0.00     0.163 HD
BRANCH   6   8
ATOM      8  C   UNL     1       3.041   1.193  -0.682  1.00  0.00     0.039 A 
ATOM      9  C   UNL     1       4.187   1.106  -1.478  1.00  0.00     0.014 A 
ATOM     10  C   UNL     1       2.495   2.440  -0.369  1.00  0.00     0.014 A 
ATOM     11  C   UNL     1       4.855   2.265  -1.859  1.00  0.00     0.010 A 
ATOM     12  C   UNL     1       3.127   3.603  -0.811  1.00  0.00     0.010 A 
ATOM     13  C   UNL     1       4.327   3.525  -1.537  1.00  0.00    -0.014 A 
BRANCH  13  14
ATOM     14  C   UNL     1       5.005   4.758  -2.005  1.00  0.00     0.031 A 
ATOM     15  C   UNL     1       5.612   5.723  -1.026  1.00  0.00     0.074 A 
ATOM     16  C   UNL     1       5.057   5.013  -3.325  1.00  0.00     0.049 A 
ATOM     17  N   UNL     1       6.194   6.873  -1.256  1.00  0.00    -0.248 NA
ATOM     18  C   UNL     1       5.551   5.353   0.396  1.00  0.00     0.031 C 
ATOM     19  C   UNL     1       4.508   4.151  -4.374  1.00  0.00     0.029 A 
ATOM     20  N   UNL     1       5.596   6.072  -4.011  1.00  0.00    -0.354 N 
ATOM     21  C   UNL     1       6.547   7.375  -0.011  1.00  0.00     0.074 A 
ATOM     22  C   UNL     1       6.096   6.415   0.974  1.00  0.00     0.031 C 
ATOM     23  C   UNL     1       4.757   4.704  -5.571  1.00  0.00     0.029 A 
ATOM     24  C   UNL     1       5.427   5.984  -5.370  1.00  0.00     0.049 A 
ATOM     25  H   UNL     1       6.058   6.822  -3.571  1.00  0.00     0.167 HD
ATOM     26  C   UNL     1       7.189   8.532   0.285  1.00  0.00     0.031 A 
ATOM     27  C   UNL     1       5.750   6.848  -6.350  1.00  0.00     0.031 A 
ATOM     28  C   UNL     1       7.630   9.488  -0.697  1.00  0.00     0.049 A 
ATOM     29  C   UNL     1       6.421   8.141  -5.994  1.00  0.00     0.074 A 
ATOM     30  C   UNL     1       8.316  10.674  -0.499  1.00  0.00     0.029 A 
ATOM     31  N   UNL     1       7.422   9.370  -2.063  1.00  0.00    -0.354 N 
ATOM     32  N   UNL     1       6.774   8.589  -4.814  1.00  0.00    -0.248 NA
ATOM     33  C   UNL     1       6.740   9.047  -7.106  1.00  0.00     0.031 C 
ATOM     34  C   UNL     1       8.477  11.299  -1.740  1.00  0.00     0.029 A 
ATOM     35  C   UNL     1       7.944  10.474  -2.717  1.00  0.00     0.049 A 
ATOM     36  H   UNL     1       6.971   8.614  -2.503  1.00  0.00     0.167 HD
ATOM     37  C   UNL     1       7.378   9.817  -5.041  1.00  0.00     0.074 A 
ATOM     38  C   UNL     1       7.353  10.038  -6.473  1.00  0.00     0.031 C 
ATOM     39  C   UNL     1       7.909  10.681  -4.143  1.00  0.00     0.031 A 
BRANCH  26  40
ATOM     40  C   UNL     1       7.417   8.843   1.738  1.00  0.00    -0.014 A 
ATOM     41  C   UNL     1       8.353   8.129   2.503  1.00  0.00     0.009 A 
ATOM     42  C   UNL     1       6.702   9.888   2.346  1.00  0.00     0.009 A 
ATOM     43  C   UNL     1       8.539   8.428   3.855  1.00  0.00     0.001 A 
ATOM     44  C   UNL     1       6.909  10.203   3.690  1.00  0.00     0.001 A 
ATOM     45  C   UNL     1       7.819   9.466   4.446  1.00  0.00     0.000 A 
ENDBRANCH  26  40
BRANCH  27  46
ATOM     46  C   UNL     1       5.425   6.509  -7.758  1.00  0.00    -0.014 A 
ATOM     47  C   UNL     1       6.440   6.161  -8.661  1.00  0.00     0.009 A 
ATOM     48  C   UNL     1       4.090   6.497  -8.195  1.00  0.00     0.009 A 
ATOM     49  C   UNL     1       6.125   5.819  -9.978  1.00  0.00     0.001 A 
ATOM     50  C   UNL     1       3.777   6.127  -9.504  1.00  0.00     0.001 A 
ATOM     51  C   UNL     1       4.795   5.795 -10.396  1.00  0.00     0.000 A 
ENDBRANCH  27  46
BRANCH  39  52
ATOM     52  C   UNL     1       8.544  11.929  -4.686  1.00  0.00    -0.014 A 
ATOM     53  C   UNL     1       7.768  12.988  -5.181  1.00  0.00     0.009 A 
ATOM     54  C   UNL     1       9.941  12.062  -4.660  1.00  0.00     0.009 A 
ATOM     55  C   UNL     1       8.382  14.144  -5.667  1.00  0.00     0.001 A 
ATOM     56  C   UNL     1      10.550  13.229  -5.121  1.00  0.00     0.001 A 
ATOM     57  C   UNL     1       9.771  14.266  -5.631  1.00  0.00     0.000 A 
ENDBRANCH  39  52
ENDBRANCH  13  14
ENDBRANCH   6   8
ENDBRANCH   3   4
ENDBRANCH   2   3
ENDBRANCH   1   2
BRANCH   1  58
ATOM     58  C   UNL     1       4.829  -3.929   1.831  1.00  0.00     0.002 C 
BRANCH  58  59
ATOM     59  C   UNL     1       6.351  -4.024   1.697  1.00  0.00     0.021 C 
BRANCH  59  60
ATOM     60  C   UNL     1       7.139  -3.985   3.005  1.00  0.00     0.116 C 
BRANCH  60  61
ATOM     61  N   UNL     1       6.739  -5.017   3.947  1.00  0.00    -0.352 N 
ATOM     62  C   UNL     1       7.494  -5.828   4.753  1.00  0.00     0.251 C 
ATOM     63  H   UNL     1       5.767  -5.156   4.017  1.00  0.00     0.163 HD
ATOM     64  O   UNL     1       6.949  -6.707   5.419  1.00  0.00    -0.269 OA
BRANCH  62  65
ATOM     65  C   UNL     1       8.968  -5.704   4.788  1.00  0.00     0.046 A 
ATOM     66  C   UNL     1       9.726  -6.871   4.815  1.00  0.00     0.016 A 
ATOM     67  C   UNL     1       9.616  -4.471   4.824  1.00  0.00     0.101 A 
ATOM     68  C   UNL     1      11.117  -6.803   4.718  1.00  0.00     0.034 A 
ATOM     69  C   UNL     1      11.014  -4.409   4.667  1.00  0.00     0.293 A 
ATOM     70  C   UNL     1      11.775  -5.588   4.505  1.00  0.00     0.121 A 
BRANCH  69  71
ATOM     71  N   UNL     1      11.631  -3.073   4.666  1.00  0.00     0.065 N 
ATOM     72  O   UNL     1      12.866  -2.995   4.624  1.00  0.00    -0.258 OA
ATOM     73  O   UNL     1      10.874  -2.092   4.710  1.00  0.00    -0.258 OA
ENDBRANCH  69  71
BRANCH  70  74
ATOM     74  N   UNL     1      13.145  -5.552   4.157  1.00  0.00    -0.302 N 
ATOM     75  C   UNL     1      14.054  -6.507   3.822  1.00  0.00     0.322 C 
ATOM     76  H   UNL     1      13.521  -4.642   4.158  1.00  0.00     0.172 HD
ATOM     77  O   UNL     1      15.247  -6.236   3.969  1.00  0.00    -0.248 OA
ATOM     78  N   UNL     1      13.652  -7.730   3.358  1.00  0.00    -0.320 N 
ATOM     79  C   UNL     1      12.692  -7.932   2.264  1.00  0.00     0.150 C 
ATOM     80  C   UNL     1      14.559  -8.861   3.538  1.00  0.00     0.150 C 
ATOM     81  C   UNL     1      11.973  -9.286   2.397  1.00  0.00     0.181 C 
ATOM     82  C   UNL     1      13.748 -10.145   3.715  1.00  0.00     0.181 C 
ATOM     83  O   UNL     1      12.901 -10.369   2.575  1.00  0.00    -0.378 OA
ENDBRANCH  70  74
ENDBRANCH  62  65
ENDBRANCH  60  61
ENDBRANCH  59  60
ENDBRANCH  58  59
ENDBRANCH   1  58
TORSDOF 15
