REMARK SMILES Cc1cccc(Cl)c1Nc1ccccc1CC(=O)NCCCCCCNC(=O)c1ccc(-c2c3nc(c(-c4ccccc4)c4ccc([nH]4)c(-c4ccccc4)c4nc(c(-c5ccccc5)c5ccc2[nH]5)C=C4)C=C3)cc1
REMARK SMILES IDX 22 1 21 2 20 3 19 4 17 5 18 6 16 8 15 9 10 10 11 11 12 12
REMARK SMILES IDX 14 13 13 14 9 15 8 17 1 18 2 19 3 20 4 21 6 22 5 23 7 24
REMARK SMILES IDX 23 25 24 26 25 27 26 28 27 29 28 31 29 32 30 33 76 34 31 35
REMARK SMILES IDX 75 36 32 37 33 38 34 39 69 40 35 41 74 42 68 43 70 44 36 45
REMARK SMILES IDX 73 46 67 47 66 48 37 50 59 51 44 52 58 53 45 54 48 55 57 56
REMARK SMILES IDX 71 57 46 58 47 59 56 61 72 62 49 63 38 64 39 65 43 66 40 67
REMARK SMILES IDX 42 68 41 69 60 70 61 71 65 72 62 73 64 74 63 75 50 76 51 77
REMARK SMILES IDX 55 78 52 79 54 80 53 81
REMARK H PARENT 19 7 9 16 26 30 70 49 48 60
REMARK Flexibility Score: inf
ROOT
ATOM      1  C   UNL     1       0.650   6.105  -3.638  1.00  0.00     0.002 C 
ENDROOT
BRANCH   1   2
ATOM      2  C   UNL     1       0.693   5.116  -2.466  1.00  0.00     0.021 C 
BRANCH   2   3
ATOM      3  C   UNL     1       0.127   3.737  -2.809  1.00  0.00     0.116 C 
BRANCH   3   4
ATOM      4  N   UNL     1       1.013   3.024  -3.706  1.00  0.00    -0.356 N 
ATOM      5  C   UNL     1       1.896   2.026  -3.404  1.00  0.00     0.224 C 
ATOM      6  O   UNL     1       2.678   1.649  -4.279  1.00  0.00    -0.275 OA
ATOM      7  H   UNL     1       0.974   3.292  -4.653  1.00  0.00     0.163 HD
BRANCH   5   8
ATOM      8  C   UNL     1       1.850   1.368  -2.035  1.00  0.00     0.137 C 
BRANCH   8   9
ATOM      9  C   UNL     1       2.353   2.236  -0.898  1.00  0.00    -0.015 A 
ATOM     10  C   UNL     1       1.589   2.520   0.256  1.00  0.00     0.042 A 
ATOM     11  C   UNL     1       2.116   3.413   1.209  1.00  0.00     0.026 A 
ATOM     12  C   UNL     1       3.377   3.988   1.052  1.00  0.00     0.002 A 
ATOM     13  C   UNL     1       3.638   2.804  -1.026  1.00  0.00     0.006 A 
ATOM     14  C   UNL     1       4.144   3.673  -0.062  1.00  0.00     0.000 A 
BRANCH  10  15
ATOM     15  N   UNL     1       0.341   1.935   0.558  1.00  0.00    -0.354 N 
ATOM     16  H   UNL     1      -0.317   2.571   0.922  1.00  0.00     0.167 HD
BRANCH  15  17
ATOM     17  C   UNL     1      -0.151   0.612   0.442  1.00  0.00     0.060 A 
ATOM     18  C   UNL     1      -2.470   1.604   0.003  1.00  0.00     0.046 C 
ATOM     19  C   UNL     1      -1.528   0.434   0.140  1.00  0.00    -0.026 A 
ATOM     20  C   UNL     1      -2.041  -0.857  -0.082  1.00  0.00     0.005 A 
ATOM     21  C   UNL     1      -1.219  -1.975   0.001  1.00  0.00     0.002 A 
ATOM     22  C   UNL     1       0.656  -0.545   0.553  1.00  0.00     0.064 A 
ATOM     23  C   UNL     1       0.123  -1.820   0.325  1.00  0.00     0.023 A 
ATOM     24  Cl  UNL     1       2.306  -0.501   1.078  1.00  0.00    -0.082 Cl
ENDBRANCH  15  17
ENDBRANCH  10  15
ENDBRANCH   8   9
ENDBRANCH   5   8
ENDBRANCH   3   4
ENDBRANCH   2   3
ENDBRANCH   1   2
BRANCH   1  25
ATOM     25  C   UNL     1      -0.751   6.381  -4.195  1.00  0.00     0.002 C 
BRANCH  25  26
ATOM     26  C   UNL     1      -1.766   6.886  -3.166  1.00  0.00     0.021 C 
BRANCH  26  27
ATOM     27  C   UNL     1      -1.382   8.199  -2.491  1.00  0.00     0.116 C 
BRANCH  27  28
ATOM     28  N   UNL     1      -1.285   9.292  -3.446  1.00  0.00    -0.352 N 
ATOM     29  C   UNL     1      -1.894  10.518  -3.433  1.00  0.00     0.251 C 
ATOM     30  H   UNL     1      -0.694   9.126  -4.215  1.00  0.00     0.163 HD
ATOM     31  O   UNL     1      -1.858  11.234  -4.434  1.00  0.00    -0.269 OA
BRANCH  29  32
ATOM     32  C   UNL     1      -2.608  10.984  -2.227  1.00  0.00     0.039 A 
ATOM     33  C   UNL     1      -3.839  11.627  -2.380  1.00  0.00     0.014 A 
ATOM     34  C   UNL     1      -2.056  10.818  -0.953  1.00  0.00     0.014 A 
ATOM     35  C   UNL     1      -4.538  12.062  -1.253  1.00  0.00     0.010 A 
ATOM     36  C   UNL     1      -2.786  11.189   0.173  1.00  0.00     0.010 A 
ATOM     37  C   UNL     1      -4.030  11.822   0.035  1.00  0.00    -0.014 A 
BRANCH  37  38
ATOM     38  C   UNL     1      -4.793  12.229   1.240  1.00  0.00     0.031 A 
ATOM     39  C   UNL     1      -4.254  13.286   2.163  1.00  0.00     0.074 A 
ATOM     40  C   UNL     1      -5.955  11.611   1.528  1.00  0.00     0.049 A 
ATOM     41  N   UNL     1      -4.778  13.764   3.265  1.00  0.00    -0.248 NA
ATOM     42  C   UNL     1      -2.946  13.867   1.820  1.00  0.00     0.031 C 
ATOM     43  C   UNL     1      -6.561  10.536   0.739  1.00  0.00     0.029 A 
ATOM     44  N   UNL     1      -6.834  11.801   2.564  1.00  0.00    -0.354 N 
ATOM     45  C   UNL     1      -3.860  14.686   3.751  1.00  0.00     0.074 A 
ATOM     46  C   UNL     1      -2.725  14.666   2.853  1.00  0.00     0.031 C 
ATOM     47  C   UNL     1      -7.728  10.184   1.302  1.00  0.00     0.029 A 
ATOM     48  C   UNL     1      -7.936  10.982   2.505  1.00  0.00     0.049 A 
ATOM     49  H   UNL     1      -6.689  12.460   3.280  1.00  0.00     0.167 HD
ATOM     50  C   UNL     1      -3.959  15.493   4.834  1.00  0.00     0.031 A 
ATOM     51  C   UNL     1      -8.997  10.887   3.328  1.00  0.00     0.031 A 
ATOM     52  C   UNL     1      -5.092  15.521   5.722  1.00  0.00     0.049 A 
ATOM     53  C   UNL     1      -9.087  11.797   4.520  1.00  0.00     0.074 A 
ATOM     54  C   UNL     1      -5.314  16.346   6.811  1.00  0.00     0.029 A 
ATOM     55  N   UNL     1      -6.192  14.684   5.623  1.00  0.00    -0.354 N 
ATOM     56  N   UNL     1      -8.245  12.718   4.922  1.00  0.00    -0.248 NA
ATOM     57  C   UNL     1     -10.283  11.663   5.362  1.00  0.00     0.031 C 
ATOM     58  C   UNL     1      -6.526  15.973   7.402  1.00  0.00     0.029 A 
ATOM     59  C   UNL     1      -7.085  14.954   6.647  1.00  0.00     0.049 A 
ATOM     60  H   UNL     1      -6.320  13.998   4.928  1.00  0.00     0.167 HD
ATOM     61  C   UNL     1      -8.821  13.290   6.048  1.00  0.00     0.074 A 
ATOM     62  C   UNL     1     -10.092  12.626   6.253  1.00  0.00     0.031 C 
ATOM     63  C   UNL     1      -8.341  14.278   6.843  1.00  0.00     0.031 A 
BRANCH  50  64
ATOM     64  C   UNL     1      -2.802  16.409   5.123  1.00  0.00    -0.014 A 
ATOM     65  C   UNL     1      -2.518  17.508   4.296  1.00  0.00     0.009 A 
ATOM     66  C   UNL     1      -2.002  16.189   6.255  1.00  0.00     0.009 A 
ATOM     67  C   UNL     1      -1.435  18.343   4.575  1.00  0.00     0.001 A 
ATOM     68  C   UNL     1      -0.937  17.043   6.548  1.00  0.00     0.001 A 
ATOM     69  C   UNL     1      -0.648  18.113   5.702  1.00  0.00     0.000 A 
ENDBRANCH  50  64
BRANCH  51  70
ATOM     70  C   UNL     1     -10.075   9.906   3.038  1.00  0.00    -0.014 A 
ATOM     71  C   UNL     1     -11.334  10.342   2.597  1.00  0.00     0.009 A 
ATOM     72  C   UNL     1      -9.851   8.531   3.201  1.00  0.00     0.009 A 
ATOM     73  C   UNL     1     -12.355   9.421   2.352  1.00  0.00     0.001 A 
ATOM     74  C   UNL     1     -10.866   7.611   2.928  1.00  0.00     0.001 A 
ATOM     75  C   UNL     1     -12.119   8.057   2.513  1.00  0.00     0.000 A 
ENDBRANCH  51  70
BRANCH  63  76
ATOM     76  C   UNL     1      -9.209  14.714   7.990  1.00  0.00    -0.014 A 
ATOM     77  C   UNL     1      -9.396  13.896   9.114  1.00  0.00     0.009 A 
ATOM     78  C   UNL     1      -9.829  15.972   7.952  1.00  0.00     0.009 A 
ATOM     79  C   UNL     1     -10.222  14.313  10.160  1.00  0.00     0.001 A 
ATOM     80  C   UNL     1     -10.630  16.399   9.012  1.00  0.00     0.001 A 
ATOM     81  C   UNL     1     -10.835  15.565  10.110  1.00  0.00     0.000 A 
ENDBRANCH  63  76
ENDBRANCH  37  38
ENDBRANCH  29  32
ENDBRANCH  27  28
ENDBRANCH  26  27
ENDBRANCH  25  26
ENDBRANCH   1  25
TORSDOF 16
