REMARK SMILES CCCN(CCC)c1cc(C(=O)NCCCCCCNC(=O)c2ccc(-c3c4nc(c(-c5ccccc5)c5ccc([nH]5)c(-c5ccccc5)c5nc(c(-c6ccccc6)c6ccc3[nH]6)C=C5)C=C4)cc2)cc(C(F)(F)F)c1
REMARK SMILES IDX 16 1 15 2 14 3 13 4 11 5 12 6 10 8 8 9 9 10 77 11 72 12
REMARK SMILES IDX 71 13 4 14 3 15 2 16 1 17 5 18 6 19 7 20 73 21 74 22 75 23
REMARK SMILES IDX 76 24 17 25 18 26 19 27 20 28 21 29 22 31 23 32 24 33 70 34
REMARK SMILES IDX 25 35 69 36 26 37 27 38 28 39 63 40 29 41 68 42 62 43 64 44
REMARK SMILES IDX 30 45 67 46 61 47 60 48 31 50 53 51 38 52 52 53 39 54 42 55
REMARK SMILES IDX 51 56 65 57 40 58 41 59 50 61 66 62 43 63 32 64 33 65 37 66
REMARK SMILES IDX 34 67 36 68 35 69 54 70 55 71 59 72 56 73 58 74 57 75 44 76
REMARK SMILES IDX 45 77 49 78 46 79 48 80 47 81
REMARK H PARENT 13 7 20 30 64 49 42 60
REMARK Flexibility Score: inf
ROOT
ATOM      1  C   UNL     1       0.354  -5.574   7.149  1.00  0.00     0.002 C 
ENDROOT
BRANCH   1   2
ATOM      2  C   UNL     1      -0.010  -4.465   6.171  1.00  0.00     0.021 C 
BRANCH   2   3
ATOM      3  C   UNL     1       1.102  -3.946   5.275  1.00  0.00     0.116 C 
BRANCH   3   4
ATOM      4  N   UNL     1       1.702  -4.905   4.363  1.00  0.00    -0.352 N 
ATOM      5  C   UNL     1       2.193  -4.724   3.082  1.00  0.00     0.251 C 
ATOM      6  O   UNL     1       2.753  -5.659   2.514  1.00  0.00    -0.269 OA
ATOM      7  H   UNL     1       1.770  -5.824   4.709  1.00  0.00     0.163 HD
BRANCH   5   8
ATOM      8  C   UNL     1       1.927  -3.459   2.340  1.00  0.00     0.042 A 
ATOM      9  C   UNL     1       0.872  -2.519   0.360  1.00  0.00     0.038 A 
ATOM     10  C   UNL     1       1.565  -3.553   0.992  1.00  0.00     0.039 A 
ATOM     11  C   UNL     1       0.525  -1.417   1.148  1.00  0.00     0.039 A 
ATOM     12  C   UNL     1       1.069  -1.217   2.421  1.00  0.00     0.058 A 
ATOM     13  C   UNL     1       1.856  -2.225   2.974  1.00  0.00     0.027 A 
BRANCH   9  14
ATOM     14  N   UNL     1       0.529  -2.552  -0.978  1.00  0.00    -0.372 N 
BRANCH  14  15
ATOM     15  C   UNL     1       1.218  -1.636  -1.909  1.00  0.00     0.116 C 
BRANCH  15  16
ATOM     16  C   UNL     1       0.773  -0.170  -1.771  1.00  0.00     0.018 C 
ATOM     17  C   UNL     1       1.718   0.679  -0.918  1.00  0.00     0.006 C 
ENDBRANCH  15  16
ENDBRANCH  14  15
BRANCH  14  18
ATOM     18  C   UNL     1      -0.414  -3.548  -1.508  1.00  0.00     0.116 C 
BRANCH  18  19
ATOM     19  C   UNL     1       0.179  -4.956  -1.649  1.00  0.00     0.018 C 
ATOM     20  C   UNL     1      -0.252  -5.896  -0.524  1.00  0.00     0.006 C 
ENDBRANCH  18  19
ENDBRANCH  14  18
ENDBRANCH   9  14
BRANCH  12  21
ATOM     21  C   UNL     1       0.722   0.001   3.230  1.00  0.00     0.416 C 
ATOM     22  F   UNL     1      -0.254  -0.263   4.144  1.00  0.00    -0.166 F 
ATOM     23  F   UNL     1       1.779   0.475   3.946  1.00  0.00    -0.166 F 
ATOM     24  F   UNL     1       0.270   1.046   2.486  1.00  0.00    -0.166 F 
ENDBRANCH  12  21
ENDBRANCH   5   8
ENDBRANCH   3   4
ENDBRANCH   2   3
ENDBRANCH   1   2
BRANCH   1  25
ATOM     25  C   UNL     1       1.605  -5.346   7.999  1.00  0.00     0.002 C 
BRANCH  25  26
ATOM     26  C   UNL     1       1.678  -4.026   8.771  1.00  0.00     0.021 C 
BRANCH  26  27
ATOM     27  C   UNL     1       0.487  -3.716   9.670  1.00  0.00     0.116 C 
BRANCH  27  28
ATOM     28  N   UNL     1       0.291  -4.713  10.707  1.00  0.00    -0.352 N 
ATOM     29  C   UNL     1       0.199  -4.557  12.068  1.00  0.00     0.251 C 
ATOM     30  H   UNL     1       0.213  -5.640  10.386  1.00  0.00     0.163 HD
ATOM     31  O   UNL     1       0.194  -5.540  12.800  1.00  0.00    -0.269 OA
BRANCH  29  32
ATOM     32  C   UNL     1       0.131  -3.202  12.661  1.00  0.00     0.039 A 
ATOM     33  C   UNL     1       0.901  -2.926  13.794  1.00  0.00     0.014 A 
ATOM     34  C   UNL     1      -0.695  -2.214  12.119  1.00  0.00     0.014 A 
ATOM     35  C   UNL     1       0.888  -1.643  14.347  1.00  0.00     0.010 A 
ATOM     36  C   UNL     1      -0.649  -0.916  12.624  1.00  0.00     0.010 A 
ATOM     37  C   UNL     1       0.139  -0.618  13.746  1.00  0.00    -0.014 A 
BRANCH  37  38
ATOM     38  C   UNL     1       0.172   0.769  14.278  1.00  0.00     0.031 A 
ATOM     39  C   UNL     1      -1.077   1.402  14.828  1.00  0.00     0.074 A 
ATOM     40  C   UNL     1       1.315   1.480  14.216  1.00  0.00     0.049 A 
ATOM     41  N   UNL     1      -1.252   2.614  15.294  1.00  0.00    -0.248 NA
ATOM     42  C   UNL     1      -2.294   0.575  14.836  1.00  0.00     0.031 C 
ATOM     43  C   UNL     1       2.587   0.996  13.675  1.00  0.00     0.029 A 
ATOM     44  N   UNL     1       1.591   2.766  14.610  1.00  0.00    -0.354 N 
ATOM     45  C   UNL     1      -2.596   2.697  15.635  1.00  0.00     0.074 A 
ATOM     46  C   UNL     1      -3.202   1.434  15.274  1.00  0.00     0.031 C 
ATOM     47  C   UNL     1       3.512   1.961  13.798  1.00  0.00     0.029 A 
ATOM     48  C   UNL     1       2.892   3.145  14.384  1.00  0.00     0.049 A 
ATOM     49  H   UNL     1       0.919   3.361  15.016  1.00  0.00     0.167 HD
ATOM     50  C   UNL     1      -3.264   3.724  16.213  1.00  0.00     0.031 A 
ATOM     51  C   UNL     1       3.515   4.316  14.614  1.00  0.00     0.031 A 
ATOM     52  C   UNL     1      -2.662   4.979  16.575  1.00  0.00     0.049 A 
ATOM     53  C   UNL     1       2.745   5.450  15.231  1.00  0.00     0.074 A 
ATOM     54  C   UNL     1      -3.243   6.062  17.212  1.00  0.00     0.029 A 
ATOM     55  N   UNL     1      -1.343   5.323  16.325  1.00  0.00    -0.354 N 
ATOM     56  N   UNL     1       1.491   5.488  15.611  1.00  0.00    -0.248 NA
ATOM     57  C   UNL     1       3.481   6.701  15.461  1.00  0.00     0.031 C 
ATOM     58  C   UNL     1      -2.292   7.083  17.294  1.00  0.00     0.029 A 
ATOM     59  C   UNL     1      -1.099   6.612  16.769  1.00  0.00     0.049 A 
ATOM     60  H   UNL     1      -0.677   4.738  15.896  1.00  0.00     0.167 HD
ATOM     61  C   UNL     1       1.297   6.752  16.153  1.00  0.00     0.074 A 
ATOM     62  C   UNL     1       2.566   7.444  16.068  1.00  0.00     0.031 C 
ATOM     63  C   UNL     1       0.169   7.290  16.677  1.00  0.00     0.031 A 
BRANCH  50  64
ATOM     64  C   UNL     1      -4.733   3.533  16.481  1.00  0.00    -0.014 A 
ATOM     65  C   UNL     1      -5.186   2.630  17.456  1.00  0.00     0.009 A 
ATOM     66  C   UNL     1      -5.676   4.294  15.773  1.00  0.00     0.009 A 
ATOM     67  C   UNL     1      -6.554   2.464  17.688  1.00  0.00     0.001 A 
ATOM     68  C   UNL     1      -7.041   4.150  16.030  1.00  0.00     0.001 A 
ATOM     69  C   UNL     1      -7.479   3.228  16.979  1.00  0.00     0.000 A 
ENDBRANCH  50  64
BRANCH  51  70
ATOM     70  C   UNL     1       4.954   4.476  14.270  1.00  0.00    -0.014 A 
ATOM     71  C   UNL     1       5.919   4.608  15.280  1.00  0.00     0.009 A 
ATOM     72  C   UNL     1       5.368   4.509  12.929  1.00  0.00     0.009 A 
ATOM     73  C   UNL     1       7.264   4.800  14.955  1.00  0.00     0.001 A 
ATOM     74  C   UNL     1       6.718   4.669  12.607  1.00  0.00     0.001 A 
ATOM     75  C   UNL     1       7.662   4.825  13.620  1.00  0.00     0.000 A 
ENDBRANCH  51  70
BRANCH  63  76
ATOM     76  C   UNL     1       0.265   8.682  17.238  1.00  0.00    -0.014 A 
ATOM     77  C   UNL     1       0.417   9.800  16.403  1.00  0.00     0.009 A 
ATOM     78  C   UNL     1       0.159   8.879  18.624  1.00  0.00     0.009 A 
ATOM     79  C   UNL     1       0.498  11.083  16.950  1.00  0.00     0.001 A 
ATOM     80  C   UNL     1       0.207  10.164  19.165  1.00  0.00     0.001 A 
ATOM     81  C   UNL     1       0.387  11.264  18.328  1.00  0.00     0.000 A 
ENDBRANCH  63  76
ENDBRANCH  37  38
ENDBRANCH  29  32
ENDBRANCH  27  28
ENDBRANCH  26  27
ENDBRANCH  25  26
ENDBRANCH   1  25
TORSDOF 19
