REMARK SMILES CCOc1cccc(-c2ccc([C@@H](C)C(=O)NCCCCCCNC(=O)c3ccc(-c4c5nc(c(-c6ccccc6)c6ccc([nH]6)c(-c6ccccc6)c6nc(c(-c7ccccc7)c7ccc4[nH]7)C=C6)C=C5)cc3)cc2F)c1
REMARK SMILES IDX 19 1 18 2 17 3 15 4 16 5 13 7 14 8 12 9 9 10 10 11 76 12
REMARK SMILES IDX 11 13 75 14 77 15 8 16 4 17 5 18 78 19 6 20 7 21 3 22 2 23
REMARK SMILES IDX 1 24 20 25 21 26 22 27 23 28 24 29 25 30 26 32 27 33 28 34
REMARK SMILES IDX 74 35 29 36 73 37 30 38 31 39 32 40 67 41 33 42 72 43 66 44
REMARK SMILES IDX 68 45 34 46 71 47 65 48 64 49 35 51 57 52 42 53 56 54 43 55
REMARK SMILES IDX 46 56 55 57 69 58 44 59 45 60 54 62 70 63 47 64 36 65 37 66
REMARK SMILES IDX 41 67 38 68 40 69 39 70 58 71 59 72 63 73 60 74 62 75 61 76
REMARK SMILES IDX 48 77 49 78 53 79 50 80 52 81 51 82
REMARK H PARENT 17 6 24 31 68 50 46 61
REMARK Flexibility Score: inf
ROOT
ATOM      1  C   UNL     1       8.688   0.303   1.694  1.00  0.00     0.021 C 
ENDROOT
BRANCH   1   2
ATOM      2  C   UNL     1       9.552  -0.961   1.704  1.00  0.00     0.116 C 
BRANCH   2   3
ATOM      3  N   UNL     1       8.902  -2.037   2.417  1.00  0.00    -0.356 N 
ATOM      4  C   UNL     1       8.205  -3.120   1.980  1.00  0.00     0.227 C 
ATOM      5  O   UNL     1       7.661  -3.808   2.853  1.00  0.00    -0.274 OA
ATOM      6  H   UNL     1       8.979  -1.976   3.397  1.00  0.00     0.163 HD
BRANCH   4   7
ATOM      7  C   UNL     1       8.089  -3.525   0.503  1.00  0.00     0.105 C 
ATOM      8  C   UNL     1       9.429  -3.829  -0.165  1.00  0.00     0.023 C 
BRANCH   7   9
ATOM      9  C   UNL     1       7.140  -2.658  -0.310  1.00  0.00    -0.033 A 
ATOM     10  C   UNL     1       5.256  -1.008  -1.712  1.00  0.00     0.018 A 
ATOM     11  C   UNL     1       6.606  -0.647  -1.583  1.00  0.00     0.012 A 
ATOM     12  C   UNL     1       4.891  -2.243  -1.151  1.00  0.00     0.131 A 
ATOM     13  C   UNL     1       7.533  -1.475  -0.938  1.00  0.00     0.005 A 
ATOM     14  C   UNL     1       5.799  -3.039  -0.444  1.00  0.00     0.044 A 
ATOM     15  F   UNL     1       3.641  -2.713  -1.278  1.00  0.00    -0.206 F 
BRANCH  10  16
ATOM     16  C   UNL     1       4.294  -0.099  -2.382  1.00  0.00    -0.012 A 
ATOM     17  C   UNL     1       2.045   0.845  -2.578  1.00  0.00     0.119 A 
ATOM     18  C   UNL     1       2.461   1.687  -3.602  1.00  0.00     0.046 A 
ATOM     19  C   UNL     1       2.946  -0.046  -1.991  1.00  0.00     0.055 A 
ATOM     20  C   UNL     1       3.788   1.653  -4.021  1.00  0.00     0.004 A 
ATOM     21  C   UNL     1       4.689   0.768  -3.419  1.00  0.00     0.009 A 
BRANCH  17  22
ATOM     22  O   UNL     1       0.716   0.819  -2.260  1.00  0.00    -0.494 OA
BRANCH  22  23
ATOM     23  C   UNL     1       0.426   1.311  -0.946  1.00  0.00     0.226 C 
ATOM     24  C   UNL     1       0.479   0.216   0.109  1.00  0.00     0.049 C 
ENDBRANCH  22  23
ENDBRANCH  17  22
ENDBRANCH  10  16
ENDBRANCH   7   9
ENDBRANCH   4   7
ENDBRANCH   2   3
ENDBRANCH   1   2
BRANCH   1  25
ATOM     25  C   UNL     1       8.943   1.224   2.890  1.00  0.00     0.002 C 
BRANCH  25  26
ATOM     26  C   UNL     1      10.367   1.792   2.970  1.00  0.00     0.002 C 
BRANCH  26  27
ATOM     27  C   UNL     1      10.831   2.549   1.723  1.00  0.00     0.021 C 
BRANCH  27  28
ATOM     28  C   UNL     1       9.988   3.775   1.391  1.00  0.00     0.116 C 
BRANCH  28  29
ATOM     29  N   UNL     1      10.064   4.777   2.445  1.00  0.00    -0.352 N 
ATOM     30  C   UNL     1      10.551   6.059   2.388  1.00  0.00     0.251 C 
ATOM     31  H   UNL     1       9.716   4.495   3.322  1.00  0.00     0.163 HD
ATOM     32  O   UNL     1      10.782   6.689   3.410  1.00  0.00    -0.269 OA
BRANCH  30  33
ATOM     33  C   UNL     1      10.803   6.668   1.067  1.00  0.00     0.039 A 
ATOM     34  C   UNL     1      12.014   7.324   0.832  1.00  0.00     0.014 A 
ATOM     35  C   UNL     1       9.841   6.569   0.059  1.00  0.00     0.014 A 
ATOM     36  C   UNL     1      12.289   7.820  -0.443  1.00  0.00     0.010 A 
ATOM     37  C   UNL     1      10.147   6.995  -1.226  1.00  0.00     0.010 A 
ATOM     38  C   UNL     1      11.374   7.624  -1.490  1.00  0.00    -0.014 A 
BRANCH  38  39
ATOM     39  C   UNL     1      11.668   8.060  -2.878  1.00  0.00     0.031 A 
ATOM     40  C   UNL     1      10.798   9.093  -3.536  1.00  0.00     0.074 A 
ATOM     41  C   UNL     1      12.652   7.458  -3.573  1.00  0.00     0.049 A 
ATOM     42  N   UNL     1      10.805   9.510  -4.777  1.00  0.00    -0.248 NA
ATOM     43  C   UNL     1       9.763   9.719  -2.697  1.00  0.00     0.031 C 
ATOM     44  C   UNL     1      13.549   6.422  -3.055  1.00  0.00     0.029 A 
ATOM     45  N   UNL     1      13.050   7.619  -4.877  1.00  0.00    -0.354 N 
ATOM     46  C   UNL     1       9.767  10.427  -4.870  1.00  0.00     0.074 A 
ATOM     47  C   UNL     1       9.119  10.470  -3.578  1.00  0.00     0.031 C 
ATOM     48  C   UNL     1      14.403   6.056  -4.024  1.00  0.00     0.029 A 
ATOM     49  C   UNL     1      14.081   6.788  -5.245  1.00  0.00     0.049 A 
ATOM     50  H   UNL     1      12.637   8.269  -5.490  1.00  0.00     0.167 HD
ATOM     51  C   UNL     1       9.395  11.178  -5.934  1.00  0.00     0.031 A 
ATOM     52  C   UNL     1      14.685   6.619  -6.436  1.00  0.00     0.031 A 
ATOM     53  C   UNL     1      10.044  11.136  -7.216  1.00  0.00     0.049 A 
ATOM     54  C   UNL     1      14.227   7.437  -7.613  1.00  0.00     0.074 A 
ATOM     55  C   UNL     1       9.776  11.895  -8.342  1.00  0.00     0.029 A 
ATOM     56  N   UNL     1      11.088  10.285  -7.545  1.00  0.00    -0.354 N 
ATOM     57  N   UNL     1      13.283   8.344  -7.670  1.00  0.00    -0.248 NA
ATOM     58  C   UNL     1      14.924   7.212  -8.887  1.00  0.00     0.031 C 
ATOM     59  C   UNL     1      10.616  11.459  -9.370  1.00  0.00     0.029 A 
ATOM     60  C   UNL     1      11.454  10.479  -8.865  1.00  0.00     0.049 A 
ATOM     61  H   UNL     1      11.505   9.639  -6.930  1.00  0.00     0.167 HD
ATOM     62  C   UNL     1      13.296   8.823  -8.975  1.00  0.00     0.074 A 
ATOM     63  C   UNL     1      14.347   8.112  -9.672  1.00  0.00     0.031 C 
ATOM     64  C   UNL     1      12.509   9.769  -9.542  1.00  0.00     0.031 A 
BRANCH  51  65
ATOM     65  C   UNL     1       8.219  12.099  -5.757  1.00  0.00    -0.014 A 
ATOM     66  C   UNL     1       8.293  13.228  -4.926  1.00  0.00     0.009 A 
ATOM     67  C   UNL     1       7.029  11.854  -6.460  1.00  0.00     0.009 A 
ATOM     68  C   UNL     1       7.189  14.069  -4.773  1.00  0.00     0.001 A 
ATOM     69  C   UNL     1       5.938  12.714  -6.332  1.00  0.00     0.001 A 
ATOM     70  C   UNL     1       6.015  13.815  -5.480  1.00  0.00     0.000 A 
ENDBRANCH  51  65
BRANCH  52  71
ATOM     71  C   UNL     1      15.790   5.634  -6.580  1.00  0.00    -0.014 A 
ATOM     72  C   UNL     1      17.105   6.067  -6.809  1.00  0.00     0.009 A 
ATOM     73  C   UNL     1      15.535   4.255  -6.500  1.00  0.00     0.009 A 
ATOM     74  C   UNL     1      18.136   5.140  -6.984  1.00  0.00     0.001 A 
ATOM     75  C   UNL     1      16.574   3.332  -6.642  1.00  0.00     0.001 A 
ATOM     76  C   UNL     1      17.870   3.775  -6.896  1.00  0.00     0.000 A 
ENDBRANCH  52  71
BRANCH  64  77
ATOM     77  C   UNL     1      12.782  10.132 -10.975  1.00  0.00    -0.014 A 
ATOM     78  C   UNL     1      12.457   9.262 -12.027  1.00  0.00     0.009 A 
ATOM     79  C   UNL     1      13.313  11.396 -11.277  1.00  0.00     0.009 A 
ATOM     80  C   UNL     1      12.681   9.644 -13.352  1.00  0.00     0.001 A 
ATOM     81  C   UNL     1      13.505  11.787 -12.602  1.00  0.00     0.001 A 
ATOM     82  C   UNL     1      13.196  10.908 -13.638  1.00  0.00     0.000 A 
ENDBRANCH  64  77
ENDBRANCH  38  39
ENDBRANCH  30  33
ENDBRANCH  28  29
ENDBRANCH  27  28
ENDBRANCH  26  27
ENDBRANCH  25  26
ENDBRANCH   1  25
TORSDOF 17
