REMARK SMILES CC[NH2+][C@@]1(C(=O)NCCCCCCNC(=O)c2ccc(-c3c4nc(c(-c5ccccc5)c5ccc([nH]5)c(-c5ccccc5)c5nc(c(-c6ccccc6)c6ccc3[nH]6)C=C5)C=C4)cc2)CC[C@@H]([NH+]2CCC(C)(CC)CC2)C1
REMARK SMILES IDX 10 1 9 2 8 3 7 4 5 5 6 6 4 8 65 9 77 10 66 11 67 12 3 13
REMARK SMILES IDX 2 16 1 17 68 18 69 19 76 20 70 22 75 23 71 24 72 25 73 26
REMARK SMILES IDX 74 27 11 28 12 29 13 30 14 31 15 32 16 34 17 35 18 36 64 37
REMARK SMILES IDX 19 38 63 39 20 40 21 41 22 42 57 43 23 44 62 45 56 46 58 47
REMARK SMILES IDX 24 48 61 49 55 50 54 51 25 53 47 54 32 55 46 56 33 57 36 58
REMARK SMILES IDX 45 59 59 60 34 61 35 62 44 64 60 65 37 66 26 67 27 68 31 69
REMARK SMILES IDX 28 70 30 71 29 72 48 73 49 74 53 75 50 76 52 77 51 78 38 79
REMARK SMILES IDX 39 80 43 81 40 82 42 83 41 84
REMARK H PARENT 7 7 3 14 3 15 68 21 14 33 58 52 36 63
REMARK Flexibility Score: inf
ROOT
ATOM      1  C   UNL     1      -1.247   5.453   5.711  1.00  0.00     0.002 C 
ENDROOT
BRANCH   1   2
ATOM      2  C   UNL     1      -1.172   5.366   4.183  1.00  0.00     0.021 C 
BRANCH   2   3
ATOM      3  C   UNL     1       0.249   5.432   3.636  1.00  0.00     0.116 C 
BRANCH   3   4
ATOM      4  N   UNL     1       0.871   4.142   3.508  1.00  0.00    -0.351 N 
ATOM      5  C   UNL     1       1.323   3.478   2.418  1.00  0.00     0.281 C 
ATOM      6  O   UNL     1       2.201   2.634   2.662  1.00  0.00    -0.268 OA
ATOM      7  H   UNL     1       0.989   3.660   4.359  1.00  0.00     0.163 HD
BRANCH   5   8
ATOM      8  C   UNL     1       0.850   3.716   0.929  1.00  0.00     0.181 C 
ATOM      9  C   UNL     1       1.622   4.868   0.267  1.00  0.00     0.085 C 
ATOM     10  C   UNL     1      -0.624   4.046   0.659  1.00  0.00     0.144 C 
ATOM     11  C   UNL     1       0.690   6.074   0.187  1.00  0.00     0.072 C 
ATOM     12  C   UNL     1      -0.749   5.548   0.348  1.00  0.00     0.191 C 
BRANCH   8  13
ATOM     13  N   UNL     1       1.225   2.469   0.170  1.00  0.00    -0.334 N 
ATOM     14  H   UNL     1       1.070   2.642  -0.823  1.00  0.00     0.347 HD
ATOM     15  H   UNL     1       2.202   2.276   0.394  1.00  0.00     0.347 HD
BRANCH  13  16
ATOM     16  C   UNL     1       0.465   1.271   0.552  1.00  0.00     0.257 C 
ATOM     17  C   UNL     1       0.971   0.081  -0.251  1.00  0.00     0.071 C 
ENDBRANCH  13  16
ENDBRANCH   8  13
BRANCH  12  18
ATOM     18  N   UNL     1      -1.733   5.998  -0.647  1.00  0.00    -0.332 N 
ATOM     19  C   UNL     1      -3.101   5.513  -0.451  1.00  0.00     0.263 C 
ATOM     20  C   UNL     1      -1.374   5.964  -2.059  1.00  0.00     0.263 C 
ATOM     21  H   UNL     1      -1.705   6.989  -0.409  1.00  0.00     0.348 HD
ATOM     22  C   UNL     1      -3.418   4.140  -1.062  1.00  0.00     0.068 C 
ATOM     23  C   UNL     1      -1.480   4.587  -2.699  1.00  0.00     0.068 C 
ATOM     24  C   UNL     1      -2.833   3.868  -2.475  1.00  0.00    -0.022 C 
ATOM     25  C   UNL     1      -2.563   2.344  -2.596  1.00  0.00     0.012 C 
BRANCH  24  26
ATOM     26  C   UNL     1      -3.860   4.195  -3.601  1.00  0.00     0.004 C 
ATOM     27  C   UNL     1      -4.373   5.620  -3.710  1.00  0.00     0.004 C 
ENDBRANCH  24  26
ENDBRANCH  12  18
ENDBRANCH   5   8
ENDBRANCH   3   4
ENDBRANCH   2   3
ENDBRANCH   1   2
BRANCH   1  28
ATOM     28  C   UNL     1      -0.593   6.697   6.329  1.00  0.00     0.002 C 
BRANCH  28  29
ATOM     29  C   UNL     1      -1.058   8.040   5.755  1.00  0.00     0.021 C 
BRANCH  29  30
ATOM     30  C   UNL     1      -2.551   8.315   5.922  1.00  0.00     0.116 C 
BRANCH  30  31
ATOM     31  N   UNL     1      -2.946   8.290   7.322  1.00  0.00    -0.352 N 
ATOM     32  C   UNL     1      -3.392   9.307   8.128  1.00  0.00     0.251 C 
ATOM     33  H   UNL     1      -2.882   7.410   7.758  1.00  0.00     0.163 HD
ATOM     34  O   UNL     1      -3.416   9.164   9.345  1.00  0.00    -0.269 OA
BRANCH  32  35
ATOM     35  C   UNL     1      -3.846  10.577   7.528  1.00  0.00     0.039 A 
ATOM     36  C   UNL     1      -3.438  11.784   8.102  1.00  0.00     0.014 A 
ATOM     37  C   UNL     1      -4.700  10.574   6.421  1.00  0.00     0.014 A 
ATOM     38  C   UNL     1      -3.831  12.992   7.523  1.00  0.00     0.010 A 
ATOM     39  C   UNL     1      -5.046  11.776   5.812  1.00  0.00     0.010 A 
ATOM     40  C   UNL     1      -4.609  12.994   6.354  1.00  0.00    -0.014 A 
BRANCH  40  41
ATOM     41  C   UNL     1      -4.942  14.257   5.654  1.00  0.00     0.031 A 
ATOM     42  C   UNL     1      -6.366  14.726   5.566  1.00  0.00     0.074 A 
ATOM     43  C   UNL     1      -3.965  14.934   5.021  1.00  0.00     0.049 A 
ATOM     44  N   UNL     1      -6.857  15.752   4.918  1.00  0.00    -0.248 NA
ATOM     45  C   UNL     1      -7.373  13.926   6.281  1.00  0.00     0.031 C 
ATOM     46  C   UNL     1      -2.549  14.559   5.005  1.00  0.00     0.029 A 
ATOM     47  N   UNL     1      -4.017  16.071   4.256  1.00  0.00    -0.354 N 
ATOM     48  C   UNL     1      -8.227  15.714   5.136  1.00  0.00     0.074 A 
ATOM     49  C   UNL     1      -8.496  14.543   5.942  1.00  0.00     0.031 C 
ATOM     50  C   UNL     1      -1.865  15.458   4.279  1.00  0.00     0.029 A 
ATOM     51  C   UNL     1      -2.798  16.444   3.744  1.00  0.00     0.049 A 
ATOM     52  H   UNL     1      -4.848  16.572   4.090  1.00  0.00     0.167 HD
ATOM     53  C   UNL     1      -9.175  16.584   4.712  1.00  0.00     0.031 A 
ATOM     54  C   UNL     1      -2.470  17.456   2.921  1.00  0.00     0.031 A 
ATOM     55  C   UNL     1      -8.904  17.750   3.913  1.00  0.00     0.049 A 
ATOM     56  C   UNL     1      -3.545  18.384   2.432  1.00  0.00     0.074 A 
ATOM     57  C   UNL     1      -9.786  18.730   3.492  1.00  0.00     0.029 A 
ATOM     58  N   UNL     1      -7.659  18.086   3.405  1.00  0.00    -0.354 N 
ATOM     59  N   UNL     1      -4.827  18.376   2.706  1.00  0.00    -0.248 NA
ATOM     60  C   UNL     1      -3.128  19.457   1.519  1.00  0.00     0.031 C 
ATOM     61  C   UNL     1      -9.084  19.631   2.683  1.00  0.00     0.029 A 
ATOM     62  C   UNL     1      -7.756  19.237   2.642  1.00  0.00     0.049 A 
ATOM     63  H   UNL     1      -6.829  17.580   3.563  1.00  0.00     0.167 HD
ATOM     64  C   UNL     1      -5.368  19.448   2.011  1.00  0.00     0.074 A 
ATOM     65  C   UNL     1      -4.272  20.097   1.319  1.00  0.00     0.031 C 
ATOM     66  C   UNL     1      -6.658  19.858   1.948  1.00  0.00     0.031 A 
BRANCH  53  67
ATOM     67  C   UNL     1     -10.599  16.300   5.097  1.00  0.00    -0.014 A 
ATOM     68  C   UNL     1     -11.041  16.465   6.419  1.00  0.00     0.009 A 
ATOM     69  C   UNL     1     -11.522  15.903   4.117  1.00  0.00     0.009 A 
ATOM     70  C   UNL     1     -12.371  16.205   6.758  1.00  0.00     0.001 A 
ATOM     71  C   UNL     1     -12.856  15.668   4.453  1.00  0.00     0.001 A 
ATOM     72  C   UNL     1     -13.277  15.811   5.774  1.00  0.00     0.000 A 
ENDBRANCH  53  67
BRANCH  54  73
ATOM     73  C   UNL     1      -1.058  17.641   2.499  1.00  0.00    -0.014 A 
ATOM     74  C   UNL     1      -0.302  18.712   2.997  1.00  0.00     0.009 A 
ATOM     75  C   UNL     1      -0.457  16.743   1.603  1.00  0.00     0.009 A 
ATOM     76  C   UNL     1       1.022  18.893   2.590  1.00  0.00     0.001 A 
ATOM     77  C   UNL     1       0.875  16.912   1.218  1.00  0.00     0.001 A 
ATOM     78  C   UNL     1       1.610  17.991   1.705  1.00  0.00     0.000 A 
ENDBRANCH  54  73
BRANCH  66  79
ATOM     79  C   UNL     1      -6.951  21.065   1.105  1.00  0.00    -0.014 A 
ATOM     80  C   UNL     1      -6.951  20.982  -0.296  1.00  0.00     0.009 A 
ATOM     81  C   UNL     1      -7.270  22.286   1.717  1.00  0.00     0.009 A 
ATOM     82  C   UNL     1      -7.242  22.108  -1.069  1.00  0.00     0.001 A 
ATOM     83  C   UNL     1      -7.585  23.404   0.943  1.00  0.00     0.001 A 
ATOM     84  C   UNL     1      -7.563  23.316  -0.449  1.00  0.00     0.000 A 
ENDBRANCH  66  79
ENDBRANCH  40  41
ENDBRANCH  32  35
ENDBRANCH  30  31
ENDBRANCH  29  30
ENDBRANCH  28  29
ENDBRANCH   1  28
TORSDOF 17
