REMARK SMILES CC(=O)OCC1=C(C(=O)NCCCCCCNC(=O)c2ccc(-c3c4nc(c(-c5ccccc5)c5ccc([nH]5)c(-c5ccccc5)c5nc(c(-c6ccccc6)c6ccc3[nH]6)C=C5)C=C4)cc2)N2C(=O)[C@@H](NC(=O)Cn3nc(C)cc3C)[C@@H]2SC1
REMARK SMILES IDX 13 1 12 2 11 3 10 4 8 5 9 6 7 8 6 9 85 10 68 11 84 12 69 13
REMARK SMILES IDX 83 14 70 15 71 16 5 17 4 18 2 19 1 20 3 21 72 22 73 23 74 25
REMARK SMILES IDX 75 26 76 27 77 28 81 29 78 30 80 31 82 32 79 33 14 34 15 35
REMARK SMILES IDX 16 36 17 37 18 38 19 40 20 41 21 42 67 43 22 44 66 45 23 46
REMARK SMILES IDX 24 47 25 48 60 49 26 50 65 51 59 52 61 53 27 54 64 55 58 56
REMARK SMILES IDX 57 57 28 59 50 60 35 61 49 62 36 63 39 64 48 65 62 66 37 67
REMARK SMILES IDX 38 68 47 70 63 71 40 72 29 73 30 74 34 75 31 76 33 77 32 78
REMARK SMILES IDX 51 79 52 80 56 81 53 82 55 83 54 84 41 85 42 86 46 87 43 88
REMARK SMILES IDX 45 89 44 90
REMARK H PARENT 10 7 72 24 17 39 61 58 39 69
REMARK Flexibility Score: inf
ROOT
ATOM      1  C   UNL     1      -3.806  -1.431   4.122  1.00  0.00     0.002 C 
ENDROOT
BRANCH   1   2
ATOM      2  C   UNL     1      -2.451  -0.734   4.250  1.00  0.00     0.021 C 
BRANCH   2   3
ATOM      3  C   UNL     1      -2.299   0.551   3.414  1.00  0.00     0.116 C 
BRANCH   3   4
ATOM      4  N   UNL     1      -2.247   1.697   4.305  1.00  0.00    -0.351 N 
ATOM      5  C   UNL     1      -1.303   2.493   4.851  1.00  0.00     0.268 C 
ATOM      6  O   UNL     1      -1.697   3.170   5.815  1.00  0.00    -0.268 OA
ATOM      7  H   UNL     1      -3.150   1.969   4.588  1.00  0.00     0.163 HD
BRANCH   5   8
ATOM      8  C   UNL     1       0.154   2.675   4.457  1.00  0.00     0.114 C 
ATOM      9  C   UNL     1       1.124   1.730   4.328  1.00  0.00     0.007 C 
ATOM     10  C   UNL     1       2.604   2.057   4.244  1.00  0.00     0.108 C 
ATOM     11  N   UNL     1       0.514   3.997   4.353  1.00  0.00    -0.290 N 
ATOM     12  S   UNL     1       2.941   3.550   3.318  1.00  0.00    -0.129 SA
ATOM     13  C   UNL     1      -0.120   5.163   4.072  1.00  0.00     0.253 C 
ATOM     14  C   UNL     1       1.853   4.540   4.349  1.00  0.00     0.181 C 
ATOM     15  O   UNL     1      -1.278   5.489   3.967  1.00  0.00    -0.272 OA
ATOM     16  C   UNL     1       1.249   5.803   3.671  1.00  0.00     0.205 C 
BRANCH   9  17
ATOM     17  C   UNL     1       0.924   0.253   4.217  1.00  0.00     0.267 C 
BRANCH  17  18
ATOM     18  O   UNL     1       1.359  -0.284   2.934  1.00  0.00    -0.461 OA
BRANCH  18  19
ATOM     19  C   UNL     1       1.051   0.352   1.766  1.00  0.00     0.302 C 
ATOM     20  C   UNL     1       1.663  -0.358   0.598  1.00  0.00     0.139 C 
ATOM     21  O   UNL     1       0.370   1.359   1.644  1.00  0.00    -0.253 OA
ENDBRANCH  18  19
ENDBRANCH  17  18
ENDBRANCH   9  17
BRANCH  16  22
ATOM     22  N   UNL     1       1.646   7.088   4.310  1.00  0.00    -0.340 N 
ATOM     23  C   UNL     1       2.215   8.179   3.703  1.00  0.00     0.242 C 
ATOM     24  H   UNL     1       1.482   7.164   5.278  1.00  0.00     0.164 HD
ATOM     25  O   UNL     1       2.658   9.079   4.422  1.00  0.00    -0.273 OA
BRANCH  23  26
ATOM     26  C   UNL     1       2.236   8.299   2.195  1.00  0.00     0.244 C 
BRANCH  26  27
ATOM     27  N   UNL     1       3.414   7.703   1.591  1.00  0.00    -0.260 N 
ATOM     28  N   UNL     1       3.469   6.362   1.488  1.00  0.00    -0.178 NA
ATOM     29  C   UNL     1       4.451   8.323   0.936  1.00  0.00     0.036 A 
ATOM     30  C   UNL     1       4.579   6.112   0.792  1.00  0.00     0.060 A 
ATOM     31  C   UNL     1       5.232   7.306   0.427  1.00  0.00     0.048 A 
ATOM     32  C   UNL     1       4.612   9.792   0.832  1.00  0.00     0.066 C 
ATOM     33  C   UNL     1       4.974   4.716   0.487  1.00  0.00     0.069 C 
ENDBRANCH  26  27
ENDBRANCH  23  26
ENDBRANCH  16  22
ENDBRANCH   5   8
ENDBRANCH   3   4
ENDBRANCH   2   3
ENDBRANCH   1   2
BRANCH   1  34
ATOM     34  C   UNL     1      -3.944  -2.332   2.891  1.00  0.00     0.002 C 
BRANCH  34  35
ATOM     35  C   UNL     1      -2.896  -3.446   2.744  1.00  0.00     0.021 C 
BRANCH  35  36
ATOM     36  C   UNL     1      -2.675  -4.334   3.970  1.00  0.00     0.116 C 
BRANCH  36  37
ATOM     37  N   UNL     1      -3.864  -5.082   4.337  1.00  0.00    -0.352 N 
ATOM     38  C   UNL     1      -4.040  -6.432   4.504  1.00  0.00     0.251 C 
ATOM     39  H   UNL     1      -4.669  -4.535   4.489  1.00  0.00     0.163 HD
ATOM     40  O   UNL     1      -5.170  -6.886   4.662  1.00  0.00    -0.269 OA
BRANCH  38  41
ATOM     41  C   UNL     1      -2.885  -7.358   4.485  1.00  0.00     0.039 A 
ATOM     42  C   UNL     1      -2.990  -8.540   3.744  1.00  0.00     0.014 A 
ATOM     43  C   UNL     1      -1.736  -7.109   5.242  1.00  0.00     0.014 A 
ATOM     44  C   UNL     1      -1.929  -9.451   3.724  1.00  0.00     0.010 A 
ATOM     45  C   UNL     1      -0.663  -8.002   5.194  1.00  0.00     0.010 A 
ATOM     46  C   UNL     1      -0.752  -9.181   4.437  1.00  0.00    -0.014 A 
BRANCH  46  47
ATOM     47  C   UNL     1       0.388 -10.130   4.412  1.00  0.00     0.031 A 
ATOM     48  C   UNL     1       0.724 -10.945   5.629  1.00  0.00     0.074 A 
ATOM     49  C   UNL     1       1.157 -10.223   3.312  1.00  0.00     0.049 A 
ATOM     50  N   UNL     1       1.723 -11.769   5.819  1.00  0.00    -0.248 NA
ATOM     51  C   UNL     1      -0.170 -10.800   6.788  1.00  0.00     0.031 C 
ATOM     52  C   UNL     1       0.960  -9.472   2.072  1.00  0.00     0.029 A 
ATOM     53  N   UNL     1       2.271 -10.986   3.068  1.00  0.00    -0.354 N 
ATOM     54  C   UNL     1       1.597 -12.219   7.127  1.00  0.00     0.074 A 
ATOM     55  C   UNL     1       0.432 -11.566   7.688  1.00  0.00     0.031 C 
ATOM     56  C   UNL     1       1.916  -9.818   1.194  1.00  0.00     0.029 A 
ATOM     57  C   UNL     1       2.803 -10.797   1.817  1.00  0.00     0.049 A 
ATOM     58  H   UNL     1       2.653 -11.610   3.727  1.00  0.00     0.167 HD
ATOM     59  C   UNL     1       2.376 -13.097   7.801  1.00  0.00     0.031 A 
ATOM     60  C   UNL     1       3.885 -11.345   1.236  1.00  0.00     0.031 A 
ATOM     61  C   UNL     1       3.518 -13.773   7.247  1.00  0.00     0.049 A 
ATOM     62  C   UNL     1       4.714 -12.342   1.991  1.00  0.00     0.074 A 
ATOM     63  C   UNL     1       4.334 -14.721   7.843  1.00  0.00     0.029 A 
ATOM     64  N   UNL     1       4.002 -13.577   5.965  1.00  0.00    -0.354 N 
ATOM     65  N   UNL     1       4.560 -12.781   3.216  1.00  0.00    -0.248 NA
ATOM     66  C   UNL     1       5.861 -12.924   1.278  1.00  0.00     0.031 C 
ATOM     67  C   UNL     1       5.326 -15.084   6.924  1.00  0.00     0.029 A 
ATOM     68  C   UNL     1       5.111 -14.377   5.752  1.00  0.00     0.049 A 
ATOM     69  H   UNL     1       3.615 -12.959   5.303  1.00  0.00     0.167 HD
ATOM     70  C   UNL     1       5.581 -13.699   3.417  1.00  0.00     0.074 A 
ATOM     71  C   UNL     1       6.344 -13.761   2.188  1.00  0.00     0.031 C 
ATOM     72  C   UNL     1       5.860 -14.426   4.525  1.00  0.00     0.031 A 
BRANCH  59  73
ATOM     73  C   UNL     1       2.018 -13.363   9.233  1.00  0.00    -0.014 A 
ATOM     74  C   UNL     1       0.948 -14.207   9.566  1.00  0.00     0.009 A 
ATOM     75  C   UNL     1       2.771 -12.773  10.260  1.00  0.00     0.009 A 
ATOM     76  C   UNL     1       0.618 -14.429  10.905  1.00  0.00     0.001 A 
ATOM     77  C   UNL     1       2.449 -13.011  11.597  1.00  0.00     0.001 A 
ATOM     78  C   UNL     1       1.369 -13.832  11.918  1.00  0.00     0.000 A 
ENDBRANCH  59  73
BRANCH  60  79
ATOM     79  C   UNL     1       4.241 -10.967  -0.152  1.00  0.00    -0.014 A 
ATOM     80  C   UNL     1       3.903 -11.809  -1.222  1.00  0.00     0.009 A 
ATOM     81  C   UNL     1       4.907  -9.761  -0.413  1.00  0.00     0.009 A 
ATOM     82  C   UNL     1       4.236 -11.453  -2.530  1.00  0.00     0.001 A 
ATOM     83  C   UNL     1       5.226  -9.402  -1.724  1.00  0.00     0.001 A 
ATOM     84  C   UNL     1       4.894 -10.249  -2.780  1.00  0.00     0.000 A 
ENDBRANCH  60  79
BRANCH  72  85
ATOM     85  C   UNL     1       7.027 -15.363   4.448  1.00  0.00    -0.014 A 
ATOM     86  C   UNL     1       8.338 -14.892   4.613  1.00  0.00     0.009 A 
ATOM     87  C   UNL     1       6.811 -16.733   4.241  1.00  0.00     0.009 A 
ATOM     88  C   UNL     1       9.416 -15.777   4.550  1.00  0.00     0.001 A 
ATOM     89  C   UNL     1       7.890 -17.617   4.191  1.00  0.00     0.001 A 
ATOM     90  C   UNL     1       9.191 -17.137   4.341  1.00  0.00     0.000 A 
ENDBRANCH  72  85
ENDBRANCH  46  47
ENDBRANCH  38  41
ENDBRANCH  36  37
ENDBRANCH  35  36
ENDBRANCH  34  35
ENDBRANCH   1  34
TORSDOF 19
