REMARK SMILES O=C(C[C@H](C(=O)OC[C@H]1CCCO1)[NH+]1CCOCC1)NCCCCCCNC(=O)c1ccc(-c2c3nc(c(-c4ccccc4)c4ccc([nH]4)c(-c4ccccc4)c4nc(c(-c5ccccc5)c5ccc2[nH]5)C=C4)C=C3)cc1
REMARK SMILES IDX 22 1 21 2 20 3 1 4 2 5 3 7 4 8 14 9 15 10 19 11 16 13 18 14
REMARK SMILES IDX 17 15 5 16 6 17 7 18 8 19 9 20 10 21 13 22 11 23 12 24 23 25
REMARK SMILES IDX 24 26 25 27 26 28 27 29 28 30 29 32 30 33 31 34 77 35 32 36
REMARK SMILES IDX 76 37 33 38 34 39 35 40 70 41 36 42 75 43 69 44 71 45 37 46
REMARK SMILES IDX 74 47 68 48 67 49 38 51 60 52 45 53 59 54 46 55 49 56 58 57
REMARK SMILES IDX 72 58 47 59 48 60 57 62 73 63 50 64 39 65 40 66 44 67 41 68
REMARK SMILES IDX 43 69 42 70 61 71 62 72 66 73 63 74 65 75 64 76 51 77 52 78
REMARK SMILES IDX 56 79 53 80 55 81 54 82
REMARK H PARENT 20 6 14 12 27 31 71 50 49 61
REMARK Flexibility Score: inf
ROOT
ATOM      1  C   UNL     1      11.107  -0.917   2.629  1.00  0.00     0.021 C 
ENDROOT
BRANCH   1   2
ATOM      2  C   UNL     1      10.558  -0.601   1.237  1.00  0.00     0.116 C 
BRANCH   2   3
ATOM      3  N   UNL     1       9.964  -1.776   0.625  1.00  0.00    -0.356 N 
ATOM      4  O   UNL     1       7.926  -0.813   0.218  1.00  0.00    -0.275 OA
ATOM      5  C   UNL     1       8.664  -1.792   0.173  1.00  0.00     0.226 C 
ATOM      6  H   UNL     1      10.511  -2.589   0.529  1.00  0.00     0.163 HD
BRANCH   5   7
ATOM      7  C   UNL     1       8.173  -3.148  -0.306  1.00  0.00     0.177 C 
BRANCH   7   8
ATOM      8  C   UNL     1       8.943  -3.691  -1.537  1.00  0.00     0.304 C 
BRANCH   8   9
ATOM      9  N   UNL     1       8.940  -5.199  -1.507  1.00  0.00    -0.319 N 
ATOM     10  C   UNL     1       9.786  -5.754  -0.412  1.00  0.00     0.291 C 
ATOM     11  C   UNL     1       9.411  -5.879  -2.744  1.00  0.00     0.291 C 
ATOM     12  H   UNL     1       7.947  -5.391  -1.376  1.00  0.00     0.348 HD
ATOM     13  C   UNL     1      11.303  -5.673  -0.671  1.00  0.00     0.221 C 
ATOM     14  C   UNL     1      10.919  -5.754  -2.999  1.00  0.00     0.221 C 
ATOM     15  O   UNL     1      11.670  -6.294  -1.904  1.00  0.00    -0.370 OA
ENDBRANCH   8   9
BRANCH   8  16
ATOM     16  C   UNL     1       8.252  -3.073  -2.794  1.00  0.00     0.365 C 
ATOM     17  O   UNL     1       7.954  -3.645  -3.833  1.00  0.00    -0.245 OA
BRANCH  16  18
ATOM     18  O   UNL     1       8.114  -1.728  -2.611  1.00  0.00    -0.459 OA
BRANCH  18  19
ATOM     19  C   UNL     1       7.654  -0.941  -3.724  1.00  0.00     0.265 C 
BRANCH  19  20
ATOM     20  C   UNL     1       8.830  -0.205  -4.382  1.00  0.00     0.156 C 
ATOM     21  C   UNL     1       9.678   0.610  -3.415  1.00  0.00     0.038 C 
ATOM     22  O   UNL     1       9.722  -1.161  -4.985  1.00  0.00    -0.375 OA
ATOM     23  C   UNL     1      10.786  -0.335  -3.025  1.00  0.00     0.031 C 
ATOM     24  C   UNL     1      10.956  -1.187  -4.262  1.00  0.00     0.161 C 
ENDBRANCH  19  20
ENDBRANCH  18  19
ENDBRANCH  16  18
ENDBRANCH   8  16
ENDBRANCH   7   8
ENDBRANCH   5   7
ENDBRANCH   2   3
ENDBRANCH   1   2
BRANCH   1  25
ATOM     25  C   UNL     1      12.266  -1.922   2.643  1.00  0.00     0.002 C 
BRANCH  25  26
ATOM     26  C   UNL     1      13.508  -1.501   1.851  1.00  0.00     0.002 C 
BRANCH  26  27
ATOM     27  C   UNL     1      14.140  -0.177   2.286  1.00  0.00     0.021 C 
BRANCH  27  28
ATOM     28  C   UNL     1      14.588  -0.127   3.743  1.00  0.00     0.116 C 
BRANCH  28  29
ATOM     29  N   UNL     1      15.653  -1.075   4.030  1.00  0.00    -0.352 N 
ATOM     30  C   UNL     1      16.864  -0.867   4.643  1.00  0.00     0.251 C 
ATOM     31  H   UNL     1      15.481  -2.001   3.744  1.00  0.00     0.163 HD
ATOM     32  O   UNL     1      17.712  -1.754   4.647  1.00  0.00    -0.269 OA
BRANCH  30  33
ATOM     33  C   UNL     1      17.160   0.436   5.280  1.00  0.00     0.039 A 
ATOM     34  C   UNL     1      18.416   1.016   5.082  1.00  0.00     0.014 A 
ATOM     35  C   UNL     1      16.212   1.077   6.082  1.00  0.00     0.014 A 
ATOM     36  C   UNL     1      18.699   2.265   5.639  1.00  0.00     0.010 A 
ATOM     37  C   UNL     1      16.468   2.355   6.572  1.00  0.00     0.010 A 
ATOM     38  C   UNL     1      17.717   2.960   6.363  1.00  0.00    -0.014 A 
BRANCH  38  39
ATOM     39  C   UNL     1      17.983   4.310   6.927  1.00  0.00     0.031 A 
ATOM     40  C   UNL     1      17.955   4.524   8.417  1.00  0.00     0.074 A 
ATOM     41  C   UNL     1      18.200   5.353   6.101  1.00  0.00     0.049 A 
ATOM     42  N   UNL     1      18.088   5.636   9.094  1.00  0.00    -0.248 NA
ATOM     43  C   UNL     1      17.726   3.336   9.256  1.00  0.00     0.031 C 
ATOM     44  C   UNL     1      18.224   5.290   4.638  1.00  0.00     0.029 A 
ATOM     45  N   UNL     1      18.434   6.678   6.378  1.00  0.00    -0.354 N 
ATOM     46  C   UNL     1      17.952   5.283  10.431  1.00  0.00     0.074 A 
ATOM     47  C   UNL     1      17.667   3.866  10.469  1.00  0.00     0.031 C 
ATOM     48  C   UNL     1      18.481   6.514   4.148  1.00  0.00     0.029 A 
ATOM     49  C   UNL     1      18.595   7.456   5.256  1.00  0.00     0.049 A 
ATOM     50  H   UNL     1      18.482   7.036   7.293  1.00  0.00     0.167 HD
ATOM     51  C   UNL     1      18.078   6.061  11.533  1.00  0.00     0.031 A 
ATOM     52  C   UNL     1      18.798   8.782   5.133  1.00  0.00     0.031 A 
ATOM     53  C   UNL     1      18.368   7.469  11.501  1.00  0.00     0.049 A 
ATOM     54  C   UNL     1      18.899   9.628   6.374  1.00  0.00     0.074 A 
ATOM     55  C   UNL     1      18.542   8.337  12.566  1.00  0.00     0.029 A 
ATOM     56  N   UNL     1      18.533   8.215  10.345  1.00  0.00    -0.354 N 
ATOM     57  N   UNL     1      18.818   9.267   7.632  1.00  0.00    -0.248 NA
ATOM     58  C   UNL     1      19.135  11.066   6.177  1.00  0.00     0.031 C 
ATOM     59  C   UNL     1      18.764   9.618  12.054  1.00  0.00     0.029 A 
ATOM     60  C   UNL     1      18.793   9.536  10.671  1.00  0.00     0.049 A 
ATOM     61  H   UNL     1      18.474   7.859   9.429  1.00  0.00     0.167 HD
ATOM     62  C   UNL     1      19.032  10.423   8.372  1.00  0.00     0.074 A 
ATOM     63  C   UNL     1      19.264  11.492   7.425  1.00  0.00     0.031 C 
ATOM     64  C   UNL     1      19.037  10.585   9.718  1.00  0.00     0.031 A 
BRANCH  51  65
ATOM     65  C   UNL     1      17.913   5.401  12.874  1.00  0.00    -0.014 A 
ATOM     66  C   UNL     1      18.881   4.509  13.364  1.00  0.00     0.009 A 
ATOM     67  C   UNL     1      16.812   5.720  13.684  1.00  0.00     0.009 A 
ATOM     68  C   UNL     1      18.734   3.928  14.625  1.00  0.00     0.001 A 
ATOM     69  C   UNL     1      16.684   5.161  14.957  1.00  0.00     0.001 A 
ATOM     70  C   UNL     1      17.640   4.260  15.423  1.00  0.00     0.000 A 
ENDBRANCH  51  65
BRANCH  52  71
ATOM     71  C   UNL     1      18.917   9.407   3.788  1.00  0.00    -0.014 A 
ATOM     72  C   UNL     1      20.129   9.976   3.365  1.00  0.00     0.009 A 
ATOM     73  C   UNL     1      17.803   9.483   2.937  1.00  0.00     0.009 A 
ATOM     74  C   UNL     1      20.209  10.648   2.143  1.00  0.00     0.001 A 
ATOM     75  C   UNL     1      17.896  10.123   1.700  1.00  0.00     0.001 A 
ATOM     76  C   UNL     1      19.094  10.719   1.311  1.00  0.00     0.000 A 
ENDBRANCH  52  71
BRANCH  64  77
ATOM     77  C   UNL     1      19.362  11.954  10.248  1.00  0.00    -0.014 A 
ATOM     78  C   UNL     1      18.465  13.026  10.118  1.00  0.00     0.009 A 
ATOM     79  C   UNL     1      20.575  12.161  10.925  1.00  0.00     0.009 A 
ATOM     80  C   UNL     1      18.794  14.286  10.621  1.00  0.00     0.001 A 
ATOM     81  C   UNL     1      20.886  13.413  11.457  1.00  0.00     0.001 A 
ATOM     82  C   UNL     1      20.001  14.477  11.294  1.00  0.00     0.000 A 
ENDBRANCH  64  77
ENDBRANCH  38  39
ENDBRANCH  30  33
ENDBRANCH  28  29
ENDBRANCH  27  28
ENDBRANCH  26  27
ENDBRANCH  25  26
ENDBRANCH   1  25
TORSDOF 19
