REMARK SMILES Cc1cc(C(=O)NCCCCCCNC(=O)c2ccc(-c3c4nc(c(-c5ccccc5)c5ccc([nH]5)c(-c5ccccc5)c5nc(c(-c6ccccc6)c6ccc3[nH]6)C=C5)C=C4)cc2)ccc1NS(=O)(=O)c1c(F)cccc1F
REMARK SMILES IDX 10 1 9 2 8 3 7 4 5 5 6 6 4 8 1 9 2 10 3 11 67 12 66 13 65 14
REMARK SMILES IDX 68 15 69 17 70 18 71 19 72 20 73 21 78 22 74 23 75 24 77 25
REMARK SMILES IDX 79 26 76 27 11 28 12 29 13 30 14 31 15 32 16 34 17 35 18 36
REMARK SMILES IDX 64 37 19 38 63 39 20 40 21 41 22 42 57 43 23 44 62 45 56 46
REMARK SMILES IDX 58 47 24 48 61 49 55 50 54 51 25 53 47 54 32 55 46 56 33 57
REMARK SMILES IDX 36 58 45 59 59 60 34 61 35 62 44 64 60 65 37 66 26 67 27 68
REMARK SMILES IDX 31 69 28 70 30 71 29 72 48 73 49 74 53 75 50 76 52 77 51 78
REMARK SMILES IDX 38 79 39 80 43 81 40 82 42 83 41 84
REMARK H PARENT 7 7 68 16 14 33 58 52 36 63
REMARK Flexibility Score: inf
ROOT
ATOM      1  C   UNL     1      -5.981  -2.783  -1.063  1.00  0.00     0.002 C 
ENDROOT
BRANCH   1   2
ATOM      2  C   UNL     1      -4.950  -1.650  -1.155  1.00  0.00     0.021 C 
BRANCH   2   3
ATOM      3  C   UNL     1      -3.956  -1.502  -0.001  1.00  0.00     0.116 C 
BRANCH   3   4
ATOM      4  N   UNL     1      -2.971  -2.564   0.078  1.00  0.00    -0.352 N 
ATOM      5  C   UNL     1      -1.616  -2.526   0.327  1.00  0.00     0.251 C 
ATOM      6  O   UNL     1      -0.988  -3.584   0.312  1.00  0.00    -0.269 OA
ATOM      7  H   UNL     1      -3.332  -3.467  -0.073  1.00  0.00     0.163 HD
BRANCH   5   8
ATOM      8  C   UNL     1      -0.875  -1.250   0.530  1.00  0.00     0.040 A 
ATOM      9  C   UNL     1       2.550   0.068  -0.448  1.00  0.00     0.046 C 
ATOM     10  C   UNL     1       1.108   0.067  -0.014  1.00  0.00    -0.026 A 
ATOM     11  C   UNL     1       0.423  -1.160   0.011  1.00  0.00     0.019 A 
ATOM     12  C   UNL     1       0.433   1.223   0.405  1.00  0.00     0.052 A 
ATOM     13  C   UNL     1      -0.723   1.080   1.174  1.00  0.00     0.028 A 
ATOM     14  C   UNL     1      -1.381  -0.156   1.232  1.00  0.00     0.016 A 
BRANCH  12  15
ATOM     15  N   UNL     1       0.870   2.472  -0.129  1.00  0.00    -0.279 N 
ATOM     16  H   UNL     1       1.672   2.442  -0.700  1.00  0.00     0.180 HD
BRANCH  15  17
ATOM     17  S   UNL     1       0.186   3.979   0.096  1.00  0.00     0.267 S 
ATOM     18  O   UNL     1       0.353   4.293   1.496  1.00  0.00    -0.201 OA
ATOM     19  O   UNL     1       0.761   4.818  -0.941  1.00  0.00    -0.201 OA
BRANCH  17  20
ATOM     20  C   UNL     1      -1.534   3.904  -0.231  1.00  0.00     0.158 A 
ATOM     21  C   UNL     1      -2.349   4.824   0.421  1.00  0.00     0.146 A 
ATOM     22  C   UNL     1      -2.123   2.901  -0.985  1.00  0.00     0.146 A 
ATOM     23  F   UNL     1      -1.828   5.866   1.081  1.00  0.00    -0.205 F 
ATOM     24  C   UNL     1      -3.736   4.691   0.404  1.00  0.00     0.041 A 
ATOM     25  C   UNL     1      -3.512   2.739  -0.986  1.00  0.00     0.041 A 
ATOM     26  F   UNL     1      -1.394   2.036  -1.702  1.00  0.00    -0.205 F 
ATOM     27  C   UNL     1      -4.321   3.624  -0.274  1.00  0.00     0.006 A 
ENDBRANCH  17  20
ENDBRANCH  15  17
ENDBRANCH  12  15
ENDBRANCH   5   8
ENDBRANCH   3   4
ENDBRANCH   2   3
ENDBRANCH   1   2
BRANCH   1  28
ATOM     28  C   UNL     1      -6.808  -2.896   0.227  1.00  0.00     0.002 C 
BRANCH  28  29
ATOM     29  C   UNL     1      -7.415  -1.605   0.779  1.00  0.00     0.021 C 
BRANCH  29  30
ATOM     30  C   UNL     1      -8.520  -0.996  -0.073  1.00  0.00     0.116 C 
BRANCH  30  31
ATOM     31  N   UNL     1      -9.870  -1.398   0.307  1.00  0.00    -0.352 N 
ATOM     32  C   UNL     1     -11.081  -1.078  -0.282  1.00  0.00     0.251 C 
ATOM     33  H   UNL     1      -9.928  -1.981   1.099  1.00  0.00     0.163 HD
ATOM     34  O   UNL     1     -12.130  -1.479   0.213  1.00  0.00    -0.269 OA
BRANCH  32  35
ATOM     35  C   UNL     1     -11.102  -0.378  -1.589  1.00  0.00     0.039 A 
ATOM     36  C   UNL     1     -11.940  -0.891  -2.587  1.00  0.00     0.014 A 
ATOM     37  C   UNL     1     -10.157   0.594  -1.902  1.00  0.00     0.014 A 
ATOM     38  C   UNL     1     -11.636  -0.645  -3.922  1.00  0.00     0.010 A 
ATOM     39  C   UNL     1      -9.787   0.755  -3.219  1.00  0.00     0.010 A 
ATOM     40  C   UNL     1     -10.481   0.072  -4.220  1.00  0.00    -0.014 A 
BRANCH  40  41
ATOM     41  C   UNL     1      -9.871   0.099  -5.539  1.00  0.00     0.031 A 
ATOM     42  C   UNL     1     -10.062   1.267  -6.410  1.00  0.00     0.074 A 
ATOM     43  C   UNL     1      -9.077  -0.922  -5.925  1.00  0.00     0.049 A 
ATOM     44  N   UNL     1      -9.906   1.246  -7.688  1.00  0.00    -0.248 NA
ATOM     45  C   UNL     1     -10.504   2.559  -5.898  1.00  0.00     0.031 C 
ATOM     46  C   UNL     1      -8.176  -0.981  -7.072  1.00  0.00     0.029 A 
ATOM     47  N   UNL     1      -9.119  -2.232  -5.453  1.00  0.00    -0.354 N 
ATOM     48  C   UNL     1      -9.951   2.546  -8.129  1.00  0.00     0.074 A 
ATOM     49  C   UNL     1     -10.403   3.317  -6.993  1.00  0.00     0.031 C 
ATOM     50  C   UNL     1      -7.955  -2.269  -7.381  1.00  0.00     0.029 A 
ATOM     51  C   UNL     1      -8.836  -3.071  -6.548  1.00  0.00     0.049 A 
ATOM     52  H   UNL     1      -9.311  -2.517  -4.530  1.00  0.00     0.167 HD
ATOM     53  C   UNL     1      -9.484   2.838  -9.373  1.00  0.00     0.031 A 
ATOM     54  C   UNL     1      -9.793  -3.929  -7.014  1.00  0.00     0.031 A 
ATOM     55  C   UNL     1      -9.107   1.634 -10.113  1.00  0.00     0.049 A 
ATOM     56  C   UNL     1     -10.256  -3.638  -8.431  1.00  0.00     0.074 A 
ATOM     57  C   UNL     1      -7.905   1.011 -10.406  1.00  0.00     0.029 A 
ATOM     58  N   UNL     1     -10.097   0.711 -10.408  1.00  0.00    -0.354 N 
ATOM     59  N   UNL     1      -9.882  -2.605  -9.136  1.00  0.00    -0.248 NA
ATOM     60  C   UNL     1     -11.264  -4.444  -9.124  1.00  0.00     0.031 C 
ATOM     61  C   UNL     1      -8.191  -0.307 -10.869  1.00  0.00     0.029 A 
ATOM     62  C   UNL     1      -9.563  -0.472 -10.878  1.00  0.00     0.049 A 
ATOM     63  H   UNL     1     -11.061   0.878 -10.297  1.00  0.00     0.167 HD
ATOM     64  C   UNL     1     -10.592  -2.568 -10.305  1.00  0.00     0.074 A 
ATOM     65  C   UNL     1     -11.447  -3.740 -10.254  1.00  0.00     0.031 C 
ATOM     66  C   UNL     1     -10.467  -1.558 -11.214  1.00  0.00     0.031 A 
BRANCH  53  67
ATOM     67  C   UNL     1      -9.161   4.236  -9.832  1.00  0.00    -0.014 A 
ATOM     68  C   UNL     1      -8.181   4.429 -10.822  1.00  0.00     0.009 A 
ATOM     69  C   UNL     1      -9.743   5.402  -9.307  1.00  0.00     0.009 A 
ATOM     70  C   UNL     1      -7.745   5.707 -11.197  1.00  0.00     0.001 A 
ATOM     71  C   UNL     1      -9.286   6.683  -9.646  1.00  0.00     0.001 A 
ATOM     72  C   UNL     1      -8.278   6.834 -10.587  1.00  0.00     0.000 A 
ENDBRANCH  53  67
BRANCH  54  73
ATOM     73  C   UNL     1     -10.673  -4.455  -5.928  1.00  0.00    -0.014 A 
ATOM     74  C   UNL     1     -10.077  -5.209  -4.894  1.00  0.00     0.009 A 
ATOM     75  C   UNL     1     -11.947  -3.915  -5.711  1.00  0.00     0.009 A 
ATOM     76  C   UNL     1     -10.673  -5.290  -3.632  1.00  0.00     0.001 A 
ATOM     77  C   UNL     1     -12.553  -4.024  -4.453  1.00  0.00     0.001 A 
ATOM     78  C   UNL     1     -11.898  -4.670  -3.405  1.00  0.00     0.000 A 
ENDBRANCH  54  73
BRANCH  66  79
ATOM     79  C   UNL     1     -11.235  -1.502 -12.504  1.00  0.00    -0.014 A 
ATOM     80  C   UNL     1     -11.421  -2.627 -13.318  1.00  0.00     0.009 A 
ATOM     81  C   UNL     1     -11.695  -0.265 -13.002  1.00  0.00     0.009 A 
ATOM     82  C   UNL     1     -12.094  -2.529 -14.543  1.00  0.00     0.001 A 
ATOM     83  C   UNL     1     -12.344  -0.160 -14.233  1.00  0.00     0.001 A 
ATOM     84  C   UNL     1     -12.555  -1.297 -14.999  1.00  0.00     0.000 A 
ENDBRANCH  66  79
ENDBRANCH  40  41
ENDBRANCH  32  35
ENDBRANCH  30  31
ENDBRANCH  29  30
ENDBRANCH  28  29
ENDBRANCH   1  28
TORSDOF 16
