REMARK SMILES COc1ccc([C@H]2CC(c3ccc(S(C)(=O)=O)cc3)=NN2c2ccc(C(=O)NCCCCCCNC(=O)c3ccc(-c4c5nc(c(-c6ccccc6)c6ccc([nH]6)c(-c6ccccc6)c6nc(c(-c7ccccc7)c7ccc4[nH]7)C=C6)C=C5)cc3)cc2)cc1OC
REMARK SMILES IDX 31 1 30 2 29 3 28 4 26 5 27 6 25 8 22 9 23 10 87 11 24 12
REMARK SMILES IDX 86 13 21 14 7 15 8 16 9 17 20 18 6 19 3 20 4 21 89 22 5 23
REMARK SMILES IDX 88 24 2 25 1 26 90 27 91 28 10 29 11 30 19 31 12 32 18 33
REMARK SMILES IDX 13 34 14 35 15 36 16 37 17 38 32 39 33 40 34 41 35 42 36 43
REMARK SMILES IDX 37 45 38 46 39 47 85 48 40 49 84 50 41 51 42 52 43 53 78 54
REMARK SMILES IDX 44 55 83 56 77 57 79 58 45 59 82 60 76 61 75 62 46 64 68 65
REMARK SMILES IDX 53 66 67 67 54 68 57 69 66 70 80 71 55 72 56 73 65 75 81 76
REMARK SMILES IDX 58 77 47 78 48 79 52 80 49 81 51 82 50 83 69 84 70 85 74 86
REMARK SMILES IDX 71 87 73 88 72 89 59 90 60 91 64 92 61 93 63 94 62 95
REMARK H PARENT 28 7 35 44 79 63 57 74
REMARK Flexibility Score: inf
ROOT
ATOM      1  C   UNL     1       0.918  -0.073  12.249  1.00  0.00     0.002 C 
ENDROOT
BRANCH   1   2
ATOM      2  C   UNL     1       1.022  -1.051  11.070  1.00  0.00     0.021 C 
BRANCH   2   3
ATOM      3  C   UNL     1       1.107  -0.347   9.714  1.00  0.00     0.116 C 
BRANCH   3   4
ATOM      4  N   UNL     1       2.446   0.169   9.515  1.00  0.00    -0.352 N 
ATOM      5  C   UNL     1       3.510  -0.280   8.777  1.00  0.00     0.251 C 
ATOM      6  O   UNL     1       4.552   0.373   8.833  1.00  0.00    -0.269 OA
ATOM      7  H   UNL     1       2.627   1.003  10.005  1.00  0.00     0.163 HD
BRANCH   5   8
ATOM      8  C   UNL     1       3.438  -1.461   7.875  1.00  0.00     0.039 A 
ATOM      9  C   UNL     1       3.373  -3.565   5.988  1.00  0.00     0.060 A 
ATOM     10  C   UNL     1       4.251  -2.488   5.831  1.00  0.00     0.029 A 
ATOM     11  C   UNL     1       2.572  -3.606   7.130  1.00  0.00     0.029 A 
ATOM     12  C   UNL     1       4.271  -1.438   6.750  1.00  0.00     0.016 A 
ATOM     13  C   UNL     1       2.634  -2.585   8.087  1.00  0.00     0.016 A 
BRANCH   9  14
ATOM     14  N   UNL     1       3.339  -4.569   5.039  1.00  0.00    -0.257 N 
ATOM     15  C   UNL     1       2.206  -4.870   4.166  1.00  0.00     0.144 C 
ATOM     16  C   UNL     1       2.719  -6.079   3.367  1.00  0.00     0.091 C 
ATOM     17  C   UNL     1       4.030  -6.316   4.065  1.00  0.00     0.071 C 
ATOM     18  N   UNL     1       4.350  -5.466   4.987  1.00  0.00    -0.176 NA
BRANCH  15  19
ATOM     19  C   UNL     1       1.837  -3.683   3.290  1.00  0.00    -0.019 A 
ATOM     20  C   UNL     1       1.219  -1.377   1.786  1.00  0.00     0.160 A 
ATOM     21  C   UNL     1       0.236  -2.009   2.560  1.00  0.00     0.051 A 
ATOM     22  C   UNL     1       2.518  -1.893   1.750  1.00  0.00     0.161 A 
ATOM     23  C   UNL     1       0.540  -3.157   3.300  1.00  0.00     0.010 A 
ATOM     24  C   UNL     1       2.807  -3.042   2.499  1.00  0.00     0.056 A 
BRANCH  20  25
ATOM     25  O   UNL     1       0.917  -0.185   1.183  1.00  0.00    -0.493 OA
ATOM     26  C   UNL     1      -0.026  -0.331   0.123  1.00  0.00     0.278 C 
ENDBRANCH  20  25
BRANCH  22  27
ATOM     27  O   UNL     1       3.612  -1.409   1.085  1.00  0.00    -0.493 OA
ATOM     28  C   UNL     1       3.408  -0.427   0.082  1.00  0.00     0.278 C 
ENDBRANCH  22  27
ENDBRANCH  15  19
BRANCH  17  29
ATOM     29  C   UNL     1       4.878  -7.468   3.748  1.00  0.00    -0.002 A 
ATOM     30  C   UNL     1       5.270  -8.308   4.797  1.00  0.00     0.011 A 
ATOM     31  C   UNL     1       5.328  -7.686   2.445  1.00  0.00     0.011 A 
ATOM     32  C   UNL     1       6.110  -9.389   4.540  1.00  0.00     0.021 A 
ATOM     33  C   UNL     1       6.192  -8.754   2.190  1.00  0.00     0.021 A 
ATOM     34  C   UNL     1       6.580  -9.597   3.240  1.00  0.00     0.067 A 
BRANCH  34  35
ATOM     35  S   UNL     1       7.675 -10.962   2.927  1.00  0.00     0.175 S 
ATOM     36  C   UNL     1       9.101 -10.615   3.925  1.00  0.00     0.163 C 
ATOM     37  O   UNL     1       7.021 -12.146   3.456  1.00  0.00    -0.224 OA
ATOM     38  O   UNL     1       8.082 -10.890   1.539  1.00  0.00    -0.224 OA
ENDBRANCH  34  35
ENDBRANCH  17  29
ENDBRANCH   9  14
ENDBRANCH   5   8
ENDBRANCH   3   4
ENDBRANCH   2   3
ENDBRANCH   1   2
BRANCH   1  39
ATOM     39  C   UNL     1      -0.366   0.766  12.275  1.00  0.00     0.002 C 
BRANCH  39  40
ATOM     40  C   UNL     1      -1.666  -0.042  12.252  1.00  0.00     0.021 C 
BRANCH  40  41
ATOM     41  C   UNL     1      -1.836  -0.991  13.433  1.00  0.00     0.116 C 
BRANCH  41  42
ATOM     42  N   UNL     1      -1.979  -0.269  14.688  1.00  0.00    -0.352 N 
ATOM     43  C   UNL     1      -2.973  -0.357  15.629  1.00  0.00     0.251 C 
ATOM     44  H   UNL     1      -1.261   0.373  14.890  1.00  0.00     0.163 HD
ATOM     45  O   UNL     1      -3.057   0.478  16.524  1.00  0.00    -0.269 OA
BRANCH  43  46
ATOM     46  C   UNL     1      -3.956  -1.458  15.555  1.00  0.00     0.039 A 
ATOM     47  C   UNL     1      -5.311  -1.169  15.736  1.00  0.00     0.014 A 
ATOM     48  C   UNL     1      -3.537  -2.772  15.330  1.00  0.00     0.014 A 
ATOM     49  C   UNL     1      -6.254  -2.194  15.642  1.00  0.00     0.010 A 
ATOM     50  C   UNL     1      -4.482  -3.781  15.174  1.00  0.00     0.010 A 
ATOM     51  C   UNL     1      -5.848  -3.503  15.337  1.00  0.00    -0.014 A 
BRANCH  51  52
ATOM     52  C   UNL     1      -6.835  -4.600  15.197  1.00  0.00     0.031 A 
ATOM     53  C   UNL     1      -6.846  -5.736  16.180  1.00  0.00     0.074 A 
ATOM     54  C   UNL     1      -7.682  -4.606  14.150  1.00  0.00     0.049 A 
ATOM     55  N   UNL     1      -7.597  -6.809  16.195  1.00  0.00    -0.248 NA
ATOM     56  C   UNL     1      -5.868  -5.669  17.277  1.00  0.00     0.031 C 
ATOM     57  C   UNL     1      -7.751  -3.578  13.109  1.00  0.00     0.029 A 
ATOM     58  N   UNL     1      -8.646  -5.512  13.789  1.00  0.00    -0.354 N 
ATOM     59  C   UNL     1      -7.169  -7.551  17.288  1.00  0.00     0.074 A 
ATOM     60  C   UNL     1      -6.063  -6.832  17.882  1.00  0.00     0.031 C 
ATOM     61  C   UNL     1      -8.728  -3.896  12.245  1.00  0.00     0.029 A 
ATOM     62  C   UNL     1      -9.327  -5.164  12.649  1.00  0.00     0.049 A 
ATOM     63  H   UNL     1      -8.832  -6.334  14.298  1.00  0.00     0.167 HD
ATOM     64  C   UNL     1      -7.661  -8.719  17.766  1.00  0.00     0.031 A 
ATOM     65  C   UNL     1     -10.324  -5.795  12.002  1.00  0.00     0.031 A 
ATOM     66  C   UNL     1      -8.765  -9.431  17.181  1.00  0.00     0.049 A 
ATOM     67  C   UNL     1     -10.843  -7.097  12.539  1.00  0.00     0.074 A 
ATOM     68  C   UNL     1      -9.377 -10.592  17.624  1.00  0.00     0.029 A 
ATOM     69  N   UNL     1      -9.423  -9.050  16.022  1.00  0.00    -0.354 N 
ATOM     70  N   UNL     1     -10.467  -7.758  13.607  1.00  0.00    -0.248 NA
ATOM     71  C   UNL     1     -11.931  -7.736  11.784  1.00  0.00     0.031 C 
ATOM     72  C   UNL     1     -10.375 -10.937  16.706  1.00  0.00     0.029 A 
ATOM     73  C   UNL     1     -10.417  -9.964  15.719  1.00  0.00     0.049 A 
ATOM     74  H   UNL     1      -9.213  -8.247  15.492  1.00  0.00     0.167 HD
ATOM     75  C   UNL     1     -11.287  -8.877  13.667  1.00  0.00     0.074 A 
ATOM     76  C   UNL     1     -12.187  -8.799  12.534  1.00  0.00     0.031 C 
ATOM     77  C   UNL     1     -11.297  -9.877  14.582  1.00  0.00     0.031 A 
BRANCH  64  78
ATOM     78  C   UNL     1      -6.987  -9.300  18.978  1.00  0.00    -0.014 A 
ATOM     79  C   UNL     1      -7.107  -8.693  20.239  1.00  0.00     0.009 A 
ATOM     80  C   UNL     1      -6.222 -10.470  18.858  1.00  0.00     0.009 A 
ATOM     81  C   UNL     1      -6.435  -9.218  21.344  1.00  0.00     0.001 A 
ATOM     82  C   UNL     1      -5.574 -11.010  19.971  1.00  0.00     0.001 A 
ATOM     83  C   UNL     1      -5.670 -10.377  21.210  1.00  0.00     0.000 A 
ENDBRANCH  64  78
BRANCH  65  84
ATOM     84  C   UNL     1     -10.919  -5.180  10.789  1.00  0.00    -0.014 A 
ATOM     85  C   UNL     1     -12.191  -4.592  10.850  1.00  0.00     0.009 A 
ATOM     86  C   UNL     1     -10.217  -5.159   9.574  1.00  0.00     0.009 A 
ATOM     87  C   UNL     1     -12.755  -4.007   9.714  1.00  0.00     0.001 A 
ATOM     88  C   UNL     1     -10.774  -4.553   8.446  1.00  0.00     0.001 A 
ATOM     89  C   UNL     1     -12.044  -3.983   8.516  1.00  0.00     0.000 A 
ENDBRANCH  65  84
BRANCH  77  90
ATOM     90  C   UNL     1     -12.329 -10.953  14.407  1.00  0.00    -0.014 A 
ATOM     91  C   UNL     1     -12.203 -11.926  13.404  1.00  0.00     0.009 A 
ATOM     92  C   UNL     1     -13.425 -11.014  15.282  1.00  0.00     0.009 A 
ATOM     93  C   UNL     1     -13.171 -12.922  13.262  1.00  0.00     0.001 A 
ATOM     94  C   UNL     1     -14.378 -12.025  15.154  1.00  0.00     0.001 A 
ATOM     95  C   UNL     1     -14.255 -12.973  14.139  1.00  0.00     0.000 A 
ENDBRANCH  77  90
ENDBRANCH  51  52
ENDBRANCH  43  46
ENDBRANCH  41  42
ENDBRANCH  40  41
ENDBRANCH  39  40
ENDBRANCH   1  39
TORSDOF 19
