REMARK SMILES C[C@@H](Cc1cccs1)N(C)c1ncc(Br)cc1C(=O)NCCCCCCNC(=O)c1ccc(-c2c3nc(c(-c4ccccc4)c4ccc([nH]4)c(-c4ccccc4)c4nc(c(-c5ccccc5)c5ccc2[nH]5)C=C4)C=C3)cc1
REMARK SMILES IDX 22 1 21 2 20 3 18 4 19 5 17 7 11 8 12 9 13 10 16 11 14 12
REMARK SMILES IDX 15 13 9 14 10 15 2 16 1 17 3 18 4 19 5 20 8 21 6 22 7 23
REMARK SMILES IDX 23 24 24 25 25 26 26 27 27 28 28 29 29 31 30 32 31 33 77 34
REMARK SMILES IDX 32 35 76 36 33 37 34 38 35 39 70 40 36 41 75 42 69 43 71 44
REMARK SMILES IDX 37 45 74 46 68 47 67 48 38 50 60 51 45 52 59 53 46 54 49 55
REMARK SMILES IDX 58 56 72 57 47 58 48 59 57 61 73 62 50 63 39 64 40 65 44 66
REMARK SMILES IDX 41 67 43 68 42 69 61 70 62 71 66 72 63 73 65 74 64 75 51 76
REMARK SMILES IDX 52 77 56 78 53 79 55 80 54 81
REMARK H PARENT 20 6 27 30 71 49 49 60
REMARK Flexibility Score: inf
ROOT
ATOM      1  C   UNL     1       0.932  -0.318   4.828  1.00  0.00     0.021 C 
ENDROOT
BRANCH   1   2
ATOM      2  C   UNL     1      -0.425  -0.097   4.166  1.00  0.00     0.116 C 
BRANCH   2   3
ATOM      3  N   UNL     1      -0.398   0.710   2.959  1.00  0.00    -0.352 N 
ATOM      4  C   UNL     1      -1.031   0.552   1.742  1.00  0.00     0.255 C 
ATOM      5  O   UNL     1      -0.990   1.490   0.948  1.00  0.00    -0.269 OA
ATOM      6  H   UNL     1       0.171   1.511   3.020  1.00  0.00     0.163 HD
BRANCH   4   7
ATOM      7  C   UNL     1      -1.772  -0.688   1.404  1.00  0.00     0.083 A 
ATOM      8  C   UNL     1      -1.639  -1.331   0.158  1.00  0.00     0.141 A 
ATOM      9  N   UNL     1      -2.391  -2.429  -0.143  1.00  0.00    -0.237 NA
ATOM     10  C   UNL     1      -3.254  -2.903   0.783  1.00  0.00     0.129 A 
ATOM     11  C   UNL     1      -2.738  -1.160   2.307  1.00  0.00     0.035 A 
ATOM     12  C   UNL     1      -3.463  -2.302   2.006  1.00  0.00     0.037 A 
ATOM     13  Br  UNL     1      -4.703  -3.007   3.236  1.00  0.00    -0.049 Br
BRANCH   8  14
ATOM     14  N   UNL     1      -0.843  -0.864  -0.874  1.00  0.00    -0.356 N 
ATOM     15  C   UNL     1      -1.590  -0.599  -2.098  1.00  0.00     0.145 C 
BRANCH  14  16
ATOM     16  C   UNL     1       0.586  -1.201  -1.006  1.00  0.00     0.085 C 
ATOM     17  C   UNL     1       1.474  -0.179  -0.301  1.00  0.00     0.031 C 
BRANCH  16  18
ATOM     18  C   UNL     1       0.984  -2.681  -0.810  1.00  0.00     0.071 C 
BRANCH  18  19
ATOM     19  C   UNL     1       0.749  -3.357   0.515  1.00  0.00     0.007 A 
ATOM     20  C   UNL     1       0.108  -4.566   0.728  1.00  0.00     0.015 A 
ATOM     21  S   UNL     1       1.390  -2.755   1.977  1.00  0.00    -0.149 S 
ATOM     22  C   UNL     1       0.024  -4.912   2.107  1.00  0.00     0.012 A 
ATOM     23  C   UNL     1       0.631  -3.970   2.904  1.00  0.00     0.065 A 
ENDBRANCH  18  19
ENDBRANCH  16  18
ENDBRANCH  14  16
ENDBRANCH   8  14
ENDBRANCH   4   7
ENDBRANCH   2   3
ENDBRANCH   1   2
BRANCH   1  24
ATOM     24  C   UNL     1       1.781   0.913   5.144  1.00  0.00     0.002 C 
BRANCH  24  25
ATOM     25  C   UNL     1       1.119   2.017   5.966  1.00  0.00     0.002 C 
BRANCH  25  26
ATOM     26  C   UNL     1       0.424   1.581   7.256  1.00  0.00     0.021 C 
BRANCH  26  27
ATOM     27  C   UNL     1       1.261   0.751   8.222  1.00  0.00     0.116 C 
BRANCH  27  28
ATOM     28  N   UNL     1       2.405   1.472   8.749  1.00  0.00    -0.352 N 
ATOM     29  C   UNL     1       2.805   1.643  10.049  1.00  0.00     0.251 C 
ATOM     30  H   UNL     1       2.978   1.901   8.073  1.00  0.00     0.163 HD
ATOM     31  O   UNL     1       3.737   2.406  10.308  1.00  0.00    -0.269 OA
BRANCH  29  32
ATOM     32  C   UNL     1       2.116   0.938  11.154  1.00  0.00     0.039 A 
ATOM     33  C   UNL     1       1.845   1.642  12.331  1.00  0.00     0.014 A 
ATOM     34  C   UNL     1       1.773  -0.414  11.059  1.00  0.00     0.014 A 
ATOM     35  C   UNL     1       1.202   1.003  13.395  1.00  0.00     0.010 A 
ATOM     36  C   UNL     1       1.067  -1.030  12.091  1.00  0.00     0.010 A 
ATOM     37  C   UNL     1       0.792  -0.335  13.278  1.00  0.00    -0.014 A 
BRANCH  37  38
ATOM     38  C   UNL     1       0.119  -1.026  14.408  1.00  0.00     0.031 A 
ATOM     39  C   UNL     1       0.800  -2.175  15.105  1.00  0.00     0.074 A 
ATOM     40  C   UNL     1      -1.114  -0.644  14.793  1.00  0.00     0.049 A 
ATOM     41  N   UNL     1       0.373  -2.905  16.105  1.00  0.00    -0.248 NA
ATOM     42  C   UNL     1       2.123  -2.570  14.596  1.00  0.00     0.031 C 
ATOM     43  C   UNL     1      -1.901   0.427  14.179  1.00  0.00     0.029 A 
ATOM     44  N   UNL     1      -1.920  -1.115  15.799  1.00  0.00    -0.354 N 
ATOM     45  C   UNL     1       1.364  -3.853  16.331  1.00  0.00     0.074 A 
ATOM     46  C   UNL     1       2.388  -3.639  15.332  1.00  0.00     0.031 C 
ATOM     47  C   UNL     1      -3.063   0.551  14.841  1.00  0.00     0.029 A 
ATOM     48  C   UNL     1      -3.115  -0.446  15.906  1.00  0.00     0.049 A 
ATOM     49  H   UNL     1      -1.666  -1.862  16.388  1.00  0.00     0.167 HD
ATOM     50  C   UNL     1       1.431  -4.802  17.295  1.00  0.00     0.031 A 
ATOM     51  C   UNL     1      -4.135  -0.612  16.769  1.00  0.00     0.031 A 
ATOM     52  C   UNL     1       0.423  -5.007  18.301  1.00  0.00     0.049 A 
ATOM     53  C   UNL     1      -4.031  -1.661  17.840  1.00  0.00     0.074 A 
ATOM     54  C   UNL     1       0.422  -5.911  19.350  1.00  0.00     0.029 A 
ATOM     55  N   UNL     1      -0.762  -4.294  18.385  1.00  0.00    -0.354 N 
ATOM     56  N   UNL     1      -3.058  -2.507  18.078  1.00  0.00    -0.248 NA
ATOM     57  C   UNL     1      -5.160  -1.762  18.776  1.00  0.00     0.031 C 
ATOM     58  C   UNL     1      -0.784  -5.771  20.046  1.00  0.00     0.029 A 
ATOM     59  C   UNL     1      -1.508  -4.745  19.461  1.00  0.00     0.049 A 
ATOM     60  H   UNL     1      -1.033  -3.574  17.771  1.00  0.00     0.167 HD
ATOM     61  C   UNL     1      -3.442  -3.216  19.209  1.00  0.00     0.074 A 
ATOM     62  C   UNL     1      -4.729  -2.691  19.617  1.00  0.00     0.031 C 
ATOM     63  C   UNL     1      -2.785  -4.210  19.856  1.00  0.00     0.031 A 
BRANCH  50  64
ATOM     64  C   UNL     1       2.641  -5.694  17.300  1.00  0.00    -0.014 A 
ATOM     65  C   UNL     1       3.907  -5.201  17.657  1.00  0.00     0.009 A 
ATOM     66  C   UNL     1       2.512  -7.051  16.965  1.00  0.00     0.009 A 
ATOM     67  C   UNL     1       5.025  -6.038  17.638  1.00  0.00     0.001 A 
ATOM     68  C   UNL     1       3.626  -7.893  16.976  1.00  0.00     0.001 A 
ATOM     69  C   UNL     1       4.883  -7.384  17.301  1.00  0.00     0.000 A 
ENDBRANCH  50  64
BRANCH  51  70
ATOM     70  C   UNL     1      -5.333   0.264  16.683  1.00  0.00    -0.014 A 
ATOM     71  C   UNL     1      -5.569   1.242  17.662  1.00  0.00     0.009 A 
ATOM     72  C   UNL     1      -6.251   0.119  15.632  1.00  0.00     0.009 A 
ATOM     73  C   UNL     1      -6.716   2.037  17.605  1.00  0.00     0.001 A 
ATOM     74  C   UNL     1      -7.382   0.934  15.563  1.00  0.00     0.001 A 
ATOM     75  C   UNL     1      -7.619   1.885  16.554  1.00  0.00     0.000 A 
ENDBRANCH  51  70
BRANCH  63  76
ATOM     76  C   UNL     1      -3.429  -4.761  21.097  1.00  0.00    -0.014 A 
ATOM     77  C   UNL     1      -4.575  -5.568  21.033  1.00  0.00     0.009 A 
ATOM     78  C   UNL     1      -2.861  -4.484  22.351  1.00  0.00     0.009 A 
ATOM     79  C   UNL     1      -5.165  -6.050  22.203  1.00  0.00     0.001 A 
ATOM     80  C   UNL     1      -3.435  -4.992  23.517  1.00  0.00     0.001 A 
ATOM     81  C   UNL     1      -4.593  -5.764  23.443  1.00  0.00     0.000 A 
ENDBRANCH  63  76
ENDBRANCH  37  38
ENDBRANCH  29  32
ENDBRANCH  27  28
ENDBRANCH  26  27
ENDBRANCH  25  26
ENDBRANCH  24  25
ENDBRANCH   1  24
TORSDOF 17
