REMARK SMILES O=C(CSc1nnnn1-c1ccc(C(=O)NCCCCCCNC(=O)c2ccc(-c3c4nc(c(-c5ccccc5)c5ccc([nH]5)c(-c5ccccc5)c5nc(c(-c6ccccc6)c6ccc3[nH]6)C=C5)C=C4)cc2)cc1)Nc1nc(-c2ccccc2)cs1
REMARK SMILES IDX 17 1 16 2 14 3 15 4 13 6 10 7 11 8 75 9 12 10 74 11 9 12
REMARK SMILES IDX 5 13 6 14 7 15 8 16 4 17 3 18 2 19 1 20 76 21 77 23 78 24
REMARK SMILES IDX 87 25 79 26 86 27 80 28 81 29 85 30 82 31 84 32 83 33 18 34
REMARK SMILES IDX 19 35 20 36 21 37 22 38 23 39 24 40 25 42 26 43 27 44 73 45
REMARK SMILES IDX 28 46 72 47 29 48 30 49 31 50 66 51 32 52 71 53 65 54 67 55
REMARK SMILES IDX 33 56 70 57 64 58 63 59 34 61 56 62 41 63 55 64 42 65 45 66
REMARK SMILES IDX 54 67 68 68 43 69 44 70 53 72 69 73 46 74 35 75 36 76 40 77
REMARK SMILES IDX 37 78 39 79 38 80 57 81 58 82 62 83 59 84 61 85 60 86 47 87
REMARK SMILES IDX 48 88 52 89 49 90 51 91 50 92
REMARK H PARENT 16 5 76 22 23 41 67 60 45 71
REMARK Flexibility Score: inf
ROOT
ATOM      1  C   UNL     1      -0.560   4.864   2.766  1.00  0.00     0.116 C 
ENDROOT
BRANCH   1   2
ATOM      2  N   UNL     1      -0.629   4.883   4.216  1.00  0.00    -0.352 N 
ATOM      3  C   UNL     1      -0.377   3.935   5.175  1.00  0.00     0.251 C 
ATOM      4  O   UNL     1      -0.528   4.258   6.353  1.00  0.00    -0.269 OA
ATOM      5  H   UNL     1      -0.913   5.750   4.585  1.00  0.00     0.163 HD
BRANCH   3   6
ATOM      6  C   UNL     1       0.146   2.577   4.859  1.00  0.00     0.039 A 
ATOM      7  C   UNL     1       1.428   0.155   4.315  1.00  0.00     0.069 A 
ATOM      8  C   UNL     1       1.559   0.721   5.582  1.00  0.00     0.029 A 
ATOM      9  C   UNL     1       0.564   0.712   3.370  1.00  0.00     0.029 A 
ATOM     10  C   UNL     1       0.941   1.950   5.836  1.00  0.00     0.016 A 
ATOM     11  C   UNL     1      -0.110   1.897   3.667  1.00  0.00     0.016 A 
BRANCH   7  12
ATOM     12  N   UNL     1       2.112  -1.026   3.999  1.00  0.00    -0.187 N 
ATOM     13  C   UNL     1       2.937  -1.319   2.929  1.00  0.00     0.214 A 
ATOM     14  N   UNL     1       3.051  -2.626   2.835  1.00  0.00    -0.101 NA
ATOM     15  N   UNL     1       2.359  -3.142   3.904  1.00  0.00    -0.022 NA
ATOM     16  N   UNL     1       1.845  -2.176   4.655  1.00  0.00    -0.039 NA
BRANCH  13  17
ATOM     17  S   UNL     1       4.099  -0.226   2.236  1.00  0.00    -0.074 SA
BRANCH  17  18
ATOM     18  C   UNL     1       3.187   0.811   1.085  1.00  0.00     0.178 C 
BRANCH  18  19
ATOM     19  C   UNL     1       2.284   0.059   0.135  1.00  0.00     0.236 C 
ATOM     20  O   UNL     1       1.134   0.461  -0.035  1.00  0.00    -0.274 OA
ATOM     21  N   UNL     1       2.878  -1.018  -0.481  1.00  0.00    -0.301 N 
ATOM     22  H   UNL     1       3.783  -1.294  -0.208  1.00  0.00     0.172 HD
BRANCH  21  23
ATOM     23  C   UNL     1       2.234  -1.711  -1.464  1.00  0.00     0.189 A 
ATOM     24  N   UNL     1       1.189  -1.347  -2.156  1.00  0.00    -0.220 NA
ATOM     25  S   UNL     1       2.900  -3.239  -1.824  1.00  0.00    -0.105 S 
ATOM     26  C   UNL     1       0.829  -2.373  -3.000  1.00  0.00     0.084 A 
ATOM     27  C   UNL     1       1.614  -3.507  -2.933  1.00  0.00     0.097 A 
BRANCH  26  28
ATOM     28  C   UNL     1      -0.277  -2.220  -3.916  1.00  0.00     0.001 A 
ATOM     29  C   UNL     1      -0.161  -1.314  -4.977  1.00  0.00     0.010 A 
ATOM     30  C   UNL     1      -1.458  -2.947  -3.741  1.00  0.00     0.010 A 
ATOM     31  C   UNL     1      -1.207  -1.163  -5.883  1.00  0.00     0.001 A 
ATOM     32  C   UNL     1      -2.508  -2.787  -4.644  1.00  0.00     0.001 A 
ATOM     33  C   UNL     1      -2.372  -1.907  -5.719  1.00  0.00     0.000 A 
ENDBRANCH  26  28
ENDBRANCH  21  23
ENDBRANCH  18  19
ENDBRANCH  17  18
ENDBRANCH  13  17
ENDBRANCH   7  12
ENDBRANCH   3   6
ENDBRANCH   1   2
BRANCH   1  34
ATOM     34  C   UNL     1      -1.970   4.808   2.172  1.00  0.00     0.021 C 
BRANCH  34  35
ATOM     35  C   UNL     1      -2.685   6.166   2.172  1.00  0.00     0.002 C 
BRANCH  35  36
ATOM     36  C   UNL     1      -1.969   7.288   1.401  1.00  0.00     0.002 C 
BRANCH  36  37
ATOM     37  C   UNL     1      -1.557   6.955  -0.040  1.00  0.00     0.021 C 
BRANCH  37  38
ATOM     38  C   UNL     1      -2.740   6.749  -0.974  1.00  0.00     0.116 C 
BRANCH  38  39
ATOM     39  N   UNL     1      -3.485   7.986  -1.193  1.00  0.00    -0.352 N 
ATOM     40  C   UNL     1      -4.629   8.183  -1.940  1.00  0.00     0.251 C 
ATOM     41  H   UNL     1      -3.123   8.786  -0.747  1.00  0.00     0.163 HD
ATOM     42  O   UNL     1      -4.941   9.295  -2.329  1.00  0.00    -0.269 OA
BRANCH  40  43
ATOM     43  C   UNL     1      -5.468   7.016  -2.267  1.00  0.00     0.039 A 
ATOM     44  C   UNL     1      -6.033   6.878  -3.536  1.00  0.00     0.014 A 
ATOM     45  C   UNL     1      -5.669   6.046  -1.288  1.00  0.00     0.014 A 
ATOM     46  C   UNL     1      -6.731   5.711  -3.836  1.00  0.00     0.010 A 
ATOM     47  C   UNL     1      -6.233   4.840  -1.626  1.00  0.00     0.010 A 
ATOM     48  C   UNL     1      -6.805   4.681  -2.883  1.00  0.00    -0.014 A 
BRANCH  48  49
ATOM     49  C   UNL     1      -7.387   3.390  -3.236  1.00  0.00     0.031 A 
ATOM     50  C   UNL     1      -6.801   2.765  -4.450  1.00  0.00     0.074 A 
ATOM     51  C   UNL     1      -8.254   2.714  -2.449  1.00  0.00     0.049 A 
ATOM     52  N   UNL     1      -7.341   2.691  -5.621  1.00  0.00    -0.248 NA
ATOM     53  C   UNL     1      -5.412   2.275  -4.402  1.00  0.00     0.031 C 
ATOM     54  C   UNL     1      -8.683   3.055  -1.085  1.00  0.00     0.029 A 
ATOM     55  N   UNL     1      -8.861   1.510  -2.660  1.00  0.00    -0.354 N 
ATOM     56  C   UNL     1      -6.468   1.934  -6.393  1.00  0.00     0.074 A 
ATOM     57  C   UNL     1      -5.231   1.850  -5.657  1.00  0.00     0.031 C 
ATOM     58  C   UNL     1      -9.263   1.979  -0.508  1.00  0.00     0.029 A 
ATOM     59  C   UNL     1      -9.426   0.952  -1.519  1.00  0.00     0.049 A 
ATOM     60  H   UNL     1      -8.896   1.075  -3.542  1.00  0.00     0.167 HD
ATOM     61  C   UNL     1      -6.938   1.156  -7.406  1.00  0.00     0.031 A 
ATOM     62  C   UNL     1     -10.004  -0.267  -1.403  1.00  0.00     0.031 A 
ATOM     63  C   UNL     1      -8.330   1.397  -7.665  1.00  0.00     0.049 A 
ATOM     64  C   UNL     1     -10.421  -0.690  -2.753  1.00  0.00     0.074 A 
ATOM     65  C   UNL     1      -9.108   2.366  -8.252  1.00  0.00     0.029 A 
ATOM     66  N   UNL     1      -9.150   0.616  -6.895  1.00  0.00    -0.354 N 
ATOM     67  N   UNL     1     -11.371  -0.101  -3.420  1.00  0.00    -0.248 NA
ATOM     68  C   UNL     1      -9.560  -1.571  -3.531  1.00  0.00     0.031 C 
ATOM     69  C   UNL     1     -10.390   2.259  -7.632  1.00  0.00     0.029 A 
ATOM     70  C   UNL     1     -10.367   1.204  -6.720  1.00  0.00     0.049 A 
ATOM     71  H   UNL     1      -8.893  -0.256  -6.517  1.00  0.00     0.167 HD
ATOM     72  C   UNL     1     -10.955  -0.173  -4.735  1.00  0.00     0.074 A 
ATOM     73  C   UNL     1      -9.959  -1.238  -4.762  1.00  0.00     0.031 C 
ATOM     74  C   UNL     1     -11.215   0.846  -5.604  1.00  0.00     0.031 A 
BRANCH  61  75
ATOM     75  C   UNL     1      -6.386  -0.213  -7.712  1.00  0.00    -0.014 A 
ATOM     76  C   UNL     1      -6.751  -0.840  -8.917  1.00  0.00     0.009 A 
ATOM     77  C   UNL     1      -5.883  -1.034  -6.685  1.00  0.00     0.009 A 
ATOM     78  C   UNL     1      -6.635  -2.227  -9.074  1.00  0.00     0.001 A 
ATOM     79  C   UNL     1      -5.760  -2.416  -6.846  1.00  0.00     0.001 A 
ATOM     80  C   UNL     1      -6.141  -3.014  -8.038  1.00  0.00     0.000 A 
ENDBRANCH  61  75
BRANCH  62  81
ATOM     81  C   UNL     1     -10.108  -1.167  -0.239  1.00  0.00    -0.014 A 
ATOM     82  C   UNL     1     -11.117  -2.139  -0.170  1.00  0.00     0.009 A 
ATOM     83  C   UNL     1      -9.035  -1.263   0.665  1.00  0.00     0.009 A 
ATOM     84  C   UNL     1     -11.028  -3.204   0.736  1.00  0.00     0.001 A 
ATOM     85  C   UNL     1      -8.946  -2.328   1.568  1.00  0.00     0.001 A 
ATOM     86  C   UNL     1      -9.933  -3.309   1.590  1.00  0.00     0.000 A 
ENDBRANCH  62  81
BRANCH  74  87
ATOM     87  C   UNL     1     -12.349   1.770  -5.277  1.00  0.00    -0.014 A 
ATOM     88  C   UNL     1     -12.361   2.633  -4.169  1.00  0.00     0.009 A 
ATOM     89  C   UNL     1     -13.409   1.831  -6.192  1.00  0.00     0.009 A 
ATOM     90  C   UNL     1     -13.426   3.519  -3.977  1.00  0.00     0.001 A 
ATOM     91  C   UNL     1     -14.458   2.730  -6.012  1.00  0.00     0.001 A 
ATOM     92  C   UNL     1     -14.470   3.570  -4.901  1.00  0.00     0.000 A 
ENDBRANCH  74  87
ENDBRANCH  48  49
ENDBRANCH  40  43
ENDBRANCH  38  39
ENDBRANCH  37  38
ENDBRANCH  36  37
ENDBRANCH  35  36
ENDBRANCH  34  35
ENDBRANCH   1  34
TORSDOF 19
