REMARK SMILES CN1C(=O)C(=Cc2ccc(OCc3cccc(C(=O)NCCCCCCNC(=O)c4ccc(-c5c6nc(c(-c7ccccc7)c7ccc([nH]7)c(-c7ccccc7)c7nc(c(-c8ccccc8)c8ccc5[nH]8)C=C7)C=C6)cc4)c3)c(Cl)c2)C(=O)N(C)C1=S
REMARK SMILES IDX 22 1 21 2 20 3 18 4 19 5 17 7 13 8 14 9 78 10 15 11 16 12
REMARK SMILES IDX 12 13 11 14 10 15 7 16 8 17 81 18 9 19 79 20 80 21 6 22 1 23
REMARK SMILES IDX 2 24 3 25 86 26 4 27 5 28 84 29 87 30 82 31 85 32 83 33
REMARK SMILES IDX 23 34 24 35 25 36 26 37 27 38 28 39 29 41 30 42 31 43 77 44
REMARK SMILES IDX 32 45 76 46 33 47 34 48 35 49 70 50 36 51 75 52 69 53 71 54
REMARK SMILES IDX 37 55 74 56 68 57 67 58 38 60 60 61 45 62 59 63 46 64 49 65
REMARK SMILES IDX 58 66 72 67 47 68 48 69 57 71 73 72 50 73 39 74 40 75 44 76
REMARK SMILES IDX 41 77 43 78 42 79 61 80 62 81 66 82 63 83 65 84 64 85 51 86
REMARK SMILES IDX 52 87 56 88 53 89 55 90 54 91
REMARK H PARENT 20 6 27 40 71 59 49 70
REMARK Flexibility Score: inf
ROOT
ATOM      1  C   UNL     1      -1.756   4.803   0.415  1.00  0.00     0.021 C 
ENDROOT
BRANCH   1   2
ATOM      2  C   UNL     1      -2.386   5.768  -0.591  1.00  0.00     0.116 C 
BRANCH   2   3
ATOM      3  N   UNL     1      -2.946   6.941   0.056  1.00  0.00    -0.352 N 
ATOM      4  C   UNL     1      -2.545   8.234   0.277  1.00  0.00     0.251 C 
ATOM      5  O   UNL     1      -3.403   8.950   0.809  1.00  0.00    -0.269 OA
ATOM      6  H   UNL     1      -3.839   6.764   0.430  1.00  0.00     0.163 HD
BRANCH   4   7
ATOM      7  C   UNL     1      -1.213   8.856  -0.042  1.00  0.00     0.040 A 
ATOM      8  C   UNL     1       1.175   8.918  -0.619  1.00  0.00    -0.010 A 
ATOM      9  C   UNL     1       1.183  10.310  -0.419  1.00  0.00     0.007 A 
ATOM     10  C   UNL     1      -0.039   8.203  -0.451  1.00  0.00     0.021 A 
ATOM     11  C   UNL     1       0.032  10.975  -0.029  1.00  0.00     0.001 A 
ATOM     12  C   UNL     1      -1.146  10.254   0.160  1.00  0.00     0.014 A 
BRANCH   8  13
ATOM     13  C   UNL     1       2.507   8.298  -1.029  1.00  0.00     0.265 C 
BRANCH  13  14
ATOM     14  O   UNL     1       2.760   6.909  -0.812  1.00  0.00    -0.487 OA
BRANCH  14  15
ATOM     15  C   UNL     1       2.423   6.328   0.374  1.00  0.00     0.138 A 
ATOM     16  C   UNL     1       1.175   4.952   2.467  1.00  0.00    -0.023 A 
ATOM     17  C   UNL     1       1.392   4.322   1.232  1.00  0.00     0.012 A 
ATOM     18  C   UNL     1       1.722   6.212   2.693  1.00  0.00     0.032 A 
ATOM     19  C   UNL     1       2.004   5.009   0.193  1.00  0.00     0.048 A 
ATOM     20  C   UNL     1       2.384   6.888   1.658  1.00  0.00     0.083 A 
ATOM     21  Cl  UNL     1       3.139   8.382   2.076  1.00  0.00    -0.080 Cl
BRANCH  16  22
ATOM     22  C   UNL     1       0.260   4.324   3.433  1.00  0.00     0.027 C 
ATOM     23  C   UNL     1       2.631   0.536   2.598  1.00  0.00     0.156 C 
ATOM     24  N   UNL     1       1.581   1.057   3.461  1.00  0.00    -0.288 N 
ATOM     25  C   UNL     1       1.706   2.399   3.741  1.00  0.00     0.265 C 
ATOM     26  C   UNL     1       0.574   0.272   4.030  1.00  0.00     0.185 C 
ATOM     27  O   UNL     1       2.774   2.979   3.824  1.00  0.00    -0.268 OA
ATOM     28  C   UNL     1       0.421   3.080   3.916  1.00  0.00     0.106 C 
ATOM     29  N   UNL     1      -0.645   0.941   4.249  1.00  0.00    -0.288 N 
ATOM     30  S   UNL     1       0.818  -1.350   4.442  1.00  0.00    -0.040 S 
ATOM     31  C   UNL     1      -0.783   2.329   4.316  1.00  0.00     0.265 C 
ATOM     32  C   UNL     1      -1.907   0.198   4.341  1.00  0.00     0.156 C 
ATOM     33  O   UNL     1      -1.833   2.899   4.596  1.00  0.00    -0.268 OA
ENDBRANCH  16  22
ENDBRANCH  14  15
ENDBRANCH  13  14
ENDBRANCH   8  13
ENDBRANCH   4   7
ENDBRANCH   2   3
ENDBRANCH   1   2
BRANCH   1  34
ATOM     34  C   UNL     1      -2.636   3.679   0.995  1.00  0.00     0.002 C 
BRANCH  34  35
ATOM     35  C   UNL     1      -2.982   2.484   0.081  1.00  0.00     0.002 C 
BRANCH  35  36
ATOM     36  C   UNL     1      -1.821   1.711  -0.584  1.00  0.00     0.021 C 
BRANCH  36  37
ATOM     37  C   UNL     1      -1.116   0.609   0.240  1.00  0.00     0.116 C 
BRANCH  37  38
ATOM     38  N   UNL     1      -1.892  -0.627   0.329  1.00  0.00    -0.352 N 
ATOM     39  C   UNL     1      -1.556  -1.960   0.163  1.00  0.00     0.251 C 
ATOM     40  H   UNL     1      -2.840  -0.483   0.552  1.00  0.00     0.163 HD
ATOM     41  O   UNL     1      -2.466  -2.786   0.111  1.00  0.00    -0.269 OA
BRANCH  39  42
ATOM     42  C   UNL     1      -0.151  -2.451   0.056  1.00  0.00     0.039 A 
ATOM     43  C   UNL     1       0.174  -3.518  -0.788  1.00  0.00     0.014 A 
ATOM     44  C   UNL     1       0.855  -1.950   0.869  1.00  0.00     0.014 A 
ATOM     45  C   UNL     1       1.506  -3.977  -0.886  1.00  0.00     0.010 A 
ATOM     46  C   UNL     1       2.191  -2.381   0.751  1.00  0.00     0.010 A 
ATOM     47  C   UNL     1       2.556  -3.359  -0.172  1.00  0.00    -0.014 A 
BRANCH  47  48
ATOM     48  C   UNL     1       3.992  -3.549  -0.581  1.00  0.00     0.031 A 
ATOM     49  C   UNL     1       5.130  -3.949   0.337  1.00  0.00     0.074 A 
ATOM     50  C   UNL     1       4.319  -3.192  -1.843  1.00  0.00     0.049 A 
ATOM     51  N   UNL     1       6.379  -4.219   0.021  1.00  0.00    -0.248 NA
ATOM     52  C   UNL     1       4.869  -3.989   1.781  1.00  0.00     0.031 C 
ATOM     53  C   UNL     1       3.402  -2.573  -2.804  1.00  0.00     0.029 A 
ATOM     54  N   UNL     1       5.495  -3.312  -2.545  1.00  0.00    -0.354 N 
ATOM     55  C   UNL     1       7.058  -4.422   1.220  1.00  0.00     0.074 A 
ATOM     56  C   UNL     1       6.084  -4.211   2.273  1.00  0.00     0.031 C 
ATOM     57  C   UNL     1       4.008  -2.477  -3.994  1.00  0.00     0.029 A 
ATOM     58  C   UNL     1       5.367  -2.991  -3.876  1.00  0.00     0.049 A 
ATOM     59  H   UNL     1       6.344  -3.599  -2.137  1.00  0.00     0.167 HD
ATOM     60  C   UNL     1       8.359  -4.761   1.429  1.00  0.00     0.031 A 
ATOM     61  C   UNL     1       6.214  -3.129  -4.912  1.00  0.00     0.031 A 
ATOM     62  C   UNL     1       9.327  -5.015   0.386  1.00  0.00     0.049 A 
ATOM     63  C   UNL     1       7.577  -3.707  -4.695  1.00  0.00     0.074 A 
ATOM     64  C   UNL     1      10.616  -5.516   0.503  1.00  0.00     0.029 A 
ATOM     65  N   UNL     1       9.121  -4.784  -0.964  1.00  0.00    -0.354 N 
ATOM     66  N   UNL     1       8.144  -4.069  -3.574  1.00  0.00    -0.248 NA
ATOM     67  C   UNL     1       8.407  -3.911  -5.891  1.00  0.00     0.031 C 
ATOM     68  C   UNL     1      11.198  -5.558  -0.770  1.00  0.00     0.029 A 
ATOM     69  C   UNL     1      10.257  -5.121  -1.686  1.00  0.00     0.049 A 
ATOM     70  H   UNL     1       8.289  -4.431  -1.355  1.00  0.00     0.167 HD
ATOM     71  C   UNL     1       9.396  -4.552  -3.926  1.00  0.00     0.074 A 
ATOM     72  C   UNL     1       9.495  -4.462  -5.368  1.00  0.00     0.031 C 
ATOM     73  C   UNL     1      10.373  -5.023  -3.117  1.00  0.00     0.031 A 
BRANCH  60  74
ATOM     74  C   UNL     1       8.837  -4.916   2.855  1.00  0.00    -0.014 A 
ATOM     75  C   UNL     1       8.395  -5.979   3.658  1.00  0.00     0.009 A 
ATOM     76  C   UNL     1       9.818  -4.050   3.369  1.00  0.00     0.009 A 
ATOM     77  C   UNL     1       8.889  -6.145   4.956  1.00  0.00     0.001 A 
ATOM     78  C   UNL     1      10.333  -4.236   4.656  1.00  0.00     0.001 A 
ATOM     79  C   UNL     1       9.859  -5.277   5.452  1.00  0.00     0.000 A 
ENDBRANCH  60  74
BRANCH  61  80
ATOM     80  C   UNL     1       5.730  -2.817  -6.279  1.00  0.00    -0.014 A 
ATOM     81  C   UNL     1       5.356  -3.863  -7.138  1.00  0.00     0.009 A 
ATOM     82  C   UNL     1       5.571  -1.491  -6.705  1.00  0.00     0.009 A 
ATOM     83  C   UNL     1       4.840  -3.586  -8.404  1.00  0.00     0.001 A 
ATOM     84  C   UNL     1       5.031  -1.218  -7.963  1.00  0.00     0.001 A 
ATOM     85  C   UNL     1       4.671  -2.265  -8.812  1.00  0.00     0.000 A 
ENDBRANCH  61  80
BRANCH  73  86
ATOM     86  C   UNL     1      11.640  -5.487  -3.775  1.00  0.00    -0.014 A 
ATOM     87  C   UNL     1      12.563  -4.568  -4.301  1.00  0.00     0.009 A 
ATOM     88  C   UNL     1      11.920  -6.859  -3.866  1.00  0.00     0.009 A 
ATOM     89  C   UNL     1      13.724  -5.017  -4.934  1.00  0.00     0.001 A 
ATOM     90  C   UNL     1      13.092  -7.303  -4.482  1.00  0.00     0.001 A 
ATOM     91  C   UNL     1      13.989  -6.383  -5.023  1.00  0.00     0.000 A 
ENDBRANCH  73  86
ENDBRANCH  47  48
ENDBRANCH  39  42
ENDBRANCH  37  38
ENDBRANCH  36  37
ENDBRANCH  35  36
ENDBRANCH  34  35
ENDBRANCH   1  34
TORSDOF 17
