REMARK SMILES C[NH2+][C@@]1(C(=O)NCCCCCCNC(=O)c2ccc(-c3c4nc(c(-c5ccccc5)c5ccc([nH]5)c(-c5ccccc5)c5nc(c(-c6ccccc6)c6ccc3[nH]6)C=C5)C=C4)cc2)CC[C@H](Oc2cccc(C)c2)C1
REMARK SMILES IDX 9 1 8 2 7 3 6 4 4 5 5 6 3 8 64 9 75 10 65 11 66 12 2 13 1 14
REMARK SMILES IDX 67 17 68 18 69 19 74 20 70 21 72 22 71 23 73 24 10 25 11 26
REMARK SMILES IDX 12 27 13 28 14 29 15 31 16 32 17 33 63 34 18 35 62 36 19 37
REMARK SMILES IDX 20 38 21 39 56 40 22 41 61 42 55 43 57 44 23 45 60 46 54 47
REMARK SMILES IDX 53 48 24 50 46 51 31 52 45 53 32 54 35 55 44 56 58 57 33 58
REMARK SMILES IDX 34 59 43 61 59 62 36 63 25 64 26 65 30 66 27 67 29 68 28 69
REMARK SMILES IDX 47 70 48 71 52 72 49 73 51 74 50 75 37 76 38 77 42 78 39 79
REMARK SMILES IDX 41 80 40 81
REMARK H PARENT 6 7 2 15 2 16 13 30 57 49 35 60
REMARK Flexibility Score: inf
ROOT
ATOM      1  C   UNL     1      -5.430  -1.661   4.597  1.00  0.00     0.002 C 
ENDROOT
BRANCH   1   2
ATOM      2  C   UNL     1      -4.795  -2.006   3.251  1.00  0.00     0.021 C 
BRANCH   2   3
ATOM      3  C   UNL     1      -3.895  -0.941   2.629  1.00  0.00     0.116 C 
BRANCH   3   4
ATOM      4  N   UNL     1      -2.549  -0.956   3.140  1.00  0.00    -0.351 N 
ATOM      5  C   UNL     1      -1.329  -0.936   2.542  1.00  0.00     0.281 C 
ATOM      6  O   UNL     1      -0.393  -1.059   3.350  1.00  0.00    -0.268 OA
ATOM      7  H   UNL     1      -2.503  -0.985   4.123  1.00  0.00     0.163 HD
BRANCH   5   8
ATOM      8  C   UNL     1      -1.040  -0.808   0.965  1.00  0.00     0.179 C 
ATOM      9  C   UNL     1      -1.732   0.394   0.309  1.00  0.00     0.083 C 
ATOM     10  C   UNL     1      -1.528  -2.039   0.184  1.00  0.00     0.124 C 
ATOM     11  C   UNL     1      -2.947  -0.133  -0.448  1.00  0.00     0.052 C 
ATOM     12  C   UNL     1      -2.711  -1.621  -0.716  1.00  0.00     0.180 C 
BRANCH   8  13
ATOM     13  N   UNL     1       0.446  -0.747   0.899  1.00  0.00    -0.336 N 
ATOM     14  C   UNL     1       1.119  -0.141  -0.222  1.00  0.00     0.331 C 
ATOM     15  H   UNL     1       0.752  -0.239   1.729  1.00  0.00     0.346 HD
ATOM     16  H   UNL     1       0.705  -1.729   0.809  1.00  0.00     0.346 HD
ENDBRANCH   8  13
BRANCH  12  17
ATOM     17  O   UNL     1      -3.737  -2.564  -0.416  1.00  0.00    -0.490 OA
BRANCH  17  18
ATOM     18  C   UNL     1      -5.070  -2.389  -0.573  1.00  0.00     0.119 A 
ATOM     19  C   UNL     1      -5.729  -1.347  -1.206  1.00  0.00     0.046 A 
ATOM     20  C   UNL     1      -5.821  -3.398   0.041  1.00  0.00     0.049 A 
ATOM     21  C   UNL     1      -7.127  -1.272  -1.147  1.00  0.00     0.004 A 
ATOM     22  C   UNL     1      -7.216  -3.344   0.096  1.00  0.00    -0.047 A 
ATOM     23  C   UNL     1      -7.868  -2.258  -0.490  1.00  0.00     0.003 A 
ATOM     24  C   UNL     1      -7.980  -4.431   0.784  1.00  0.00     0.044 C 
ENDBRANCH  17  18
ENDBRANCH  12  17
ENDBRANCH   5   8
ENDBRANCH   3   4
ENDBRANCH   2   3
ENDBRANCH   1   2
BRANCH   1  25
ATOM     25  C   UNL     1      -6.346  -0.430   4.623  1.00  0.00     0.002 C 
BRANCH  25  26
ATOM     26  C   UNL     1      -7.407  -0.319   3.518  1.00  0.00     0.021 C 
BRANCH  26  27
ATOM     27  C   UNL     1      -8.404  -1.476   3.401  1.00  0.00     0.116 C 
BRANCH  27  28
ATOM     28  N   UNL     1      -9.280  -1.598   4.554  1.00  0.00    -0.352 N 
ATOM     29  C   UNL     1     -10.643  -1.782   4.619  1.00  0.00     0.251 C 
ATOM     30  H   UNL     1      -8.828  -1.542   5.427  1.00  0.00     0.163 HD
ATOM     31  O   UNL     1     -11.209  -1.773   5.708  1.00  0.00    -0.269 OA
BRANCH  29  32
ATOM     32  C   UNL     1     -11.450  -1.966   3.389  1.00  0.00     0.039 A 
ATOM     33  C   UNL     1     -12.608  -1.206   3.216  1.00  0.00     0.014 A 
ATOM     34  C   UNL     1     -11.117  -2.927   2.436  1.00  0.00     0.014 A 
ATOM     35  C   UNL     1     -13.382  -1.362   2.059  1.00  0.00     0.010 A 
ATOM     36  C   UNL     1     -11.848  -3.032   1.245  1.00  0.00     0.010 A 
ATOM     37  C   UNL     1     -12.991  -2.246   1.036  1.00  0.00    -0.014 A 
BRANCH  37  38
ATOM     38  C   UNL     1     -13.759  -2.312  -0.245  1.00  0.00     0.031 A 
ATOM     39  C   UNL     1     -14.428  -3.582  -0.712  1.00  0.00     0.074 A 
ATOM     40  C   UNL     1     -13.839  -1.216  -1.030  1.00  0.00     0.049 A 
ATOM     41  N   UNL     1     -15.146  -3.787  -1.791  1.00  0.00    -0.248 NA
ATOM     42  C   UNL     1     -14.251  -4.780   0.122  1.00  0.00     0.031 C 
ATOM     43  C   UNL     1     -13.200   0.073  -0.755  1.00  0.00     0.029 A 
ATOM     44  N   UNL     1     -14.503  -1.007  -2.216  1.00  0.00    -0.354 N 
ATOM     45  C   UNL     1     -15.484  -5.136  -1.778  1.00  0.00     0.074 A 
ATOM     46  C   UNL     1     -14.860  -5.708  -0.603  1.00  0.00     0.031 C 
ATOM     47  C   UNL     1     -13.543   0.948  -1.713  1.00  0.00     0.029 A 
ATOM     48  C   UNL     1     -14.393   0.278  -2.692  1.00  0.00     0.049 A 
ATOM     49  H   UNL     1     -15.010  -1.712  -2.681  1.00  0.00     0.167 HD
ATOM     50  C   UNL     1     -16.256  -5.835  -2.646  1.00  0.00     0.031 A 
ATOM     51  C   UNL     1     -14.916   0.864  -3.786  1.00  0.00     0.031 A 
ATOM     52  C   UNL     1     -16.914  -5.279  -3.800  1.00  0.00     0.049 A 
ATOM     53  C   UNL     1     -15.794   0.077  -4.717  1.00  0.00     0.074 A 
ATOM     54  C   UNL     1     -17.782  -5.905  -4.681  1.00  0.00     0.029 A 
ATOM     55  N   UNL     1     -16.781  -3.972  -4.236  1.00  0.00    -0.354 N 
ATOM     56  N   UNL     1     -16.164  -1.177  -4.638  1.00  0.00    -0.248 NA
ATOM     57  C   UNL     1     -16.333   0.793  -5.883  1.00  0.00     0.031 C 
ATOM     58  C   UNL     1     -18.141  -4.988  -5.674  1.00  0.00     0.029 A 
ATOM     59  C   UNL     1     -17.533  -3.779  -5.385  1.00  0.00     0.049 A 
ATOM     60  H   UNL     1     -16.234  -3.282  -3.796  1.00  0.00     0.167 HD
ATOM     61  C   UNL     1     -16.995  -1.393  -5.730  1.00  0.00     0.074 A 
ATOM     62  C   UNL     1     -17.088  -0.139  -6.447  1.00  0.00     0.031 C 
ATOM     63  C   UNL     1     -17.623  -2.534  -6.102  1.00  0.00     0.031 A 
BRANCH  50  64
ATOM     64  C   UNL     1     -16.441  -7.305  -2.381  1.00  0.00    -0.014 A 
ATOM     65  C   UNL     1     -17.242  -7.758  -1.321  1.00  0.00     0.009 A 
ATOM     66  C   UNL     1     -15.856  -8.248  -3.241  1.00  0.00     0.009 A 
ATOM     67  C   UNL     1     -17.423  -9.126  -1.106  1.00  0.00     0.001 A 
ATOM     68  C   UNL     1     -16.060  -9.615  -3.040  1.00  0.00     0.001 A 
ATOM     69  C   UNL     1     -16.836 -10.052  -1.967  1.00  0.00     0.000 A 
ENDBRANCH  50  64
BRANCH  51  70
ATOM     70  C   UNL     1     -14.641   2.299  -4.056  1.00  0.00    -0.014 A 
ATOM     71  C   UNL     1     -15.647   3.260  -3.873  1.00  0.00     0.009 A 
ATOM     72  C   UNL     1     -13.377   2.711  -4.502  1.00  0.00     0.009 A 
ATOM     73  C   UNL     1     -15.396   4.605  -4.154  1.00  0.00     0.001 A 
ATOM     74  C   UNL     1     -13.122   4.059  -4.756  1.00  0.00     0.001 A 
ATOM     75  C   UNL     1     -14.134   5.004  -4.590  1.00  0.00     0.000 A 
ENDBRANCH  51  70
BRANCH  63  76
ATOM     76  C   UNL     1     -18.491  -2.478  -7.327  1.00  0.00    -0.014 A 
ATOM     77  C   UNL     1     -17.931  -2.411  -8.613  1.00  0.00     0.009 A 
ATOM     78  C   UNL     1     -19.887  -2.523  -7.196  1.00  0.00     0.009 A 
ATOM     79  C   UNL     1     -18.754  -2.361  -9.740  1.00  0.00     0.001 A 
ATOM     80  C   UNL     1     -20.707  -2.497  -8.326  1.00  0.00     0.001 A 
ATOM     81  C   UNL     1     -20.140  -2.407  -9.596  1.00  0.00     0.000 A 
ENDBRANCH  63  76
ENDBRANCH  37  38
ENDBRANCH  29  32
ENDBRANCH  27  28
ENDBRANCH  26  27
ENDBRANCH  25  26
ENDBRANCH   1  25
TORSDOF 16
