REMARK SMILES Nc1ccccc1C(=O)NCc1ccc(C(=O)NCCCCCCNC(=O)c2ccc(-c3c4nc(c(-c5ccccc5)c5ccc([nH]5)c(-c5ccccc5)c5nc(c(-c6ccccc6)c6ccc3[nH]6)C=C5)C=C4)cc2)o1
REMARK SMILES IDX 20 1 19 2 18 3 16 4 17 5 15 7 12 8 13 9 76 10 14 11 11 12
REMARK SMILES IDX 10 13 8 14 9 15 7 17 2 18 3 19 4 20 6 21 5 22 1 23 21 26
REMARK SMILES IDX 22 27 23 28 24 29 25 30 26 31 27 33 28 34 29 35 75 36 30 37
REMARK SMILES IDX 74 38 31 39 32 40 33 41 68 42 34 43 73 44 67 45 69 46 35 47
REMARK SMILES IDX 72 48 66 49 65 50 36 52 58 53 43 54 57 55 44 56 47 57 56 58
REMARK SMILES IDX 70 59 45 60 46 61 55 63 71 64 48 65 37 66 38 67 42 68 39 69
REMARK SMILES IDX 41 70 40 71 59 72 60 73 64 74 61 75 63 76 62 77 49 78 50 79
REMARK SMILES IDX 54 80 51 81 53 82 52 83
REMARK H PARENT 18 6 10 16 1 24 1 25 25 32 69 51 47 62
REMARK Flexibility Score: inf
ROOT
ATOM      1  C   UNL     1       8.139   1.372  -5.586  1.00  0.00     0.021 C 
ENDROOT
BRANCH   1   2
ATOM      2  C   UNL     1       6.638   1.137  -5.726  1.00  0.00     0.116 C 
BRANCH   2   3
ATOM      3  N   UNL     1       6.285  -0.086  -5.059  1.00  0.00    -0.349 N 
ATOM      4  C   UNL     1       5.778  -0.286  -3.805  1.00  0.00     0.286 C 
ATOM      5  O   UNL     1       5.641  -1.466  -3.467  1.00  0.00    -0.266 OA
ATOM      6  H   UNL     1       6.429  -0.905  -5.586  1.00  0.00     0.163 HD
BRANCH   4   7
ATOM      7  C   UNL     1       5.376   0.825  -2.966  1.00  0.00     0.191 A 
ATOM      8  C   UNL     1       4.109   1.605  -1.325  1.00  0.00     0.124 A 
ATOM      9  C   UNL     1       4.788   2.691  -1.819  1.00  0.00     0.048 A 
ATOM     10  O   UNL     1       4.485   0.489  -1.996  1.00  0.00    -0.454 OA
ATOM     11  C   UNL     1       5.630   2.183  -2.854  1.00  0.00     0.056 A 
BRANCH   8  12
ATOM     12  C   UNL     1       3.144   1.295  -0.260  1.00  0.00     0.191 C 
BRANCH  12  13
ATOM     13  N   UNL     1       2.245   2.363   0.077  1.00  0.00    -0.345 N 
ATOM     14  C   UNL     1       0.927   2.269   0.465  1.00  0.00     0.253 C 
ATOM     15  O   UNL     1       0.357   3.309   0.799  1.00  0.00    -0.269 OA
ATOM     16  H   UNL     1       2.616   3.273   0.024  1.00  0.00     0.164 HD
BRANCH  14  17
ATOM     17  C   UNL     1       0.137   0.995   0.394  1.00  0.00     0.062 A 
ATOM     18  C   UNL     1       0.578  -0.299   0.743  1.00  0.00     0.044 A 
ATOM     19  C   UNL     1      -0.245  -1.396   0.433  1.00  0.00     0.026 A 
ATOM     20  C   UNL     1      -1.530  -1.222  -0.080  1.00  0.00     0.002 A 
ATOM     21  C   UNL     1      -1.179   1.157  -0.087  1.00  0.00     0.016 A 
ATOM     22  C   UNL     1      -2.012   0.059  -0.305  1.00  0.00     0.001 A 
BRANCH  18  23
ATOM     23  N   UNL     1       1.772  -0.574   1.399  1.00  0.00    -0.398 N 
ATOM     24  H   UNL     1       2.015  -1.505   1.610  1.00  0.00     0.156 HD
ATOM     25  H   UNL     1       2.376   0.161   1.652  1.00  0.00     0.156 HD
ENDBRANCH  18  23
ENDBRANCH  14  17
ENDBRANCH  12  13
ENDBRANCH   8  12
ENDBRANCH   4   7
ENDBRANCH   2   3
ENDBRANCH   1   2
BRANCH   1  26
ATOM     26  C   UNL     1       8.946   0.595  -6.634  1.00  0.00     0.002 C 
BRANCH  26  27
ATOM     27  C   UNL     1       8.581   0.936  -8.085  1.00  0.00     0.002 C 
BRANCH  27  28
ATOM     28  C   UNL     1       8.580   2.434  -8.397  1.00  0.00     0.021 C 
BRANCH  28  29
ATOM     29  C   UNL     1       9.935   3.095  -8.184  1.00  0.00     0.116 C 
BRANCH  29  30
ATOM     30  N   UNL     1      10.933   2.547  -9.090  1.00  0.00    -0.352 N 
ATOM     31  C   UNL     1      11.672   3.197 -10.042  1.00  0.00     0.251 C 
ATOM     32  H   UNL     1      11.099   1.581  -9.008  1.00  0.00     0.163 HD
ATOM     33  O   UNL     1      12.263   2.566 -10.915  1.00  0.00    -0.269 OA
BRANCH  31  34
ATOM     34  C   UNL     1      11.743   4.669 -10.012  1.00  0.00     0.039 A 
ATOM     35  C   UNL     1      11.586   5.384 -11.200  1.00  0.00     0.014 A 
ATOM     36  C   UNL     1      11.952   5.335  -8.801  1.00  0.00     0.014 A 
ATOM     37  C   UNL     1      11.587   6.778 -11.163  1.00  0.00     0.010 A 
ATOM     38  C   UNL     1      11.868   6.721  -8.755  1.00  0.00     0.010 A 
ATOM     39  C   UNL     1      11.695   7.456  -9.937  1.00  0.00    -0.014 A 
BRANCH  39  40
ATOM     40  C   UNL     1      11.631   8.935  -9.870  1.00  0.00     0.031 A 
ATOM     41  C   UNL     1      12.815   9.721  -9.378  1.00  0.00     0.074 A 
ATOM     42  C   UNL     1      10.486   9.565 -10.197  1.00  0.00     0.049 A 
ATOM     43  N   UNL     1      12.933  11.013  -9.209  1.00  0.00    -0.248 NA
ATOM     44  C   UNL     1      14.013   8.953  -9.002  1.00  0.00     0.031 C 
ATOM     45  C   UNL     1       9.255   8.910 -10.647  1.00  0.00     0.029 A 
ATOM     46  N   UNL     1      10.171  10.900 -10.197  1.00  0.00    -0.354 N 
ATOM     47  C   UNL     1      14.209  11.210  -8.696  1.00  0.00     0.074 A 
ATOM     48  C   UNL     1      14.804   9.903  -8.525  1.00  0.00     0.031 C 
ATOM     49  C   UNL     1       8.332   9.847 -10.914  1.00  0.00     0.029 A 
ATOM     50  C   UNL     1       8.887  11.162 -10.610  1.00  0.00     0.049 A 
ATOM     51  H   UNL     1      10.804  11.604  -9.927  1.00  0.00     0.167 HD
ATOM     52  C   UNL     1      14.838  12.375  -8.412  1.00  0.00     0.031 A 
ATOM     53  C   UNL     1       8.228  12.330 -10.724  1.00  0.00     0.031 A 
ATOM     54  C   UNL     1      14.245  13.673  -8.586  1.00  0.00     0.049 A 
ATOM     55  C   UNL     1       8.940  13.608 -10.377  1.00  0.00     0.074 A 
ATOM     56  C   UNL     1      14.817  14.916  -8.380  1.00  0.00     0.029 A 
ATOM     57  N   UNL     1      12.941  13.896  -9.002  1.00  0.00    -0.354 N 
ATOM     58  N   UNL     1      10.173  13.782  -9.964  1.00  0.00    -0.248 NA
ATOM     59  C   UNL     1       8.172  14.851 -10.522  1.00  0.00     0.031 C 
ATOM     60  C   UNL     1      13.840  15.889  -8.610  1.00  0.00     0.029 A 
ATOM     61  C   UNL     1      12.680  15.255  -9.028  1.00  0.00     0.049 A 
ATOM     62  H   UNL     1      12.297  13.192  -9.243  1.00  0.00     0.167 HD
ATOM     63  C   UNL     1      10.336  15.155  -9.830  1.00  0.00     0.074 A 
ATOM     64  C   UNL     1       9.084  15.766 -10.223  1.00  0.00     0.031 C 
ATOM     65  C   UNL     1      11.427  15.848  -9.418  1.00  0.00     0.031 A 
BRANCH  52  66
ATOM     66  C   UNL     1      16.241  12.292  -7.873  1.00  0.00    -0.014 A 
ATOM     67  C   UNL     1      17.306  11.849  -8.674  1.00  0.00     0.009 A 
ATOM     68  C   UNL     1      16.507  12.695  -6.556  1.00  0.00     0.009 A 
ATOM     69  C   UNL     1      18.600  11.773  -8.154  1.00  0.00     0.001 A 
ATOM     70  C   UNL     1      17.807  12.650  -6.049  1.00  0.00     0.001 A 
ATOM     71  C   UNL     1      18.850  12.179  -6.844  1.00  0.00     0.000 A 
ENDBRANCH  52  66
BRANCH  53  72
ATOM     72  C   UNL     1       6.819  12.349 -11.197  1.00  0.00    -0.014 A 
ATOM     73  C   UNL     1       6.493  12.899 -12.447  1.00  0.00     0.009 A 
ATOM     74  C   UNL     1       5.788  11.829 -10.398  1.00  0.00     0.009 A 
ATOM     75  C   UNL     1       5.164  12.956 -12.872  1.00  0.00     0.001 A 
ATOM     76  C   UNL     1       4.464  11.857 -10.840  1.00  0.00     0.001 A 
ATOM     77  C   UNL     1       4.151  12.431 -12.070  1.00  0.00     0.000 A 
ENDBRANCH  53  72
BRANCH  65  78
ATOM     78  C   UNL     1      11.324  17.348  -9.407  1.00  0.00    -0.014 A 
ATOM     79  C   UNL     1      10.524  18.020  -8.470  1.00  0.00     0.009 A 
ATOM     80  C   UNL     1      12.073  18.100 -10.325  1.00  0.00     0.009 A 
ATOM     81  C   UNL     1      10.449  19.415  -8.477  1.00  0.00     0.001 A 
ATOM     82  C   UNL     1      12.024  19.494 -10.308  1.00  0.00     0.001 A 
ATOM     83  C   UNL     1      11.203  20.150  -9.392  1.00  0.00     0.000 A 
ENDBRANCH  65  78
ENDBRANCH  39  40
ENDBRANCH  31  34
ENDBRANCH  29  30
ENDBRANCH  28  29
ENDBRANCH  27  28
ENDBRANCH  26  27
ENDBRANCH   1  26
TORSDOF 17
