REMARK SMILES Cc1c(C(=O)Nc2ccc(C(=O)Nc3ccccc3C(=O)NCCCCCCNC(=O)c3ccc(-c4c5nc(c(-c6ccccc6)c6ccc([nH]6)c(-c6ccccc6)c6nc(c(-c7ccccc7)c7ccc4[nH]7)C=C6)C=C5)cc3)cc2)cccc1[N+](=O)[O-]
REMARK SMILES IDX 24 1 23 2 22 3 20 4 21 5 19 7 14 8 15 9 16 10 18 11 17 12
REMARK SMILES IDX 13 13 11 14 12 15 10 17 7 18 8 19 81 20 9 21 80 22 6 23 4 24
REMARK SMILES IDX 5 25 3 27 1 28 2 29 85 30 82 31 84 32 83 33 86 34 87 35
REMARK SMILES IDX 88 36 25 37 26 38 27 39 28 40 29 41 30 42 31 44 32 45 33 46
REMARK SMILES IDX 79 47 34 48 78 49 35 50 36 51 37 52 72 53 38 54 77 55 71 56
REMARK SMILES IDX 73 57 39 58 76 59 70 60 69 61 40 63 62 64 47 65 61 66 48 67
REMARK SMILES IDX 51 68 60 69 74 70 49 71 50 72 59 74 75 75 52 76 41 77 42 78
REMARK SMILES IDX 46 79 43 80 45 81 44 82 63 83 64 84 68 85 65 86 67 87 66 88
REMARK SMILES IDX 53 89 54 90 58 91 55 92 57 93 56 94
REMARK H PARENT 22 6 13 16 6 26 29 43 73 62 51 73
REMARK Flexibility Score: inf
ROOT
ATOM      1  C   UNL     1       3.163  -1.764   3.880  1.00  0.00     0.021 C 
ENDROOT
BRANCH   1   2
ATOM      2  C   UNL     1       3.438  -0.299   4.231  1.00  0.00     0.116 C 
BRANCH   2   3
ATOM      3  N   UNL     1       4.730   0.214   3.821  1.00  0.00    -0.352 N 
ATOM      4  C   UNL     1       5.128   1.486   3.468  1.00  0.00     0.253 C 
ATOM      5  O   UNL     1       6.327   1.693   3.293  1.00  0.00    -0.269 OA
ATOM      6  H   UNL     1       5.446  -0.461   3.789  1.00  0.00     0.163 HD
BRANCH   4   7
ATOM      7  C   UNL     1       4.153   2.593   3.267  1.00  0.00     0.063 A 
ATOM      8  C   UNL     1       4.247   3.470   2.162  1.00  0.00     0.054 A 
ATOM      9  C   UNL     1       3.348   4.546   2.059  1.00  0.00     0.027 A 
ATOM     10  C   UNL     1       2.317   4.707   2.984  1.00  0.00     0.002 A 
ATOM     11  C   UNL     1       3.162   2.826   4.237  1.00  0.00     0.016 A 
ATOM     12  C   UNL     1       2.225   3.849   4.074  1.00  0.00     0.001 A 
BRANCH   8  13
ATOM     13  N   UNL     1       5.126   3.339   1.067  1.00  0.00    -0.321 N 
ATOM     14  C   UNL     1       5.537   2.238   0.346  1.00  0.00     0.255 C 
ATOM     15  O   UNL     1       6.479   2.362  -0.440  1.00  0.00    -0.269 OA
ATOM     16  H   UNL     1       5.518   4.189   0.762  1.00  0.00     0.170 HD
BRANCH  14  17
ATOM     17  C   UNL     1       4.761   0.961   0.325  1.00  0.00     0.040 A 
ATOM     18  C   UNL     1       3.209  -1.350  -0.108  1.00  0.00     0.041 A 
ATOM     19  C   UNL     1       2.709  -0.291   0.633  1.00  0.00     0.027 A 
ATOM     20  C   UNL     1       4.553  -1.327  -0.490  1.00  0.00     0.027 A 
ATOM     21  C   UNL     1       3.437   0.884   0.750  1.00  0.00     0.016 A 
ATOM     22  C   UNL     1       5.328  -0.176  -0.269  1.00  0.00     0.016 A 
BRANCH  18  23
ATOM     23  N   UNL     1       2.385  -2.385  -0.582  1.00  0.00    -0.322 N 
ATOM     24  C   UNL     1       1.016  -2.433  -0.791  1.00  0.00     0.256 C 
ATOM     25  O   UNL     1       0.491  -3.502  -1.100  1.00  0.00    -0.269 OA
ATOM     26  H   UNL     1       2.861  -3.218  -0.802  1.00  0.00     0.170 HD
BRANCH  24  27
ATOM     27  C   UNL     1       0.131  -1.236  -0.650  1.00  0.00     0.049 A 
ATOM     28  C   UNL     1       1.393   0.189  -2.344  1.00  0.00     0.053 C 
ATOM     29  C   UNL     1       0.384   0.027  -1.236  1.00  0.00     0.039 A 
ATOM     30  C   UNL     1      -0.355   1.125  -0.737  1.00  0.00     0.273 A 
ATOM     31  C   UNL     1      -0.995  -1.416   0.177  1.00  0.00     0.014 A 
ATOM     32  C   UNL     1      -1.460   0.942   0.113  1.00  0.00     0.086 A 
ATOM     33  C   UNL     1      -1.809  -0.339   0.523  1.00  0.00     0.008 A 
BRANCH  30  34
ATOM     34  N   UNL     1       0.073   2.511  -0.975  1.00  0.00     0.063 N 
ATOM     35  O   UNL     1      -0.807   3.380  -1.035  1.00  0.00    -0.258 OA
ATOM     36  O   UNL     1       1.290   2.737  -1.018  1.00  0.00    -0.258 OA
ENDBRANCH  30  34
ENDBRANCH  24  27
ENDBRANCH  18  23
ENDBRANCH  14  17
ENDBRANCH   8  13
ENDBRANCH   4   7
ENDBRANCH   2   3
ENDBRANCH   1   2
BRANCH   1  37
ATOM     37  C   UNL     1       4.275  -2.792   4.102  1.00  0.00     0.002 C 
BRANCH  37  38
ATOM     38  C   UNL     1       4.927  -2.852   5.487  1.00  0.00     0.002 C 
BRANCH  38  39
ATOM     39  C   UNL     1       3.990  -2.822   6.691  1.00  0.00     0.021 C 
BRANCH  39  40
ATOM     40  C   UNL     1       3.001  -3.975   6.768  1.00  0.00     0.116 C 
BRANCH  40  41
ATOM     41  N   UNL     1       3.465  -5.114   7.534  1.00  0.00    -0.352 N 
ATOM     42  C   UNL     1       2.829  -6.312   7.840  1.00  0.00     0.251 C 
ATOM     43  H   UNL     1       4.376  -5.026   7.894  1.00  0.00     0.163 HD
ATOM     44  O   UNL     1       3.358  -7.079   8.611  1.00  0.00    -0.269 OA
BRANCH  42  45
ATOM     45  C   UNL     1       1.591  -6.721   7.112  1.00  0.00     0.039 A 
ATOM     46  C   UNL     1       1.443  -8.089   6.839  1.00  0.00     0.014 A 
ATOM     47  C   UNL     1       0.711  -5.812   6.535  1.00  0.00     0.014 A 
ATOM     48  C   UNL     1       0.609  -8.502   5.802  1.00  0.00     0.010 A 
ATOM     49  C   UNL     1      -0.043  -6.198   5.447  1.00  0.00     0.010 A 
ATOM     50  C   UNL     1      -0.032  -7.531   5.040  1.00  0.00    -0.014 A 
BRANCH  50  51
ATOM     51  C   UNL     1      -0.626  -7.790   3.741  1.00  0.00     0.031 A 
ATOM     52  C   UNL     1      -2.079  -7.965   3.611  1.00  0.00     0.074 A 
ATOM     53  C   UNL     1       0.165  -7.800   2.648  1.00  0.00     0.049 A 
ATOM     54  N   UNL     1      -2.638  -8.634   2.663  1.00  0.00    -0.248 NA
ATOM     55  C   UNL     1      -3.024  -7.433   4.585  1.00  0.00     0.031 C 
ATOM     56  C   UNL     1      -0.239  -7.775   1.247  1.00  0.00     0.029 A 
ATOM     57  N   UNL     1       1.531  -8.057   2.609  1.00  0.00    -0.354 N 
ATOM     58  C   UNL     1      -3.986  -8.378   2.724  1.00  0.00     0.074 A 
ATOM     59  C   UNL     1      -4.188  -7.708   3.989  1.00  0.00     0.031 C 
ATOM     60  C   UNL     1       0.775  -8.236   0.496  1.00  0.00     0.029 A 
ATOM     61  C   UNL     1       1.805  -8.717   1.403  1.00  0.00     0.049 A 
ATOM     62  H   UNL     1       2.187  -7.818   3.303  1.00  0.00     0.167 HD
ATOM     63  C   UNL     1      -4.759  -8.624   1.631  1.00  0.00     0.031 A 
ATOM     64  C   UNL     1       2.303  -9.989   1.409  1.00  0.00     0.031 A 
ATOM     65  C   UNL     1      -3.983  -9.207   0.538  1.00  0.00     0.049 A 
ATOM     66  C   UNL     1       1.380 -11.006   0.774  1.00  0.00     0.074 A 
ATOM     67  C   UNL     1      -3.426  -8.669  -0.611  1.00  0.00     0.029 A 
ATOM     68  N   UNL     1      -3.410 -10.461   0.704  1.00  0.00    -0.354 N 
ATOM     69  N   UNL     1       0.110 -10.806   0.550  1.00  0.00    -0.248 NA
ATOM     70  C   UNL     1       1.808 -12.341   0.368  1.00  0.00     0.031 C 
ATOM     71  C   UNL     1      -2.475  -9.597  -1.114  1.00  0.00     0.029 A 
ATOM     72  C   UNL     1      -2.478 -10.705  -0.286  1.00  0.00     0.049 A 
ATOM     73  H   UNL     1      -3.636 -11.089   1.427  1.00  0.00     0.167 HD
ATOM     74  C   UNL     1      -0.447 -11.927  -0.013  1.00  0.00     0.074 A 
ATOM     75  C   UNL     1       0.663 -12.858  -0.115  1.00  0.00     0.031 C 
ATOM     76  C   UNL     1      -1.775 -11.982  -0.330  1.00  0.00     0.031 A 
BRANCH  63  77
ATOM     77  C   UNL     1      -6.146  -8.057   1.457  1.00  0.00    -0.014 A 
ATOM     78  C   UNL     1      -6.627  -7.785   0.163  1.00  0.00     0.009 A 
ATOM     79  C   UNL     1      -7.008  -7.728   2.516  1.00  0.00     0.009 A 
ATOM     80  C   UNL     1      -7.847  -7.131  -0.055  1.00  0.00     0.001 A 
ATOM     81  C   UNL     1      -8.210  -7.037   2.310  1.00  0.00     0.001 A 
ATOM     82  C   UNL     1      -8.625  -6.729   1.022  1.00  0.00     0.000 A 
ENDBRANCH  63  77
BRANCH  64  83
ATOM     83  C   UNL     1       3.209 -10.258   2.563  1.00  0.00    -0.014 A 
ATOM     84  C   UNL     1       4.444  -9.579   2.608  1.00  0.00     0.009 A 
ATOM     85  C   UNL     1       2.716 -10.827   3.746  1.00  0.00     0.009 A 
ATOM     86  C   UNL     1       5.101  -9.365   3.824  1.00  0.00     0.001 A 
ATOM     87  C   UNL     1       3.385 -10.621   4.960  1.00  0.00     0.001 A 
ATOM     88  C   UNL     1       4.553  -9.859   5.004  1.00  0.00     0.000 A 
ENDBRANCH  64  83
BRANCH  76  89
ATOM     89  C   UNL     1      -2.573 -13.198  -0.761  1.00  0.00    -0.014 A 
ATOM     90  C   UNL     1      -2.139 -14.524  -0.668  1.00  0.00     0.009 A 
ATOM     91  C   UNL     1      -3.910 -13.011  -1.192  1.00  0.00     0.009 A 
ATOM     92  C   UNL     1      -2.980 -15.597  -1.007  1.00  0.00     0.001 A 
ATOM     93  C   UNL     1      -4.766 -14.075  -1.485  1.00  0.00     0.001 A 
ATOM     94  C   UNL     1      -4.295 -15.374  -1.400  1.00  0.00     0.000 A 
ENDBRANCH  76  89
ENDBRANCH  50  51
ENDBRANCH  42  45
ENDBRANCH  40  41
ENDBRANCH  39  40
ENDBRANCH  38  39
ENDBRANCH  37  38
ENDBRANCH   1  37
TORSDOF 18
