REMARK SMILES C[NH+]1CCC(C(=O)N2C[C@@H](C(=O)NCCCCCCNC(=O)c3ccc(-c4c5nc(c(-c6ccccc6)c6ccc([nH]6)c(-c6ccccc6)c6nc(c(-c7ccccc7)c7ccc4[nH]7)C=C6)C=C5)cc3)[C@H](c3ccc4c(c3)OCO4)C2)CC1
REMARK SMILES IDX 16 1 15 2 14 3 13 4 11 5 12 6 10 8 8 9 9 10 81 11 71 12 6 13
REMARK SMILES IDX 7 14 5 15 1 16 2 17 3 18 83 19 4 21 82 22 72 23 73 24 77 25
REMARK SMILES IDX 74 26 76 27 75 28 78 29 80 30 79 31 17 32 18 33 19 34 20 35
REMARK SMILES IDX 21 36 22 38 23 39 24 40 70 41 25 42 69 43 26 44 27 45 28 46
REMARK SMILES IDX 63 47 29 48 68 49 62 50 64 51 30 52 67 53 61 54 60 55 31 57
REMARK SMILES IDX 53 58 38 59 52 60 39 61 42 62 51 63 65 64 40 65 41 66 50 68
REMARK SMILES IDX 66 69 43 70 32 71 33 72 37 73 34 74 36 75 35 76 54 77 55 78
REMARK SMILES IDX 59 79 56 80 58 81 57 82 44 83 45 84 49 85 46 86 48 87 47 88
REMARK H PARENT 13 7 2 20 20 37 64 56 42 67
REMARK Flexibility Score: inf
ROOT
ATOM      1  C   UNL     1       0.287  -0.008   8.384  1.00  0.00     0.002 C 
ENDROOT
BRANCH   1   2
ATOM      2  C   UNL     1       0.258   0.592   6.973  1.00  0.00     0.021 C 
BRANCH   2   3
ATOM      3  C   UNL     1       1.619   0.731   6.293  1.00  0.00     0.116 C 
BRANCH   3   4
ATOM      4  N   UNL     1       2.279  -0.546   6.078  1.00  0.00    -0.356 N 
ATOM      5  C   UNL     1       3.023  -0.981   5.021  1.00  0.00     0.225 C 
ATOM      6  O   UNL     1       3.593  -2.068   5.119  1.00  0.00    -0.275 OA
ATOM      7  H   UNL     1       2.173  -1.197   6.809  1.00  0.00     0.163 HD
BRANCH   5   8
ATOM      8  C   UNL     1       3.132  -0.134   3.773  1.00  0.00     0.107 C 
ATOM      9  N   UNL     1       3.628  -0.073   1.522  1.00  0.00    -0.341 N 
ATOM     10  C   UNL     1       3.190  -1.008   2.535  1.00  0.00     0.133 C 
ATOM     11  C   UNL     1       4.603   0.844   2.110  1.00  0.00     0.128 C 
ATOM     12  C   UNL     1       4.460   0.649   3.641  1.00  0.00     0.053 C 
BRANCH   9  13
ATOM     13  C   UNL     1       3.282   0.039   0.200  1.00  0.00     0.226 C 
ATOM     14  O   UNL     1       4.093   0.509  -0.608  1.00  0.00    -0.275 OA
BRANCH  13  15
ATOM     15  C   UNL     1       1.818  -0.097  -0.240  1.00  0.00     0.090 C 
ATOM     16  C   UNL     1      -2.478   0.034  -0.244  1.00  0.00     0.332 C 
ATOM     17  N   UNL     1      -1.069  -0.030   0.137  1.00  0.00    -0.337 N 
ATOM     18  C   UNL     1      -0.364   1.188  -0.277  1.00  0.00     0.262 C 
ATOM     19  C   UNL     1      -0.426  -1.225  -0.432  1.00  0.00     0.262 C 
ATOM     20  H   UNL     1      -1.018  -0.099   1.153  1.00  0.00     0.347 HD
ATOM     21  C   UNL     1       1.078   1.167   0.221  1.00  0.00     0.075 C 
ATOM     22  C   UNL     1       1.003  -1.339   0.108  1.00  0.00     0.075 C 
ENDBRANCH  13  15
ENDBRANCH   9  13
BRANCH  12  23
ATOM     23  C   UNL     1       4.450   1.877   4.529  1.00  0.00    -0.038 A 
ATOM     24  C   UNL     1       3.819   3.088   4.159  1.00  0.00     0.008 A 
ATOM     25  C   UNL     1       4.946   1.738   5.840  1.00  0.00     0.054 A 
ATOM     26  C   UNL     1       3.643   4.124   5.085  1.00  0.00     0.051 A 
ATOM     27  C   UNL     1       4.719   2.756   6.740  1.00  0.00     0.166 A 
ATOM     28  C   UNL     1       4.075   3.913   6.376  1.00  0.00     0.165 A 
ATOM     29  O   UNL     1       4.999   2.713   8.070  1.00  0.00    -0.454 OA
ATOM     30  O   UNL     1       3.876   4.745   7.433  1.00  0.00    -0.454 OA
ATOM     31  C   UNL     1       4.322   3.903   8.517  1.00  0.00     0.468 C 
ENDBRANCH  12  23
ENDBRANCH   5   8
ENDBRANCH   3   4
ENDBRANCH   2   3
ENDBRANCH   1   2
BRANCH   1  32
ATOM     32  C   UNL     1       1.204   0.688   9.395  1.00  0.00     0.002 C 
BRANCH  32  33
ATOM     33  C   UNL     1       0.977   2.189   9.572  1.00  0.00     0.021 C 
BRANCH  33  34
ATOM     34  C   UNL     1      -0.414   2.591  10.044  1.00  0.00     0.116 C 
BRANCH  34  35
ATOM     35  N   UNL     1      -0.671   2.190  11.419  1.00  0.00    -0.352 N 
ATOM     36  C   UNL     1      -1.002   2.950  12.512  1.00  0.00     0.251 C 
ATOM     37  H   UNL     1      -0.595   1.224  11.592  1.00  0.00     0.163 HD
ATOM     38  O   UNL     1      -1.000   2.434  13.633  1.00  0.00    -0.269 OA
BRANCH  36  39
ATOM     39  C   UNL     1      -1.341   4.385  12.375  1.00  0.00     0.039 A 
ATOM     40  C   UNL     1      -0.888   5.282  13.349  1.00  0.00     0.014 A 
ATOM     41  C   UNL     1      -2.125   4.854  11.318  1.00  0.00     0.014 A 
ATOM     42  C   UNL     1      -1.170   6.647  13.230  1.00  0.00     0.010 A 
ATOM     43  C   UNL     1      -2.332   6.223  11.154  1.00  0.00     0.010 A 
ATOM     44  C   UNL     1      -1.866   7.135  12.113  1.00  0.00    -0.014 A 
BRANCH  44  45
ATOM     45  C   UNL     1      -2.128   8.588  11.937  1.00  0.00     0.031 A 
ATOM     46  C   UNL     1      -3.544   9.104  11.894  1.00  0.00     0.074 A 
ATOM     47  C   UNL     1      -1.099   9.439  11.749  1.00  0.00     0.049 A 
ATOM     48  N   UNL     1      -3.973  10.322  11.674  1.00  0.00    -0.248 NA
ATOM     49  C   UNL     1      -4.620   8.119  12.095  1.00  0.00     0.031 C 
ATOM     50  C   UNL     1       0.318   9.067  11.721  1.00  0.00     0.029 A 
ATOM     51  N   UNL     1      -1.087  10.796  11.532  1.00  0.00    -0.354 N 
ATOM     52  C   UNL     1      -5.360  10.242  11.682  1.00  0.00     0.074 A 
ATOM     53  C   UNL     1      -5.704   8.853  11.888  1.00  0.00     0.031 C 
ATOM     54  C   UNL     1       1.059  10.168  11.518  1.00  0.00     0.029 A 
ATOM     55  C   UNL     1       0.173  11.317  11.361  1.00  0.00     0.049 A 
ATOM     56  H   UNL     1      -1.905  11.343  11.502  1.00  0.00     0.167 HD
ATOM     57  C   UNL     1      -6.268  11.238  11.546  1.00  0.00     0.031 A 
ATOM     58  C   UNL     1       0.572  12.576  11.095  1.00  0.00     0.031 A 
ATOM     59  C   UNL     1      -5.930  12.625  11.378  1.00  0.00     0.049 A 
ATOM     60  C   UNL     1      -0.459  13.663  10.963  1.00  0.00     0.074 A 
ATOM     61  C   UNL     1      -6.781  13.715  11.317  1.00  0.00     0.029 A 
ATOM     62  N   UNL     1      -4.641  13.114  11.243  1.00  0.00    -0.354 N 
ATOM     63  N   UNL     1      -1.764  13.581  11.061  1.00  0.00    -0.248 NA
ATOM     64  C   UNL     1       0.039  15.020  10.695  1.00  0.00     0.031 C 
ATOM     65  C   UNL     1      -6.010  14.859  11.090  1.00  0.00     0.029 A 
ATOM     66  C   UNL     1      -4.676  14.487  11.070  1.00  0.00     0.049 A 
ATOM     67  H   UNL     1      -3.823  12.566  11.268  1.00  0.00     0.167 HD
ATOM     68  C   UNL     1      -2.238  14.876  10.898  1.00  0.00     0.074 A 
ATOM     69  C   UNL     1      -1.081  15.727  10.715  1.00  0.00     0.031 C 
ATOM     70  C   UNL     1      -3.517  15.322  10.898  1.00  0.00     0.031 A 
BRANCH  57  71
ATOM     71  C   UNL     1      -7.726  10.870  11.572  1.00  0.00    -0.014 A 
ATOM     72  C   UNL     1      -8.358  10.474  12.761  1.00  0.00     0.009 A 
ATOM     73  C   UNL     1      -8.494  10.996  10.403  1.00  0.00     0.009 A 
ATOM     74  C   UNL     1      -9.726  10.190  12.773  1.00  0.00     0.001 A 
ATOM     75  C   UNL     1      -9.865  10.737  10.424  1.00  0.00     0.001 A 
ATOM     76  C   UNL     1     -10.479  10.329  11.607  1.00  0.00     0.000 A 
ENDBRANCH  57  71
BRANCH  58  77
ATOM     77  C   UNL     1       2.017  12.888  10.925  1.00  0.00    -0.014 A 
ATOM     78  C   UNL     1       2.695  13.680  11.865  1.00  0.00     0.009 A 
ATOM     79  C   UNL     1       2.717  12.426   9.800  1.00  0.00     0.009 A 
ATOM     80  C   UNL     1       4.030  14.037  11.661  1.00  0.00     0.001 A 
ATOM     81  C   UNL     1       4.062  12.756   9.615  1.00  0.00     0.001 A 
ATOM     82  C   UNL     1       4.713  13.573  10.537  1.00  0.00     0.000 A 
ENDBRANCH  58  77
BRANCH  70  83
ATOM     83  C   UNL     1      -3.734  16.800  10.737  1.00  0.00    -0.014 A 
ATOM     84  C   UNL     1      -3.524  17.438   9.505  1.00  0.00     0.009 A 
ATOM     85  C   UNL     1      -4.199  17.555  11.826  1.00  0.00     0.009 A 
ATOM     86  C   UNL     1      -3.743  18.811   9.377  1.00  0.00     0.001 A 
ATOM     87  C   UNL     1      -4.446  18.920  11.686  1.00  0.00     0.001 A 
ATOM     88  C   UNL     1      -4.208  19.549  10.465  1.00  0.00     0.000 A 
ENDBRANCH  70  83
ENDBRANCH  44  45
ENDBRANCH  36  39
ENDBRANCH  34  35
ENDBRANCH  33  34
ENDBRANCH  32  33
ENDBRANCH   1  32
TORSDOF 16
