REMARK SMILES COc1ccc(NC(=O)[C@@H]2CC=CC[C@H]2C(=O)NCCCCCCNC(=O)c2ccc(-c3c4nc(c(-c5ccccc5)c5ccc([nH]5)c(-c5ccccc5)c5nc(c(-c6ccccc6)c6ccc3[nH]6)C=C5)C=C4)cc2)cc1Cl
REMARK SMILES IDX 21 1 20 2 19 3 18 4 16 5 17 6 15 8 10 9 11 10 12 11 14 12
REMARK SMILES IDX 13 13 8 14 7 15 9 17 6 18 3 19 4 20 77 21 5 22 76 23 78 24
REMARK SMILES IDX 2 25 1 26 22 27 23 28 24 29 25 30 26 31 27 33 28 34 29 35
REMARK SMILES IDX 75 36 30 37 74 38 31 39 32 40 33 41 68 42 34 43 73 44 67 45
REMARK SMILES IDX 69 46 35 47 72 48 66 49 65 50 36 52 58 53 43 54 57 55 44 56
REMARK SMILES IDX 47 57 56 58 70 59 45 60 46 61 55 63 71 64 48 65 37 66 38 67
REMARK SMILES IDX 42 68 39 69 41 70 40 71 59 72 60 73 64 74 61 75 63 76 62 77
REMARK SMILES IDX 49 78 50 79 54 80 51 81 53 82 52 83
REMARK H PARENT 18 7 7 16 25 32 69 51 47 62
REMARK Flexibility Score: inf
ROOT
ATOM      1  C   UNL     1       3.772  -0.026   6.283  1.00  0.00     0.002 C 
ENDROOT
BRANCH   1   2
ATOM      2  C   UNL     1       3.036   1.150   6.936  1.00  0.00     0.021 C 
BRANCH   2   3
ATOM      3  C   UNL     1       2.691   2.277   5.975  1.00  0.00     0.116 C 
BRANCH   3   4
ATOM      4  N   UNL     1       1.890   1.780   4.881  1.00  0.00    -0.356 N 
ATOM      5  C   UNL     1       0.669   2.158   4.448  1.00  0.00     0.224 C 
ATOM      6  O   UNL     1       0.134   1.457   3.588  1.00  0.00    -0.275 OA
ATOM      7  H   UNL     1       2.301   1.046   4.369  1.00  0.00     0.163 HD
BRANCH   5   8
ATOM      8  C   UNL     1      -0.018   3.389   5.002  1.00  0.00     0.095 C 
ATOM      9  C   UNL     1      -0.653   3.146   6.380  1.00  0.00     0.095 C 
ATOM     10  C   UNL     1      -1.160   4.410   7.090  1.00  0.00     0.041 C 
ATOM     11  C   UNL     1      -0.453   5.678   6.731  1.00  0.00    -0.030 C 
ATOM     12  C   UNL     1       0.835   4.661   4.844  1.00  0.00     0.041 C 
ATOM     13  C   UNL     1       0.434   5.790   5.737  1.00  0.00    -0.030 C 
BRANCH   9  14
ATOM     14  C   UNL     1      -1.739   2.070   6.551  1.00  0.00     0.228 C 
ATOM     15  N   UNL     1      -2.689   1.679   5.661  1.00  0.00    -0.326 N 
ATOM     16  H   UNL     1      -3.317   1.018   6.031  1.00  0.00     0.169 HD
ATOM     17  O   UNL     1      -1.782   1.483   7.647  1.00  0.00    -0.274 OA
BRANCH  15  18
ATOM     18  C   UNL     1      -2.964   2.016   4.330  1.00  0.00     0.042 A 
ATOM     19  C   UNL     1      -2.871   2.421   1.573  1.00  0.00     0.137 A 
ATOM     20  C   UNL     1      -2.811   3.511   2.443  1.00  0.00     0.050 A 
ATOM     21  C   UNL     1      -3.137   1.147   2.078  1.00  0.00     0.085 A 
ATOM     22  C   UNL     1      -2.920   3.311   3.824  1.00  0.00     0.030 A 
ATOM     23  C   UNL     1      -3.212   0.949   3.458  1.00  0.00     0.050 A 
ATOM     24  Cl  UNL     1      -3.312  -0.217   1.036  1.00  0.00    -0.080 Cl
BRANCH  19  25
ATOM     25  O   UNL     1      -2.482   2.579   0.269  1.00  0.00    -0.495 OA
ATOM     26  C   UNL     1      -3.472   3.230  -0.516  1.00  0.00     0.278 C 
ENDBRANCH  19  25
ENDBRANCH  15  18
ENDBRANCH   9  14
ENDBRANCH   5   8
ENDBRANCH   3   4
ENDBRANCH   2   3
ENDBRANCH   1   2
BRANCH   1  27
ATOM     27  C   UNL     1       4.960   0.356   5.394  1.00  0.00     0.002 C 
BRANCH  27  28
ATOM     28  C   UNL     1       5.985   1.284   6.045  1.00  0.00     0.021 C 
BRANCH  28  29
ATOM     29  C   UNL     1       6.492   0.798   7.389  1.00  0.00     0.116 C 
BRANCH  29  30
ATOM     30  N   UNL     1       7.192  -0.466   7.275  1.00  0.00    -0.352 N 
ATOM     31  C   UNL     1       8.416  -0.805   7.788  1.00  0.00     0.251 C 
ATOM     32  H   UNL     1       6.729  -1.169   6.764  1.00  0.00     0.163 HD
ATOM     33  O   UNL     1       8.978  -1.833   7.433  1.00  0.00    -0.269 OA
BRANCH  31  34
ATOM     34  C   UNL     1       9.055   0.096   8.767  1.00  0.00     0.039 A 
ATOM     35  C   UNL     1      10.421   0.355   8.648  1.00  0.00     0.014 A 
ATOM     36  C   UNL     1       8.310   0.673   9.801  1.00  0.00     0.014 A 
ATOM     37  C   UNL     1      11.039   1.197   9.570  1.00  0.00     0.010 A 
ATOM     38  C   UNL     1       8.906   1.591  10.654  1.00  0.00     0.010 A 
ATOM     39  C   UNL     1      10.285   1.824  10.577  1.00  0.00    -0.014 A 
BRANCH  39  40
ATOM     40  C   UNL     1      10.946   2.662  11.603  1.00  0.00     0.031 A 
ATOM     41  C   UNL     1      10.928   2.232  13.045  1.00  0.00     0.074 A 
ATOM     42  C   UNL     1      11.539   3.814  11.245  1.00  0.00     0.049 A 
ATOM     43  N   UNL     1      11.472   2.809  14.086  1.00  0.00    -0.248 NA
ATOM     44  C   UNL     1      10.170   1.011  13.365  1.00  0.00     0.031 C 
ATOM     45  C   UNL     1      11.571   4.365   9.890  1.00  0.00     0.029 A 
ATOM     46  N   UNL     1      12.233   4.727  11.996  1.00  0.00    -0.354 N 
ATOM     47  C   UNL     1      11.106   2.033  15.179  1.00  0.00     0.074 A 
ATOM     48  C   UNL     1      10.236   0.990  14.686  1.00  0.00     0.031 C 
ATOM     49  C   UNL     1      12.281   5.505   9.899  1.00  0.00     0.029 A 
ATOM     50  C   UNL     1      12.726   5.777  11.262  1.00  0.00     0.049 A 
ATOM     51  H   UNL     1      12.366   4.638  12.968  1.00  0.00     0.167 HD
ATOM     52  C   UNL     1      11.481   2.157  16.474  1.00  0.00     0.031 A 
ATOM     53  C   UNL     1      13.460   6.837  11.646  1.00  0.00     0.031 A 
ATOM     54  C   UNL     1      12.351   3.195  16.958  1.00  0.00     0.049 A 
ATOM     55  C   UNL     1      13.886   6.950  13.082  1.00  0.00     0.074 A 
ATOM     56  C   UNL     1      12.847   3.381  18.235  1.00  0.00     0.029 A 
ATOM     57  N   UNL     1      12.848   4.230  16.179  1.00  0.00    -0.354 N 
ATOM     58  N   UNL     1      13.607   6.160  14.091  1.00  0.00    -0.248 NA
ATOM     59  C   UNL     1      14.751   8.086  13.424  1.00  0.00     0.031 C 
ATOM     60  C   UNL     1      13.595   4.564  18.243  1.00  0.00     0.029 A 
ATOM     61  C   UNL     1      13.623   5.075  16.954  1.00  0.00     0.049 A 
ATOM     62  H   UNL     1      12.674   4.347  15.217  1.00  0.00     0.167 HD
ATOM     63  C   UNL     1      14.283   6.687  15.184  1.00  0.00     0.074 A 
ATOM     64  C   UNL     1      14.998   7.854  14.706  1.00  0.00     0.031 C 
ATOM     65  C   UNL     1      14.315   6.242  16.465  1.00  0.00     0.031 A 
BRANCH  52  66
ATOM     66  C   UNL     1      10.924   1.152  17.447  1.00  0.00    -0.014 A 
ATOM     67  C   UNL     1      11.264  -0.210  17.373  1.00  0.00     0.009 A 
ATOM     68  C   UNL     1      10.025   1.569  18.440  1.00  0.00     0.009 A 
ATOM     69  C   UNL     1      10.667  -1.139  18.229  1.00  0.00     0.001 A 
ATOM     70  C   UNL     1       9.459   0.644  19.320  1.00  0.00     0.001 A 
ATOM     71  C   UNL     1       9.767  -0.711  19.203  1.00  0.00     0.000 A 
ENDBRANCH  52  66
BRANCH  53  72
ATOM     72  C   UNL     1      13.862   7.849  10.635  1.00  0.00    -0.014 A 
ATOM     73  C   UNL     1      15.190   7.930  10.190  1.00  0.00     0.009 A 
ATOM     74  C   UNL     1      12.905   8.711  10.078  1.00  0.00     0.009 A 
ATOM     75  C   UNL     1      15.554   8.866   9.219  1.00  0.00     0.001 A 
ATOM     76  C   UNL     1      13.266   9.626   9.086  1.00  0.00     0.001 A 
ATOM     77  C   UNL     1      14.591   9.707   8.663  1.00  0.00     0.000 A 
ENDBRANCH  53  72
BRANCH  65  78
ATOM     78  C   UNL     1      15.178   7.004  17.433  1.00  0.00    -0.014 A 
ATOM     79  C   UNL     1      14.840   8.298  17.860  1.00  0.00     0.009 A 
ATOM     80  C   UNL     1      16.338   6.401  17.946  1.00  0.00     0.009 A 
ATOM     81  C   UNL     1      15.671   8.988  18.746  1.00  0.00     0.001 A 
ATOM     82  C   UNL     1      17.147   7.080  18.858  1.00  0.00     0.001 A 
ATOM     83  C   UNL     1      16.820   8.377  19.247  1.00  0.00     0.000 A 
ENDBRANCH  65  78
ENDBRANCH  39  40
ENDBRANCH  31  34
ENDBRANCH  29  30
ENDBRANCH  28  29
ENDBRANCH  27  28
ENDBRANCH   1  27
TORSDOF 16
