REMARK SMILES CCCc1cc2c(cc1Cl)C=C(C(=O)NCCCCCCNC(=O)c1ccc(-c3c4nc(c(-c5ccccc5)c5ccc([nH]5)c(-c5ccccc5)c5nc(c(-c6ccccc6)c6ccc3[nH]6)C=C5)C=C4)cc1)[C@H](C(F)(F)F)O2
REMARK SMILES IDX 18 1 17 2 16 3 15 4 13 5 14 6 12 8 4 9 5 10 9 11 6 12 8 13
REMARK SMILES IDX 10 14 7 15 78 16 11 17 73 18 3 19 2 20 1 21 74 22 75 23
REMARK SMILES IDX 76 24 77 25 19 26 20 27 21 28 22 29 23 30 24 32 25 33 26 34
REMARK SMILES IDX 72 35 27 36 71 37 28 38 29 39 30 40 65 41 31 42 70 43 64 44
REMARK SMILES IDX 66 45 32 46 69 47 63 48 62 49 33 51 55 52 40 53 54 54 41 55
REMARK SMILES IDX 44 56 53 57 67 58 42 59 43 60 52 62 68 63 45 64 34 65 35 66
REMARK SMILES IDX 39 67 36 68 38 69 37 70 56 71 57 72 61 73 58 74 60 75 59 76
REMARK SMILES IDX 46 77 47 78 51 79 48 80 50 81 49 82
REMARK H PARENT 15 7 22 31 66 50 44 61
REMARK Flexibility Score: inf
ROOT
ATOM      1  C   UNL     1       1.104 -11.358   5.107  1.00  0.00     0.002 C 
ENDROOT
BRANCH   1   2
ATOM      2  C   UNL     1       1.365 -10.331   3.999  1.00  0.00     0.021 C 
BRANCH   2   3
ATOM      3  C   UNL     1       0.103  -9.679   3.435  1.00  0.00     0.116 C 
BRANCH   3   4
ATOM      4  N   UNL     1      -0.342  -8.590   4.282  1.00  0.00    -0.352 N 
ATOM      5  C   UNL     1      -0.466  -7.247   4.186  1.00  0.00     0.251 C 
ATOM      6  O   UNL     1      -0.910  -6.693   5.198  1.00  0.00    -0.270 OA
ATOM      7  H   UNL     1      -0.633  -8.916   5.164  1.00  0.00     0.163 HD
BRANCH   5   8
ATOM      8  C   UNL     1      -0.128  -6.425   2.984  1.00  0.00     0.067 C 
ATOM      9  C   UNL     1       0.211  -2.515  -0.250  1.00  0.00    -0.026 A 
ATOM     10  C   UNL     1       0.667  -3.854  -0.236  1.00  0.00     0.052 A 
ATOM     11  C   UNL     1      -0.600  -2.108   0.822  1.00  0.00     0.045 A 
ATOM     12  C   UNL     1       0.377  -4.723   0.817  1.00  0.00     0.128 A 
ATOM     13  C   UNL     1      -0.860  -2.977   1.895  1.00  0.00     0.032 A 
ATOM     14  Cl  UNL     1      -1.392  -0.578   0.915  1.00  0.00    -0.084 Cl
ATOM     15  C   UNL     1      -0.369  -4.283   1.897  1.00  0.00     0.019 A 
ATOM     16  O   UNL     1       0.824  -6.003   0.688  1.00  0.00    -0.475 OA
ATOM     17  C   UNL     1      -0.661  -5.191   2.993  1.00  0.00     0.025 C 
ATOM     18  C   UNL     1       0.767  -6.870   1.857  1.00  0.00     0.314 C 
BRANCH   9  19
ATOM     19  C   UNL     1       0.592  -1.719  -1.484  1.00  0.00     0.037 C 
BRANCH  19  20
ATOM     20  C   UNL     1       0.662  -0.190  -1.483  1.00  0.00     0.001 C 
ATOM     21  C   UNL     1       1.663   0.387  -0.493  1.00  0.00     0.004 C 
ENDBRANCH  19  20
ENDBRANCH   9  19
BRANCH  18  22
ATOM     22  C   UNL     1       2.211  -7.184   2.288  1.00  0.00     0.429 C 
ATOM     23  F   UNL     1       3.079  -6.200   1.958  1.00  0.00    -0.167 F 
ATOM     24  F   UNL     1       2.340  -7.387   3.617  1.00  0.00    -0.167 F 
ATOM     25  F   UNL     1       2.643  -8.319   1.678  1.00  0.00    -0.167 F 
ENDBRANCH  18  22
ENDBRANCH   5   8
ENDBRANCH   3   4
ENDBRANCH   2   3
ENDBRANCH   1   2
BRANCH   1  26
ATOM     26  C   UNL     1       0.261 -12.572   4.699  1.00  0.00     0.002 C 
BRANCH  26  27
ATOM     27  C   UNL     1       0.688 -13.262   3.403  1.00  0.00     0.021 C 
BRANCH  27  28
ATOM     28  C   UNL     1       2.143 -13.713   3.367  1.00  0.00     0.116 C 
BRANCH  28  29
ATOM     29  N   UNL     1       2.422 -14.777   4.317  1.00  0.00    -0.352 N 
ATOM     30  C   UNL     1       2.934 -16.033   4.085  1.00  0.00     0.251 C 
ATOM     31  H   UNL     1       2.215 -14.570   5.257  1.00  0.00     0.163 HD
ATOM     32  O   UNL     1       2.965 -16.871   4.976  1.00  0.00    -0.269 OA
BRANCH  30  33
ATOM     33  C   UNL     1       3.415 -16.372   2.729  1.00  0.00     0.039 A 
ATOM     34  C   UNL     1       4.282 -15.513   2.050  1.00  0.00     0.014 A 
ATOM     35  C   UNL     1       2.956 -17.543   2.120  1.00  0.00     0.014 A 
ATOM     36  C   UNL     1       4.560 -15.741   0.708  1.00  0.00     0.010 A 
ATOM     37  C   UNL     1       3.301 -17.809   0.792  1.00  0.00     0.010 A 
ATOM     38  C   UNL     1       4.065 -16.886   0.062  1.00  0.00    -0.014 A 
BRANCH  38  39
ATOM     39  C   UNL     1       4.353 -17.096  -1.379  1.00  0.00     0.031 A 
ATOM     40  C   UNL     1       3.245 -17.057  -2.397  1.00  0.00     0.074 A 
ATOM     41  C   UNL     1       5.627 -17.269  -1.777  1.00  0.00     0.049 A 
ATOM     42  N   UNL     1       3.318 -17.203  -3.697  1.00  0.00    -0.248 NA
ATOM     43  C   UNL     1       1.880 -16.821  -1.899  1.00  0.00     0.031 C 
ATOM     44  C   UNL     1       6.790 -17.297  -0.887  1.00  0.00     0.029 A 
ATOM     45  N   UNL     1       6.163 -17.427  -3.030  1.00  0.00    -0.354 N 
ATOM     46  C   UNL     1       2.015 -17.097  -4.166  1.00  0.00     0.074 A 
ATOM     47  C   UNL     1       1.165 -16.896  -3.013  1.00  0.00     0.031 C 
ATOM     48  C   UNL     1       7.904 -17.406  -1.625  1.00  0.00     0.029 A 
ATOM     49  C   UNL     1       7.533 -17.522  -3.032  1.00  0.00     0.049 A 
ATOM     50  H   UNL     1       5.617 -17.468  -3.849  1.00  0.00     0.167 HD
ATOM     51  C   UNL     1       1.570 -17.152  -5.443  1.00  0.00     0.031 A 
ATOM     52  C   UNL     1       8.399 -17.697  -4.048  1.00  0.00     0.031 A 
ATOM     53  C   UNL     1       2.419 -17.340  -6.590  1.00  0.00     0.049 A 
ATOM     54  C   UNL     1       7.873 -17.813  -5.449  1.00  0.00     0.074 A 
ATOM     55  C   UNL     1       2.057 -17.391  -7.925  1.00  0.00     0.029 A 
ATOM     56  N   UNL     1       3.793 -17.507  -6.540  1.00  0.00    -0.354 N 
ATOM     57  N   UNL     1       6.638 -17.710  -5.873  1.00  0.00    -0.248 NA
ATOM     58  C   UNL     1       8.857 -18.078  -6.508  1.00  0.00     0.031 C 
ATOM     59  C   UNL     1       3.206 -17.640  -8.679  1.00  0.00     0.029 A 
ATOM     60  C   UNL     1       4.291 -17.687  -7.819  1.00  0.00     0.049 A 
ATOM     61  H   UNL     1       4.335 -17.498  -5.717  1.00  0.00     0.167 HD
ATOM     62  C   UNL     1       6.694 -17.890  -7.248  1.00  0.00     0.074 A 
ATOM     63  C   UNL     1       8.088 -18.088  -7.590  1.00  0.00     0.031 C 
ATOM     64  C   UNL     1       5.679 -17.892  -8.144  1.00  0.00     0.031 A 
BRANCH  51  65
ATOM     65  C   UNL     1       0.092 -17.023  -5.683  1.00  0.00    -0.014 A 
ATOM     66  C   UNL     1      -0.643 -18.138  -6.117  1.00  0.00     0.009 A 
ATOM     67  C   UNL     1      -0.555 -15.782  -5.575  1.00  0.00     0.009 A 
ATOM     68  C   UNL     1      -1.994 -18.013  -6.447  1.00  0.00     0.001 A 
ATOM     69  C   UNL     1      -1.913 -15.665  -5.883  1.00  0.00     0.001 A 
ATOM     70  C   UNL     1      -2.628 -16.778  -6.326  1.00  0.00     0.000 A 
ENDBRANCH  51  65
BRANCH  52  71
ATOM     71  C   UNL     1       9.854 -17.771  -3.757  1.00  0.00    -0.014 A 
ATOM     72  C   UNL     1      10.386 -18.871  -3.064  1.00  0.00     0.009 A 
ATOM     73  C   UNL     1      10.706 -16.716  -4.115  1.00  0.00     0.009 A 
ATOM     74  C   UNL     1      11.736 -18.899  -2.709  1.00  0.00     0.001 A 
ATOM     75  C   UNL     1      12.062 -16.761  -3.782  1.00  0.00     0.001 A 
ATOM     76  C   UNL     1      12.573 -17.846  -3.071  1.00  0.00     0.000 A 
ENDBRANCH  52  71
BRANCH  64  77
ATOM     77  C   UNL     1       6.021 -18.111  -9.589  1.00  0.00    -0.014 A 
ATOM     78  C   UNL     1       5.915 -17.048 -10.501  1.00  0.00     0.009 A 
ATOM     79  C   UNL     1       6.344 -19.390 -10.066  1.00  0.00     0.009 A 
ATOM     80  C   UNL     1       6.110 -17.265 -11.865  1.00  0.00     0.001 A 
ATOM     81  C   UNL     1       6.562 -19.598 -11.430  1.00  0.00     0.001 A 
ATOM     82  C   UNL     1       6.436 -18.538 -12.328  1.00  0.00     0.000 A 
ENDBRANCH  64  77
ENDBRANCH  38  39
ENDBRANCH  30  33
ENDBRANCH  28  29
ENDBRANCH  27  28
ENDBRANCH  26  27
ENDBRANCH   1  26
TORSDOF 16
