REMARK SMILES CC(C)N(CCCC(=O)NCCCCCCNC(=O)c1ccc(-c2c3nc(c(-c4ccccc4)c4ccc([nH]4)c(-c4ccccc4)c4nc(c(-c5ccccc5)c5ccc2[nH]5)C=C4)C=C3)cc1)c1cc(Cl)c(Cl)cc1[N+](=O)[O-]
REMARK SMILES IDX 12 1 11 2 10 3 8 4 9 5 7 7 6 8 5 9 4 10 2 11 1 12 3 13 68 14
REMARK SMILES IDX 69 15 75 16 70 17 74 18 71 19 72 20 73 21 76 22 77 23 78 24
REMARK SMILES IDX 13 25 14 26 15 27 16 28 17 29 18 30 19 32 20 33 21 34 67 35
REMARK SMILES IDX 22 36 66 37 23 38 24 39 25 40 60 41 26 42 65 43 59 44 61 45
REMARK SMILES IDX 27 46 64 47 58 48 57 49 28 51 50 52 35 53 49 54 36 55 39 56
REMARK SMILES IDX 48 57 62 58 37 59 38 60 47 62 63 63 40 64 29 65 30 66 34 67
REMARK SMILES IDX 31 68 33 69 32 70 51 71 52 72 56 73 53 74 55 75 54 76 41 77
REMARK SMILES IDX 42 78 46 79 43 80 45 81 44 82
REMARK H PARENT 10 6 17 31 61 50 39 61
REMARK Flexibility Score: inf
ROOT
ATOM      1  C   UNL     1      -2.691  -0.244   2.436  1.00  0.00     0.021 C 
ENDROOT
BRANCH   1   2
ATOM      2  C   UNL     1      -3.552  -0.161   1.173  1.00  0.00     0.116 C 
BRANCH   2   3
ATOM      3  N   UNL     1      -4.665   0.735   1.404  1.00  0.00    -0.356 N 
ATOM      4  C   UNL     1      -4.867   1.987   0.911  1.00  0.00     0.220 C 
ATOM      5  O   UNL     1      -5.761   2.680   1.395  1.00  0.00    -0.275 OA
ATOM      6  H   UNL     1      -5.372   0.392   1.998  1.00  0.00     0.163 HD
BRANCH   4   7
ATOM      7  C   UNL     1      -4.035   2.473  -0.257  1.00  0.00     0.102 C 
BRANCH   7   8
ATOM      8  C   UNL     1      -2.753   3.231   0.098  1.00  0.00     0.031 C 
BRANCH   8   9
ATOM      9  C   UNL     1      -1.464   2.443   0.375  1.00  0.00     0.117 C 
BRANCH   9  10
ATOM     10  N   UNL     1      -0.689   1.835  -0.754  1.00  0.00    -0.364 N 
BRANCH  10  11
ATOM     11  C   UNL     1       0.792   2.006  -0.652  1.00  0.00     0.076 C 
ATOM     12  C   UNL     1       1.542   0.774  -0.158  1.00  0.00     0.030 C 
ATOM     13  C   UNL     1       1.392   2.563  -1.936  1.00  0.00     0.030 C 
ENDBRANCH  10  11
BRANCH  10  14
ATOM     14  C   UNL     1      -1.300   1.163  -1.806  1.00  0.00     0.117 A 
ATOM     15  C   UNL     1      -2.083   1.915  -2.705  1.00  0.00     0.055 A 
ATOM     16  C   UNL     1      -1.268  -0.219  -2.092  1.00  0.00     0.294 A 
ATOM     17  C   UNL     1      -2.898   1.328  -3.692  1.00  0.00     0.062 A 
ATOM     18  C   UNL     1      -2.043  -0.826  -3.103  1.00  0.00     0.110 A 
ATOM     19  Cl  UNL     1      -3.946   2.368  -4.588  1.00  0.00    -0.083 Cl
ATOM     20  C   UNL     1      -2.889  -0.051  -3.879  1.00  0.00     0.066 A 
ATOM     21  Cl  UNL     1      -3.905  -0.859  -5.014  1.00  0.00    -0.082 Cl
BRANCH  16  22
ATOM     22  N   UNL     1      -0.534  -1.171  -1.301  1.00  0.00     0.065 N 
ATOM     23  O   UNL     1       0.401  -1.765  -1.855  1.00  0.00    -0.258 OA
ATOM     24  O   UNL     1      -0.977  -1.418  -0.177  1.00  0.00    -0.258 OA
ENDBRANCH  16  22
ENDBRANCH  10  14
ENDBRANCH   9  10
ENDBRANCH   8   9
ENDBRANCH   7   8
ENDBRANCH   4   7
ENDBRANCH   2   3
ENDBRANCH   1   2
BRANCH   1  25
ATOM     25  C   UNL     1      -3.031  -1.465   3.286  1.00  0.00     0.002 C 
BRANCH  25  26
ATOM     26  C   UNL     1      -2.495  -2.778   2.702  1.00  0.00     0.002 C 
BRANCH  26  27
ATOM     27  C   UNL     1      -0.970  -2.880   2.630  1.00  0.00     0.021 C 
BRANCH  27  28
ATOM     28  C   UNL     1      -0.248  -2.696   3.952  1.00  0.00     0.116 C 
BRANCH  28  29
ATOM     29  N   UNL     1      -0.574  -3.750   4.896  1.00  0.00    -0.352 N 
ATOM     30  C   UNL     1       0.221  -4.757   5.377  1.00  0.00     0.251 C 
ATOM     31  H   UNL     1      -1.496  -3.739   5.238  1.00  0.00     0.163 HD
ATOM     32  O   UNL     1      -0.283  -5.706   5.975  1.00  0.00    -0.269 OA
BRANCH  30  33
ATOM     33  C   UNL     1       1.683  -4.711   5.168  1.00  0.00     0.039 A 
ATOM     34  C   UNL     1       2.357  -5.889   4.837  1.00  0.00     0.014 A 
ATOM     35  C   UNL     1       2.394  -3.517   5.316  1.00  0.00     0.014 A 
ATOM     36  C   UNL     1       3.735  -5.857   4.611  1.00  0.00     0.010 A 
ATOM     37  C   UNL     1       3.745  -3.467   4.993  1.00  0.00     0.010 A 
ATOM     38  C   UNL     1       4.435  -4.641   4.662  1.00  0.00    -0.014 A 
BRANCH  38  39
ATOM     39  C   UNL     1       5.896  -4.583   4.410  1.00  0.00     0.031 A 
ATOM     40  C   UNL     1       6.831  -4.131   5.500  1.00  0.00     0.074 A 
ATOM     41  C   UNL     1       6.379  -4.885   3.190  1.00  0.00     0.049 A 
ATOM     42  N   UNL     1       8.130  -3.976   5.463  1.00  0.00    -0.248 NA
ATOM     43  C   UNL     1       6.221  -3.777   6.792  1.00  0.00     0.031 C 
ATOM     44  C   UNL     1       5.575  -5.290   2.035  1.00  0.00     0.029 A 
ATOM     45  N   UNL     1       7.668  -4.894   2.718  1.00  0.00    -0.354 N 
ATOM     46  C   UNL     1       8.486  -3.489   6.714  1.00  0.00     0.074 A 
ATOM     47  C   UNL     1       7.263  -3.315   7.465  1.00  0.00     0.031 C 
ATOM     48  C   UNL     1       6.391  -5.540   0.999  1.00  0.00     0.029 A 
ATOM     49  C   UNL     1       7.768  -5.274   1.403  1.00  0.00     0.049 A 
ATOM     50  H   UNL     1       8.445  -4.650   3.270  1.00  0.00     0.167 HD
ATOM     51  C   UNL     1       9.722  -3.232   7.206  1.00  0.00     0.031 A 
ATOM     52  C   UNL     1       8.848  -5.394   0.608  1.00  0.00     0.031 A 
ATOM     53  C   UNL     1      10.939  -3.415   6.463  1.00  0.00     0.049 A 
ATOM     54  C   UNL     1      10.210  -5.100   1.171  1.00  0.00     0.074 A 
ATOM     55  C   UNL     1      12.244  -3.242   6.887  1.00  0.00     0.029 A 
ATOM     56  N   UNL     1      10.998  -3.811   5.135  1.00  0.00    -0.354 N 
ATOM     57  N   UNL     1      10.537  -4.709   2.380  1.00  0.00    -0.248 NA
ATOM     58  C   UNL     1      11.352  -5.276   0.264  1.00  0.00     0.031 C 
ATOM     59  C   UNL     1      13.091  -3.479   5.800  1.00  0.00     0.029 A 
ATOM     60  C   UNL     1      12.316  -3.860   4.715  1.00  0.00     0.049 A 
ATOM     61  H   UNL     1      10.218  -4.026   4.574  1.00  0.00     0.167 HD
ATOM     62  C   UNL     1      11.923  -4.615   2.385  1.00  0.00     0.074 A 
ATOM     63  C   UNL     1      12.374  -5.006   1.065  1.00  0.00     0.031 C 
ATOM     64  C   UNL     1      12.747  -4.241   3.394  1.00  0.00     0.031 A 
BRANCH  51  65
ATOM     65  C   UNL     1       9.805  -2.712   8.616  1.00  0.00    -0.014 A 
ATOM     66  C   UNL     1       9.462  -3.519   9.714  1.00  0.00     0.009 A 
ATOM     67  C   UNL     1      10.235  -1.397   8.851  1.00  0.00     0.009 A 
ATOM     68  C   UNL     1       9.498  -3.003  11.012  1.00  0.00     0.001 A 
ATOM     69  C   UNL     1      10.303  -0.895  10.152  1.00  0.00     0.001 A 
ATOM     70  C   UNL     1       9.922  -1.693  11.230  1.00  0.00     0.000 A 
ENDBRANCH  51  65
BRANCH  52  71
ATOM     71  C   UNL     1       8.680  -5.835  -0.801  1.00  0.00    -0.014 A 
ATOM     72  C   UNL     1       9.090  -7.116  -1.200  1.00  0.00     0.009 A 
ATOM     73  C   UNL     1       8.087  -4.986  -1.748  1.00  0.00     0.009 A 
ATOM     74  C   UNL     1       8.926  -7.531  -2.524  1.00  0.00     0.001 A 
ATOM     75  C   UNL     1       7.899  -5.413  -3.064  1.00  0.00     0.001 A 
ATOM     76  C   UNL     1       8.325  -6.682  -3.453  1.00  0.00     0.000 A 
ENDBRANCH  52  71
BRANCH  64  77
ATOM     77  C   UNL     1      14.225  -4.260   3.117  1.00  0.00    -0.014 A 
ATOM     78  C   UNL     1      14.823  -3.303   2.283  1.00  0.00     0.009 A 
ATOM     79  C   UNL     1      15.034  -5.226   3.736  1.00  0.00     0.009 A 
ATOM     80  C   UNL     1      16.199  -3.334   2.048  1.00  0.00     0.001 A 
ATOM     81  C   UNL     1      16.413  -5.235   3.523  1.00  0.00     0.001 A 
ATOM     82  C   UNL     1      16.993  -4.296   2.673  1.00  0.00     0.000 A 
ENDBRANCH  64  77
ENDBRANCH  38  39
ENDBRANCH  30  33
ENDBRANCH  28  29
ENDBRANCH  27  28
ENDBRANCH  26  27
ENDBRANCH  25  26
ENDBRANCH   1  25
TORSDOF 19
