REMARK SMILES CC(C)(C)OC(=O)Nc1ccc(-c2cccc(Cl)c2C(=O)NCCCCCCNC(=O)c2ccc(-c3c4nc(c(-c5ccccc5)c5ccc([nH]5)c(-c5ccccc5)c5nc(c(-c6ccccc6)c6ccc3[nH]6)C=C5)C=C4)cc2)cc1
REMARK SMILES IDX 24 1 23 2 22 3 20 4 21 5 19 7 13 8 14 9 15 10 17 11 16 12
REMARK SMILES IDX 18 13 12 14 9 15 10 16 81 17 11 18 80 19 8 20 6 21 7 22 5 24
REMARK SMILES IDX 2 25 1 26 3 27 4 28 25 29 26 30 27 31 28 32 29 33 30 34
REMARK SMILES IDX 31 36 32 37 33 38 79 39 34 40 78 41 35 42 36 43 37 44 72 45
REMARK SMILES IDX 38 46 77 47 71 48 73 49 39 50 76 51 70 52 69 53 40 55 62 56
REMARK SMILES IDX 47 57 61 58 48 59 51 60 60 61 74 62 49 63 50 64 59 66 75 67
REMARK SMILES IDX 52 68 41 69 42 70 46 71 43 72 45 73 44 74 63 75 64 76 68 77
REMARK SMILES IDX 65 78 67 79 66 80 53 81 54 82 58 83 55 84 57 85 56 86
REMARK H PARENT 22 6 8 23 29 35 73 54 51 65
REMARK Flexibility Score: inf
ROOT
ATOM      1  C   UNL     1       4.260   3.220  -5.544  1.00  0.00     0.021 C 
ENDROOT
BRANCH   1   2
ATOM      2  C   UNL     1       4.577   3.693  -4.131  1.00  0.00     0.116 C 
BRANCH   2   3
ATOM      3  N   UNL     1       5.951   3.786  -3.718  1.00  0.00    -0.352 N 
ATOM      4  C   UNL     1       6.483   4.500  -2.657  1.00  0.00     0.253 C 
ATOM      5  O   UNL     1       7.483   4.002  -2.131  1.00  0.00    -0.269 OA
ATOM      6  H   UNL     1       6.597   3.276  -4.258  1.00  0.00     0.163 HD
BRANCH   4   7
ATOM      7  C   UNL     1       6.012   5.837  -2.132  1.00  0.00     0.066 A 
ATOM      8  C   UNL     1       4.709   6.166  -1.660  1.00  0.00    -0.004 A 
ATOM      9  C   UNL     1       4.505   7.405  -0.992  1.00  0.00     0.009 A 
ATOM     10  C   UNL     1       5.529   8.316  -0.782  1.00  0.00     0.002 A 
ATOM     11  C   UNL     1       7.031   6.815  -1.944  1.00  0.00     0.054 A 
ATOM     12  C   UNL     1       6.789   8.025  -1.269  1.00  0.00     0.021 A 
ATOM     13  Cl  UNL     1       8.642   6.663  -2.582  1.00  0.00    -0.083 Cl
BRANCH   8  14
ATOM     14  C   UNL     1       3.488   5.369  -1.818  1.00  0.00    -0.017 A 
ATOM     15  C   UNL     1       1.181   3.808  -2.323  1.00  0.00     0.044 A 
ATOM     16  C   UNL     1       1.354   5.038  -2.962  1.00  0.00     0.027 A 
ATOM     17  C   UNL     1       2.123   3.415  -1.367  1.00  0.00     0.027 A 
ATOM     18  C   UNL     1       2.482   5.817  -2.699  1.00  0.00     0.011 A 
ATOM     19  C   UNL     1       3.268   4.186  -1.115  1.00  0.00     0.011 A 
BRANCH  15  20
ATOM     20  N   UNL     1       0.083   3.037  -2.748  1.00  0.00    -0.291 N 
ATOM     21  C   UNL     1      -0.312   1.763  -2.439  1.00  0.00     0.412 C 
ATOM     22  O   UNL     1      -1.278   1.272  -3.013  1.00  0.00    -0.224 OA
ATOM     23  H   UNL     1      -0.510   3.499  -3.383  1.00  0.00     0.173 HD
BRANCH  21  24
ATOM     24  O   UNL     1       0.434   1.143  -1.507  1.00  0.00    -0.444 OA
BRANCH  24  25
ATOM     25  C   UNL     1       0.134  -0.184  -1.003  1.00  0.00     0.106 C 
ATOM     26  C   UNL     1       0.843  -0.218   0.357  1.00  0.00     0.056 C 
ATOM     27  C   UNL     1       0.741  -1.246  -1.919  1.00  0.00     0.056 C 
ATOM     28  C   UNL     1      -1.361  -0.438  -0.789  1.00  0.00     0.056 C 
ENDBRANCH  24  25
ENDBRANCH  21  24
ENDBRANCH  15  20
ENDBRANCH   8  14
ENDBRANCH   4   7
ENDBRANCH   2   3
ENDBRANCH   1   2
BRANCH   1  29
ATOM     29  C   UNL     1       4.475   1.749  -5.908  1.00  0.00     0.002 C 
BRANCH  29  30
ATOM     30  C   UNL     1       3.813   0.668  -5.045  1.00  0.00     0.002 C 
BRANCH  30  31
ATOM     31  C   UNL     1       2.352   0.867  -4.634  1.00  0.00     0.021 C 
BRANCH  31  32
ATOM     32  C   UNL     1       1.310   1.033  -5.740  1.00  0.00     0.116 C 
BRANCH  32  33
ATOM     33  N   UNL     1       0.986  -0.219  -6.400  1.00  0.00    -0.352 N 
ATOM     34  C   UNL     1      -0.188  -0.929  -6.491  1.00  0.00     0.251 C 
ATOM     35  H   UNL     1       1.746  -0.636  -6.867  1.00  0.00     0.163 HD
ATOM     36  O   UNL     1      -0.141  -2.062  -6.972  1.00  0.00    -0.269 OA
BRANCH  34  37
ATOM     37  C   UNL     1      -1.507  -0.405  -6.036  1.00  0.00     0.039 A 
ATOM     38  C   UNL     1      -2.429  -1.324  -5.513  1.00  0.00     0.014 A 
ATOM     39  C   UNL     1      -1.910   0.922  -6.205  1.00  0.00     0.014 A 
ATOM     40  C   UNL     1      -3.715  -0.915  -5.130  1.00  0.00     0.010 A 
ATOM     41  C   UNL     1      -3.176   1.344  -5.763  1.00  0.00     0.010 A 
ATOM     42  C   UNL     1      -4.099   0.431  -5.226  1.00  0.00    -0.014 A 
BRANCH  42  43
ATOM     43  C   UNL     1      -5.458   0.871  -4.780  1.00  0.00     0.031 A 
ATOM     44  C   UNL     1      -6.454   1.436  -5.763  1.00  0.00     0.074 A 
ATOM     45  C   UNL     1      -5.817   0.767  -3.482  1.00  0.00     0.049 A 
ATOM     46  N   UNL     1      -7.673   1.871  -5.548  1.00  0.00    -0.248 NA
ATOM     47  C   UNL     1      -6.023   1.537  -7.165  1.00  0.00     0.031 C 
ATOM     48  C   UNL     1      -4.964   0.256  -2.410  1.00  0.00     0.029 A 
ATOM     49  N   UNL     1      -6.994   1.081  -2.842  1.00  0.00    -0.354 N 
ATOM     50  C   UNL     1      -8.149   2.300  -6.782  1.00  0.00     0.074 A 
ATOM     51  C   UNL     1      -7.071   2.119  -7.731  1.00  0.00     0.031 C 
ATOM     52  C   UNL     1      -5.650   0.260  -1.256  1.00  0.00     0.029 A 
ATOM     53  C   UNL     1      -6.978   0.819  -1.492  1.00  0.00     0.049 A 
ATOM     54  H   UNL     1      -7.775   1.459  -3.308  1.00  0.00     0.167 HD
ATOM     55  C   UNL     1      -9.374   2.784  -7.106  1.00  0.00     0.031 A 
ATOM     56  C   UNL     1      -7.915   1.016  -0.543  1.00  0.00     0.031 A 
ATOM     57  C   UNL     1     -10.458   2.966  -6.176  1.00  0.00     0.049 A 
ATOM     58  C   UNL     1      -9.249   1.604  -0.923  1.00  0.00     0.074 A 
ATOM     59  C   UNL     1     -11.743   3.419  -6.430  1.00  0.00     0.029 A 
ATOM     60  N   UNL     1     -10.389   2.711  -4.816  1.00  0.00    -0.354 N 
ATOM     61  N   UNL     1      -9.694   1.952  -2.105  1.00  0.00    -0.248 NA
ATOM     62  C   UNL     1     -10.214   1.818   0.168  1.00  0.00     0.031 C 
ATOM     63  C   UNL     1     -12.433   3.493  -5.216  1.00  0.00     0.029 A 
ATOM     64  C   UNL     1     -11.600   3.022  -4.216  1.00  0.00     0.049 A 
ATOM     65  H   UNL     1      -9.599   2.359  -4.346  1.00  0.00     0.167 HD
ATOM     66  C   UNL     1     -10.998   2.391  -1.904  1.00  0.00     0.074 A 
ATOM     67  C   UNL     1     -11.279   2.248  -0.492  1.00  0.00     0.031 C 
ATOM     68  C   UNL     1     -11.881   2.872  -2.812  1.00  0.00     0.031 A 
BRANCH  55  69
ATOM     69  C   UNL     1      -9.617   3.161  -8.543  1.00  0.00    -0.014 A 
ATOM     70  C   UNL     1      -9.734   2.180  -9.541  1.00  0.00     0.009 A 
ATOM     71  C   UNL     1      -9.804   4.508  -8.891  1.00  0.00     0.009 A 
ATOM     72  C   UNL     1     -10.003   2.545 -10.862  1.00  0.00     0.001 A 
ATOM     73  C   UNL     1     -10.103   4.867 -10.207  1.00  0.00     0.001 A 
ATOM     74  C   UNL     1     -10.194   3.886 -11.193  1.00  0.00     0.000 A 
ENDBRANCH  55  69
BRANCH  56  75
ATOM     75  C   UNL     1      -7.635   0.671   0.879  1.00  0.00    -0.014 A 
ATOM     76  C   UNL     1      -8.340  -0.360   1.520  1.00  0.00     0.009 A 
ATOM     77  C   UNL     1      -6.697   1.409   1.618  1.00  0.00     0.009 A 
ATOM     78  C   UNL     1      -8.143  -0.615   2.880  1.00  0.00     0.001 A 
ATOM     79  C   UNL     1      -6.476   1.128   2.968  1.00  0.00     0.001 A 
ATOM     80  C   UNL     1      -7.209   0.127   3.601  1.00  0.00     0.000 A 
ENDBRANCH  56  75
BRANCH  68  81
ATOM     81  C   UNL     1     -13.256   3.235  -2.320  1.00  0.00    -0.014 A 
ATOM     82  C   UNL     1     -13.472   4.355  -1.502  1.00  0.00     0.009 A 
ATOM     83  C   UNL     1     -14.360   2.460  -2.712  1.00  0.00     0.009 A 
ATOM     84  C   UNL     1     -14.758   4.668  -1.056  1.00  0.00     0.001 A 
ATOM     85  C   UNL     1     -15.649   2.795  -2.292  1.00  0.00     0.001 A 
ATOM     86  C   UNL     1     -15.845   3.892  -1.456  1.00  0.00     0.000 A 
ENDBRANCH  68  81
ENDBRANCH  42  43
ENDBRANCH  34  37
ENDBRANCH  32  33
ENDBRANCH  31  32
ENDBRANCH  30  31
ENDBRANCH  29  30
ENDBRANCH   1  29
TORSDOF 17
