REMARK SMILES Cc1noc(C)c1CCC(=O)N1CCC2(CC1)NC(=O)C[C@@H]2C(=O)NCCCCCCNC(=O)c1ccc(-c2c3nc(c(-c4ccccc4)c4ccc([nH]4)c(-c4ccccc4)c4nc(c(-c5ccccc5)c5ccc2[nH]5)C=C4)C=C3)cc1
REMARK SMILES IDX 28 1 27 2 26 3 25 4 23 5 24 6 22 8 10 9 11 10 12 11 13 12
REMARK SMILES IDX 17 13 14 14 16 15 15 16 18 17 19 18 21 20 20 21 9 22 8 23
REMARK SMILES IDX 7 24 1 25 2 26 3 27 4 28 5 29 6 30 29 31 30 32 31 33 32 34
REMARK SMILES IDX 33 35 34 37 35 38 36 39 82 40 37 41 81 42 38 43 39 44 40 45
REMARK SMILES IDX 75 46 41 47 80 48 74 49 76 50 42 51 79 52 73 53 72 54 43 56
REMARK SMILES IDX 65 57 50 58 64 59 51 60 54 61 63 62 77 63 52 64 53 65 62 67
REMARK SMILES IDX 78 68 55 69 44 70 45 71 49 72 46 73 48 74 47 75 66 76 67 77
REMARK SMILES IDX 71 78 68 79 70 80 69 81 56 82 57 83 61 84 58 85 60 86 59 87
REMARK H PARENT 25 7 18 19 32 36 76 55 54 66
REMARK Flexibility Score: inf
ROOT
ATOM      1  C   UNL     1      -7.148   1.004  -3.756  1.00  0.00     0.002 C 
ENDROOT
BRANCH   1   2
ATOM      2  C   UNL     1      -6.238  -0.228  -3.740  1.00  0.00     0.021 C 
BRANCH   2   3
ATOM      3  C   UNL     1      -5.443  -0.349  -2.457  1.00  0.00     0.116 C 
BRANCH   3   4
ATOM      4  N   UNL     1      -5.237  -1.680  -1.936  1.00  0.00    -0.356 N 
ATOM      5  C   UNL     1      -4.339  -1.841  -0.915  1.00  0.00     0.226 C 
ATOM      6  O   UNL     1      -4.785  -1.801   0.237  1.00  0.00    -0.275 OA
ATOM      7  H   UNL     1      -5.729  -2.450  -2.304  1.00  0.00     0.163 HD
BRANCH   5   8
ATOM      8  C   UNL     1      -2.906  -2.336  -1.148  1.00  0.00     0.113 C 
ATOM      9  C   UNL     1      -1.051   2.260  -1.562  1.00  0.00     0.222 C 
ATOM     10  O   UNL     1      -2.014   3.007  -1.760  1.00  0.00    -0.275 OA
ATOM     11  N   UNL     1      -1.065   0.912  -1.958  1.00  0.00    -0.343 N 
ATOM     12  C   UNL     1      -2.230   0.536  -2.710  1.00  0.00     0.122 C 
ATOM     13  C   UNL     1      -0.495  -0.125  -1.115  1.00  0.00     0.122 C 
ATOM     14  C   UNL     1      -2.208  -0.871  -3.300  1.00  0.00     0.051 C 
ATOM     15  C   UNL     1      -0.517  -1.539  -1.674  1.00  0.00     0.051 C 
ATOM     16  C   UNL     1      -1.887  -1.952  -2.271  1.00  0.00     0.055 C 
ATOM     17  N   UNL     1      -1.657  -3.209  -2.961  1.00  0.00    -0.350 N 
ATOM     18  C   UNL     1      -2.134  -4.316  -2.315  1.00  0.00     0.221 C 
ATOM     19  H   UNL     1      -1.193  -3.261  -3.828  1.00  0.00     0.164 HD
ATOM     20  C   UNL     1      -3.017  -3.879  -1.193  1.00  0.00     0.116 C 
ATOM     21  O   UNL     1      -1.872  -5.463  -2.622  1.00  0.00    -0.275 OA
BRANCH   9  22
ATOM     22  C   UNL     1       0.206   2.820  -0.937  1.00  0.00     0.105 C 
BRANCH  22  23
ATOM     23  C   UNL     1       0.157   2.953   0.583  1.00  0.00     0.051 C 
BRANCH  23  24
ATOM     24  C   UNL     1       0.345   1.676   1.331  1.00  0.00     0.018 A 
ATOM     25  C   UNL     1      -2.067   1.221   2.275  1.00  0.00     0.071 C 
ATOM     26  C   UNL     1      -0.622   0.943   2.083  1.00  0.00     0.084 A 
ATOM     27  N   UNL     1      -0.103  -0.192   2.565  1.00  0.00    -0.085 NA
ATOM     28  O   UNL     1       1.204  -0.229   2.132  1.00  0.00    -0.361 OA
ATOM     29  C   UNL     1       1.470   0.873   1.386  1.00  0.00     0.137 A 
ATOM     30  C   UNL     1       2.802   0.900   0.745  1.00  0.00     0.091 C 
ENDBRANCH  23  24
ENDBRANCH  22  23
ENDBRANCH   9  22
ENDBRANCH   5   8
ENDBRANCH   3   4
ENDBRANCH   2   3
ENDBRANCH   1   2
BRANCH   1  31
ATOM     31  C   UNL     1      -6.569   2.342  -3.266  1.00  0.00     0.002 C 
BRANCH  31  32
ATOM     32  C   UNL     1      -5.354   2.910  -4.002  1.00  0.00     0.021 C 
BRANCH  32  33
ATOM     33  C   UNL     1      -5.469   3.012  -5.519  1.00  0.00     0.116 C 
BRANCH  33  34
ATOM     34  N   UNL     1      -6.709   3.633  -5.956  1.00  0.00    -0.352 N 
ATOM     35  C   UNL     1      -6.936   4.696  -6.791  1.00  0.00     0.251 C 
ATOM     36  H   UNL     1      -7.524   3.219  -5.591  1.00  0.00     0.163 HD
ATOM     37  O   UNL     1      -8.076   5.130  -6.928  1.00  0.00    -0.269 OA
BRANCH  35  38
ATOM     38  C   UNL     1      -5.819   5.345  -7.506  1.00  0.00     0.039 A 
ATOM     39  C   UNL     1      -5.763   6.742  -7.528  1.00  0.00     0.014 A 
ATOM     40  C   UNL     1      -4.845   4.593  -8.167  1.00  0.00     0.014 A 
ATOM     41  C   UNL     1      -4.689   7.385  -8.144  1.00  0.00     0.010 A 
ATOM     42  C   UNL     1      -3.743   5.232  -8.729  1.00  0.00     0.010 A 
ATOM     43  C   UNL     1      -3.648   6.633  -8.711  1.00  0.00    -0.014 A 
BRANCH  43  44
ATOM     44  C   UNL     1      -2.431   7.286  -9.253  1.00  0.00     0.031 A 
ATOM     45  C   UNL     1      -2.104   7.190 -10.715  1.00  0.00     0.074 A 
ATOM     46  C   UNL     1      -1.576   7.892  -8.406  1.00  0.00     0.049 A 
ATOM     47  N   UNL     1      -1.033   7.596 -11.349  1.00  0.00    -0.248 NA
ATOM     48  C   UNL     1      -3.100   6.531 -11.575  1.00  0.00     0.031 C 
ATOM     49  C   UNL     1      -1.768   8.028  -6.960  1.00  0.00     0.029 A 
ATOM     50  N   UNL     1      -0.362   8.490  -8.637  1.00  0.00    -0.354 N 
ATOM     51  C   UNL     1      -1.218   7.227 -12.675  1.00  0.00     0.074 A 
ATOM     52  C   UNL     1      -2.484   6.531 -12.748  1.00  0.00     0.031 C 
ATOM     53  C   UNL     1      -0.718   8.680  -6.436  1.00  0.00     0.029 A 
ATOM     54  C   UNL     1       0.243   8.962  -7.497  1.00  0.00     0.049 A 
ATOM     55  H   UNL     1       0.036   8.573  -9.533  1.00  0.00     0.167 HD
ATOM     56  C   UNL     1      -0.409   7.457 -13.737  1.00  0.00     0.031 A 
ATOM     57  C   UNL     1       1.448   9.537  -7.320  1.00  0.00     0.031 A 
ATOM     58  C   UNL     1       0.848   8.153 -13.661  1.00  0.00     0.049 A 
ATOM     59  C   UNL     1       2.344   9.742  -8.508  1.00  0.00     0.074 A 
ATOM     60  C   UNL     1       1.711   8.488 -14.690  1.00  0.00     0.029 A 
ATOM     61  N   UNL     1       1.427   8.612 -12.488  1.00  0.00    -0.354 N 
ATOM     62  N   UNL     1       2.127   9.446  -9.767  1.00  0.00    -0.248 NA
ATOM     63  C   UNL     1       3.652  10.362  -8.252  1.00  0.00     0.031 C 
ATOM     64  C   UNL     1       2.840   9.097 -14.133  1.00  0.00     0.029 A 
ATOM     65  C   UNL     1       2.653   9.193 -12.763  1.00  0.00     0.049 A 
ATOM     66  H   UNL     1       1.026   8.535 -11.592  1.00  0.00     0.167 HD
ATOM     67  C   UNL     1       3.259   9.861 -10.454  1.00  0.00     0.074 A 
ATOM     68  C   UNL     1       4.153  10.447  -9.477  1.00  0.00     0.031 C 
ATOM     69  C   UNL     1       3.534   9.765 -11.778  1.00  0.00     0.031 A 
BRANCH  56  70
ATOM     70  C   UNL     1      -0.853   6.935 -15.075  1.00  0.00    -0.014 A 
ATOM     71  C   UNL     1      -1.939   7.506 -15.758  1.00  0.00     0.009 A 
ATOM     72  C   UNL     1      -0.147   5.884 -15.683  1.00  0.00     0.009 A 
ATOM     73  C   UNL     1      -2.331   7.011 -17.004  1.00  0.00     0.001 A 
ATOM     74  C   UNL     1      -0.523   5.411 -16.941  1.00  0.00     0.001 A 
ATOM     75  C   UNL     1      -1.620   5.968 -17.596  1.00  0.00     0.000 A 
ENDBRANCH  56  70
BRANCH  57  76
ATOM     76  C   UNL     1       1.884   9.947  -5.959  1.00  0.00    -0.014 A 
ATOM     77  C   UNL     1       1.995  11.305  -5.626  1.00  0.00     0.009 A 
ATOM     78  C   UNL     1       2.195   8.982  -4.987  1.00  0.00     0.009 A 
ATOM     79  C   UNL     1       2.432  11.688  -4.356  1.00  0.00     0.001 A 
ATOM     80  C   UNL     1       2.603   9.369  -3.709  1.00  0.00     0.001 A 
ATOM     81  C   UNL     1       2.730  10.721  -3.397  1.00  0.00     0.000 A 
ENDBRANCH  57  76
BRANCH  69  82
ATOM     82  C   UNL     1       4.847  10.321 -12.250  1.00  0.00    -0.014 A 
ATOM     83  C   UNL     1       6.055   9.660 -11.980  1.00  0.00     0.009 A 
ATOM     84  C   UNL     1       4.869  11.494 -13.022  1.00  0.00     0.009 A 
ATOM     85  C   UNL     1       7.262  10.176 -12.454  1.00  0.00     0.001 A 
ATOM     86  C   UNL     1       6.075  11.992 -13.518  1.00  0.00     0.001 A 
ATOM     87  C   UNL     1       7.271  11.336 -13.228  1.00  0.00     0.000 A 
ENDBRANCH  69  82
ENDBRANCH  43  44
ENDBRANCH  35  38
ENDBRANCH  33  34
ENDBRANCH  32  33
ENDBRANCH  31  32
ENDBRANCH   1  31
TORSDOF 16
