REMARK SMILES COc1cccc(NC(=O)[C@@H]2[C@@H](C(=O)NCCCCCCNC(=O)c3ccc(-c4c5nc(c(-c6ccccc6)c6ccc([nH]6)c(-c6ccccc6)c6nc(c(-c7ccccc7)c7ccc4[nH]7)C=C6)C=C5)cc3)[C@H]3C=C[C@@H]2C3)c1
REMARK SMILES IDX 18 1 17 2 16 3 15 4 13 5 14 6 12 8 11 9 76 10 73 11 75 12
REMARK SMILES IDX 77 13 74 14 9 15 8 16 10 18 7 19 3 20 4 21 78 22 5 23 6 24
REMARK SMILES IDX 2 25 1 26 19 27 20 28 21 29 22 30 23 31 24 33 25 34 26 35
REMARK SMILES IDX 72 36 27 37 71 38 28 39 29 40 30 41 65 42 31 43 70 44 64 45
REMARK SMILES IDX 66 46 32 47 69 48 63 49 62 50 33 52 55 53 40 54 54 55 41 56
REMARK SMILES IDX 44 57 53 58 67 59 42 60 43 61 52 63 68 64 45 65 34 66 35 67
REMARK SMILES IDX 39 68 36 69 38 70 37 71 56 72 57 73 61 74 58 75 60 76 59 77
REMARK SMILES IDX 46 78 47 79 51 80 48 81 50 82 49 83
REMARK H PARENT 15 7 8 17 22 32 66 51 44 62
REMARK Flexibility Score: inf
ROOT
ATOM      1  C   UNL     1       0.464  11.592  -3.990  1.00  0.00     0.002 C 
ENDROOT
BRANCH   1   2
ATOM      2  C   UNL     1       0.910  10.762  -2.782  1.00  0.00     0.021 C 
BRANCH   2   3
ATOM      3  C   UNL     1       1.386   9.354  -3.148  1.00  0.00     0.116 C 
BRANCH   3   4
ATOM      4  N   UNL     1       2.812   9.345  -3.389  1.00  0.00    -0.356 N 
ATOM      5  C   UNL     1       3.882   9.009  -2.633  1.00  0.00     0.224 C 
ATOM      6  O   UNL     1       4.979   9.309  -3.121  1.00  0.00    -0.275 OA
ATOM      7  H   UNL     1       3.056   9.647  -4.294  1.00  0.00     0.163 HD
BRANCH   5   8
ATOM      8  C   UNL     1       3.848   8.288  -1.290  1.00  0.00     0.098 C 
ATOM      9  C   UNL     1       3.068   6.939  -1.229  1.00  0.00     0.099 C 
ATOM     10  C   UNL     1       2.423   7.010   0.187  1.00  0.00     0.025 C 
ATOM     11  C   UNL     1       3.358   9.040  -0.027  1.00  0.00     0.025 C 
ATOM     12  C   UNL     1       1.297   8.011   0.149  1.00  0.00    -0.027 C 
ATOM     13  C   UNL     1       3.432   7.872   0.970  1.00  0.00     0.017 C 
ATOM     14  C   UNL     1       1.859   9.223   0.030  1.00  0.00    -0.027 C 
BRANCH   9  15
ATOM     15  C   UNL     1       3.938   5.697  -1.306  1.00  0.00     0.228 C 
ATOM     16  N   UNL     1       3.400   4.440  -1.318  1.00  0.00    -0.326 N 
ATOM     17  H   UNL     1       4.085   3.739  -1.229  1.00  0.00     0.169 HD
ATOM     18  O   UNL     1       5.170   5.768  -1.292  1.00  0.00    -0.274 OA
BRANCH  16  19
ATOM     19  C   UNL     1       2.100   3.907  -1.427  1.00  0.00     0.044 A 
ATOM     20  C   UNL     1       0.726   1.897  -1.239  1.00  0.00     0.120 A 
ATOM     21  C   UNL     1      -0.390   2.612  -1.661  1.00  0.00     0.046 A 
ATOM     22  C   UNL     1       1.967   2.535  -1.145  1.00  0.00     0.072 A 
ATOM     23  C   UNL     1      -0.274   3.966  -1.949  1.00  0.00     0.006 A 
ATOM     24  C   UNL     1       0.963   4.608  -1.830  1.00  0.00     0.026 A 
BRANCH  20  25
ATOM     25  O   UNL     1       0.519   0.565  -1.006  1.00  0.00    -0.497 OA
ATOM     26  C   UNL     1       1.218   0.046   0.121  1.00  0.00     0.278 C 
ENDBRANCH  20  25
ENDBRANCH  16  19
ENDBRANCH   9  15
ENDBRANCH   5   8
ENDBRANCH   3   4
ENDBRANCH   2   3
ENDBRANCH   1   2
BRANCH   1  27
ATOM     27  C   UNL     1      -0.831  11.108  -4.655  1.00  0.00     0.002 C 
BRANCH  27  28
ATOM     28  C   UNL     1      -2.056  11.032  -3.737  1.00  0.00     0.021 C 
BRANCH  28  29
ATOM     29  C   UNL     1      -2.453  12.353  -3.083  1.00  0.00     0.116 C 
BRANCH  29  30
ATOM     30  N   UNL     1      -2.862  13.343  -4.066  1.00  0.00    -0.352 N 
ATOM     31  C   UNL     1      -4.042  14.031  -4.177  1.00  0.00     0.251 C 
ATOM     32  H   UNL     1      -2.191  13.550  -4.756  1.00  0.00     0.163 HD
ATOM     33  O   UNL     1      -4.289  14.664  -5.202  1.00  0.00    -0.269 OA
BRANCH  31  34
ATOM     34  C   UNL     1      -5.027  14.017  -3.074  1.00  0.00     0.039 A 
ATOM     35  C   UNL     1      -6.385  13.898  -3.383  1.00  0.00     0.014 A 
ATOM     36  C   UNL     1      -4.623  14.175  -1.745  1.00  0.00     0.014 A 
ATOM     37  C   UNL     1      -7.335  13.898  -2.359  1.00  0.00     0.010 A 
ATOM     38  C   UNL     1      -5.565  14.111  -0.720  1.00  0.00     0.010 A 
ATOM     39  C   UNL     1      -6.931  13.986  -1.017  1.00  0.00    -0.014 A 
BRANCH  39  40
ATOM     40  C   UNL     1      -7.925  13.983   0.085  1.00  0.00     0.031 A 
ATOM     41  C   UNL     1      -8.113  15.211   0.934  1.00  0.00     0.074 A 
ATOM     42  C   UNL     1      -8.628  12.865   0.351  1.00  0.00     0.049 A 
ATOM     43  N   UNL     1      -8.890  15.386   1.973  1.00  0.00    -0.248 NA
ATOM     44  C   UNL     1      -7.306  16.390   0.582  1.00  0.00     0.031 C 
ATOM     45  C   UNL     1      -8.521  11.600  -0.379  1.00  0.00     0.029 A 
ATOM     46  N   UNL     1      -9.573  12.614   1.314  1.00  0.00    -0.354 N 
ATOM     47  C   UNL     1      -8.658  16.687   2.403  1.00  0.00     0.074 A 
ATOM     48  C   UNL     1      -7.631  17.238   1.546  1.00  0.00     0.031 C 
ATOM     49  C   UNL     1      -9.383  10.715   0.148  1.00  0.00     0.029 A 
ATOM     50  C   UNL     1     -10.077  11.338   1.271  1.00  0.00     0.049 A 
ATOM     51  H   UNL     1      -9.861  13.286   1.974  1.00  0.00     0.167 HD
ATOM     52  C   UNL     1      -9.258  17.371   3.406  1.00  0.00     0.031 A 
ATOM     53  C   UNL     1     -10.995  10.736   2.050  1.00  0.00     0.031 A 
ATOM     54  C   UNL     1     -10.285  16.830   4.255  1.00  0.00     0.049 A 
ATOM     55  C   UNL     1     -11.638  11.513   3.165  1.00  0.00     0.074 A 
ATOM     56  C   UNL     1     -10.973  17.451   5.283  1.00  0.00     0.029 A 
ATOM     57  N   UNL     1     -10.778  15.537   4.167  1.00  0.00    -0.354 N 
ATOM     58  N   UNL     1     -11.436  12.756   3.530  1.00  0.00    -0.248 NA
ATOM     59  C   UNL     1     -12.650  10.807   3.964  1.00  0.00     0.031 C 
ATOM     60  C   UNL     1     -11.859  16.523   5.840  1.00  0.00     0.029 A 
ATOM     61  C   UNL     1     -11.756  15.339   5.127  1.00  0.00     0.049 A 
ATOM     62  H   UNL     1     -10.476  14.860   3.519  1.00  0.00     0.167 HD
ATOM     63  C   UNL     1     -12.318  12.990   4.577  1.00  0.00     0.074 A 
ATOM     64  C   UNL     1     -13.065  11.766   4.779  1.00  0.00     0.031 C 
ATOM     65  C   UNL     1     -12.496  14.118   5.306  1.00  0.00     0.031 A 
BRANCH  52  66
ATOM     66  C   UNL     1      -8.815  18.789   3.633  1.00  0.00    -0.014 A 
ATOM     67  C   UNL     1      -9.147  19.804   2.721  1.00  0.00     0.009 A 
ATOM     68  C   UNL     1      -8.084  19.122   4.784  1.00  0.00     0.009 A 
ATOM     69  C   UNL     1      -8.724  21.117   2.938  1.00  0.00     0.001 A 
ATOM     70  C   UNL     1      -7.686  20.441   5.012  1.00  0.00     0.001 A 
ATOM     71  C   UNL     1      -7.998  21.435   4.085  1.00  0.00     0.000 A 
ENDBRANCH  52  66
BRANCH  53  72
ATOM     72  C   UNL     1     -11.383   9.324   1.796  1.00  0.00    -0.014 A 
ATOM     73  C   UNL     1     -12.652   9.018   1.280  1.00  0.00     0.009 A 
ATOM     74  C   UNL     1     -10.499   8.275   2.090  1.00  0.00     0.009 A 
ATOM     75  C   UNL     1     -13.040   7.689   1.096  1.00  0.00     0.001 A 
ATOM     76  C   UNL     1     -10.879   6.948   1.878  1.00  0.00     0.001 A 
ATOM     77  C   UNL     1     -12.152   6.656   1.393  1.00  0.00     0.000 A 
ENDBRANCH  53  72
BRANCH  65  78
ATOM     78  C   UNL     1     -13.573  14.095   6.352  1.00  0.00    -0.014 A 
ATOM     79  C   UNL     1     -13.414  13.380   7.549  1.00  0.00     0.009 A 
ATOM     80  C   UNL     1     -14.755  14.823   6.144  1.00  0.00     0.009 A 
ATOM     81  C   UNL     1     -14.435  13.366   8.501  1.00  0.00     0.001 A 
ATOM     82  C   UNL     1     -15.762  14.829   7.109  1.00  0.00     0.001 A 
ATOM     83  C   UNL     1     -15.605  14.093   8.282  1.00  0.00     0.000 A 
ENDBRANCH  65  78
ENDBRANCH  39  40
ENDBRANCH  31  34
ENDBRANCH  29  30
ENDBRANCH  28  29
ENDBRANCH  27  28
ENDBRANCH   1  27
TORSDOF 16
