REMARK SMILES O=C(NCCCCCCNC(=O)[C@@]1(Cl)C=CC=C(c2ccccc2)[C@H]1Cl)c1ccc(-c2c3nc(c(-c4ccccc4)c4ccc([nH]4)c(-c4ccccc4)c4nc(c(-c5ccccc5)c5ccc2[nH]5)C=C4)C=C3)cc1
REMARK SMILES IDX 6 1 5 2 4 3 3 4 1 5 2 6 27 8 28 9 74 10 29 11 73 12 30 13
REMARK SMILES IDX 31 14 32 15 67 16 33 17 72 18 66 19 68 20 34 21 71 22 65 23
REMARK SMILES IDX 64 24 35 26 57 27 42 28 56 29 43 30 46 31 55 32 69 33 44 34
REMARK SMILES IDX 45 35 54 37 70 38 47 39 36 40 37 41 41 42 38 43 40 44 39 45
REMARK SMILES IDX 58 46 59 47 63 48 60 49 62 50 61 51 48 52 49 53 53 54 50 55
REMARK SMILES IDX 52 56 51 57 7 58 8 59 9 60 10 61 11 62 12 64 13 65 14 66
REMARK SMILES IDX 15 67 25 68 16 69 18 70 26 71 17 72 19 73 20 74 24 75 21 76
REMARK SMILES IDX 23 77 22 78
REMARK H PARENT 3 7 68 25 46 36 10 63
REMARK Flexibility Score: inf
ROOT
ATOM      1  C   UNL     1       4.161   3.342   1.851  1.00  0.00     0.002 C 
ENDROOT
BRANCH   1   2
ATOM      2  C   UNL     1       4.663   2.587   0.620  1.00  0.00     0.021 C 
BRANCH   2   3
ATOM      3  C   UNL     1       4.474   1.081   0.717  1.00  0.00     0.116 C 
BRANCH   3   4
ATOM      4  N   UNL     1       3.064   0.727   0.767  1.00  0.00    -0.352 N 
ATOM      5  O   UNL     1       1.138  -0.109  -0.072  1.00  0.00    -0.269 OA
ATOM      6  C   UNL     1       2.366  -0.091  -0.080  1.00  0.00     0.251 C 
ATOM      7  H   UNL     1       2.546   1.126   1.504  1.00  0.00     0.163 HD
BRANCH   6   8
ATOM      8  C   UNL     1       3.118  -0.957  -1.006  1.00  0.00     0.039 A 
ATOM      9  C   UNL     1       4.212  -1.690  -0.535  1.00  0.00     0.014 A 
ATOM     10  C   UNL     1       2.719  -1.049  -2.341  1.00  0.00     0.014 A 
ATOM     11  C   UNL     1       4.965  -2.446  -1.419  1.00  0.00     0.010 A 
ATOM     12  C   UNL     1       3.425  -1.881  -3.210  1.00  0.00     0.010 A 
ATOM     13  C   UNL     1       4.549  -2.588  -2.751  1.00  0.00    -0.014 A 
BRANCH  13  14
ATOM     14  C   UNL     1       5.204  -3.608  -3.601  1.00  0.00     0.031 A 
ATOM     15  C   UNL     1       5.982  -3.230  -4.824  1.00  0.00     0.074 A 
ATOM     16  C   UNL     1       5.059  -4.900  -3.246  1.00  0.00     0.049 A 
ATOM     17  N   UNL     1       6.580  -4.014  -5.684  1.00  0.00    -0.248 NA
ATOM     18  C   UNL     1       6.105  -1.796  -5.130  1.00  0.00     0.031 C 
ATOM     19  C   UNL     1       4.308  -5.375  -2.077  1.00  0.00     0.029 A 
ATOM     20  N   UNL     1       5.531  -6.050  -3.822  1.00  0.00    -0.354 N 
ATOM     21  C   UNL     1       7.128  -3.176  -6.646  1.00  0.00     0.074 A 
ATOM     22  C   UNL     1       6.787  -1.821  -6.269  1.00  0.00     0.031 C 
ATOM     23  C   UNL     1       4.394  -6.710  -2.009  1.00  0.00     0.029 A 
ATOM     24  C   UNL     1       5.135  -7.191  -3.167  1.00  0.00     0.049 A 
ATOM     25  H   UNL     1       6.098  -6.057  -4.627  1.00  0.00     0.167 HD
ATOM     26  C   UNL     1       7.844  -3.518  -7.742  1.00  0.00     0.031 A 
ATOM     27  C   UNL     1       5.306  -8.486  -3.486  1.00  0.00     0.031 A 
ATOM     28  C   UNL     1       8.174  -4.873  -8.102  1.00  0.00     0.049 A 
ATOM     29  C   UNL     1       6.059  -8.823  -4.738  1.00  0.00     0.074 A 
ATOM     30  C   UNL     1       8.952  -5.315  -9.158  1.00  0.00     0.029 A 
ATOM     31  N   UNL     1       7.732  -6.002  -7.431  1.00  0.00    -0.354 N 
ATOM     32  N   UNL     1       6.642  -8.017  -5.591  1.00  0.00    -0.248 NA
ATOM     33  C   UNL     1       6.171 -10.248  -5.076  1.00  0.00     0.031 C 
ATOM     34  C   UNL     1       8.917  -6.712  -9.171  1.00  0.00     0.029 A 
ATOM     35  C   UNL     1       8.175  -7.141  -8.083  1.00  0.00     0.049 A 
ATOM     36  H   UNL     1       7.184  -5.995  -6.613  1.00  0.00     0.167 HD
ATOM     37  C   UNL     1       7.199  -8.837  -6.562  1.00  0.00     0.074 A 
ATOM     38  C   UNL     1       6.914 -10.203  -6.172  1.00  0.00     0.031 C 
ATOM     39  C   UNL     1       7.875  -8.490  -7.683  1.00  0.00     0.031 A 
BRANCH  26  40
ATOM     40  C   UNL     1       8.298  -2.424  -8.668  1.00  0.00    -0.014 A 
ATOM     41  C   UNL     1       9.350  -1.562  -8.325  1.00  0.00     0.009 A 
ATOM     42  C   UNL     1       7.732  -2.328  -9.950  1.00  0.00     0.009 A 
ATOM     43  C   UNL     1       9.818  -0.619  -9.244  1.00  0.00     0.001 A 
ATOM     44  C   UNL     1       8.218  -1.402 -10.875  1.00  0.00     0.001 A 
ATOM     45  C   UNL     1       9.259  -0.547 -10.520  1.00  0.00     0.000 A 
ENDBRANCH  26  40
BRANCH  27  46
ATOM     46  C   UNL     1       4.697  -9.550  -2.646  1.00  0.00    -0.014 A 
ATOM     47  C   UNL     1       5.499 -10.463  -1.946  1.00  0.00     0.009 A 
ATOM     48  C   UNL     1       3.300  -9.671  -2.562  1.00  0.00     0.009 A 
ATOM     49  C   UNL     1       4.914 -11.499  -1.213  1.00  0.00     0.001 A 
ATOM     50  C   UNL     1       2.718 -10.682  -1.797  1.00  0.00     0.001 A 
ATOM     51  C   UNL     1       3.526 -11.605  -1.136  1.00  0.00     0.000 A 
ENDBRANCH  27  46
BRANCH  39  52
ATOM     52  C   UNL     1       8.363  -9.609  -8.557  1.00  0.00    -0.014 A 
ATOM     53  C   UNL     1       7.467 -10.367  -9.327  1.00  0.00     0.009 A 
ATOM     54  C   UNL     1       9.737  -9.882  -8.641  1.00  0.00     0.009 A 
ATOM     55  C   UNL     1       7.937 -11.397 -10.143  1.00  0.00     0.001 A 
ATOM     56  C   UNL     1      10.206 -10.890  -9.483  1.00  0.00     0.001 A 
ATOM     57  C   UNL     1       9.306 -11.652 -10.226  1.00  0.00     0.000 A 
ENDBRANCH  39  52
ENDBRANCH  13  14
ENDBRANCH   6   8
ENDBRANCH   3   4
ENDBRANCH   2   3
ENDBRANCH   1   2
BRANCH   1  58
ATOM     58  C   UNL     1       4.827   2.917   3.166  1.00  0.00     0.002 C 
BRANCH  58  59
ATOM     59  C   UNL     1       6.359   2.998   3.149  1.00  0.00     0.021 C 
BRANCH  59  60
ATOM     60  C   UNL     1       6.865   4.418   2.910  1.00  0.00     0.116 C 
BRANCH  60  61
ATOM     61  N   UNL     1       6.687   5.207   4.110  1.00  0.00    -0.354 N 
ATOM     62  C   UNL     1       7.598   5.755   4.969  1.00  0.00     0.247 C 
ATOM     63  H   UNL     1       5.747   5.379   4.349  1.00  0.00     0.163 HD
ATOM     64  O   UNL     1       7.115   6.278   5.980  1.00  0.00    -0.273 OA
BRANCH  62  65
ATOM     65  C   UNL     1       9.127   5.764   4.653  1.00  0.00     0.161 C 
ATOM     66  Cl  UNL     1       9.974   6.283   6.210  1.00  0.00    -0.102 Cl
ATOM     67  C   UNL     1       9.649   4.348   4.447  1.00  0.00     0.008 C 
ATOM     68  C   UNL     1       9.527   6.793   3.539  1.00  0.00     0.146 C 
ATOM     69  C   UNL     1      10.349   3.975   3.365  1.00  0.00    -0.002 C 
ATOM     70  C   UNL     1      10.276   6.192   2.351  1.00  0.00    -0.020 C 
ATOM     71  Cl  UNL     1       8.143   7.791   2.922  1.00  0.00    -0.115 Cl
ATOM     72  C   UNL     1      10.644   4.900   2.299  1.00  0.00     0.006 C 
BRANCH  70  73
ATOM     73  C   UNL     1      10.695   7.109   1.273  1.00  0.00    -0.021 A 
ATOM     74  C   UNL     1      10.139   7.014  -0.009  1.00  0.00     0.008 A 
ATOM     75  C   UNL     1      11.607   8.136   1.550  1.00  0.00     0.008 A 
ATOM     76  C   UNL     1      10.471   7.952  -0.990  1.00  0.00     0.001 A 
ATOM     77  C   UNL     1      11.940   9.068   0.567  1.00  0.00     0.001 A 
ATOM     78  C   UNL     1      11.367   8.980  -0.700  1.00  0.00     0.000 A 
ENDBRANCH  70  73
ENDBRANCH  62  65
ENDBRANCH  60  61
ENDBRANCH  59  60
ENDBRANCH  58  59
ENDBRANCH   1  58
TORSDOF 14
