REMARK SMILES O=C(NCCCCCCNC(=O)c1ccn(-c2cc(-c3ccncc3)nc(-c3ccccc3F)n2)n1)c1ccc(-c2c3nc(c(-c4ccccc4)c4ccc([nH]4)c(-c4ccccc4)c4nc(c(-c5ccccc5)c5ccc2[nH]5)C=C4)C=C3)cc1
REMARK SMILES IDX 6 1 5 2 4 3 3 4 1 5 2 6 37 8 38 9 84 10 39 11 83 12 40 13
REMARK SMILES IDX 41 14 42 15 77 16 43 17 82 18 76 19 78 20 44 21 81 22 75 23
REMARK SMILES IDX 74 24 45 26 67 27 52 28 66 29 53 30 56 31 65 32 79 33 54 34
REMARK SMILES IDX 55 35 64 37 80 38 57 39 46 40 47 41 51 42 48 43 50 44 49 45
REMARK SMILES IDX 68 46 69 47 73 48 70 49 72 50 71 51 58 52 59 53 63 54 60 55
REMARK SMILES IDX 62 56 61 57 7 58 8 59 9 60 10 61 11 62 12 64 13 65 14 66
REMARK SMILES IDX 36 67 15 68 16 69 17 70 18 71 35 72 19 73 27 74 26 75 20 76
REMARK SMILES IDX 21 77 25 78 22 79 24 80 23 81 28 82 29 83 33 84 30 85 32 86
REMARK SMILES IDX 34 87 31 88
REMARK H PARENT 3 7 78 25 56 36 10 63
REMARK Flexibility Score: inf
ROOT
ATOM      1  C   UNL     1       4.350  -1.763   3.103  1.00  0.00     0.002 C 
ENDROOT
BRANCH   1   2
ATOM      2  C   UNL     1       4.857  -0.590   2.255  1.00  0.00     0.021 C 
BRANCH   2   3
ATOM      3  C   UNL     1       4.693  -0.780   0.748  1.00  0.00     0.116 C 
BRANCH   3   4
ATOM      4  N   UNL     1       3.323  -0.949   0.315  1.00  0.00    -0.352 N 
ATOM      5  O   UNL     1       1.278  -0.597  -0.451  1.00  0.00    -0.269 OA
ATOM      6  C   UNL     1       2.297  -0.094   0.030  1.00  0.00     0.251 C 
ATOM      7  H   UNL     1       3.074  -1.894   0.200  1.00  0.00     0.163 HD
BRANCH   6   8
ATOM      8  C   UNL     1       2.294   1.359   0.340  1.00  0.00     0.039 A 
ATOM      9  C   UNL     1       3.418   2.160   0.554  1.00  0.00     0.014 A 
ATOM     10  C   UNL     1       1.019   1.948   0.430  1.00  0.00     0.014 A 
ATOM     11  C   UNL     1       3.269   3.488   0.951  1.00  0.00     0.010 A 
ATOM     12  C   UNL     1       0.864   3.272   0.813  1.00  0.00     0.010 A 
ATOM     13  C   UNL     1       1.990   4.030   1.112  1.00  0.00    -0.014 A 
BRANCH  13  14
ATOM     14  C   UNL     1       1.854   5.454   1.406  1.00  0.00     0.031 A 
ATOM     15  C   UNL     1       2.292   6.345   0.293  1.00  0.00     0.074 A 
ATOM     16  C   UNL     1       1.223   5.931   2.499  1.00  0.00     0.049 A 
ATOM     17  N   UNL     1       3.236   7.229   0.309  1.00  0.00    -0.248 NA
ATOM     18  C   UNL     1       1.681   6.150  -1.034  1.00  0.00     0.031 C 
ATOM     19  C   UNL     1       0.494   5.175   3.520  1.00  0.00     0.029 A 
ATOM     20  N   UNL     1       0.998   7.226   2.868  1.00  0.00    -0.354 N 
ATOM     21  C   UNL     1       3.227   7.828  -0.950  1.00  0.00     0.074 A 
ATOM     22  C   UNL     1       2.355   7.032  -1.774  1.00  0.00     0.031 C 
ATOM     23  C   UNL     1      -0.285   6.021   4.234  1.00  0.00     0.029 A 
ATOM     24  C   UNL     1      -0.009   7.385   3.815  1.00  0.00     0.049 A 
ATOM     25  H   UNL     1       1.505   7.983   2.495  1.00  0.00     0.167 HD
ATOM     26  C   UNL     1       3.756   9.065  -1.158  1.00  0.00     0.031 A 
ATOM     27  C   UNL     1      -0.611   8.546   4.184  1.00  0.00     0.031 A 
ATOM     28  C   UNL     1       4.612   9.468  -0.075  1.00  0.00     0.049 A 
ATOM     29  C   UNL     1       0.268   9.660   3.764  1.00  0.00     0.074 A 
ATOM     30  C   UNL     1       5.787   8.996   0.473  1.00  0.00     0.029 A 
ATOM     31  N   UNL     1       4.072  10.319   0.857  1.00  0.00    -0.354 N 
ATOM     32  N   UNL     1       1.428   9.896   4.302  1.00  0.00    -0.248 NA
ATOM     33  C   UNL     1       0.058  10.232   2.444  1.00  0.00     0.031 C 
ATOM     34  C   UNL     1       5.639   9.199   1.876  1.00  0.00     0.029 A 
ATOM     35  C   UNL     1       4.422   9.848   2.093  1.00  0.00     0.049 A 
ATOM     36  H   UNL     1       3.532  11.121   0.671  1.00  0.00     0.167 HD
ATOM     37  C   UNL     1       2.243  10.229   3.231  1.00  0.00     0.074 A 
ATOM     38  C   UNL     1       1.325  10.513   2.128  1.00  0.00     0.031 C 
ATOM     39  C   UNL     1       3.582   9.964   3.261  1.00  0.00     0.031 A 
BRANCH  26  40
ATOM     40  C   UNL     1       3.167  10.078  -2.110  1.00  0.00    -0.014 A 
ATOM     41  C   UNL     1       3.809  11.323  -2.249  1.00  0.00     0.009 A 
ATOM     42  C   UNL     1       1.861   9.979  -2.624  1.00  0.00     0.009 A 
ATOM     43  C   UNL     1       3.144  12.430  -2.789  1.00  0.00     0.001 A 
ATOM     44  C   UNL     1       1.209  11.072  -3.201  1.00  0.00     0.001 A 
ATOM     45  C   UNL     1       1.839  12.306  -3.254  1.00  0.00     0.000 A 
ENDBRANCH  26  40
BRANCH  27  46
ATOM     46  C   UNL     1      -2.012   8.791   4.604  1.00  0.00    -0.014 A 
ATOM     47  C   UNL     1      -2.379   9.989   5.242  1.00  0.00     0.009 A 
ATOM     48  C   UNL     1      -3.045   7.973   4.112  1.00  0.00     0.009 A 
ATOM     49  C   UNL     1      -3.725  10.370   5.349  1.00  0.00     0.001 A 
ATOM     50  C   UNL     1      -4.389   8.353   4.219  1.00  0.00     0.001 A 
ATOM     51  C   UNL     1      -4.728   9.559   4.823  1.00  0.00     0.000 A 
ENDBRANCH  27  46
BRANCH  39  52
ATOM     52  C   UNL     1       4.187   9.519   4.569  1.00  0.00    -0.014 A 
ATOM     53  C   UNL     1       3.804   8.344   5.241  1.00  0.00     0.009 A 
ATOM     54  C   UNL     1       5.288  10.236   5.058  1.00  0.00     0.009 A 
ATOM     55  C   UNL     1       4.488   7.920   6.386  1.00  0.00     0.001 A 
ATOM     56  C   UNL     1       5.984   9.801   6.186  1.00  0.00     0.001 A 
ATOM     57  C   UNL     1       5.581   8.647   6.854  1.00  0.00     0.000 A 
ENDBRANCH  39  52
ENDBRANCH  13  14
ENDBRANCH   6   8
ENDBRANCH   3   4
ENDBRANCH   2   3
ENDBRANCH   1   2
BRANCH   1  58
ATOM     58  C   UNL     1       4.915  -3.139   2.731  1.00  0.00     0.002 C 
BRANCH  58  59
ATOM     59  C   UNL     1       6.445  -3.233   2.707  1.00  0.00     0.021 C 
BRANCH  59  60
ATOM     60  C   UNL     1       7.116  -2.914   4.040  1.00  0.00     0.116 C 
BRANCH  60  61
ATOM     61  N   UNL     1       6.798  -3.923   5.032  1.00  0.00    -0.351 N 
ATOM     62  C   UNL     1       7.654  -4.819   5.619  1.00  0.00     0.271 C 
ATOM     63  H   UNL     1       5.857  -3.970   5.317  1.00  0.00     0.163 HD
ATOM     64  O   UNL     1       7.184  -5.767   6.258  1.00  0.00    -0.267 OA
BRANCH  62  65
ATOM     65  C   UNL     1       9.092  -4.570   5.520  1.00  0.00     0.150 A 
ATOM     66  C   UNL     1       9.784  -3.436   6.020  1.00  0.00     0.056 A 
ATOM     67  N   UNL     1       9.939  -5.433   4.928  1.00  0.00    -0.161 NA
ATOM     68  C   UNL     1      11.112  -3.729   5.851  1.00  0.00     0.118 A 
ATOM     69  N   UNL     1      11.171  -4.966   5.250  1.00  0.00    -0.222 N 
BRANCH  69  70
ATOM     70  C   UNL     1      12.354  -5.710   5.005  1.00  0.00     0.158 A 
ATOM     71  C   UNL     1      12.374  -6.612   3.963  1.00  0.00     0.078 A 
ATOM     72  N   UNL     1      13.413  -5.479   5.811  1.00  0.00    -0.209 NA
ATOM     73  C   UNL     1      13.580  -7.247   3.746  1.00  0.00     0.077 A 
ATOM     74  C   UNL     1      14.504  -6.223   5.580  1.00  0.00     0.165 A 
ATOM     75  N   UNL     1      14.637  -7.099   4.571  1.00  0.00    -0.228 NA
BRANCH  73  76
ATOM     76  C   UNL     1      13.820  -8.073   2.559  1.00  0.00     0.003 A 
ATOM     77  C   UNL     1      13.693  -7.532   1.272  1.00  0.00     0.030 A 
ATOM     78  C   UNL     1      14.224  -9.406   2.672  1.00  0.00     0.030 A 
ATOM     79  C   UNL     1      13.960  -8.336   0.176  1.00  0.00     0.111 A 
ATOM     80  C   UNL     1      14.457 -10.133   1.515  1.00  0.00     0.111 A 
ATOM     81  N   UNL     1      14.329  -9.629   0.270  1.00  0.00    -0.265 NA
ENDBRANCH  73  76
BRANCH  74  82
ATOM     82  C   UNL     1      15.574  -6.142   6.562  1.00  0.00     0.055 A 
ATOM     83  C   UNL     1      15.361  -6.543   7.896  1.00  0.00     0.015 A 
ATOM     84  C   UNL     1      16.837  -5.657   6.218  1.00  0.00     0.134 A 
ATOM     85  C   UNL     1      16.387  -6.466   8.842  1.00  0.00     0.001 A 
ATOM     86  C   UNL     1      17.863  -5.570   7.159  1.00  0.00     0.040 A 
ATOM     87  F   UNL     1      17.083  -5.232   4.970  1.00  0.00    -0.206 F 
ATOM     88  C   UNL     1      17.639  -5.978   8.473  1.00  0.00     0.003 A 
ENDBRANCH  74  82
ENDBRANCH  69  70
ENDBRANCH  62  65
ENDBRANCH  60  61
ENDBRANCH  59  60
ENDBRANCH  58  59
ENDBRANCH   1  58
TORSDOF 16
