REMARK SMILES COc1ccc2[nH]cc([C@H](C(=O)NCCCCCCNC(=O)c3ccc(-c4c5nc(c(-c6ccccc6)c6ccc([nH]6)c(-c6ccccc6)c6nc(c(-c7ccccc7)c7ccc4[nH]7)C=C6)C=C5)cc3)[NH+]3CC[NH+](Cc4cccc5ccccc45)CC3)c2c1
REMARK SMILES IDX 16 1 15 2 14 3 13 4 11 5 12 6 10 8 9 9 3 10 4 11 89 12 5 13
REMARK SMILES IDX 88 14 6 15 7 16 8 17 2 19 1 20 71 21 72 22 87 23 73 25 86 26
REMARK SMILES IDX 74 27 75 29 76 30 77 31 85 32 78 33 80 34 84 35 79 36 81 37
REMARK SMILES IDX 83 38 82 39 17 40 18 41 19 42 20 43 21 44 22 46 23 47 24 48
REMARK SMILES IDX 70 49 25 50 69 51 26 52 27 53 28 54 63 55 29 56 68 57 62 58
REMARK SMILES IDX 64 59 30 60 67 61 61 62 60 63 31 65 53 66 38 67 52 68 39 69
REMARK SMILES IDX 42 70 51 71 65 72 40 73 41 74 50 76 66 77 43 78 32 79 33 80
REMARK SMILES IDX 37 81 34 82 36 83 35 84 54 85 55 86 59 87 56 88 58 89 57 90
REMARK SMILES IDX 44 91 45 92 49 93 46 94 48 95 47 96
REMARK H PARENT 13 7 7 18 71 24 74 28 20 45 64 64 42 75
REMARK Flexibility Score: inf
ROOT
ATOM      1  C   UNL     1       3.811  -6.210  -3.401  1.00  0.00     0.002 C 
ENDROOT
BRANCH   1   2
ATOM      2  C   UNL     1       2.526  -5.840  -4.141  1.00  0.00     0.021 C 
BRANCH   2   3
ATOM      3  C   UNL     1       2.122  -4.360  -4.144  1.00  0.00     0.116 C 
BRANCH   3   4
ATOM      4  N   UNL     1       1.061  -4.140  -5.145  1.00  0.00    -0.351 N 
ATOM      5  C   UNL     1       0.150  -3.111  -5.030  1.00  0.00     0.283 C 
ATOM      6  O   UNL     1       0.578  -1.963  -4.865  1.00  0.00    -0.268 OA
ATOM      7  H   UNL     1       1.001  -4.746  -5.918  1.00  0.00     0.163 HD
BRANCH   5   8
ATOM      8  C   UNL     1      -1.375  -3.397  -5.156  1.00  0.00     0.308 C 
BRANCH   8   9
ATOM      9  C   UNL     1      -2.113  -3.067  -6.445  1.00  0.00     0.045 A 
ATOM     10  C   UNL     1      -0.370  -1.343  -9.394  1.00  0.00     0.119 A 
ATOM     11  C   UNL     1      -1.524  -1.044 -10.112  1.00  0.00     0.048 A 
ATOM     12  C   UNL     1      -0.419  -2.057  -8.190  1.00  0.00     0.057 A 
ATOM     13  C   UNL     1      -2.770  -1.449  -9.638  1.00  0.00     0.030 A 
ATOM     14  C   UNL     1      -1.668  -2.450  -7.666  1.00  0.00     0.013 A 
ATOM     15  C   UNL     1      -2.808  -2.152  -8.427  1.00  0.00     0.046 A 
ATOM     16  N   UNL     1      -3.893  -2.655  -7.756  1.00  0.00    -0.361 N 
ATOM     17  C   UNL     1      -3.494  -3.196  -6.573  1.00  0.00     0.094 A 
ATOM     18  H   UNL     1      -4.821  -2.629  -8.082  1.00  0.00     0.166 HD
BRANCH  10  19
ATOM     19  O   UNL     1       0.869  -0.986  -9.859  1.00  0.00    -0.497 OA
ATOM     20  C   UNL     1       1.017   0.434  -9.866  1.00  0.00     0.278 C 
ENDBRANCH  10  19
ENDBRANCH   8   9
BRANCH   8  21
ATOM     21  N   UNL     1      -1.896  -4.647  -4.584  1.00  0.00    -0.312 N 
ATOM     22  C   UNL     1      -1.716  -5.940  -5.217  1.00  0.00     0.325 C 
ATOM     23  C   UNL     1      -2.024  -4.713  -3.144  1.00  0.00     0.325 C 
ATOM     24  H   UNL     1      -2.813  -4.445  -4.983  1.00  0.00     0.349 HD
ATOM     25  C   UNL     1      -0.939  -7.032  -4.411  1.00  0.00     0.324 C 
ATOM     26  C   UNL     1      -0.836  -5.452  -2.526  1.00  0.00     0.324 C 
ATOM     27  N   UNL     1      -0.658  -6.835  -2.976  1.00  0.00    -0.322 N 
ATOM     28  H   UNL     1       0.346  -7.006  -2.927  1.00  0.00     0.348 HD
BRANCH  27  29
ATOM     29  C   UNL     1      -1.139  -7.866  -2.043  1.00  0.00     0.300 C 
BRANCH  29  30
ATOM     30  C   UNL     1      -2.543  -7.624  -1.518  1.00  0.00     0.014 A 
ATOM     31  C   UNL     1      -2.684  -6.759  -0.411  1.00  0.00     0.010 A 
ATOM     32  C   UNL     1      -3.688  -8.021  -2.245  1.00  0.00    -0.010 A 
ATOM     33  C   UNL     1      -3.886  -6.111  -0.168  1.00  0.00     0.001 A 
ATOM     34  C   UNL     1      -4.900  -7.331  -2.011  1.00  0.00    -0.018 A 
ATOM     35  C   UNL     1      -3.679  -9.053  -3.209  1.00  0.00     0.009 A 
ATOM     36  C   UNL     1      -4.974  -6.361  -0.998  1.00  0.00     0.009 A 
ATOM     37  C   UNL     1      -6.015  -7.607  -2.817  1.00  0.00     0.009 A 
ATOM     38  C   UNL     1      -4.813  -9.354  -3.960  1.00  0.00     0.001 A 
ATOM     39  C   UNL     1      -5.971  -8.610  -3.784  1.00  0.00     0.001 A 
ENDBRANCH  29  30
ENDBRANCH  27  29
ENDBRANCH   8  21
ENDBRANCH   5   8
ENDBRANCH   3   4
ENDBRANCH   2   3
ENDBRANCH   1   2
BRANCH   1  40
ATOM     40  C   UNL     1       3.730  -6.308  -1.874  1.00  0.00     0.002 C 
BRANCH  40  41
ATOM     41  C   UNL     1       2.819  -7.389  -1.271  1.00  0.00     0.021 C 
BRANCH  41  42
ATOM     42  C   UNL     1       2.952  -8.810  -1.827  1.00  0.00     0.116 C 
BRANCH  42  43
ATOM     43  N   UNL     1       4.317  -9.305  -1.767  1.00  0.00    -0.352 N 
ATOM     44  C   UNL     1       4.881 -10.346  -1.075  1.00  0.00     0.251 C 
ATOM     45  H   UNL     1       4.953  -8.801  -2.326  1.00  0.00     0.163 HD
ATOM     46  O   UNL     1       6.104 -10.434  -1.026  1.00  0.00    -0.269 OA
BRANCH  44  47
ATOM     47  C   UNL     1       4.060 -11.377  -0.396  1.00  0.00     0.039 A 
ATOM     48  C   UNL     1       4.524 -11.895   0.820  1.00  0.00     0.014 A 
ATOM     49  C   UNL     1       2.924 -11.931  -0.990  1.00  0.00     0.014 A 
ATOM     50  C   UNL     1       3.849 -12.949   1.442  1.00  0.00     0.010 A 
ATOM     51  C   UNL     1       2.216 -12.947  -0.340  1.00  0.00     0.010 A 
ATOM     52  C   UNL     1       2.685 -13.484   0.869  1.00  0.00    -0.014 A 
BRANCH  52  53
ATOM     53  C   UNL     1       1.989 -14.637   1.501  1.00  0.00     0.031 A 
ATOM     54  C   UNL     1       1.962 -15.978   0.814  1.00  0.00     0.074 A 
ATOM     55  C   UNL     1       1.366 -14.481   2.685  1.00  0.00     0.049 A 
ATOM     56  N   UNL     1       1.403 -17.097   1.203  1.00  0.00    -0.248 NA
ATOM     57  C   UNL     1       2.635 -16.068  -0.492  1.00  0.00     0.031 C 
ATOM     58  C   UNL     1       1.294 -13.233   3.445  1.00  0.00     0.029 A 
ATOM     59  N   UNL     1       0.675 -15.382   3.457  1.00  0.00    -0.354 N 
ATOM     60  C   UNL     1       1.641 -18.014   0.185  1.00  0.00     0.074 A 
ATOM     61  C   UNL     1       2.353 -17.309  -0.858  1.00  0.00     0.031 C 
ATOM     62  C   UNL     1       0.621 -13.453   4.587  1.00  0.00     0.029 A 
ATOM     63  C   UNL     1       0.188 -14.847   4.625  1.00  0.00     0.049 A 
ATOM     64  H   UNL     1       0.540 -16.323   3.197  1.00  0.00     0.167 HD
ATOM     65  C   UNL     1       1.316 -19.329   0.129  1.00  0.00     0.031 A 
ATOM     66  C   UNL     1      -0.522 -15.415   5.617  1.00  0.00     0.031 A 
ATOM     67  C   UNL     1       0.619 -20.037   1.170  1.00  0.00     0.049 A 
ATOM     68  C   UNL     1      -0.870 -16.876   5.534  1.00  0.00     0.074 A 
ATOM     69  C   UNL     1       0.281 -21.379   1.226  1.00  0.00     0.029 A 
ATOM     70  N   UNL     1       0.155 -19.459   2.341  1.00  0.00    -0.354 N 
ATOM     71  N   UNL     1      -0.588 -17.741   4.590  1.00  0.00    -0.248 NA
ATOM     72  C   UNL     1      -1.617 -17.442   6.666  1.00  0.00     0.031 C 
ATOM     73  C   UNL     1      -0.426 -21.603   2.412  1.00  0.00     0.029 A 
ATOM     74  C   UNL     1      -0.478 -20.414   3.120  1.00  0.00     0.049 A 
ATOM     75  H   UNL     1       0.260 -18.511   2.584  1.00  0.00     0.167 HD
ATOM     76  C   UNL     1      -1.089 -18.959   5.030  1.00  0.00     0.074 A 
ATOM     77  C   UNL     1      -1.682 -18.723   6.331  1.00  0.00     0.031 C 
ATOM     78  C   UNL     1      -1.058 -20.166   4.415  1.00  0.00     0.031 A 
BRANCH  65  79
ATOM     79  C   UNL     1       1.707 -20.086  -1.112  1.00  0.00    -0.014 A 
ATOM     80  C   UNL     1       3.052 -20.375  -1.396  1.00  0.00     0.009 A 
ATOM     81  C   UNL     1       0.716 -20.542  -1.995  1.00  0.00     0.009 A 
ATOM     82  C   UNL     1       3.398 -21.067  -2.559  1.00  0.00     0.001 A 
ATOM     83  C   UNL     1       1.063 -21.260  -3.142  1.00  0.00     0.001 A 
ATOM     84  C   UNL     1       2.403 -21.512  -3.429  1.00  0.00     0.000 A 
ENDBRANCH  65  79
BRANCH  66  85
ATOM     85  C   UNL     1      -0.928 -14.608   6.798  1.00  0.00    -0.014 A 
ATOM     86  C   UNL     1      -0.331 -14.826   8.050  1.00  0.00     0.009 A 
ATOM     87  C   UNL     1      -1.920 -13.621   6.683  1.00  0.00     0.009 A 
ATOM     88  C   UNL     1      -0.739 -14.093   9.167  1.00  0.00     0.001 A 
ATOM     89  C   UNL     1      -2.304 -12.870   7.795  1.00  0.00     0.001 A 
ATOM     90  C   UNL     1      -1.721 -13.113   9.038  1.00  0.00     0.000 A 
ENDBRANCH  66  85
BRANCH  78  91
ATOM     91  C   UNL     1      -1.636 -21.334   5.164  1.00  0.00    -0.014 A 
ATOM     92  C   UNL     1      -3.019 -21.472   5.356  1.00  0.00     0.009 A 
ATOM     93  C   UNL     1      -0.778 -22.327   5.663  1.00  0.00     0.009 A 
ATOM     94  C   UNL     1      -3.527 -22.561   6.068  1.00  0.00     0.001 A 
ATOM     95  C   UNL     1      -1.290 -23.429   6.348  1.00  0.00     0.001 A 
ATOM     96  C   UNL     1      -2.663 -23.539   6.560  1.00  0.00     0.000 A 
ENDBRANCH  78  91
ENDBRANCH  52  53
ENDBRANCH  44  47
ENDBRANCH  42  43
ENDBRANCH  41  42
ENDBRANCH  40  41
ENDBRANCH   1  40
TORSDOF 18
