REMARK SMILES O=C(NCCCCCCNC(=O)c1c(S(=O)(=O)N2CCO[C@@H](CCO)C2)sc2c1CC[NH2+]C2)c1ccc(-c2c3nc(c(-c4ccccc4)c4ccc([nH]4)c(-c4ccccc4)c4nc(c(-c5ccccc5)c5ccc2[nH]5)C=C4)C=C3)cc1
REMARK SMILES IDX 8 1 7 2 6 3 5 4 4 5 3 6 1 7 2 8 34 10 35 11 81 12 36 13
REMARK SMILES IDX 80 14 37 15 38 16 39 17 74 18 40 19 79 20 73 21 75 22 41 23
REMARK SMILES IDX 78 24 72 25 71 26 42 28 64 29 49 30 63 31 50 32 53 33 62 34
REMARK SMILES IDX 76 35 51 36 52 37 61 39 77 40 54 41 43 42 44 43 48 44 45 45
REMARK SMILES IDX 47 46 46 47 65 48 66 49 70 50 67 51 69 52 68 53 55 54 56 55
REMARK SMILES IDX 60 56 57 57 59 58 58 59 9 60 10 61 11 62 12 64 13 65 14 66
REMARK SMILES IDX 29 67 27 68 28 69 30 70 33 71 31 72 32 73 15 76 16 77 17 78
REMARK SMILES IDX 18 79 19 80 26 81 20 82 22 83 21 84 23 85 24 86 25 87
REMARK H PARENT 3 9 75 27 53 38 10 63 32 74 32 75 25 88
REMARK Flexibility Score: inf
ROOT
ATOM      1  C   UNL     1       5.989  -1.377  -4.477  1.00  0.00     0.021 C 
ENDROOT
BRANCH   1   2
ATOM      2  C   UNL     1       4.509  -1.631  -4.193  1.00  0.00     0.002 C 
BRANCH   2   3
ATOM      3  C   UNL     1       4.161  -2.320  -2.870  1.00  0.00     0.002 C 
BRANCH   3   4
ATOM      4  C   UNL     1       4.812  -1.771  -1.595  1.00  0.00     0.021 C 
BRANCH   4   5
ATOM      5  C   UNL     1       4.719  -0.261  -1.382  1.00  0.00     0.116 C 
BRANCH   5   6
ATOM      6  N   UNL     1       3.378   0.279  -1.423  1.00  0.00    -0.352 N 
ATOM      7  O   UNL     1       1.333   0.946  -0.921  1.00  0.00    -0.269 OA
ATOM      8  C   UNL     1       2.322   0.306  -0.556  1.00  0.00     0.251 C 
ATOM      9  H   UNL     1       3.179   0.733  -2.274  1.00  0.00     0.163 HD
BRANCH   8  10
ATOM     10  C   UNL     1       2.268  -0.406   0.752  1.00  0.00     0.039 A 
ATOM     11  C   UNL     1       3.357  -0.957   1.430  1.00  0.00     0.014 A 
ATOM     12  C   UNL     1       0.995  -0.520   1.338  1.00  0.00     0.014 A 
ATOM     13  C   UNL     1       3.174  -1.673   2.614  1.00  0.00     0.010 A 
ATOM     14  C   UNL     1       0.810  -1.206   2.537  1.00  0.00     0.010 A 
ATOM     15  C   UNL     1       1.898  -1.819   3.160  1.00  0.00    -0.014 A 
BRANCH  15  16
ATOM     16  C   UNL     1       1.754  -2.592   4.396  1.00  0.00     0.031 A 
ATOM     17  C   UNL     1       2.340  -2.039   5.654  1.00  0.00     0.074 A 
ATOM     18  C   UNL     1       0.958  -3.676   4.494  1.00  0.00     0.049 A 
ATOM     19  N   UNL     1       3.074  -2.643   6.538  1.00  0.00    -0.248 NA
ATOM     20  C   UNL     1       2.034  -0.639   5.985  1.00  0.00     0.031 C 
ATOM     21  C   UNL     1       0.022  -4.182   3.488  1.00  0.00     0.029 A 
ATOM     22  N   UNL     1       0.719  -4.469   5.583  1.00  0.00    -0.354 N 
ATOM     23  C   UNL     1       3.213  -1.753   7.601  1.00  0.00     0.074 A 
ATOM     24  C   UNL     1       2.595  -0.516   7.188  1.00  0.00     0.031 C 
ATOM     25  C   UNL     1      -0.844  -5.027   4.085  1.00  0.00     0.029 A 
ATOM     26  C   UNL     1      -0.441  -5.214   5.470  1.00  0.00     0.049 A 
ATOM     27  H   UNL     1       1.313  -4.507   6.367  1.00  0.00     0.167 HD
ATOM     28  C   UNL     1       3.700  -2.104   8.822  1.00  0.00     0.031 A 
ATOM     29  C   UNL     1      -1.087  -5.880   6.452  1.00  0.00     0.031 A 
ATOM     30  C   UNL     1       4.413  -3.345   8.828  1.00  0.00     0.049 A 
ATOM     31  C   UNL     1      -0.166  -6.099   7.585  1.00  0.00     0.074 A 
ATOM     32  C   UNL     1       5.558  -3.831   8.230  1.00  0.00     0.029 A 
ATOM     33  N   UNL     1       3.804  -4.430   9.405  1.00  0.00    -0.354 N 
ATOM     34  N   UNL     1       0.847  -6.915   7.561  1.00  0.00    -0.248 NA
ATOM     35  C   UNL     1      -0.207  -5.194   8.724  1.00  0.00     0.031 C 
ATOM     36  C   UNL     1       5.356  -5.238   8.109  1.00  0.00     0.029 A 
ATOM     37  C   UNL     1       4.084  -5.513   8.613  1.00  0.00     0.049 A 
ATOM     38  H   UNL     1       3.268  -4.430  10.230  1.00  0.00     0.167 HD
ATOM     39  C   UNL     1       1.766  -6.368   8.441  1.00  0.00     0.074 A 
ATOM     40  C   UNL     1       1.001  -5.424   9.243  1.00  0.00     0.031 C 
ATOM     41  C   UNL     1       3.108  -6.513   8.239  1.00  0.00     0.031 A 
BRANCH  28  42
ATOM     42  C   UNL     1       3.291  -1.430  10.104  1.00  0.00    -0.014 A 
ATOM     43  C   UNL     1       4.065  -1.607  11.264  1.00  0.00     0.009 A 
ATOM     44  C   UNL     1       2.025  -0.834  10.262  1.00  0.00     0.009 A 
ATOM     45  C   UNL     1       3.591  -1.213  12.522  1.00  0.00     0.001 A 
ATOM     46  C   UNL     1       1.565  -0.405  11.511  1.00  0.00     0.001 A 
ATOM     47  C   UNL     1       2.343  -0.609  12.644  1.00  0.00     0.000 A 
ENDBRANCH  28  42
BRANCH  29  48
ATOM     48  C   UNL     1      -2.530  -6.177   6.533  1.00  0.00    -0.014 A 
ATOM     49  C   UNL     1      -3.012  -7.235   7.314  1.00  0.00     0.009 A 
ATOM     50  C   UNL     1      -3.468  -5.277   5.991  1.00  0.00     0.009 A 
ATOM     51  C   UNL     1      -4.385  -7.386   7.545  1.00  0.00     0.001 A 
ATOM     52  C   UNL     1      -4.838  -5.433   6.211  1.00  0.00     0.001 A 
ATOM     53  C   UNL     1      -5.296  -6.484   6.996  1.00  0.00     0.000 A 
ENDBRANCH  29  48
BRANCH  41  54
ATOM     54  C   UNL     1       3.556  -7.557   7.248  1.00  0.00    -0.014 A 
ATOM     55  C   UNL     1       3.212  -7.486   5.887  1.00  0.00     0.009 A 
ATOM     56  C   UNL     1       4.456  -8.551   7.659  1.00  0.00     0.009 A 
ATOM     57  C   UNL     1       3.719  -8.409   4.970  1.00  0.00     0.001 A 
ATOM     58  C   UNL     1       4.980  -9.461   6.737  1.00  0.00     0.001 A 
ATOM     59  C   UNL     1       4.606  -9.395   5.395  1.00  0.00     0.000 A 
ENDBRANCH  41  54
ENDBRANCH  15  16
ENDBRANCH   8  10
ENDBRANCH   5   6
ENDBRANCH   4   5
ENDBRANCH   3   4
ENDBRANCH   2   3
ENDBRANCH   1   2
BRANCH   1  60
ATOM     60  C   UNL     1       6.910  -2.582  -4.352  1.00  0.00     0.116 C 
BRANCH  60  61
ATOM     61  N   UNL     1       6.814  -3.521  -5.450  1.00  0.00    -0.352 N 
ATOM     62  C   UNL     1       7.816  -4.072  -6.213  1.00  0.00     0.253 C 
ATOM     63  H   UNL     1       5.901  -3.804  -5.685  1.00  0.00     0.163 HD
ATOM     64  O   UNL     1       7.514  -4.819  -7.140  1.00  0.00    -0.269 OA
BRANCH  62  65
ATOM     65  C   UNL     1       9.198  -3.657  -5.985  1.00  0.00     0.074 A 
ATOM     66  C   UNL     1       9.888  -3.793  -4.779  1.00  0.00     0.148 A 
ATOM     67  C   UNL     1      10.084  -3.154  -7.013  1.00  0.00    -0.009 A 
ATOM     68  S   UNL     1      11.340  -2.892  -4.819  1.00  0.00    -0.120 S 
ATOM     69  C   UNL     1      11.319  -2.813  -6.503  1.00  0.00     0.064 A 
ATOM     70  C   UNL     1       9.806  -2.966  -8.479  1.00  0.00     0.099 C 
ATOM     71  C   UNL     1      12.505  -2.401  -7.316  1.00  0.00     0.308 C 
ATOM     72  C   UNL     1      11.120  -2.753  -9.274  1.00  0.00     0.265 C 
ATOM     73  N   UNL     1      12.078  -1.842  -8.610  1.00  0.00    -0.342 N 
ATOM     74  H   UNL     1      11.630  -0.939  -8.454  1.00  0.00     0.346 HD
ATOM     75  H   UNL     1      12.896  -1.730  -9.208  1.00  0.00     0.346 HD
BRANCH  66  76
ATOM     76  S   UNL     1       9.507  -4.606  -3.236  1.00  0.00     0.253 S 
ATOM     77  O   UNL     1       8.948  -3.541  -2.398  1.00  0.00    -0.206 OA
ATOM     78  O   UNL     1       8.709  -5.734  -3.622  1.00  0.00    -0.206 OA
BRANCH  76  79
ATOM     79  N   UNL     1      10.879  -5.174  -2.456  1.00  0.00    -0.192 NA
ATOM     80  C   UNL     1      11.688  -4.325  -1.556  1.00  0.00     0.131 C 
ATOM     81  C   UNL     1      11.598  -6.359  -2.969  1.00  0.00     0.134 C 
ATOM     82  C   UNL     1      13.121  -4.107  -2.067  1.00  0.00     0.177 C 
ATOM     83  C   UNL     1      12.928  -5.919  -3.599  1.00  0.00     0.135 C 
ATOM     84  O   UNL     1      13.743  -5.292  -2.584  1.00  0.00    -0.375 OA
BRANCH  83  85
ATOM     85  C   UNL     1      13.745  -7.052  -4.226  1.00  0.00     0.061 C 
BRANCH  85  86
ATOM     86  C   UNL     1      12.937  -8.006  -5.096  1.00  0.00     0.159 C 
BRANCH  86  87
ATOM     87  O   UNL     1      12.031  -7.277  -5.911  1.00  0.00    -0.396 OA
ATOM     88  H   UNL     1      11.422  -6.774  -5.348  1.00  0.00     0.210 HD
ENDBRANCH  86  87
ENDBRANCH  85  86
ENDBRANCH  83  85
ENDBRANCH  76  79
ENDBRANCH  66  76
ENDBRANCH  62  65
ENDBRANCH  60  61
ENDBRANCH   1  60
TORSDOF 18
