REMARK SMILES O=C(NCCCCCCNC(=O)[C@H]1CC(=O)N(c2cccc(OC(F)(F)F)c2)C1)c1ccc(-c2c3nc(c(-c4ccccc4)c4ccc([nH]4)c(-c4ccccc4)c4nc(c(-c5ccccc5)c5ccc2[nH]5)C=C4)C=C3)cc1
REMARK SMILES IDX 7 1 6 2 5 3 4 4 3 5 1 6 2 7 30 9 31 10 77 11 32 12 76 13
REMARK SMILES IDX 33 14 34 15 35 16 70 17 36 18 75 19 69 20 71 21 37 22 74 23
REMARK SMILES IDX 68 24 67 25 38 27 60 28 45 29 59 30 46 31 49 32 58 33 72 34
REMARK SMILES IDX 47 35 48 36 57 38 73 39 50 40 39 41 40 42 44 43 41 44 43 45
REMARK SMILES IDX 42 46 61 47 62 48 66 49 63 50 65 51 64 52 51 53 52 54 56 55
REMARK SMILES IDX 53 56 55 57 54 58 8 59 9 60 10 61 11 62 12 64 13 65 14 66
REMARK SMILES IDX 29 67 15 68 17 69 16 70 18 71 19 72 28 73 20 74 22 75 21 76
REMARK SMILES IDX 23 77 24 78 25 79 26 80 27 81
REMARK H PARENT 3 8 71 26 49 37 10 63
REMARK Flexibility Score: inf
ROOT
ATOM      1  C   UNL     1      12.108  -5.955   6.130  1.00  0.00     0.002 C 
ENDROOT
BRANCH   1   2
ATOM      2  C   UNL     1      11.479  -7.273   5.659  1.00  0.00     0.002 C 
BRANCH   2   3
ATOM      3  C   UNL     1      11.379  -7.424   4.140  1.00  0.00     0.021 C 
BRANCH   3   4
ATOM      4  C   UNL     1      12.728  -7.389   3.433  1.00  0.00     0.116 C 
BRANCH   4   5
ATOM      5  N   UNL     1      13.553  -8.524   3.817  1.00  0.00    -0.352 N 
ATOM      6  O   UNL     1      14.462 -10.572   3.559  1.00  0.00    -0.269 OA
ATOM      7  C   UNL     1      14.010  -9.557   3.042  1.00  0.00     0.251 C 
ATOM      8  H   UNL     1      13.819  -8.554   4.765  1.00  0.00     0.163 HD
BRANCH   7   9
ATOM      9  C   UNL     1      13.953  -9.436   1.572  1.00  0.00     0.039 A 
ATOM     10  C   UNL     1      14.353  -8.251   0.947  1.00  0.00     0.014 A 
ATOM     11  C   UNL     1      13.524 -10.528   0.815  1.00  0.00     0.014 A 
ATOM     12  C   UNL     1      14.220  -8.118  -0.429  1.00  0.00     0.010 A 
ATOM     13  C   UNL     1      13.470 -10.420  -0.575  1.00  0.00     0.010 A 
ATOM     14  C   UNL     1      13.804  -9.210  -1.204  1.00  0.00    -0.014 A 
BRANCH  14  15
ATOM     15  C   UNL     1      13.806  -9.104  -2.682  1.00  0.00     0.031 A 
ATOM     16  C   UNL     1      12.534  -9.211  -3.467  1.00  0.00     0.074 A 
ATOM     17  C   UNL     1      14.984  -8.943  -3.313  1.00  0.00     0.049 A 
ATOM     18  N   UNL     1      12.365  -9.202  -4.764  1.00  0.00    -0.248 NA
ATOM     19  C   UNL     1      11.289  -9.358  -2.697  1.00  0.00     0.031 C 
ATOM     20  C   UNL     1      16.287  -8.834  -2.650  1.00  0.00     0.029 A 
ATOM     21  N   UNL     1      15.280  -8.852  -4.648  1.00  0.00    -0.354 N 
ATOM     22  C   UNL     1      11.002  -9.368  -4.970  1.00  0.00     0.074 A 
ATOM     23  C   UNL     1      10.392  -9.498  -3.663  1.00  0.00     0.031 C 
ATOM     24  C   UNL     1      17.239  -8.678  -3.579  1.00  0.00     0.029 A 
ATOM     25  C   UNL     1      16.625  -8.745  -4.900  1.00  0.00     0.049 A 
ATOM     26  H   UNL     1      14.596  -8.863  -5.356  1.00  0.00     0.167 HD
ATOM     27  C   UNL     1      10.325  -9.410  -6.143  1.00  0.00     0.031 A 
ATOM     28  C   UNL     1      17.301  -8.742  -6.063  1.00  0.00     0.031 A 
ATOM     29  C   UNL     1      10.947  -9.299  -7.437  1.00  0.00     0.049 A 
ATOM     30  C   UNL     1      16.536  -8.840  -7.349  1.00  0.00     0.074 A 
ATOM     31  C   UNL     1      10.347  -9.286  -8.684  1.00  0.00     0.029 A 
ATOM     32  N   UNL     1      12.315  -9.203  -7.652  1.00  0.00    -0.354 N 
ATOM     33  N   UNL     1      15.241  -8.940  -7.529  1.00  0.00    -0.248 NA
ATOM     34  C   UNL     1      17.321  -8.819  -8.589  1.00  0.00     0.031 C 
ATOM     35  C   UNL     1      11.354  -9.253  -9.653  1.00  0.00     0.029 A 
ATOM     36  C   UNL     1      12.580  -9.170  -9.011  1.00  0.00     0.049 A 
ATOM     37  H   UNL     1      12.997  -9.164  -6.942  1.00  0.00     0.167 HD
ATOM     38  C   UNL     1      15.052  -8.973  -8.904  1.00  0.00     0.074 A 
ATOM     39  C   UNL     1      16.365  -8.870  -9.508  1.00  0.00     0.031 C 
ATOM     40  C   UNL     1      13.893  -9.074  -9.599  1.00  0.00     0.031 A 
BRANCH  27  41
ATOM     41  C   UNL     1       8.838  -9.637  -6.076  1.00  0.00    -0.014 A 
ATOM     42  C   UNL     1       7.967  -8.668  -5.552  1.00  0.00     0.009 A 
ATOM     43  C   UNL     1       8.299 -10.840  -6.559  1.00  0.00     0.009 A 
ATOM     44  C   UNL     1       6.595  -8.921  -5.467  1.00  0.00     0.001 A 
ATOM     45  C   UNL     1       6.924 -11.076  -6.505  1.00  0.00     0.001 A 
ATOM     46  C   UNL     1       6.075 -10.123  -5.946  1.00  0.00     0.000 A 
ENDBRANCH  27  41
BRANCH  28  47
ATOM     47  C   UNL     1      18.784  -8.675  -6.039  1.00  0.00    -0.014 A 
ATOM     48  C   UNL     1      19.457  -7.514  -6.445  1.00  0.00     0.009 A 
ATOM     49  C   UNL     1      19.532  -9.760  -5.551  1.00  0.00     0.009 A 
ATOM     50  C   UNL     1      20.851  -7.447  -6.372  1.00  0.00     0.001 A 
ATOM     51  C   UNL     1      20.921  -9.677  -5.450  1.00  0.00     0.001 A 
ATOM     52  C   UNL     1      21.580  -8.523  -5.867  1.00  0.00     0.000 A 
ENDBRANCH  28  47
BRANCH  40  53
ATOM     53  C   UNL     1      13.984  -9.042 -11.099  1.00  0.00    -0.014 A 
ATOM     54  C   UNL     1      14.480 -10.135 -11.825  1.00  0.00     0.009 A 
ATOM     55  C   UNL     1      13.500  -7.924 -11.796  1.00  0.00     0.009 A 
ATOM     56  C   UNL     1      14.509 -10.098 -13.221  1.00  0.00     0.001 A 
ATOM     57  C   UNL     1      13.502  -7.902 -13.191  1.00  0.00     0.001 A 
ATOM     58  C   UNL     1      14.011  -8.987 -13.902  1.00  0.00     0.000 A 
ENDBRANCH  40  53
ENDBRANCH  14  15
ENDBRANCH   7   9
ENDBRANCH   4   5
ENDBRANCH   3   4
ENDBRANCH   2   3
ENDBRANCH   1   2
BRANCH   1  59
ATOM     59  C   UNL     1      11.453  -4.694   5.552  1.00  0.00     0.021 C 
BRANCH  59  60
ATOM     60  C   UNL     1       9.968  -4.579   5.908  1.00  0.00     0.116 C 
BRANCH  60  61
ATOM     61  N   UNL     1       9.815  -4.059   7.255  1.00  0.00    -0.356 N 
ATOM     62  C   UNL     1       9.518  -2.841   7.768  1.00  0.00     0.225 C 
ATOM     63  H   UNL     1       9.958  -4.742   7.949  1.00  0.00     0.163 HD
ATOM     64  O   UNL     1       9.689  -2.716   8.986  1.00  0.00    -0.275 OA
BRANCH  62  65
ATOM     65  C   UNL     1       8.892  -1.700   6.987  1.00  0.00     0.107 C 
ATOM     66  C   UNL     1       9.470  -0.354   7.444  1.00  0.00     0.116 C 
ATOM     67  C   UNL     1       9.083  -1.657   5.496  1.00  0.00     0.139 C 
ATOM     68  C   UNL     1       9.400   0.530   6.221  1.00  0.00     0.227 C 
ATOM     69  N   UNL     1       9.057  -0.269   5.135  1.00  0.00    -0.311 N 
ATOM     70  O   UNL     1       9.624   1.732   6.229  1.00  0.00    -0.274 OA
BRANCH  69  71
ATOM     71  C   UNL     1       9.083   0.097   3.773  1.00  0.00     0.047 A 
ATOM     72  C   UNL     1       8.193  -0.510   2.877  1.00  0.00     0.026 A 
ATOM     73  C   UNL     1      10.056   0.978   3.288  1.00  0.00     0.073 A 
ATOM     74  C   UNL     1       8.273  -0.243   1.512  1.00  0.00     0.006 A 
ATOM     75  C   UNL     1      10.184   1.193   1.913  1.00  0.00     0.131 A 
ATOM     76  C   UNL     1       9.274   0.597   1.033  1.00  0.00     0.047 A 
BRANCH  75  77
ATOM     77  O   UNL     1      11.150   1.943   1.303  1.00  0.00    -0.406 OA
BRANCH  77  78
ATOM     78  C   UNL     1      12.306   2.253   2.066  1.00  0.00     0.573 C 
ATOM     79  F   UNL     1      12.022   3.149   3.032  1.00  0.00    -0.132 F 
ATOM     80  F   UNL     1      12.846   1.143   2.617  1.00  0.00    -0.132 F 
ATOM     81  F   UNL     1      13.230   2.799   1.244  1.00  0.00    -0.132 F 
ENDBRANCH  77  78
ENDBRANCH  75  77
ENDBRANCH  69  71
ENDBRANCH  62  65
ENDBRANCH  60  61
ENDBRANCH  59  60
ENDBRANCH   1  59
TORSDOF 16
