REMARK SMILES C[NH+]1CCC([NH+]2CCC(Oc3ccc4ccccc4c3)(C(=O)NCCCCCCNC(=O)c3ccc(-c4c5nc(c(-c6ccccc6)c6ccc([nH]6)c(-c6ccccc6)c6nc(c(-c7ccccc7)c7ccc4[nH]7)C=C6)C=C5)cc3)CC2)CC1
REMARK SMILES IDX 26 1 25 2 24 3 23 4 21 5 22 6 9 8 6 9 7 10 82 11 8 13 81 14
REMARK SMILES IDX 5 15 1 16 2 17 3 18 84 19 4 21 83 22 10 23 11 24 12 25 20 26
REMARK SMILES IDX 13 27 19 28 14 29 18 30 15 31 17 32 16 33 27 34 28 35 29 36
REMARK SMILES IDX 30 37 31 38 32 40 33 41 34 42 80 43 35 44 79 45 36 46 37 47
REMARK SMILES IDX 38 48 73 49 39 50 78 51 72 52 74 53 40 54 77 55 71 56 70 57
REMARK SMILES IDX 41 59 63 60 48 61 62 62 49 63 52 64 61 65 75 66 50 67 51 68
REMARK SMILES IDX 60 70 76 71 53 72 42 73 43 74 47 75 44 76 46 77 45 78 64 79
REMARK SMILES IDX 65 80 69 81 66 82 68 83 67 84 54 85 55 86 59 87 56 88 58 89
REMARK SMILES IDX 57 90
REMARK H PARENT 23 7 6 12 2 20 30 39 74 58 52 69
REMARK Flexibility Score: inf
ROOT
ATOM      1  C   UNL     1       3.973  -2.516   6.255  1.00  0.00     0.002 C 
ENDROOT
BRANCH   1   2
ATOM      2  C   UNL     1       4.513  -1.328   5.449  1.00  0.00     0.021 C 
BRANCH   2   3
ATOM      3  C   UNL     1       5.708  -1.667   4.558  1.00  0.00     0.116 C 
BRANCH   3   4
ATOM      4  N   UNL     1       5.316  -2.545   3.474  1.00  0.00    -0.353 N 
ATOM      5  C   UNL     1       5.253  -2.325   2.127  1.00  0.00     0.264 C 
ATOM      6  O   UNL     1       4.932  -3.301   1.440  1.00  0.00    -0.270 OA
ATOM      7  H   UNL     1       5.051  -3.450   3.756  1.00  0.00     0.163 HD
BRANCH   5   8
ATOM      8  C   UNL     1       5.573  -0.931   1.508  1.00  0.00     0.197 C 
ATOM      9  N   UNL     1       3.075  -0.101   0.185  1.00  0.00    -0.332 N 
ATOM     10  C   UNL     1       3.186  -0.137   1.645  1.00  0.00     0.267 C 
ATOM     11  C   UNL     1       3.922  -1.130  -0.442  1.00  0.00     0.267 C 
ATOM     12  H   UNL     1       3.431   0.809  -0.108  1.00  0.00     0.348 HD
ATOM     13  C   UNL     1       4.626   0.151   2.040  1.00  0.00     0.120 C 
ATOM     14  C   UNL     1       5.401  -1.005  -0.025  1.00  0.00     0.120 C 
BRANCH   9  15
ATOM     15  C   UNL     1       1.674  -0.134  -0.307  1.00  0.00     0.195 C 
ATOM     16  C   UNL     1      -2.635   0.063  -0.267  1.00  0.00     0.332 C 
ATOM     17  N   UNL     1      -1.222   0.017   0.100  1.00  0.00    -0.337 N 
ATOM     18  C   UNL     1      -0.502   1.169  -0.458  1.00  0.00     0.268 C 
ATOM     19  C   UNL     1      -0.606  -1.240  -0.343  1.00  0.00     0.268 C 
ATOM     20  H   UNL     1      -1.158   0.062   1.117  1.00  0.00     0.347 HD
ATOM     21  C   UNL     1       0.945   1.183   0.031  1.00  0.00     0.126 C 
ATOM     22  C   UNL     1       0.836  -1.338   0.159  1.00  0.00     0.126 C 
ENDBRANCH   9  15
BRANCH   8  23
ATOM     23  O   UNL     1       6.959  -0.781   1.911  1.00  0.00    -0.477 OA
BRANCH  23  24
ATOM     24  C   UNL     1       7.673   0.293   1.479  1.00  0.00     0.121 A 
ATOM     25  C   UNL     1       7.453   1.577   1.966  1.00  0.00     0.047 A 
ATOM     26  C   UNL     1       8.773   0.041   0.659  1.00  0.00     0.055 A 
ATOM     27  C   UNL     1       8.264   2.632   1.548  1.00  0.00     0.012 A 
ATOM     28  C   UNL     1       9.622   1.085   0.257  1.00  0.00    -0.015 A 
ATOM     29  C   UNL     1       9.349   2.403   0.691  1.00  0.00    -0.018 A 
ATOM     30  C   UNL     1      10.743   0.851  -0.556  1.00  0.00     0.009 A 
ATOM     31  C   UNL     1      10.182   3.453   0.275  1.00  0.00     0.009 A 
ATOM     32  C   UNL     1      11.570   1.905  -0.950  1.00  0.00     0.001 A 
ATOM     33  C   UNL     1      11.285   3.205  -0.542  1.00  0.00     0.001 A 
ENDBRANCH  23  24
ENDBRANCH   8  23
ENDBRANCH   5   8
ENDBRANCH   3   4
ENDBRANCH   2   3
ENDBRANCH   1   2
BRANCH   1  34
ATOM     34  C   UNL     1       4.999  -3.212   7.155  1.00  0.00     0.002 C 
BRANCH  34  35
ATOM     35  C   UNL     1       5.767  -2.289   8.106  1.00  0.00     0.021 C 
BRANCH  35  36
ATOM     36  C   UNL     1       4.893  -1.494   9.070  1.00  0.00     0.116 C 
BRANCH  36  37
ATOM     37  N   UNL     1       4.184  -2.354  10.001  1.00  0.00    -0.352 N 
ATOM     38  C   UNL     1       4.061  -2.243  11.360  1.00  0.00     0.251 C 
ATOM     39  H   UNL     1       3.726  -3.126   9.598  1.00  0.00     0.163 HD
ATOM     40  O   UNL     1       3.568  -3.167  12.009  1.00  0.00    -0.269 OA
BRANCH  38  41
ATOM     41  C   UNL     1       4.524  -1.026  12.060  1.00  0.00     0.039 A 
ATOM     42  C   UNL     1       5.197  -1.168  13.278  1.00  0.00     0.014 A 
ATOM     43  C   UNL     1       4.258   0.250  11.553  1.00  0.00     0.014 A 
ATOM     44  C   UNL     1       5.621  -0.035  13.974  1.00  0.00     0.010 A 
ATOM     45  C   UNL     1       4.740   1.377  12.215  1.00  0.00     0.010 A 
ATOM     46  C   UNL     1       5.404   1.247  13.444  1.00  0.00    -0.014 A 
BRANCH  46  47
ATOM     47  C   UNL     1       5.817   2.460  14.193  1.00  0.00     0.031 A 
ATOM     48  C   UNL     1       4.774   3.400  14.735  1.00  0.00     0.074 A 
ATOM     49  C   UNL     1       7.124   2.735  14.359  1.00  0.00     0.049 A 
ATOM     50  N   UNL     1       4.934   4.517  15.400  1.00  0.00    -0.248 NA
ATOM     51  C   UNL     1       3.368   3.051  14.476  1.00  0.00     0.031 C 
ATOM     52  C   UNL     1       8.234   1.927  13.851  1.00  0.00     0.029 A 
ATOM     53  N   UNL     1       7.739   3.776  15.008  1.00  0.00    -0.354 N 
ATOM     54  C   UNL     1       3.654   5.011  15.617  1.00  0.00     0.074 A 
ATOM     55  C   UNL     1       2.732   4.101  14.974  1.00  0.00     0.031 C 
ATOM     56  C   UNL     1       9.394   2.487  14.232  1.00  0.00     0.029 A 
ATOM     57  C   UNL     1       9.110   3.704  14.987  1.00  0.00     0.049 A 
ATOM     58  H   UNL     1       7.244   4.505  15.447  1.00  0.00     0.167 HD
ATOM     59  C   UNL     1       3.274   6.113  16.308  1.00  0.00     0.031 A 
ATOM     60  C   UNL     1      10.034   4.522  15.524  1.00  0.00     0.031 A 
ATOM     61  C   UNL     1       4.184   7.009  16.968  1.00  0.00     0.049 A 
ATOM     62  C   UNL     1       9.587   5.725  16.307  1.00  0.00     0.074 A 
ATOM     63  C   UNL     1       3.896   8.125  17.734  1.00  0.00     0.029 A 
ATOM     64  N   UNL     1       5.564   6.886  16.944  1.00  0.00    -0.354 N 
ATOM     65  N   UNL     1       8.371   6.147  16.553  1.00  0.00    -0.248 NA
ATOM     66  C   UNL     1      10.645   6.552  16.905  1.00  0.00     0.031 C 
ATOM     67  C   UNL     1       5.105   8.697  18.146  1.00  0.00     0.029 A 
ATOM     68  C   UNL     1       6.143   7.910  17.674  1.00  0.00     0.049 A 
ATOM     69  H   UNL     1       6.060   6.175  16.477  1.00  0.00     0.167 HD
ATOM     70  C   UNL     1       8.515   7.270  17.358  1.00  0.00     0.074 A 
ATOM     71  C   UNL     1       9.937   7.453  17.570  1.00  0.00     0.031 C 
ATOM     72  C   UNL     1       7.558   8.076  17.876  1.00  0.00     0.031 A 
BRANCH  59  73
ATOM     73  C   UNL     1       1.801   6.404  16.379  1.00  0.00    -0.014 A 
ATOM     74  C   UNL     1       0.938   5.604  17.145  1.00  0.00     0.009 A 
ATOM     75  C   UNL     1       1.271   7.502  15.684  1.00  0.00     0.009 A 
ATOM     76  C   UNL     1      -0.432   5.873  17.180  1.00  0.00     0.001 A 
ATOM     77  C   UNL     1      -0.095   7.785  15.743  1.00  0.00     0.001 A 
ATOM     78  C   UNL     1      -0.947   6.964  16.482  1.00  0.00     0.000 A 
ENDBRANCH  59  73
BRANCH  60  79
ATOM     79  C   UNL     1      11.479   4.213  15.375  1.00  0.00    -0.014 A 
ATOM     80  C   UNL     1      12.222   3.750  16.471  1.00  0.00     0.009 A 
ATOM     81  C   UNL     1      12.123   4.389  14.141  1.00  0.00     0.009 A 
ATOM     82  C   UNL     1      13.589   3.496  16.343  1.00  0.00     0.001 A 
ATOM     83  C   UNL     1      13.485   4.110  14.010  1.00  0.00     0.001 A 
ATOM     84  C   UNL     1      14.219   3.673  15.112  1.00  0.00     0.000 A 
ENDBRANCH  60  79
BRANCH  72  85
ATOM     85  C   UNL     1       8.019   9.204  18.755  1.00  0.00    -0.014 A 
ATOM     86  C   UNL     1       8.655  10.334  18.219  1.00  0.00     0.009 A 
ATOM     87  C   UNL     1       7.795   9.140  20.139  1.00  0.00     0.009 A 
ATOM     88  C   UNL     1       9.095  11.360  19.058  1.00  0.00     0.001 A 
ATOM     89  C   UNL     1       8.210  10.179  20.972  1.00  0.00     0.001 A 
ATOM     90  C   UNL     1       8.870  11.282  20.432  1.00  0.00     0.000 A 
ENDBRANCH  72  85
ENDBRANCH  46  47
ENDBRANCH  38  41
ENDBRANCH  36  37
ENDBRANCH  35  36
ENDBRANCH  34  35
ENDBRANCH   1  34
TORSDOF 16
