REMARK SMILES NC(=O)C[C@H](NC(=O)C1(c2ccccc2)CCN(C(=O)[C@@H]2CCC[NH2+]2)CC1)C(=O)NCCCCCCNC(=O)c1ccc(-c2c3nc(c(-c4ccccc4)c4ccc([nH]4)c(-c4ccccc4)c4nc(c(-c5ccccc5)c5ccc2[nH]5)C=C4)C=C3)cc1
REMARK SMILES IDX 33 1 32 2 31 3 30 4 28 5 29 6 5 8 4 9 2 10 1 11 3 14 6 15
REMARK SMILES IDX 7 16 8 18 9 19 16 20 27 21 17 22 26 23 18 24 19 25 20 26
REMARK SMILES IDX 10 27 11 28 15 29 12 30 14 31 13 32 21 33 22 34 25 35 23 36
REMARK SMILES IDX 24 37 34 40 35 41 36 42 37 43 38 44 39 46 40 47 41 48 87 49
REMARK SMILES IDX 42 50 86 51 43 52 44 53 45 54 80 55 46 56 85 57 79 58 81 59
REMARK SMILES IDX 47 60 84 61 78 62 77 63 48 65 70 66 55 67 69 68 56 69 59 70
REMARK SMILES IDX 68 71 82 72 57 73 58 74 67 76 83 77 60 78 49 79 50 80 54 81
REMARK SMILES IDX 51 82 53 83 52 84 71 85 72 86 76 87 73 88 75 89 74 90 61 91
REMARK SMILES IDX 62 92 66 93 63 94 65 95 64 96
REMARK H PARENT 30 7 1 12 1 13 6 17 25 38 25 39 37 45 81 64 59 75
REMARK Flexibility Score: inf
ROOT
ATOM      1  C   UNL     1       4.381   1.495  -6.173  1.00  0.00     0.002 C 
ENDROOT
BRANCH   1   2
ATOM      2  C   UNL     1       3.514   0.950  -5.034  1.00  0.00     0.021 C 
BRANCH   2   3
ATOM      3  C   UNL     1       3.933   1.448  -3.662  1.00  0.00     0.116 C 
BRANCH   3   4
ATOM      4  N   UNL     1       3.582   2.824  -3.458  1.00  0.00    -0.354 N 
ATOM      5  C   UNL     1       2.517   3.368  -2.832  1.00  0.00     0.243 C 
ATOM      6  O   UNL     1       2.452   4.604  -2.864  1.00  0.00    -0.273 OA
ATOM      7  H   UNL     1       4.219   3.475  -3.833  1.00  0.00     0.163 HD
BRANCH   5   8
ATOM      8  C   UNL     1       1.450   2.562  -2.042  1.00  0.00     0.180 C 
BRANCH   8   9
ATOM      9  C   UNL     1       1.290   3.271  -0.690  1.00  0.00     0.134 C 
BRANCH   9  10
ATOM     10  C   UNL     1       0.201   2.748   0.216  1.00  0.00     0.220 C 
ATOM     11  N   UNL     1       0.184   3.327   1.453  1.00  0.00    -0.370 N 
ATOM     12  H   UNL     1      -0.491   3.052   2.116  1.00  0.00     0.159 HD
ATOM     13  H   UNL     1       0.846   4.019   1.683  1.00  0.00     0.159 HD
ATOM     14  O   UNL     1      -0.604   1.882  -0.078  1.00  0.00    -0.275 OA
ENDBRANCH   9  10
ENDBRANCH   8   9
BRANCH   8  15
ATOM     15  N   UNL     1       1.258   1.089  -2.089  1.00  0.00    -0.343 N 
ATOM     16  C   UNL     1       1.503  -0.062  -1.427  1.00  0.00     0.231 C 
ATOM     17  H   UNL     1       0.767   0.870  -2.914  1.00  0.00     0.164 HD
ATOM     18  O   UNL     1       0.567  -0.869  -1.591  1.00  0.00    -0.274 OA
BRANCH  16  19
ATOM     19  C   UNL     1       2.798  -0.580  -0.693  1.00  0.00     0.077 C 
ATOM     20  C   UNL     1       2.349  -1.507   0.492  1.00  0.00     0.043 C 
ATOM     21  C   UNL     1       3.728   0.490  -0.101  1.00  0.00     0.043 C 
ATOM     22  C   UNL     1       1.846  -0.758   1.724  1.00  0.00     0.121 C 
ATOM     23  C   UNL     1       3.239   1.155   1.166  1.00  0.00     0.121 C 
ATOM     24  N   UNL     1       2.797   0.250   2.192  1.00  0.00    -0.337 N 
ATOM     25  C   UNL     1       2.860   0.521   3.561  1.00  0.00     0.280 C 
ATOM     26  O   UNL     1       2.228  -0.172   4.367  1.00  0.00    -0.268 OA
BRANCH  19  27
ATOM     27  C   UNL     1       3.581  -1.538  -1.682  1.00  0.00    -0.032 A 
ATOM     28  C   UNL     1       4.968  -1.441  -1.913  1.00  0.00     0.005 A 
ATOM     29  C   UNL     1       2.914  -2.604  -2.324  1.00  0.00     0.005 A 
ATOM     30  C   UNL     1       5.648  -2.367  -2.716  1.00  0.00     0.000 A 
ATOM     31  C   UNL     1       3.590  -3.514  -3.147  1.00  0.00     0.000 A 
ATOM     32  C   UNL     1       4.960  -3.399  -3.338  1.00  0.00     0.000 A 
ENDBRANCH  19  27
BRANCH  25  33
ATOM     33  C   UNL     1       3.691   1.713   4.114  1.00  0.00     0.272 C 
ATOM     34  C   UNL     1       3.212   3.108   3.738  1.00  0.00     0.081 C 
ATOM     35  N   UNL     1       5.134   1.647   3.783  1.00  0.00    -0.336 N 
ATOM     36  C   UNL     1       4.482   3.937   3.745  1.00  0.00     0.068 C 
ATOM     37  C   UNL     1       5.564   2.964   3.315  1.00  0.00     0.261 C 
ATOM     38  H   UNL     1       5.288   0.954   3.050  1.00  0.00     0.346 HD
ATOM     39  H   UNL     1       5.670   1.377   4.608  1.00  0.00     0.346 HD
ENDBRANCH  25  33
ENDBRANCH  16  19
ENDBRANCH   8  15
ENDBRANCH   5   8
ENDBRANCH   3   4
ENDBRANCH   2   3
ENDBRANCH   1   2
BRANCH   1  40
ATOM     40  C   UNL     1       5.887   1.251  -6.021  1.00  0.00     0.002 C 
BRANCH  40  41
ATOM     41  C   UNL     1       6.283  -0.190  -5.690  1.00  0.00     0.021 C 
BRANCH  41  42
ATOM     42  C   UNL     1       5.808  -1.231  -6.697  1.00  0.00     0.116 C 
BRANCH  42  43
ATOM     43  N   UNL     1       6.424  -1.031  -7.996  1.00  0.00    -0.352 N 
ATOM     44  C   UNL     1       7.136  -1.913  -8.765  1.00  0.00     0.251 C 
ATOM     45  H   UNL     1       6.314  -0.132  -8.380  1.00  0.00     0.163 HD
ATOM     46  O   UNL     1       7.778  -1.506  -9.729  1.00  0.00    -0.269 OA
BRANCH  44  47
ATOM     47  C   UNL     1       7.144  -3.354  -8.432  1.00  0.00     0.039 A 
ATOM     48  C   UNL     1       8.348  -4.057  -8.527  1.00  0.00     0.014 A 
ATOM     49  C   UNL     1       5.969  -4.021  -8.073  1.00  0.00     0.014 A 
ATOM     50  C   UNL     1       8.382  -5.419  -8.227  1.00  0.00     0.010 A 
ATOM     51  C   UNL     1       6.015  -5.366  -7.713  1.00  0.00     0.010 A 
ATOM     52  C   UNL     1       7.220  -6.081  -7.798  1.00  0.00    -0.014 A 
BRANCH  52  53
ATOM     53  C   UNL     1       7.248  -7.522  -7.448  1.00  0.00     0.031 A 
ATOM     54  C   UNL     1       6.490  -8.520  -8.280  1.00  0.00     0.074 A 
ATOM     55  C   UNL     1       7.921  -7.928  -6.355  1.00  0.00     0.049 A 
ATOM     56  N   UNL     1       6.365  -9.812  -8.108  1.00  0.00    -0.248 NA
ATOM     57  C   UNL     1       5.758  -7.996  -9.445  1.00  0.00     0.031 C 
ATOM     58  C   UNL     1       8.671  -7.056  -5.448  1.00  0.00     0.029 A 
ATOM     59  N   UNL     1       8.079  -9.181  -5.818  1.00  0.00    -0.354 N 
ATOM     60  C   UNL     1       5.532 -10.251  -9.129  1.00  0.00     0.074 A 
ATOM     61  C   UNL     1       5.145  -9.083  -9.890  1.00  0.00     0.031 C 
ATOM     62  C   UNL     1       9.228  -7.804  -4.482  1.00  0.00     0.029 A 
ATOM     63  C   UNL     1       8.847  -9.199  -4.679  1.00  0.00     0.049 A 
ATOM     64  H   UNL     1       7.681  -9.991  -6.213  1.00  0.00     0.167 HD
ATOM     65  C   UNL     1       5.137 -11.513  -9.418  1.00  0.00     0.031 A 
ATOM     66  C   UNL     1       9.200 -10.223  -3.880  1.00  0.00     0.031 A 
ATOM     67  C   UNL     1       5.531 -12.677  -8.670  1.00  0.00     0.049 A 
ATOM     68  C   UNL     1       8.739 -11.613  -4.217  1.00  0.00     0.074 A 
ATOM     69  C   UNL     1       5.227 -14.005  -8.918  1.00  0.00     0.029 A 
ATOM     70  N   UNL     1       6.312 -12.652  -7.526  1.00  0.00    -0.354 N 
ATOM     71  N   UNL     1       8.005 -12.018  -5.225  1.00  0.00    -0.248 NA
ATOM     72  C   UNL     1       9.165 -12.688  -3.310  1.00  0.00     0.031 C 
ATOM     73  C   UNL     1       5.786 -14.779  -7.897  1.00  0.00     0.029 A 
ATOM     74  C   UNL     1       6.483 -13.939  -7.044  1.00  0.00     0.049 A 
ATOM     75  H   UNL     1       6.691 -11.841  -7.117  1.00  0.00     0.167 HD
ATOM     76  C   UNL     1       7.906 -13.397  -5.090  1.00  0.00     0.074 A 
ATOM     77  C   UNL     1       8.667 -13.759  -3.912  1.00  0.00     0.031 C 
ATOM     78  C   UNL     1       7.244 -14.284  -5.872  1.00  0.00     0.031 A 
BRANCH  65  79
ATOM     79  C   UNL     1       4.222 -11.701 -10.596  1.00  0.00    -0.014 A 
ATOM     80  C   UNL     1       4.686 -11.537 -11.911  1.00  0.00     0.009 A 
ATOM     81  C   UNL     1       2.889 -12.089 -10.390  1.00  0.00     0.009 A 
ATOM     82  C   UNL     1       3.824 -11.725 -12.994  1.00  0.00     0.001 A 
ATOM     83  C   UNL     1       2.037 -12.303 -11.475  1.00  0.00     0.001 A 
ATOM     84  C   UNL     1       2.503 -12.112 -12.775  1.00  0.00     0.000 A 
ENDBRANCH  65  79
BRANCH  66  85
ATOM     85  C   UNL     1      10.048  -9.976  -2.686  1.00  0.00    -0.014 A 
ATOM     86  C   UNL     1      11.380 -10.417  -2.655  1.00  0.00     0.009 A 
ATOM     87  C   UNL     1       9.528  -9.307  -1.567  1.00  0.00     0.009 A 
ATOM     88  C   UNL     1      12.165 -10.218  -1.517  1.00  0.00     0.001 A 
ATOM     89  C   UNL     1      10.324  -9.085  -0.441  1.00  0.00     0.001 A 
ATOM     90  C   UNL     1      11.638  -9.549  -0.413  1.00  0.00     0.000 A 
ENDBRANCH  66  85
BRANCH  78  91
ATOM     91  C   UNL     1       7.343 -15.736  -5.499  1.00  0.00    -0.014 A 
ATOM     92  C   UNL     1       6.666 -16.250  -4.383  1.00  0.00     0.009 A 
ATOM     93  C   UNL     1       8.095 -16.608  -6.302  1.00  0.00     0.009 A 
ATOM     94  C   UNL     1       6.767 -17.605  -4.061  1.00  0.00     0.001 A 
ATOM     95  C   UNL     1       8.171 -17.966  -5.993  1.00  0.00     0.001 A 
ATOM     96  C   UNL     1       7.515 -18.462  -4.868  1.00  0.00     0.000 A 
ENDBRANCH  78  91
ENDBRANCH  52  53
ENDBRANCH  44  47
ENDBRANCH  42  43
ENDBRANCH  41  42
ENDBRANCH  40  41
ENDBRANCH   1  40
TORSDOF 19
