REMARK SMILES CCn1c(=O)n(CC)c2cc(C(=O)NCCCCCCNC(=O)c3ccc(-c4c5nc(c(-c6ccccc6)c6ccc([nH]6)c(-c6ccccc6)c6nc(c(-c7ccccc7)c7ccc4[nH]7)C=C6)C=C5)cc3)ccc21
REMARK SMILES IDX 18 1 17 2 16 3 15 4 14 5 12 6 13 7 11 9 3 10 4 11 74 12 5 13
REMARK SMILES IDX 6 14 9 15 73 16 10 17 72 18 2 19 1 20 7 21 8 22 19 23 20 24
REMARK SMILES IDX 21 25 22 26 23 28 24 29 25 30 71 31 26 32 70 33 27 34 28 35
REMARK SMILES IDX 29 36 64 37 30 38 69 39 63 40 65 41 31 42 68 43 62 44 61 45
REMARK SMILES IDX 32 47 54 48 39 49 53 50 40 51 43 52 52 53 66 54 41 55 42 56
REMARK SMILES IDX 51 58 67 59 44 60 33 61 34 62 38 63 35 64 37 65 36 66 55 67
REMARK SMILES IDX 56 68 60 69 57 70 59 71 58 72 45 73 46 74 50 75 47 76 49 77
REMARK SMILES IDX 48 78
REMARK H PARENT 14 8 21 27 65 46 43 57
REMARK Flexibility Score: inf
ROOT
ATOM      1  C   UNL     1       4.355  -7.076   8.182  1.00  0.00     0.002 C 
ENDROOT
BRANCH   1   2
ATOM      2  C   UNL     1       5.091  -5.829   7.675  1.00  0.00     0.002 C 
BRANCH   2   3
ATOM      3  C   UNL     1       4.368  -5.064   6.557  1.00  0.00     0.021 C 
BRANCH   3   4
ATOM      4  C   UNL     1       3.027  -4.476   7.003  1.00  0.00     0.116 C 
BRANCH   4   5
ATOM      5  N   UNL     1       3.233  -3.179   7.615  1.00  0.00    -0.352 N 
ATOM      6  C   UNL     1       3.140  -1.891   7.161  1.00  0.00     0.251 C 
ATOM      7  O   UNL     1       3.429  -1.003   7.966  1.00  0.00    -0.269 OA
ATOM      8  H   UNL     1       3.497  -3.237   8.562  1.00  0.00     0.163 HD
BRANCH   6   9
ATOM      9  C   UNL     1       2.660  -1.498   5.801  1.00  0.00     0.042 A 
ATOM     10  N   UNL     1       0.892   0.043   2.360  1.00  0.00    -0.292 N 
ATOM     11  C   UNL     1       0.662   1.376   2.770  1.00  0.00     0.329 A 
ATOM     12  C   UNL     1       1.539  -0.640   3.399  1.00  0.00     0.069 A 
ATOM     13  O   UNL     1       0.110   2.259   2.120  1.00  0.00    -0.248 OA
ATOM     14  N   UNL     1       1.191   1.489   4.073  1.00  0.00    -0.292 N 
ATOM     15  C   UNL     1       1.694   0.242   4.465  1.00  0.00     0.070 A 
ATOM     16  C   UNL     1       1.999  -1.936   3.473  1.00  0.00     0.029 A 
ATOM     17  C   UNL     1       2.241  -0.160   5.667  1.00  0.00     0.042 A 
ATOM     18  C   UNL     1       2.596  -2.347   4.676  1.00  0.00     0.016 A 
BRANCH  10  19
ATOM     19  C   UNL     1       0.427  -0.533   1.122  1.00  0.00     0.124 C 
ATOM     20  C   UNL     1       1.082   0.089  -0.101  1.00  0.00     0.028 C 
ENDBRANCH  10  19
BRANCH  14  21
ATOM     21  C   UNL     1       1.248   2.706   4.844  1.00  0.00     0.124 C 
ATOM     22  C   UNL     1       0.257   2.732   5.996  1.00  0.00     0.028 C 
ENDBRANCH  14  21
ENDBRANCH   6   9
ENDBRANCH   4   5
ENDBRANCH   3   4
ENDBRANCH   2   3
ENDBRANCH   1   2
BRANCH   1  23
ATOM     23  C   UNL     1       4.003  -8.112   7.108  1.00  0.00     0.021 C 
BRANCH  23  24
ATOM     24  C   UNL     1       5.216  -8.738   6.420  1.00  0.00     0.116 C 
BRANCH  24  25
ATOM     25  N   UNL     1       6.116  -9.405   7.339  1.00  0.00    -0.352 N 
ATOM     26  C   UNL     1       6.183 -10.646   7.909  1.00  0.00     0.251 C 
ATOM     27  H   UNL     1       6.860  -8.824   7.621  1.00  0.00     0.163 HD
ATOM     28  O   UNL     1       7.188 -10.872   8.589  1.00  0.00    -0.269 OA
BRANCH  26  29
ATOM     29  C   UNL     1       5.132 -11.700   7.831  1.00  0.00     0.039 A 
ATOM     30  C   UNL     1       3.945 -11.615   7.111  1.00  0.00     0.014 A 
ATOM     31  C   UNL     1       5.354 -12.855   8.613  1.00  0.00     0.014 A 
ATOM     32  C   UNL     1       2.969 -12.598   7.259  1.00  0.00     0.010 A 
ATOM     33  C   UNL     1       4.391 -13.855   8.744  1.00  0.00     0.010 A 
ATOM     34  C   UNL     1       3.173 -13.706   8.100  1.00  0.00    -0.014 A 
BRANCH  34  35
ATOM     35  C   UNL     1       2.150 -14.755   8.095  1.00  0.00     0.031 A 
ATOM     36  C   UNL     1       1.874 -15.259   6.728  1.00  0.00     0.074 A 
ATOM     37  C   UNL     1       1.504 -15.289   9.156  1.00  0.00     0.049 A 
ATOM     38  N   UNL     1       0.841 -14.978   6.009  1.00  0.00    -0.248 NA
ATOM     39  C   UNL     1       2.926 -15.998   6.013  1.00  0.00     0.031 C 
ATOM     40  C   UNL     1       1.821 -15.126  10.576  1.00  0.00     0.029 A 
ATOM     41  N   UNL     1       0.441 -16.157   9.182  1.00  0.00    -0.354 N 
ATOM     42  C   UNL     1       0.995 -15.702   4.835  1.00  0.00     0.074 A 
ATOM     43  C   UNL     1       2.362 -16.154   4.812  1.00  0.00     0.031 C 
ATOM     44  C   UNL     1       1.129 -16.037  11.303  1.00  0.00     0.029 A 
ATOM     45  C   UNL     1       0.192 -16.725  10.429  1.00  0.00     0.049 A 
ATOM     46  H   UNL     1      -0.101 -16.361   8.386  1.00  0.00     0.167 HD
ATOM     47  C   UNL     1      -0.104 -16.132   4.160  1.00  0.00     0.031 A 
ATOM     48  C   UNL     1      -0.731 -17.673  10.732  1.00  0.00     0.031 A 
ATOM     49  C   UNL     1      -1.288 -15.428   4.587  1.00  0.00     0.049 A 
ATOM     50  C   UNL     1      -1.820 -17.587   9.742  1.00  0.00     0.074 A 
ATOM     51  C   UNL     1      -1.866 -14.196   4.378  1.00  0.00     0.029 A 
ATOM     52  N   UNL     1      -1.842 -15.948   5.724  1.00  0.00    -0.354 N 
ATOM     53  N   UNL     1      -2.638 -16.578   9.668  1.00  0.00    -0.248 NA
ATOM     54  C   UNL     1      -1.846 -18.512   8.616  1.00  0.00     0.031 C 
ATOM     55  C   UNL     1      -2.712 -13.950   5.503  1.00  0.00     0.029 A 
ATOM     56  C   UNL     1      -2.676 -15.058   6.344  1.00  0.00     0.049 A 
ATOM     57  H   UNL     1      -1.662 -16.856   6.057  1.00  0.00     0.167 HD
ATOM     58  C   UNL     1      -2.934 -16.497   8.325  1.00  0.00     0.074 A 
ATOM     59  C   UNL     1      -2.586 -17.798   7.767  1.00  0.00     0.031 C 
ATOM     60  C   UNL     1      -3.087 -15.289   7.713  1.00  0.00     0.031 A 
BRANCH  47  61
ATOM     61  C   UNL     1      -0.202 -17.519   3.560  1.00  0.00    -0.014 A 
ATOM     62  C   UNL     1       0.712 -18.554   3.841  1.00  0.00     0.009 A 
ATOM     63  C   UNL     1      -1.399 -17.898   2.925  1.00  0.00     0.009 A 
ATOM     64  C   UNL     1       0.457 -19.887   3.509  1.00  0.00     0.001 A 
ATOM     65  C   UNL     1      -1.673 -19.239   2.619  1.00  0.00     0.001 A 
ATOM     66  C   UNL     1      -0.744 -20.232   2.910  1.00  0.00     0.000 A 
ENDBRANCH  47  61
BRANCH  48  67
ATOM     67  C   UNL     1      -0.649 -18.841  11.641  1.00  0.00    -0.014 A 
ATOM     68  C   UNL     1       0.581 -19.494  11.821  1.00  0.00     0.009 A 
ATOM     69  C   UNL     1      -1.817 -19.529  12.026  1.00  0.00     0.009 A 
ATOM     70  C   UNL     1       0.637 -20.812  12.292  1.00  0.00     0.001 A 
ATOM     71  C   UNL     1      -1.760 -20.848  12.497  1.00  0.00     0.001 A 
ATOM     72  C   UNL     1      -0.534 -21.497  12.607  1.00  0.00     0.000 A 
ENDBRANCH  48  67
BRANCH  60  73
ATOM     73  C   UNL     1      -3.534 -14.117   8.538  1.00  0.00    -0.014 A 
ATOM     74  C   UNL     1      -4.717 -13.473   8.144  1.00  0.00     0.009 A 
ATOM     75  C   UNL     1      -2.813 -13.587   9.620  1.00  0.00     0.009 A 
ATOM     76  C   UNL     1      -5.160 -12.320   8.790  1.00  0.00     0.001 A 
ATOM     77  C   UNL     1      -3.271 -12.443  10.285  1.00  0.00     0.001 A 
ATOM     78  C   UNL     1      -4.437 -11.805   9.863  1.00  0.00     0.000 A 
ENDBRANCH  60  73
ENDBRANCH  34  35
ENDBRANCH  26  29
ENDBRANCH  24  25
ENDBRANCH  23  24
ENDBRANCH   1  23
TORSDOF 15
