REMARK SMILES O=C(NCCCCCCNC(=O)[C@@H](CO)N1C(=O)c2c(Cl)c(Cl)c(Cl)c(Cl)c2C1=O)c1ccc(-c2c3nc(c(-c4ccccc4)c4ccc([nH]4)c(-c4ccccc4)c4nc(c(-c5ccccc5)c5ccc2[nH]5)C=C4)C=C3)cc1
REMARK SMILES IDX 6 1 5 2 4 3 3 4 1 5 2 6 31 8 32 9 78 10 33 11 77 12 34 13
REMARK SMILES IDX 35 14 36 15 71 16 37 17 76 18 70 19 72 20 38 21 75 22 69 23
REMARK SMILES IDX 68 24 39 26 61 27 46 28 60 29 47 30 50 31 59 32 73 33 48 34
REMARK SMILES IDX 49 35 58 37 74 38 51 39 40 40 41 41 45 42 42 43 44 44 43 45
REMARK SMILES IDX 62 46 63 47 67 48 64 49 66 50 65 51 52 52 53 53 57 54 54 55
REMARK SMILES IDX 56 56 55 57 7 58 8 59 9 60 10 61 11 62 12 64 13 65 14 66
REMARK SMILES IDX 15 67 16 69 17 70 29 71 18 72 19 73 28 74 30 75 20 76 26 77
REMARK SMILES IDX 21 78 22 79 24 80 27 81 23 82 25 83
REMARK H PARENT 3 7 72 25 50 36 10 63 15 68
REMARK Flexibility Score: inf
ROOT
ATOM      1  C   UNL     1       4.116  -0.023   3.880  1.00  0.00     0.002 C 
ENDROOT
BRANCH   1   2
ATOM      2  C   UNL     1       4.599   0.667   2.603  1.00  0.00     0.021 C 
BRANCH   2   3
ATOM      3  C   UNL     1       4.424  -0.160   1.336  1.00  0.00     0.116 C 
BRANCH   3   4
ATOM      4  N   UNL     1       3.025  -0.436   1.055  1.00  0.00    -0.352 N 
ATOM      5  O   UNL     1       1.079  -0.256  -0.076  1.00  0.00    -0.269 OA
ATOM      6  C   UNL     1       2.299  -0.139  -0.070  1.00  0.00     0.251 C 
ATOM      7  H   UNL     1       2.531  -0.899   1.770  1.00  0.00     0.163 HD
BRANCH   6   8
ATOM      8  C   UNL     1       3.003   0.339  -1.276  1.00  0.00     0.039 A 
ATOM      9  C   UNL     1       4.146  -0.322  -1.736  1.00  0.00     0.014 A 
ATOM     10  C   UNL     1       2.504   1.452  -1.957  1.00  0.00     0.014 A 
ATOM     11  C   UNL     1       4.851   0.192  -2.817  1.00  0.00     0.010 A 
ATOM     12  C   UNL     1       3.172   1.922  -3.088  1.00  0.00     0.010 A 
ATOM     13  C   UNL     1       4.359   1.304  -3.516  1.00  0.00    -0.014 A 
BRANCH  13  14
ATOM     14  C   UNL     1       5.045   1.759  -4.748  1.00  0.00     0.031 A 
ATOM     15  C   UNL     1       5.699   3.107  -4.821  1.00  0.00     0.074 A 
ATOM     16  C   UNL     1       5.048   0.942  -5.818  1.00  0.00     0.049 A 
ATOM     17  N   UNL     1       6.304   3.671  -5.835  1.00  0.00    -0.248 NA
ATOM     18  C   UNL     1       5.661   3.932  -3.605  1.00  0.00     0.031 C 
ATOM     19  C   UNL     1       4.431  -0.387  -5.865  1.00  0.00     0.029 A 
ATOM     20  N   UNL     1       5.582   1.106  -7.069  1.00  0.00    -0.354 N 
ATOM     21  C   UNL     1       6.698   4.926  -5.390  1.00  0.00     0.074 A 
ATOM     22  C   UNL     1       6.246   5.048  -4.020  1.00  0.00     0.031 C 
ATOM     23  C   UNL     1       4.636  -0.923  -7.076  1.00  0.00     0.029 A 
ATOM     24  C   UNL     1       5.342   0.045  -7.906  1.00  0.00     0.049 A 
ATOM     25  H   UNL     1       6.086   1.907  -7.341  1.00  0.00     0.167 HD
ATOM     26  C   UNL     1       7.375   5.887  -6.064  1.00  0.00     0.031 A 
ATOM     27  C   UNL     1       5.627  -0.122  -9.210  1.00  0.00     0.031 A 
ATOM     28  C   UNL     1       7.811   5.760  -7.431  1.00  0.00     0.049 A 
ATOM     29  C   UNL     1       6.346   0.969  -9.944  1.00  0.00     0.074 A 
ATOM     30  C   UNL     1       8.544   6.657  -8.189  1.00  0.00     0.029 A 
ATOM     31  N   UNL     1       7.539   4.674  -8.250  1.00  0.00    -0.354 N 
ATOM     32  N   UNL     1       6.761   2.127  -9.494  1.00  0.00    -0.248 NA
ATOM     33  C   UNL     1       6.637   0.730 -11.364  1.00  0.00     0.031 C 
ATOM     34  C   UNL     1       8.665   6.139  -9.483  1.00  0.00     0.029 A 
ATOM     35  C   UNL     1       8.060   4.893  -9.515  1.00  0.00     0.049 A 
ATOM     36  H   UNL     1       7.049   3.866  -7.973  1.00  0.00     0.167 HD
ATOM     37  C   UNL     1       7.377   2.752 -10.569  1.00  0.00     0.074 A 
ATOM     38  C   UNL     1       7.294   1.835 -11.689  1.00  0.00     0.031 C 
ATOM     39  C   UNL     1       7.959   3.974 -10.621  1.00  0.00     0.031 A 
BRANCH  26  40
ATOM     40  C   UNL     1       7.646   7.178  -5.343  1.00  0.00    -0.014 A 
ATOM     41  C   UNL     1       8.570   7.251  -4.288  1.00  0.00     0.009 A 
ATOM     42  C   UNL     1       6.982   8.349  -5.743  1.00  0.00     0.009 A 
ATOM     43  C   UNL     1       8.790   8.460  -3.622  1.00  0.00     0.001 A 
ATOM     44  C   UNL     1       7.226   9.561  -5.094  1.00  0.00     0.001 A 
ATOM     45  C   UNL     1       8.120   9.613  -4.027  1.00  0.00     0.000 A 
ENDBRANCH  26  40
BRANCH  27  46
ATOM     46  C   UNL     1       5.199  -1.370  -9.891  1.00  0.00    -0.014 A 
ATOM     47  C   UNL     1       6.137  -2.345 -10.258  1.00  0.00     0.009 A 
ATOM     48  C   UNL     1       3.836  -1.613 -10.127  1.00  0.00     0.009 A 
ATOM     49  C   UNL     1       5.717  -3.536 -10.855  1.00  0.00     0.001 A 
ATOM     50  C   UNL     1       3.417  -2.815 -10.697  1.00  0.00     0.001 A 
ATOM     51  C   UNL     1       4.359  -3.773 -11.067  1.00  0.00     0.000 A 
ENDBRANCH  27  46
BRANCH  39  52
ATOM     52  C   UNL     1       8.574   4.383 -11.929  1.00  0.00    -0.014 A 
ATOM     53  C   UNL     1       7.777   4.755 -13.023  1.00  0.00     0.009 A 
ATOM     54  C   UNL     1       9.971   4.442 -12.051  1.00  0.00     0.009 A 
ATOM     55  C   UNL     1       8.370   5.155 -14.222  1.00  0.00     0.001 A 
ATOM     56  C   UNL     1      10.560   4.868 -13.242  1.00  0.00     0.001 A 
ATOM     57  C   UNL     1       9.760   5.217 -14.328  1.00  0.00     0.000 A 
ENDBRANCH  39  52
ENDBRANCH  13  14
ENDBRANCH   6   8
ENDBRANCH   3   4
ENDBRANCH   2   3
ENDBRANCH   1   2
BRANCH   1  58
ATOM     58  C   UNL     1       4.721  -1.408   4.133  1.00  0.00     0.002 C 
BRANCH  58  59
ATOM     59  C   UNL     1       6.254  -1.456   4.106  1.00  0.00     0.021 C 
BRANCH  59  60
ATOM     60  C   UNL     1       6.914  -0.606   5.189  1.00  0.00     0.116 C 
BRANCH  60  61
ATOM     61  N   UNL     1       6.759  -1.233   6.486  1.00  0.00    -0.354 N 
ATOM     62  C   UNL     1       7.683  -1.569   7.428  1.00  0.00     0.245 C 
ATOM     63  H   UNL     1       5.830  -1.453   6.727  1.00  0.00     0.163 HD
ATOM     64  O   UNL     1       7.304  -2.318   8.336  1.00  0.00    -0.273 OA
BRANCH  62  65
ATOM     65  C   UNL     1       9.178  -1.218   7.297  1.00  0.00     0.208 C 
BRANCH  65  66
ATOM     66  C   UNL     1       9.830  -2.348   6.472  1.00  0.00     0.191 C 
BRANCH  66  67
ATOM     67  O   UNL     1       9.476  -2.299   5.088  1.00  0.00    -0.394 OA
ATOM     68  H   UNL     1       8.516  -2.409   4.996  1.00  0.00     0.210 HD
ENDBRANCH  66  67
ENDBRANCH  65  66
BRANCH  65  69
ATOM     69  N   UNL     1       9.440   0.154   6.840  1.00  0.00    -0.259 N 
ATOM     70  C   UNL     1       8.744   1.222   7.337  1.00  0.00     0.264 C 
ATOM     71  C   UNL     1      10.632   0.583   6.325  1.00  0.00     0.264 C 
ATOM     72  O   UNL     1       7.817   1.217   8.121  1.00  0.00    -0.268 OA
ATOM     73  C   UNL     1       9.379   2.436   6.825  1.00  0.00     0.075 A 
ATOM     74  C   UNL     1      10.558   2.045   6.215  1.00  0.00     0.075 A 
ATOM     75  O   UNL     1      11.642  -0.056   6.109  1.00  0.00    -0.268 OA
ATOM     76  C   UNL     1       8.994   3.764   6.905  1.00  0.00     0.074 A 
ATOM     77  C   UNL     1      11.439   2.970   5.680  1.00  0.00     0.074 A 
ATOM     78  Cl  UNL     1       7.483   4.200   7.617  1.00  0.00    -0.082 Cl
ATOM     79  C   UNL     1       9.864   4.729   6.362  1.00  0.00     0.080 A 
ATOM     80  C   UNL     1      11.087   4.333   5.758  1.00  0.00     0.080 A 
ATOM     81  Cl  UNL     1      12.910   2.456   4.936  1.00  0.00    -0.082 Cl
ATOM     82  Cl  UNL     1       9.429   6.414   6.431  1.00  0.00    -0.081 Cl
ATOM     83  Cl  UNL     1      12.163   5.540   5.109  1.00  0.00    -0.081 Cl
ENDBRANCH  65  69
ENDBRANCH  62  65
ENDBRANCH  60  61
ENDBRANCH  59  60
ENDBRANCH  58  59
ENDBRANCH   1  58
TORSDOF 16
