REMARK SMILES Cc1ccc([C@@H](C[NH+](C)C)N2C[C@@H](C(=O)NCCCCCCNC(=O)c3ccc(-c4c5nc(c(-c6ccccc6)c6ccc([nH]6)c(-c6ccccc6)c6nc(c(-c7ccccc7)c7ccc4[nH]7)C=C6)C=C5)cc3)CC2=O)cc1C
REMARK SMILES IDX 19 1 18 2 17 3 16 4 14 5 15 6 13 8 11 9 12 10 75 11 74 12
REMARK SMILES IDX 76 13 6 14 5 15 1 16 2 17 3 18 78 19 4 20 77 21 79 22 7 23
REMARK SMILES IDX 8 24 9 25 10 26 20 28 21 29 22 30 23 31 24 32 25 34 26 35
REMARK SMILES IDX 27 36 73 37 28 38 72 39 29 40 30 41 31 42 66 43 32 44 71 45
REMARK SMILES IDX 65 46 67 47 33 48 70 49 64 50 63 51 34 53 56 54 41 55 55 56
REMARK SMILES IDX 42 57 45 58 54 59 68 60 43 61 44 62 53 64 69 65 46 66 35 67
REMARK SMILES IDX 36 68 40 69 37 70 39 71 38 72 57 73 58 74 62 75 59 76 61 77
REMARK SMILES IDX 60 78 47 79 48 80 52 81 49 82 51 83 50 84
REMARK H PARENT 16 7 8 27 23 33 67 52 45 63
REMARK Flexibility Score: inf
ROOT
ATOM      1  C   UNL     1       0.992  -6.104   3.838  1.00  0.00     0.002 C 
ENDROOT
BRANCH   1   2
ATOM      2  C   UNL     1       0.213  -4.801   3.624  1.00  0.00     0.021 C 
BRANCH   2   3
ATOM      3  C   UNL     1      -0.769  -4.844   2.458  1.00  0.00     0.116 C 
BRANCH   3   4
ATOM      4  N   UNL     1      -1.836  -5.796   2.702  1.00  0.00    -0.356 N 
ATOM      5  C   UNL     1      -3.184  -5.642   2.707  1.00  0.00     0.225 C 
ATOM      6  O   UNL     1      -3.869  -6.633   2.976  1.00  0.00    -0.275 OA
ATOM      7  H   UNL     1      -1.530  -6.711   2.897  1.00  0.00     0.163 HD
BRANCH   5   8
ATOM      8  C   UNL     1      -3.854  -4.326   2.377  1.00  0.00     0.107 C 
ATOM      9  N   UNL     1      -3.214  -2.426   1.135  1.00  0.00    -0.329 N 
ATOM     10  C   UNL     1      -3.492  -3.833   0.985  1.00  0.00     0.134 C 
ATOM     11  C   UNL     1      -3.380  -1.988   2.442  1.00  0.00     0.224 C 
ATOM     12  C   UNL     1      -3.547  -3.187   3.337  1.00  0.00     0.115 C 
ATOM     13  O   UNL     1      -3.371  -0.836   2.836  1.00  0.00    -0.275 OA
BRANCH   9  14
ATOM     14  C   UNL     1      -2.969  -1.512   0.006  1.00  0.00     0.170 C 
BRANCH  14  15
ATOM     15  C   UNL     1      -1.713  -0.670   0.208  1.00  0.00    -0.020 A 
ATOM     16  C   UNL     1       1.910   1.688   0.055  1.00  0.00     0.044 C 
ATOM     17  C   UNL     1       0.669   0.851   0.191  1.00  0.00    -0.048 A 
ATOM     18  C   UNL     1      -0.582   1.466   0.022  1.00  0.00     0.004 A 
ATOM     19  C   UNL     1       0.725  -0.534   0.429  1.00  0.00    -0.048 A 
ATOM     20  C   UNL     1      -1.758   0.714   0.019  1.00  0.00     0.006 A 
ATOM     21  C   UNL     1      -0.473  -1.268   0.477  1.00  0.00     0.009 A 
ATOM     22  C   UNL     1       2.012  -1.308   0.502  1.00  0.00     0.044 C 
ENDBRANCH  14  15
BRANCH  14  23
ATOM     23  C   UNL     1      -2.996  -2.164  -1.438  1.00  0.00     0.292 C 
BRANCH  23  24
ATOM     24  N   UNL     1      -1.966  -3.194  -1.742  1.00  0.00    -0.338 N 
ATOM     25  C   UNL     1      -2.494  -4.230  -2.636  1.00  0.00     0.332 C 
ATOM     26  C   UNL     1      -0.768  -2.620  -2.375  1.00  0.00     0.332 C 
ATOM     27  H   UNL     1      -1.708  -3.599  -0.842  1.00  0.00     0.347 HD
ENDBRANCH  23  24
ENDBRANCH  14  23
ENDBRANCH   9  14
ENDBRANCH   5   8
ENDBRANCH   3   4
ENDBRANCH   2   3
ENDBRANCH   1   2
BRANCH   1  28
ATOM     28  C   UNL     1       1.797  -6.585   2.627  1.00  0.00     0.002 C 
BRANCH  28  29
ATOM     29  C   UNL     1       2.775  -5.559   2.053  1.00  0.00     0.021 C 
BRANCH  29  30
ATOM     30  C   UNL     1       3.790  -5.026   3.057  1.00  0.00     0.116 C 
BRANCH  30  31
ATOM     31  N   UNL     1       4.672  -6.071   3.553  1.00  0.00    -0.352 N 
ATOM     32  C   UNL     1       6.043  -6.095   3.595  1.00  0.00     0.251 C 
ATOM     33  H   UNL     1       4.222  -6.871   3.909  1.00  0.00     0.163 HD
ATOM     34  O   UNL     1       6.641  -7.128   3.872  1.00  0.00    -0.269 OA
BRANCH  32  35
ATOM     35  C   UNL     1       6.798  -4.864   3.281  1.00  0.00     0.039 A 
ATOM     36  C   UNL     1       7.894  -4.941   2.417  1.00  0.00     0.014 A 
ATOM     37  C   UNL     1       6.417  -3.638   3.832  1.00  0.00     0.014 A 
ATOM     38  C   UNL     1       8.573  -3.775   2.062  1.00  0.00     0.010 A 
ATOM     39  C   UNL     1       7.043  -2.470   3.414  1.00  0.00     0.010 A 
ATOM     40  C   UNL     1       8.134  -2.527   2.533  1.00  0.00    -0.014 A 
BRANCH  40  41
ATOM     41  C   UNL     1       8.811  -1.266   2.141  1.00  0.00     0.031 A 
ATOM     42  C   UNL     1       9.479  -0.419   3.189  1.00  0.00     0.074 A 
ATOM     43  C   UNL     1       8.762  -0.845   0.863  1.00  0.00     0.049 A 
ATOM     44  N   UNL     1      10.039   0.757   3.068  1.00  0.00    -0.248 NA
ATOM     45  C   UNL     1       9.494  -0.954   4.561  1.00  0.00     0.031 C 
ATOM     46  C   UNL     1       8.123  -1.560  -0.244  1.00  0.00     0.029 A 
ATOM     47  N   UNL     1       9.253   0.297   0.281  1.00  0.00    -0.354 N 
ATOM     48  C   UNL     1      10.451   1.111   4.347  1.00  0.00     0.074 A 
ATOM     49  C   UNL     1      10.029   0.051   5.236  1.00  0.00     0.031 C 
ATOM     50  C   UNL     1       8.281  -0.852  -1.373  1.00  0.00     0.029 A 
ATOM     51  C   UNL     1       8.989   0.387  -1.064  1.00  0.00     0.049 A 
ATOM     52  H   UNL     1       9.747   0.987   0.780  1.00  0.00     0.167 HD
ATOM     53  C   UNL     1      11.134   2.210   4.746  1.00  0.00     0.031 A 
ATOM     54  C   UNL     1       9.273   1.363  -1.947  1.00  0.00     0.031 A 
ATOM     55  C   UNL     1      11.558   3.260   3.859  1.00  0.00     0.049 A 
ATOM     56  C   UNL     1      10.007   2.589  -1.476  1.00  0.00     0.074 A 
ATOM     57  C   UNL     1      12.299   4.391   4.155  1.00  0.00     0.029 A 
ATOM     58  N   UNL     1      11.273   3.311   2.503  1.00  0.00    -0.354 N 
ATOM     59  N   UNL     1      10.441   2.882  -0.274  1.00  0.00    -0.248 NA
ATOM     60  C   UNL     1      10.299   3.614  -2.488  1.00  0.00     0.031 C 
ATOM     61  C   UNL     1      12.411   5.156   2.991  1.00  0.00     0.029 A 
ATOM     62  C   UNL     1      11.801   4.467   1.954  1.00  0.00     0.049 A 
ATOM     63  H   UNL     1      10.771   2.627   2.005  1.00  0.00     0.167 HD
ATOM     64  C   UNL     1      11.088   4.106  -0.393  1.00  0.00     0.074 A 
ATOM     65  C   UNL     1      10.998   4.494  -1.785  1.00  0.00     0.031 C 
ATOM     66  C   UNL     1      11.706   4.839   0.566  1.00  0.00     0.031 A 
BRANCH  53  67
ATOM     67  C   UNL     1      11.449   2.335   6.212  1.00  0.00    -0.014 A 
ATOM     68  C   UNL     1      12.358   1.468   6.842  1.00  0.00     0.009 A 
ATOM     69  C   UNL     1      10.845   3.349   6.971  1.00  0.00     0.009 A 
ATOM     70  C   UNL     1      12.618   1.586   8.209  1.00  0.00     0.001 A 
ATOM     71  C   UNL     1      11.133   3.487   8.329  1.00  0.00     0.001 A 
ATOM     72  C   UNL     1      12.009   2.598   8.950  1.00  0.00     0.000 A 
ENDBRANCH  53  67
BRANCH  54  73
ATOM     73  C   UNL     1       8.871   1.219  -3.371  1.00  0.00    -0.014 A 
ATOM     74  C   UNL     1       9.841   1.035  -4.370  1.00  0.00     0.009 A 
ATOM     75  C   UNL     1       7.518   1.269  -3.743  1.00  0.00     0.009 A 
ATOM     76  C   UNL     1       9.466   0.932  -5.711  1.00  0.00     0.001 A 
ATOM     77  C   UNL     1       7.144   1.133  -5.081  1.00  0.00     0.001 A 
ATOM     78  C   UNL     1       8.118   0.976  -6.065  1.00  0.00     0.000 A 
ENDBRANCH  54  73
BRANCH  66  79
ATOM     79  C   UNL     1      12.379   6.114   0.136  1.00  0.00    -0.014 A 
ATOM     80  C   UNL     1      11.639   7.243  -0.246  1.00  0.00     0.009 A 
ATOM     81  C   UNL     1      13.780   6.197   0.166  1.00  0.00     0.009 A 
ATOM     82  C   UNL     1      12.292   8.420  -0.621  1.00  0.00     0.001 A 
ATOM     83  C   UNL     1      14.429   7.384  -0.177  1.00  0.00     0.001 A 
ATOM     84  C   UNL     1      13.685   8.491  -0.579  1.00  0.00     0.000 A 
ENDBRANCH  66  79
ENDBRANCH  40  41
ENDBRANCH  32  35
ENDBRANCH  30  31
ENDBRANCH  29  30
ENDBRANCH  28  29
ENDBRANCH   1  28
TORSDOF 17
