REMARK SMILES C[C@H](C(=O)Nc1ccc(C(=O)NCCCCCCNC(=O)c2ccc(-c3c4nc(c(-c5ccccc5)c5ccc([nH]5)c(-c5ccccc5)c5nc(c(-c6ccccc6)c6ccc3[nH]6)C=C5)C=C4)cc2)cc1)N1C(=O)/C(=C\c2ccco2)SC1=S
REMARK SMILES IDX 14 1 13 2 12 3 10 4 11 5 9 7 6 8 7 9 71 10 8 11 70 12 5 13
REMARK SMILES IDX 3 14 4 15 2 17 1 18 72 19 73 20 83 21 74 22 75 23 82 24
REMARK SMILES IDX 84 25 76 26 77 27 78 28 81 29 79 30 80 31 15 32 16 33 17 34
REMARK SMILES IDX 18 35 19 36 20 37 21 39 22 40 23 41 69 42 24 43 68 44 25 45
REMARK SMILES IDX 26 46 27 47 62 48 28 49 67 50 61 51 63 52 29 53 66 54 60 55
REMARK SMILES IDX 59 56 30 58 52 59 37 60 51 61 38 62 41 63 50 64 64 65 39 66
REMARK SMILES IDX 40 67 49 69 65 70 42 71 31 72 32 73 36 74 33 75 35 76 34 77
REMARK SMILES IDX 53 78 54 79 58 80 55 81 57 82 56 83 43 84 44 85 48 86 45 87
REMARK SMILES IDX 47 88 46 89
REMARK H PARENT 12 6 5 16 19 38 63 57 41 68
REMARK Flexibility Score: inf
ROOT
ATOM      1  C   UNL     1      -5.699   0.138   3.582  1.00  0.00     0.021 C 
ENDROOT
BRANCH   1   2
ATOM      2  C   UNL     1      -5.517   0.313   2.073  1.00  0.00     0.116 C 
BRANCH   2   3
ATOM      3  N   UNL     1      -5.614   1.719   1.736  1.00  0.00    -0.352 N 
ATOM      4  C   UNL     1      -4.669   2.676   1.484  1.00  0.00     0.251 C 
ATOM      5  O   UNL     1      -5.057   3.828   1.293  1.00  0.00    -0.269 OA
ATOM      6  H   UNL     1      -6.540   2.049   1.677  1.00  0.00     0.163 HD
BRANCH   4   7
ATOM      7  C   UNL     1      -3.221   2.366   1.336  1.00  0.00     0.039 A 
ATOM      8  C   UNL     1      -0.561   1.762   0.684  1.00  0.00     0.041 A 
ATOM      9  C   UNL     1      -1.178   2.891   0.140  1.00  0.00     0.027 A 
ATOM     10  C   UNL     1      -1.220   1.022   1.659  1.00  0.00     0.027 A 
ATOM     11  C   UNL     1      -2.510   3.167   0.434  1.00  0.00     0.016 A 
ATOM     12  C   UNL     1      -2.536   1.352   2.013  1.00  0.00     0.016 A 
BRANCH   8  13
ATOM     13  N   UNL     1       0.715   1.466   0.212  1.00  0.00    -0.324 N 
ATOM     14  C   UNL     1       1.302   0.307  -0.188  1.00  0.00     0.247 C 
ATOM     15  O   UNL     1       2.506   0.393  -0.478  1.00  0.00    -0.272 OA
ATOM     16  H   UNL     1       1.308   2.249   0.157  1.00  0.00     0.170 HD
BRANCH  14  17
ATOM     17  C   UNL     1       0.628  -1.089  -0.243  1.00  0.00     0.178 C 
ATOM     18  C   UNL     1       1.175  -1.827   0.995  1.00  0.00     0.042 C 
BRANCH  17  19
ATOM     19  N   UNL     1      -0.840  -1.205  -0.475  1.00  0.00    -0.280 N 
ATOM     20  C   UNL     1      -1.553  -2.293   0.017  1.00  0.00     0.267 C 
ATOM     21  C   UNL     1      -1.509  -0.535  -1.485  1.00  0.00     0.149 C 
ATOM     22  O   UNL     1      -1.112  -3.172   0.747  1.00  0.00    -0.268 OA
ATOM     23  C   UNL     1      -2.955  -2.314  -0.496  1.00  0.00     0.084 C 
ATOM     24  S   UNL     1      -3.240  -0.831  -1.333  1.00  0.00    -0.054 SA
ATOM     25  S   UNL     1      -0.899   0.392  -2.730  1.00  0.00    -0.052 S 
ATOM     26  C   UNL     1      -3.856  -3.307  -0.530  1.00  0.00     0.068 C 
BRANCH  26  27
ATOM     27  C   UNL     1      -3.611  -4.666  -0.189  1.00  0.00     0.127 A 
ATOM     28  C   UNL     1      -3.032  -5.281   0.914  1.00  0.00     0.050 A 
ATOM     29  O   UNL     1      -3.991  -5.673  -1.055  1.00  0.00    -0.465 OA
ATOM     30  C   UNL     1      -2.985  -6.676   0.668  1.00  0.00     0.042 A 
ATOM     31  C   UNL     1      -3.587  -6.861  -0.547  1.00  0.00     0.195 A 
ENDBRANCH  26  27
ENDBRANCH  17  19
ENDBRANCH  14  17
ENDBRANCH   8  13
ENDBRANCH   4   7
ENDBRANCH   2   3
ENDBRANCH   1   2
BRANCH   1  32
ATOM     32  C   UNL     1      -7.170   0.201   4.015  1.00  0.00     0.002 C 
BRANCH  32  33
ATOM     33  C   UNL     1      -8.030  -0.969   3.522  1.00  0.00     0.002 C 
BRANCH  33  34
ATOM     34  C   UNL     1      -7.514  -2.359   3.903  1.00  0.00     0.021 C 
BRANCH  34  35
ATOM     35  C   UNL     1      -7.364  -2.590   5.404  1.00  0.00     0.116 C 
BRANCH  35  36
ATOM     36  N   UNL     1      -8.645  -2.550   6.089  1.00  0.00    -0.352 N 
ATOM     37  C   UNL     1      -9.200  -3.466   6.946  1.00  0.00     0.251 C 
ATOM     38  H   UNL     1      -9.192  -1.751   5.913  1.00  0.00     0.163 HD
ATOM     39  O   UNL     1     -10.377  -3.368   7.277  1.00  0.00    -0.269 OA
BRANCH  37  40
ATOM     40  C   UNL     1      -8.381  -4.582   7.463  1.00  0.00     0.039 A 
ATOM     41  C   UNL     1      -8.929  -5.868   7.479  1.00  0.00     0.014 A 
ATOM     42  C   UNL     1      -7.092  -4.360   7.956  1.00  0.00     0.014 A 
ATOM     43  C   UNL     1      -8.165  -6.940   7.944  1.00  0.00     0.010 A 
ATOM     44  C   UNL     1      -6.311  -5.437   8.366  1.00  0.00     0.010 A 
ATOM     45  C   UNL     1      -6.843  -6.736   8.370  1.00  0.00    -0.014 A 
BRANCH  45  46
ATOM     46  C   UNL     1      -6.003  -7.870   8.823  1.00  0.00     0.031 A 
ATOM     47  C   UNL     1      -5.561  -7.963  10.256  1.00  0.00     0.074 A 
ATOM     48  C   UNL     1      -5.581  -8.783   7.928  1.00  0.00     0.049 A 
ATOM     49  N   UNL     1      -4.791  -8.855  10.826  1.00  0.00    -0.248 NA
ATOM     50  C   UNL     1      -6.021  -6.898  11.161  1.00  0.00     0.031 C 
ATOM     51  C   UNL     1      -5.896  -8.777   6.499  1.00  0.00     0.029 A 
ATOM     52  N   UNL     1      -4.785  -9.889   8.091  1.00  0.00    -0.354 N 
ATOM     53  C   UNL     1      -4.655  -8.447  12.147  1.00  0.00     0.074 A 
ATOM     54  C   UNL     1      -5.389  -7.208  12.284  1.00  0.00     0.031 C 
ATOM     55  C   UNL     1      -5.314  -9.839   5.918  1.00  0.00     0.029 A 
ATOM     56  C   UNL     1      -4.565 -10.582   6.926  1.00  0.00     0.049 A 
ATOM     57  H   UNL     1      -4.407 -10.159   8.959  1.00  0.00     0.167 HD
ATOM     58  C   UNL     1      -3.990  -9.055  13.158  1.00  0.00     0.031 A 
ATOM     59  C   UNL     1      -3.840 -11.691   6.694  1.00  0.00     0.031 A 
ATOM     60  C   UNL     1      -3.276 -10.297  13.029  1.00  0.00     0.049 A 
ATOM     61  C   UNL     1      -3.134 -12.364   7.836  1.00  0.00     0.074 A 
ATOM     62  C   UNL     1      -2.640 -11.034  14.013  1.00  0.00     0.029 A 
ATOM     63  N   UNL     1      -3.101 -10.984  11.838  1.00  0.00    -0.354 N 
ATOM     64  N   UNL     1      -3.082 -12.010   9.097  1.00  0.00    -0.248 NA
ATOM     65  C   UNL     1      -2.398 -13.597   7.523  1.00  0.00     0.031 C 
ATOM     66  C   UNL     1      -2.043 -12.146  13.409  1.00  0.00     0.029 A 
ATOM     67  C   UNL     1      -2.345 -12.123  12.057  1.00  0.00     0.049 A 
ATOM     68  H   UNL     1      -3.460 -10.703  10.965  1.00  0.00     0.167 HD
ATOM     69  C   UNL     1      -2.324 -12.984   9.732  1.00  0.00     0.074 A 
ATOM     70  C   UNL     1      -1.951 -13.952   8.720  1.00  0.00     0.031 C 
ATOM     71  C   UNL     1      -1.971 -13.069  11.038  1.00  0.00     0.031 A 
BRANCH  58  72
ATOM     72  C   UNL     1      -3.998  -8.368  14.495  1.00  0.00    -0.014 A 
ATOM     73  C   UNL     1      -5.161  -8.312  15.279  1.00  0.00     0.009 A 
ATOM     74  C   UNL     1      -2.820  -7.781  14.983  1.00  0.00     0.009 A 
ATOM     75  C   UNL     1      -5.155  -7.644  16.506  1.00  0.00     0.001 A 
ATOM     76  C   UNL     1      -2.811  -7.137  16.221  1.00  0.00     0.001 A 
ATOM     77  C   UNL     1      -3.980  -7.060  16.976  1.00  0.00     0.000 A 
ENDBRANCH  58  72
BRANCH  59  78
ATOM     78  C   UNL     1      -3.770 -12.247   5.320  1.00  0.00    -0.014 A 
ATOM     79  C   UNL     1      -4.496 -13.399   4.983  1.00  0.00     0.009 A 
ATOM     80  C   UNL     1      -2.999 -11.613   4.333  1.00  0.00     0.009 A 
ATOM     81  C   UNL     1      -4.439 -13.915   3.687  1.00  0.00     0.001 A 
ATOM     82  C   UNL     1      -2.962 -12.119   3.033  1.00  0.00     0.001 A 
ATOM     83  C   UNL     1      -3.677 -13.272   2.712  1.00  0.00     0.000 A 
ENDBRANCH  59  78
BRANCH  71  84
ATOM     84  C   UNL     1      -1.149 -14.257  11.447  1.00  0.00    -0.014 A 
ATOM     85  C   UNL     1       0.212 -14.344  11.119  1.00  0.00     0.009 A 
ATOM     86  C   UNL     1      -1.738 -15.286  12.199  1.00  0.00     0.009 A 
ATOM     87  C   UNL     1       0.962 -15.454  11.513  1.00  0.00     0.001 A 
ATOM     88  C   UNL     1      -0.980 -16.382  12.611  1.00  0.00     0.001 A 
ATOM     89  C   UNL     1       0.367 -16.469  12.261  1.00  0.00     0.000 A 
ENDBRANCH  71  84
ENDBRANCH  45  46
ENDBRANCH  37  40
ENDBRANCH  35  36
ENDBRANCH  34  35
ENDBRANCH  33  34
ENDBRANCH  32  33
ENDBRANCH   1  32
TORSDOF 17
