REMARK SMILES N#C[C@@H]1CN(C(=O)NCCCC(=O)NCCCCCCNC(=O)c2ccc(-c3c4nc(c(-c5ccccc5)c5ccc([nH]5)c(-c5ccccc5)c5nc(c(-c6ccccc6)c6ccc3[nH]6)C=C5)C=C4)cc2)CCO1
REMARK SMILES IDX 16 1 15 2 14 3 12 4 13 5 11 7 10 8 9 9 8 10 6 11 7 12 5 14
REMARK SMILES IDX 3 15 4 16 74 17 73 18 72 19 2 20 1 21 17 22 18 23 19 24
REMARK SMILES IDX 20 25 21 26 22 27 23 29 24 30 25 31 71 32 26 33 70 34 27 35
REMARK SMILES IDX 28 36 29 37 64 38 30 39 69 40 63 41 65 42 31 43 68 44 62 45
REMARK SMILES IDX 61 46 32 48 54 49 39 50 53 51 40 52 43 53 52 54 66 55 41 56
REMARK SMILES IDX 42 57 51 59 67 60 44 61 33 62 34 63 38 64 35 65 37 66 36 67
REMARK SMILES IDX 55 68 56 69 60 70 57 71 59 72 58 73 45 74 46 75 50 76 47 77
REMARK SMILES IDX 49 78 48 79
REMARK H PARENT 14 6 8 13 21 28 65 47 43 58
REMARK Flexibility Score: inf
ROOT
ATOM      1  C   UNL     1       0.295   2.970  -0.917  1.00  0.00     0.021 C 
ENDROOT
BRANCH   1   2
ATOM      2  C   UNL     1       0.273   4.119  -1.926  1.00  0.00     0.116 C 
BRANCH   2   3
ATOM      3  N   UNL     1       0.672   5.369  -1.300  1.00  0.00    -0.356 N 
ATOM      4  C   UNL     1       1.718   6.196  -1.566  1.00  0.00     0.220 C 
ATOM      5  O   UNL     1       1.915   7.153  -0.816  1.00  0.00    -0.275 OA
ATOM      6  H   UNL     1       0.090   5.665  -0.564  1.00  0.00     0.163 HD
BRANCH   4   7
ATOM      7  C   UNL     1       2.630   5.943  -2.750  1.00  0.00     0.102 C 
BRANCH   7   8
ATOM      8  C   UNL     1       3.985   5.367  -2.334  1.00  0.00     0.031 C 
BRANCH   8   9
ATOM      9  C   UNL     1       3.944   3.902  -1.909  1.00  0.00     0.118 C 
BRANCH   9  10
ATOM     10  N   UNL     1       3.560   3.011  -2.988  1.00  0.00    -0.338 N 
ATOM     11  C   UNL     1       3.653   1.685  -3.201  1.00  0.00     0.317 C 
ATOM     12  O   UNL     1       3.341   1.308  -4.334  1.00  0.00    -0.249 OA
ATOM     13  H   UNL     1       3.132   3.485  -3.737  1.00  0.00     0.165 HD
BRANCH  11  14
ATOM     14  N   UNL     1       4.083   0.813  -2.246  1.00  0.00    -0.319 N 
ATOM     15  C   UNL     1       3.740  -0.071   0.058  1.00  0.00     0.240 C 
ATOM     16  C   UNL     1       4.293   1.058  -0.817  1.00  0.00     0.169 C 
ATOM     17  O   UNL     1       4.263  -1.350  -0.364  1.00  0.00    -0.360 OA
ATOM     18  C   UNL     1       3.945  -1.630  -1.738  1.00  0.00     0.183 C 
ATOM     19  C   UNL     1       4.474  -0.540  -2.676  1.00  0.00     0.150 C 
BRANCH  15  20
ATOM     20  C   UNL     1       2.220  -0.071   0.058  1.00  0.00     0.096 C 
ATOM     21  N   UNL     1       0.960  -0.071   0.058  1.00  0.00    -0.195 NA
ENDBRANCH  15  20
ENDBRANCH  11  14
ENDBRANCH   9  10
ENDBRANCH   8   9
ENDBRANCH   7   8
ENDBRANCH   4   7
ENDBRANCH   2   3
ENDBRANCH   1   2
BRANCH   1  22
ATOM     22  C   UNL     1      -0.927   2.901   0.011  1.00  0.00     0.002 C 
BRANCH  22  23
ATOM     23  C   UNL     1      -2.231   2.410  -0.639  1.00  0.00     0.002 C 
BRANCH  23  24
ATOM     24  C   UNL     1      -2.207   0.987  -1.209  1.00  0.00     0.021 C 
BRANCH  24  25
ATOM     25  C   UNL     1      -2.033  -0.130  -0.181  1.00  0.00     0.116 C 
BRANCH  25  26
ATOM     26  N   UNL     1      -3.237  -0.468   0.552  1.00  0.00    -0.352 N 
ATOM     27  C   UNL     1      -3.745  -1.706   0.878  1.00  0.00     0.251 C 
ATOM     28  H   UNL     1      -3.769   0.300   0.862  1.00  0.00     0.163 HD
ATOM     29  O   UNL     1      -4.751  -1.787   1.567  1.00  0.00    -0.269 OA
BRANCH  27  30
ATOM     30  C   UNL     1      -3.135  -2.948   0.335  1.00  0.00     0.039 A 
ATOM     31  C   UNL     1      -3.997  -3.869  -0.270  1.00  0.00     0.014 A 
ATOM     32  C   UNL     1      -1.766  -3.223   0.402  1.00  0.00     0.014 A 
ATOM     33  C   UNL     1      -3.483  -5.013  -0.884  1.00  0.00     0.010 A 
ATOM     34  C   UNL     1      -1.246  -4.346  -0.254  1.00  0.00     0.010 A 
ATOM     35  C   UNL     1      -2.099  -5.239  -0.922  1.00  0.00    -0.014 A 
BRANCH  35  36
ATOM     36  C   UNL     1      -1.552  -6.364  -1.725  1.00  0.00     0.031 A 
ATOM     37  C   UNL     1      -0.931  -7.563  -1.069  1.00  0.00     0.074 A 
ATOM     38  C   UNL     1      -1.606  -6.297  -3.070  1.00  0.00     0.049 A 
ATOM     39  N   UNL     1      -0.450  -8.648  -1.624  1.00  0.00    -0.248 NA
ATOM     40  C   UNL     1      -0.830  -7.538   0.397  1.00  0.00     0.031 C 
ATOM     41  C   UNL     1      -2.166  -5.182  -3.837  1.00  0.00     0.029 A 
ATOM     42  N   UNL     1      -1.196  -7.189  -4.030  1.00  0.00    -0.354 N 
ATOM     43  C   UNL     1       0.010  -9.436  -0.579  1.00  0.00     0.074 A 
ATOM     44  C   UNL     1      -0.211  -8.686   0.641  1.00  0.00     0.031 C 
ATOM     45  C   UNL     1      -2.098  -5.473  -5.146  1.00  0.00     0.029 A 
ATOM     46  C   UNL     1      -1.457  -6.774  -5.313  1.00  0.00     0.049 A 
ATOM     47  H   UNL     1      -0.756  -8.044  -3.819  1.00  0.00     0.167 HD
ATOM     48  C   UNL     1       0.555 -10.677  -0.626  1.00  0.00     0.031 A 
ATOM     49  C   UNL     1      -1.209  -7.368  -6.495  1.00  0.00     0.031 A 
ATOM     50  C   UNL     1       0.788 -11.422  -1.836  1.00  0.00     0.049 A 
ATOM     51  C   UNL     1      -0.540  -8.712  -6.524  1.00  0.00     0.074 A 
ATOM     52  C   UNL     1       1.271 -12.713  -1.975  1.00  0.00     0.029 A 
ATOM     53  N   UNL     1       0.575 -10.937  -3.117  1.00  0.00    -0.354 N 
ATOM     54  N   UNL     1      -0.183  -9.477  -5.522  1.00  0.00    -0.248 NA
ATOM     55  C   UNL     1      -0.236  -9.270  -7.850  1.00  0.00     0.031 C 
ATOM     56  C   UNL     1       1.409 -12.985  -3.341  1.00  0.00     0.029 A 
ATOM     57  C   UNL     1       0.965 -11.883  -4.052  1.00  0.00     0.049 A 
ATOM     58  H   UNL     1       0.202 -10.052  -3.330  1.00  0.00     0.167 HD
ATOM     59  C   UNL     1       0.378 -10.611  -6.094  1.00  0.00     0.074 A 
ATOM     60  C   UNL     1       0.299 -10.442  -7.531  1.00  0.00     0.031 C 
ATOM     61  C   UNL     1       0.910 -11.695  -5.479  1.00  0.00     0.031 A 
BRANCH  48  62
ATOM     62  C   UNL     1       0.961 -11.297   0.681  1.00  0.00    -0.014 A 
ATOM     63  C   UNL     1       0.002 -11.748   1.602  1.00  0.00     0.009 A 
ATOM     64  C   UNL     1       2.322 -11.453   0.986  1.00  0.00     0.009 A 
ATOM     65  C   UNL     1       0.399 -12.302   2.821  1.00  0.00     0.001 A 
ATOM     66  C   UNL     1       2.716 -12.030   2.195  1.00  0.00     0.001 A 
ATOM     67  C   UNL     1       1.754 -12.444   3.116  1.00  0.00     0.000 A 
ENDBRANCH  48  62
BRANCH  49  68
ATOM     68  C   UNL     1      -1.607  -6.693  -7.756  1.00  0.00    -0.014 A 
ATOM     69  C   UNL     1      -2.699  -7.165  -8.499  1.00  0.00     0.009 A 
ATOM     70  C   UNL     1      -0.910  -5.563  -8.212  1.00  0.00     0.009 A 
ATOM     71  C   UNL     1      -3.079  -6.524  -9.681  1.00  0.00     0.001 A 
ATOM     72  C   UNL     1      -1.307  -4.911  -9.381  1.00  0.00     0.001 A 
ATOM     73  C   UNL     1      -2.387  -5.395 -10.117  1.00  0.00     0.000 A 
ENDBRANCH  49  68
BRANCH  61  74
ATOM     74  C   UNL     1       1.458 -12.781  -6.360  1.00  0.00    -0.014 A 
ATOM     75  C   UNL     1       2.679 -12.616  -7.034  1.00  0.00     0.009 A 
ATOM     76  C   UNL     1       0.768 -13.996  -6.490  1.00  0.00     0.009 A 
ATOM     77  C   UNL     1       3.185 -13.638  -7.840  1.00  0.00     0.001 A 
ATOM     78  C   UNL     1       1.288 -15.025  -7.277  1.00  0.00     0.001 A 
ATOM     79  C   UNL     1       2.492 -14.843  -7.957  1.00  0.00     0.000 A 
ENDBRANCH  61  74
ENDBRANCH  35  36
ENDBRANCH  27  30
ENDBRANCH  25  26
ENDBRANCH  24  25
ENDBRANCH  23  24
ENDBRANCH  22  23
ENDBRANCH   1  22
TORSDOF 18
