REMARK SMILES Cn1cc(/C=C2\SC(=S)N(c3cccc(C(=O)NCCCCCCNC(=O)c4ccc(-c5c6nc(c(-c7ccccc7)c7ccc([nH]7)c(-c7ccccc7)c7nc(c(-c8ccccc8)c8ccc5[nH]8)C=C7)C=C6)cc4)c3)C2=O)c2ccccc21
REMARK SMILES IDX 21 1 20 2 19 3 18 4 16 5 17 6 15 8 11 9 12 10 76 11 13 12
REMARK SMILES IDX 14 13 10 14 5 15 6 16 7 17 77 18 8 19 78 20 9 21 4 22 1 23
REMARK SMILES IDX 2 24 3 25 84 26 79 27 83 28 80 29 82 30 81 31 22 32 23 33
REMARK SMILES IDX 24 34 25 35 26 36 27 38 28 39 29 40 75 41 30 42 74 43 31 44
REMARK SMILES IDX 32 45 33 46 68 47 34 48 73 49 67 50 69 51 35 52 72 53 66 54
REMARK SMILES IDX 65 55 36 57 58 58 43 59 57 60 44 61 47 62 56 63 70 64 45 65
REMARK SMILES IDX 46 66 55 68 71 69 48 70 37 71 38 72 42 73 39 74 41 75 40 76
REMARK SMILES IDX 59 77 60 78 64 79 61 80 63 81 62 82 49 83 50 84 54 85 51 86
REMARK SMILES IDX 53 87 52 88
REMARK H PARENT 18 7 25 37 69 56 47 67
REMARK Flexibility Score: inf
ROOT
ATOM      1  C   UNL     1      -1.690  -7.588   7.274  1.00  0.00     0.002 C 
ENDROOT
BRANCH   1   2
ATOM      2  C   UNL     1      -1.238  -7.327   5.839  1.00  0.00     0.021 C 
BRANCH   2   3
ATOM      3  C   UNL     1       0.231  -7.583   5.530  1.00  0.00     0.116 C 
BRANCH   3   4
ATOM      4  N   UNL     1       0.636  -8.976   5.611  1.00  0.00    -0.352 N 
ATOM      5  C   UNL     1       1.452  -9.741   4.803  1.00  0.00     0.251 C 
ATOM      6  O   UNL     1       1.623 -10.924   5.096  1.00  0.00    -0.269 OA
ATOM      7  H   UNL     1       0.260  -9.463   6.380  1.00  0.00     0.163 HD
BRANCH   5   8
ATOM      8  C   UNL     1       2.072  -9.209   3.555  1.00  0.00     0.041 A 
ATOM      9  C   UNL     1       2.687  -7.331   2.129  1.00  0.00     0.051 A 
ATOM     10  C   UNL     1       2.827  -8.220   1.056  1.00  0.00     0.027 A 
ATOM     11  C   UNL     1       2.415  -7.864   3.396  1.00  0.00     0.040 A 
ATOM     12  C   UNL     1       2.664  -9.595   1.241  1.00  0.00     0.003 A 
ATOM     13  C   UNL     1       2.255 -10.085   2.481  1.00  0.00     0.014 A 
BRANCH   9  14
ATOM     14  N   UNL     1       2.626  -5.913   1.919  1.00  0.00    -0.261 N 
ATOM     15  C   UNL     1       1.058  -3.219   0.040  1.00  0.00     0.031 C 
ATOM     16  C   UNL     1       1.764  -3.939   0.928  1.00  0.00     0.081 C 
ATOM     17  S   UNL     1       2.612  -3.356   2.301  1.00  0.00    -0.054 SA
ATOM     18  C   UNL     1       1.863  -5.421   0.854  1.00  0.00     0.270 C 
ATOM     19  C   UNL     1       3.159  -4.958   2.775  1.00  0.00     0.152 C 
ATOM     20  O   UNL     1       1.282  -6.062  -0.014  1.00  0.00    -0.268 OA
ATOM     21  S   UNL     1       4.239  -5.126   4.044  1.00  0.00    -0.051 S 
BRANCH  15  22
ATOM     22  C   UNL     1       0.952  -1.795   0.004  1.00  0.00     0.001 A 
ATOM     23  C   UNL     1       2.408   1.513  -0.043  1.00  0.00     0.149 C 
ATOM     24  N   UNL     1       1.567   0.337  -0.039  1.00  0.00    -0.350 N 
ATOM     25  C   UNL     1       2.037  -0.947  -0.040  1.00  0.00     0.094 A 
ATOM     26  C   UNL     1       0.189   0.344  -0.030  1.00  0.00     0.048 A 
ATOM     27  C   UNL     1      -0.229  -0.993  -0.026  1.00  0.00     0.007 A 
ATOM     28  C   UNL     1      -0.721   1.414  -0.024  1.00  0.00     0.027 A 
ATOM     29  C   UNL     1      -1.615  -1.264  -0.025  1.00  0.00     0.011 A 
ATOM     30  C   UNL     1      -2.085   1.117  -0.019  1.00  0.00     0.002 A 
ATOM     31  C   UNL     1      -2.529  -0.202  -0.023  1.00  0.00     0.001 A 
ENDBRANCH  15  22
ENDBRANCH   9  14
ENDBRANCH   5   8
ENDBRANCH   3   4
ENDBRANCH   2   3
ENDBRANCH   1   2
BRANCH   1  32
ATOM     32  C   UNL     1      -0.898  -6.877   8.374  1.00  0.00     0.002 C 
BRANCH  32  33
ATOM     33  C   UNL     1      -0.714  -5.367   8.210  1.00  0.00     0.021 C 
BRANCH  33  34
ATOM     34  C   UNL     1      -1.996  -4.563   8.018  1.00  0.00     0.116 C 
BRANCH  34  35
ATOM     35  N   UNL     1      -2.900  -4.670   9.150  1.00  0.00    -0.352 N 
ATOM     36  C   UNL     1      -3.470  -3.677   9.910  1.00  0.00     0.251 C 
ATOM     37  H   UNL     1      -3.139  -5.588   9.411  1.00  0.00     0.163 HD
ATOM     38  O   UNL     1      -4.079  -3.957  10.935  1.00  0.00    -0.269 OA
BRANCH  36  39
ATOM     39  C   UNL     1      -3.327  -2.262   9.502  1.00  0.00     0.039 A 
ATOM     40  C   UNL     1      -2.984  -1.312  10.468  1.00  0.00     0.014 A 
ATOM     41  C   UNL     1      -3.537  -1.871   8.177  1.00  0.00     0.014 A 
ATOM     42  C   UNL     1      -2.789   0.019  10.093  1.00  0.00     0.010 A 
ATOM     43  C   UNL     1      -3.270  -0.559   7.792  1.00  0.00     0.010 A 
ATOM     44  C   UNL     1      -2.894   0.400   8.745  1.00  0.00    -0.014 A 
BRANCH  44  45
ATOM     45  C   UNL     1      -2.615   1.794   8.311  1.00  0.00     0.031 A 
ATOM     46  C   UNL     1      -3.706   2.624   7.689  1.00  0.00     0.074 A 
ATOM     47  C   UNL     1      -1.364   2.287   8.410  1.00  0.00     0.049 A 
ATOM     48  N   UNL     1      -3.635   3.824   7.170  1.00  0.00    -0.248 NA
ATOM     49  C   UNL     1      -5.047   2.020   7.619  1.00  0.00     0.031 C 
ATOM     50  C   UNL     1      -0.209   1.573   8.960  1.00  0.00     0.029 A 
ATOM     51  N   UNL     1      -0.850   3.504   8.034  1.00  0.00    -0.354 N 
ATOM     52  C   UNL     1      -4.909   4.105   6.691  1.00  0.00     0.074 A 
ATOM     53  C   UNL     1      -5.726   2.940   6.947  1.00  0.00     0.031 C 
ATOM     54  C   UNL     1       0.871   2.368   8.900  1.00  0.00     0.029 A 
ATOM     55  C   UNL     1       0.500   3.628   8.265  1.00  0.00     0.049 A 
ATOM     56  H   UNL     1      -1.396   4.220   7.637  1.00  0.00     0.167 HD
ATOM     57  C   UNL     1      -5.360   5.237   6.102  1.00  0.00     0.031 A 
ATOM     58  C   UNL     1       1.349   4.634   7.978  1.00  0.00     0.031 A 
ATOM     59  C   UNL     1      -4.553   6.405   5.870  1.00  0.00     0.049 A 
ATOM     60  C   UNL     1       0.818   5.874   7.310  1.00  0.00     0.074 A 
ATOM     61  C   UNL     1      -4.943   7.627   5.348  1.00  0.00     0.029 A 
ATOM     62  N   UNL     1      -3.198   6.496   6.137  1.00  0.00    -0.354 N 
ATOM     63  N   UNL     1      -0.409   6.155   6.941  1.00  0.00    -0.248 NA
ATOM     64  C   UNL     1       1.788   6.943   7.027  1.00  0.00     0.031 C 
ATOM     65  C   UNL     1      -3.809   8.435   5.238  1.00  0.00     0.029 A 
ATOM     66  C   UNL     1      -2.728   7.742   5.758  1.00  0.00     0.049 A 
ATOM     67  H   UNL     1      -2.650   5.782   6.537  1.00  0.00     0.167 HD
ATOM     68  C   UNL     1      -0.362   7.442   6.421  1.00  0.00     0.074 A 
ATOM     69  C   UNL     1       1.007   7.894   6.535  1.00  0.00     0.031 C 
ATOM     70  C   UNL     1      -1.366   8.184   5.893  1.00  0.00     0.031 A 
BRANCH  57  71
ATOM     71  C   UNL     1      -6.794   5.279   5.653  1.00  0.00    -0.014 A 
ATOM     72  C   UNL     1      -7.847   5.357   6.577  1.00  0.00     0.009 A 
ATOM     73  C   UNL     1      -7.088   5.333   4.281  1.00  0.00     0.009 A 
ATOM     74  C   UNL     1      -9.168   5.469   6.135  1.00  0.00     0.001 A 
ATOM     75  C   UNL     1      -8.406   5.474   3.843  1.00  0.00     0.001 A 
ATOM     76  C   UNL     1      -9.445   5.537   4.770  1.00  0.00     0.000 A 
ENDBRANCH  57  71
BRANCH  58  77
ATOM     77  C   UNL     1       2.799   4.518   8.297  1.00  0.00    -0.014 A 
ATOM     78  C   UNL     1       3.394   5.356   9.253  1.00  0.00     0.009 A 
ATOM     79  C   UNL     1       3.608   3.601   7.606  1.00  0.00     0.009 A 
ATOM     80  C   UNL     1       4.773   5.314   9.473  1.00  0.00     0.001 A 
ATOM     81  C   UNL     1       4.980   3.535   7.856  1.00  0.00     0.001 A 
ATOM     82  C   UNL     1       5.564   4.403   8.776  1.00  0.00     0.000 A 
ENDBRANCH  58  77
BRANCH  70  83
ATOM     83  C   UNL     1      -1.036   9.581   5.448  1.00  0.00    -0.014 A 
ATOM     84  C   UNL     1      -0.259   9.824   4.305  1.00  0.00     0.009 A 
ATOM     85  C   UNL     1      -1.560  10.673   6.159  1.00  0.00     0.009 A 
ATOM     86  C   UNL     1       0.013  11.133   3.902  1.00  0.00     0.001 A 
ATOM     87  C   UNL     1      -1.315  11.979   5.735  1.00  0.00     0.001 A 
ATOM     88  C   UNL     1      -0.521  12.208   4.613  1.00  0.00     0.000 A 
ENDBRANCH  70  83
ENDBRANCH  44  45
ENDBRANCH  36  39
ENDBRANCH  34  35
ENDBRANCH  33  34
ENDBRANCH  32  33
ENDBRANCH   1  32
TORSDOF 15
