REMARK SMILES CCC[C@@H](C(=O)NCCCCCCNC(=O)c1ccc(-c2c3nc(c(-c4ccccc4)c4ccc([nH]4)c(-c4ccccc4)c4nc(c(-c5ccccc5)c5ccc2[nH]5)C=C4)C=C3)cc1)n1nc(/C=C/c2ccc(OC)cc2)ccc1=O
REMARK SMILES IDX 9 1 8 2 7 3 5 4 6 5 4 7 3 8 2 9 1 10 65 11 66 12 80 13 67 14
REMARK SMILES IDX 79 15 81 16 78 17 68 18 69 19 70 20 71 21 77 22 72 23 76 24
REMARK SMILES IDX 73 25 74 26 75 27 10 28 11 29 12 30 13 31 14 32 15 33 16 35
REMARK SMILES IDX 17 36 18 37 64 38 19 39 63 40 20 41 21 42 22 43 57 44 23 45
REMARK SMILES IDX 62 46 56 47 58 48 24 49 61 50 55 51 54 52 25 54 47 55 32 56
REMARK SMILES IDX 46 57 33 58 36 59 45 60 59 61 34 62 35 63 44 65 60 66 37 67
REMARK SMILES IDX 26 68 27 69 31 70 28 71 30 72 29 73 48 74 49 75 53 76 50 77
REMARK SMILES IDX 52 78 51 79 38 80 39 81 43 82 40 83 42 84 41 85
REMARK H PARENT 7 6 14 34 58 53 36 64
REMARK Flexibility Score: inf
ROOT
ATOM      1  C   UNL     1      -1.959   0.800   0.669  1.00  0.00     0.021 C 
ENDROOT
BRANCH   1   2
ATOM      2  C   UNL     1      -1.525   0.024  -0.577  1.00  0.00     0.116 C 
BRANCH   2   3
ATOM      3  N   UNL     1      -1.808   0.799  -1.760  1.00  0.00    -0.354 N 
ATOM      4  C   UNL     1      -0.981   1.441  -2.634  1.00  0.00     0.245 C 
ATOM      5  O   UNL     1      -1.565   2.128  -3.481  1.00  0.00    -0.273 OA
ATOM      6  H   UNL     1      -2.765   0.879  -1.974  1.00  0.00     0.163 HD
BRANCH   4   7
ATOM      7  C   UNL     1       0.570   1.291  -2.568  1.00  0.00     0.200 C 
BRANCH   7   8
ATOM      8  C   UNL     1       1.293   2.202  -1.552  1.00  0.00     0.037 C 
BRANCH   8   9
ATOM      9  C   UNL     1       1.423   1.736  -0.102  1.00  0.00    -0.001 C 
ATOM     10  C   UNL     1       2.159   0.419   0.096  1.00  0.00     0.004 C 
ENDBRANCH   8   9
ENDBRANCH   7   8
BRANCH   7  11
ATOM     11  N   UNL     1       1.028   1.621  -3.942  1.00  0.00    -0.217 N 
ATOM     12  N   UNL     1       1.185   2.967  -4.222  1.00  0.00    -0.170 NA
ATOM     13  C   UNL     1       1.087   0.630  -4.908  1.00  0.00     0.267 A 
ATOM     14  C   UNL     1       1.350   3.330  -5.457  1.00  0.00     0.084 A 
ATOM     15  C   UNL     1       1.346   1.088  -6.290  1.00  0.00     0.075 A 
ATOM     16  O   UNL     1       0.941  -0.571  -4.694  1.00  0.00    -0.268 OA
ATOM     17  C   UNL     1       1.455   2.386  -6.584  1.00  0.00     0.036 A 
BRANCH  14  18
ATOM     18  C   UNL     1       1.460   4.793  -5.721  1.00  0.00     0.031 C 
ATOM     19  C   UNL     1       1.476   5.414  -6.909  1.00  0.00     0.010 C 
BRANCH  19  20
ATOM     20  C   UNL     1       1.617   6.873  -7.042  1.00  0.00    -0.025 A 
ATOM     21  C   UNL     1       0.912   7.544  -8.046  1.00  0.00     0.012 A 
ATOM     22  C   UNL     1       2.498   7.607  -6.237  1.00  0.00     0.012 A 
ATOM     23  C   UNL     1       1.079   8.921  -8.229  1.00  0.00     0.047 A 
ATOM     24  C   UNL     1       2.663   8.986  -6.421  1.00  0.00     0.047 A 
ATOM     25  C   UNL     1       1.955   9.649  -7.421  1.00  0.00     0.118 A 
BRANCH  25  26
ATOM     26  O   UNL     1       2.035  10.982  -7.714  1.00  0.00    -0.497 OA
ATOM     27  C   UNL     1       2.906  11.765  -6.907  1.00  0.00     0.278 C 
ENDBRANCH  25  26
ENDBRANCH  19  20
ENDBRANCH  14  18
ENDBRANCH   7  11
ENDBRANCH   4   7
ENDBRANCH   2   3
ENDBRANCH   1   2
BRANCH   1  28
ATOM     28  C   UNL     1      -3.443   0.645   1.012  1.00  0.00     0.002 C 
BRANCH  28  29
ATOM     29  C   UNL     1      -3.849  -0.755   1.481  1.00  0.00     0.002 C 
BRANCH  29  30
ATOM     30  C   UNL     1      -3.042  -1.312   2.657  1.00  0.00     0.021 C 
BRANCH  30  31
ATOM     31  C   UNL     1      -3.008  -0.422   3.897  1.00  0.00     0.116 C 
BRANCH  31  32
ATOM     32  N   UNL     1      -4.336  -0.195   4.443  1.00  0.00    -0.352 N 
ATOM     33  C   UNL     1      -4.832  -0.473   5.691  1.00  0.00     0.251 C 
ATOM     34  H   UNL     1      -4.977   0.222   3.822  1.00  0.00     0.163 HD
ATOM     35  O   UNL     1      -6.038  -0.398   5.903  1.00  0.00    -0.269 OA
BRANCH  33  36
ATOM     36  C   UNL     1      -3.920  -0.875   6.782  1.00  0.00     0.039 A 
ATOM     37  C   UNL     1      -4.296  -1.931   7.617  1.00  0.00     0.014 A 
ATOM     38  C   UNL     1      -2.722  -0.193   7.011  1.00  0.00     0.014 A 
ATOM     39  C   UNL     1      -3.449  -2.334   8.652  1.00  0.00     0.010 A 
ATOM     40  C   UNL     1      -1.849  -0.635   8.002  1.00  0.00     0.010 A 
ATOM     41  C   UNL     1      -2.208  -1.704   8.837  1.00  0.00    -0.014 A 
BRANCH  41  42
ATOM     42  C   UNL     1      -1.280  -2.149   9.905  1.00  0.00     0.031 A 
ATOM     43  C   UNL     1      -0.963  -1.244  11.063  1.00  0.00     0.074 A 
ATOM     44  C   UNL     1      -0.681  -3.351   9.807  1.00  0.00     0.049 A 
ATOM     45  N   UNL     1      -0.164  -1.453  12.080  1.00  0.00    -0.248 NA
ATOM     46  C   UNL     1      -1.609   0.077  11.069  1.00  0.00     0.031 C 
ATOM     47  C   UNL     1      -0.876  -4.309   8.716  1.00  0.00     0.029 A 
ATOM     48  N   UNL     1       0.213  -3.974  10.641  1.00  0.00    -0.354 N 
ATOM     49  C   UNL     1      -0.195  -0.285  12.831  1.00  0.00     0.074 A 
ATOM     50  C   UNL     1      -1.058   0.643  12.132  1.00  0.00     0.031 C 
ATOM     51  C   UNL     1      -0.153  -5.412   8.968  1.00  0.00     0.029 A 
ATOM     52  C   UNL     1       0.581  -5.226  10.216  1.00  0.00     0.049 A 
ATOM     53  H   UNL     1       0.557  -3.561  11.466  1.00  0.00     0.167 HD
ATOM     54  C   UNL     1       0.424  -0.013  14.004  1.00  0.00     0.031 A 
ATOM     55  C   UNL     1       1.412  -6.127  10.771  1.00  0.00     0.031 A 
ATOM     56  C   UNL     1       1.269  -0.940  14.709  1.00  0.00     0.049 A 
ATOM     57  C   UNL     1       2.093  -5.799  12.069  1.00  0.00     0.074 A 
ATOM     58  C   UNL     1       1.882  -0.786  15.940  1.00  0.00     0.029 A 
ATOM     59  N   UNL     1       1.624  -2.195  14.239  1.00  0.00    -0.354 N 
ATOM     60  N   UNL     1       1.993  -4.719  12.805  1.00  0.00    -0.248 NA
ATOM     61  C   UNL     1       2.994  -6.823  12.616  1.00  0.00     0.031 C 
ATOM     62  C   UNL     1       2.648  -1.929  16.194  1.00  0.00     0.029 A 
ATOM     63  C   UNL     1       2.471  -2.815  15.143  1.00  0.00     0.049 A 
ATOM     64  H   UNL     1       1.320  -2.587  13.390  1.00  0.00     0.167 HD
ATOM     65  C   UNL     1       2.796  -4.944  13.916  1.00  0.00     0.074 A 
ATOM     66  C   UNL     1       3.365  -6.267  13.761  1.00  0.00     0.031 C 
ATOM     67  C   UNL     1       3.036  -4.128  14.972  1.00  0.00     0.031 A 
BRANCH  54  68
ATOM     68  C   UNL     1       0.219   1.357  14.589  1.00  0.00    -0.014 A 
ATOM     69  C   UNL     1      -1.019   1.743  15.129  1.00  0.00     0.009 A 
ATOM     70  C   UNL     1       1.284   2.270  14.614  1.00  0.00     0.009 A 
ATOM     71  C   UNL     1      -1.197   3.030  15.640  1.00  0.00     0.001 A 
ATOM     72  C   UNL     1       1.111   3.547  15.152  1.00  0.00     0.001 A 
ATOM     73  C   UNL     1      -0.132   3.930  15.653  1.00  0.00     0.000 A 
ENDBRANCH  54  68
BRANCH  55  74
ATOM     74  C   UNL     1       1.617  -7.446  10.121  1.00  0.00    -0.014 A 
ATOM     75  C   UNL     1       1.054  -8.602  10.682  1.00  0.00     0.009 A 
ATOM     76  C   UNL     1       2.368  -7.558   8.942  1.00  0.00     0.009 A 
ATOM     77  C   UNL     1       1.256  -9.849  10.086  1.00  0.00     0.001 A 
ATOM     78  C   UNL     1       2.548  -8.803   8.334  1.00  0.00     0.001 A 
ATOM     79  C   UNL     1       1.998  -9.947   8.911  1.00  0.00     0.000 A 
ENDBRANCH  55  74
BRANCH  67  80
ATOM     80  C   UNL     1       3.932  -4.660  16.054  1.00  0.00    -0.014 A 
ATOM     81  C   UNL     1       5.316  -4.778  15.860  1.00  0.00     0.009 A 
ATOM     82  C   UNL     1       3.382  -5.026  17.293  1.00  0.00     0.009 A 
ATOM     83  C   UNL     1       6.129  -5.286  16.876  1.00  0.00     0.001 A 
ATOM     84  C   UNL     1       4.201  -5.508  18.315  1.00  0.00     0.001 A 
ATOM     85  C   UNL     1       5.572  -5.646  18.102  1.00  0.00     0.000 A 
ENDBRANCH  67  80
ENDBRANCH  41  42
ENDBRANCH  33  36
ENDBRANCH  31  32
ENDBRANCH  30  31
ENDBRANCH  29  30
ENDBRANCH  28  29
ENDBRANCH   1  28
TORSDOF 19
