REMARK SMILES CCc1cc(/C=C/C(=O)NCCCCCCNC(=O)c2ccc(-c3c4nc(c(-c5ccccc5)c5ccc([nH]5)c(-c5ccccc5)c5nc(c(-c6ccccc6)c6ccc3[nH]6)C=C5)C=C4)cc2)cc(C(=O)c2ccccc2)c1
REMARK SMILES IDX 13 1 12 2 11 3 10 4 8 5 9 6 7 8 6 9 5 10 3 11 4 12 78 13
REMARK SMILES IDX 69 14 68 15 2 16 1 17 70 18 71 19 72 20 73 21 77 22 74 23
REMARK SMILES IDX 76 24 75 25 14 26 15 27 16 28 17 29 18 30 19 32 20 33 21 34
REMARK SMILES IDX 67 35 22 36 66 37 23 38 24 39 25 40 60 41 26 42 65 43 59 44
REMARK SMILES IDX 61 45 27 46 64 47 58 48 57 49 28 51 50 52 35 53 49 54 36 55
REMARK SMILES IDX 39 56 48 57 62 58 37 59 38 60 47 62 63 63 40 64 29 65 30 66
REMARK SMILES IDX 34 67 31 68 33 69 32 70 51 71 52 72 56 73 53 74 55 75 54 76
REMARK SMILES IDX 41 77 42 78 46 79 43 80 45 81 44 82
REMARK H PARENT 10 7 17 31 61 50 39 61
REMARK Flexibility Score: inf
ROOT
ATOM      1  C   UNL     1       0.187  -0.653  10.973  1.00  0.00     0.002 C 
ENDROOT
BRANCH   1   2
ATOM      2  C   UNL     1       0.369  -0.214   9.513  1.00  0.00     0.021 C 
BRANCH   2   3
ATOM      3  C   UNL     1       1.671  -0.715   8.883  1.00  0.00     0.116 C 
BRANCH   3   4
ATOM      4  N   UNL     1       1.543  -2.106   8.494  1.00  0.00    -0.353 N 
ATOM      5  C   UNL     1       1.485  -2.701   7.277  1.00  0.00     0.243 C 
ATOM      6  O   UNL     1       1.437  -3.929   7.213  1.00  0.00    -0.270 OA
ATOM      7  H   UNL     1       1.488  -2.732   9.252  1.00  0.00     0.163 HD
BRANCH   5   8
ATOM      8  C   UNL     1       1.553  -1.927   6.014  1.00  0.00     0.072 C 
ATOM      9  C   UNL     1       0.958  -0.750   5.775  1.00  0.00     0.014 C 
BRANCH   9  10
ATOM     10  C   UNL     1       0.996  -0.046   4.486  1.00  0.00    -0.024 A 
ATOM     11  C   UNL     1       0.800  -0.033   2.045  1.00  0.00    -0.047 A 
ATOM     12  C   UNL     1       0.867  -0.725   3.266  1.00  0.00     0.011 A 
ATOM     13  C   UNL     1       0.854   1.367   2.067  1.00  0.00     0.016 A 
ATOM     14  C   UNL     1       0.956   2.065   3.279  1.00  0.00     0.023 A 
ATOM     15  C   UNL     1       1.044   1.353   4.481  1.00  0.00     0.020 A 
BRANCH  11  16
ATOM     16  C   UNL     1       0.551  -0.816   0.775  1.00  0.00     0.032 C 
ATOM     17  C   UNL     1       1.085  -0.201  -0.513  1.00  0.00     0.009 C 
ENDBRANCH  11  16
BRANCH  14  18
ATOM     18  C   UNL     1       0.970   3.557   3.334  1.00  0.00     0.193 C 
ATOM     19  O   UNL     1       1.353   4.139   4.345  1.00  0.00    -0.289 OA
BRANCH  18  20
ATOM     20  C   UNL     1       0.548   4.362   2.166  1.00  0.00     0.022 A 
ATOM     21  C   UNL     1       1.429   5.323   1.664  1.00  0.00     0.012 A 
ATOM     22  C   UNL     1      -0.695   4.152   1.556  1.00  0.00     0.012 A 
ATOM     23  C   UNL     1       1.091   6.034   0.513  1.00  0.00     0.001 A 
ATOM     24  C   UNL     1      -1.026   4.865   0.403  1.00  0.00     0.001 A 
ATOM     25  C   UNL     1      -0.129   5.796  -0.123  1.00  0.00     0.000 A 
ENDBRANCH  18  20
ENDBRANCH  14  18
ENDBRANCH   9  10
ENDBRANCH   5   8
ENDBRANCH   3   4
ENDBRANCH   2   3
ENDBRANCH   1   2
BRANCH   1  26
ATOM     26  C   UNL     1       1.275  -0.161  11.936  1.00  0.00     0.002 C 
BRANCH  26  27
ATOM     27  C   UNL     1       1.514   1.351  11.922  1.00  0.00     0.021 C 
BRANCH  27  28
ATOM     28  C   UNL     1       0.300   2.181  12.325  1.00  0.00     0.116 C 
BRANCH  28  29
ATOM     29  N   UNL     1      -0.084   1.933  13.706  1.00  0.00    -0.352 N 
ATOM     30  C   UNL     1      -0.202   2.817  14.748  1.00  0.00     0.251 C 
ATOM     31  H   UNL     1      -0.289   0.995  13.924  1.00  0.00     0.163 HD
ATOM     32  O   UNL     1      -0.301   2.409  15.899  1.00  0.00    -0.269 OA
BRANCH  30  33
ATOM     33  C   UNL     1      -0.203   4.270  14.479  1.00  0.00     0.039 A 
ATOM     34  C   UNL     1       0.547   5.112  15.304  1.00  0.00     0.014 A 
ATOM     35  C   UNL     1      -0.961   4.800  13.431  1.00  0.00     0.014 A 
ATOM     36  C   UNL     1       0.573   6.484  15.047  1.00  0.00     0.010 A 
ATOM     37  C   UNL     1      -0.878   6.157  13.134  1.00  0.00     0.010 A 
ATOM     38  C   UNL     1      -0.118   7.013  13.945  1.00  0.00    -0.014 A 
BRANCH  38  39
ATOM     39  C   UNL     1      -0.066   8.461  13.628  1.00  0.00     0.031 A 
ATOM     40  C   UNL     1      -1.313   9.297  13.707  1.00  0.00     0.074 A 
ATOM     41  C   UNL     1       1.091   9.009  13.211  1.00  0.00     0.049 A 
ATOM     42  N   UNL     1      -1.478  10.562  13.416  1.00  0.00    -0.248 NA
ATOM     43  C   UNL     1      -2.541   8.616  14.148  1.00  0.00     0.031 C 
ATOM     44  C   UNL     1       2.361   8.295  13.056  1.00  0.00     0.029 A 
ATOM     45  N   UNL     1       1.384  10.295  12.833  1.00  0.00    -0.354 N 
ATOM     46  C   UNL     1      -2.827  10.823  13.621  1.00  0.00     0.074 A 
ATOM     47  C   UNL     1      -3.445   9.576  14.014  1.00  0.00     0.031 C 
ATOM     48  C   UNL     1       3.301   9.159  12.640  1.00  0.00     0.029 A 
ATOM     49  C   UNL     1       2.694  10.473  12.460  1.00  0.00     0.049 A 
ATOM     50  H   UNL     1       0.719  11.020  12.828  1.00  0.00     0.167 HD
ATOM     51  C   UNL     1      -3.490  11.999  13.511  1.00  0.00     0.031 A 
ATOM     52  C   UNL     1       3.333  11.572  12.018  1.00  0.00     0.031 A 
ATOM     53  C   UNL     1      -2.873  13.241  13.128  1.00  0.00     0.049 A 
ATOM     54  C   UNL     1       2.572  12.862  11.889  1.00  0.00     0.074 A 
ATOM     55  C   UNL     1      -3.446  14.498  13.041  1.00  0.00     0.029 A 
ATOM     56  N   UNL     1      -1.542  13.381  12.766  1.00  0.00    -0.354 N 
ATOM     57  N   UNL     1       1.312  13.107  12.153  1.00  0.00    -0.248 NA
ATOM     58  C   UNL     1       3.327  14.029  11.412  1.00  0.00     0.031 C 
ATOM     59  C   UNL     1      -2.473  15.389  12.577  1.00  0.00     0.029 A 
ATOM     60  C   UNL     1      -1.281  14.698  12.430  1.00  0.00     0.049 A 
ATOM     61  H   UNL     1      -0.881  12.651  12.749  1.00  0.00     0.167 HD
ATOM     62  C   UNL     1       1.130  14.461  11.902  1.00  0.00     0.074 A 
ATOM     63  C   UNL     1       2.412  14.985  11.480  1.00  0.00     0.031 C 
ATOM     64  C   UNL     1       0.001  15.203  12.012  1.00  0.00     0.031 A 
BRANCH  51  65
ATOM     65  C   UNL     1      -4.965  11.992  13.801  1.00  0.00    -0.014 A 
ATOM     66  C   UNL     1      -5.450  11.807  15.106  1.00  0.00     0.009 A 
ATOM     67  C   UNL     1      -5.883  12.206  12.761  1.00  0.00     0.009 A 
ATOM     68  C   UNL     1      -6.824  11.797  15.357  1.00  0.00     0.001 A 
ATOM     69  C   UNL     1      -7.255  12.226  13.020  1.00  0.00     0.001 A 
ATOM     70  C   UNL     1      -7.724  12.011  14.315  1.00  0.00     0.000 A 
ENDBRANCH  51  65
BRANCH  52  71
ATOM     71  C   UNL     1       4.779  11.506  11.678  1.00  0.00    -0.014 A 
ATOM     72  C   UNL     1       5.730  12.143  12.489  1.00  0.00     0.009 A 
ATOM     73  C   UNL     1       5.215  10.810  10.540  1.00  0.00     0.009 A 
ATOM     74  C   UNL     1       7.085  12.107  12.153  1.00  0.00     0.001 A 
ATOM     75  C   UNL     1       6.573  10.751  10.222  1.00  0.00     0.001 A 
ATOM     76  C   UNL     1       7.506  11.408  11.023  1.00  0.00     0.000 A 
ENDBRANCH  52  71
BRANCH  64  77
ATOM     77  C   UNL     1       0.112  16.670  11.706  1.00  0.00    -0.014 A 
ATOM     78  C   UNL     1       0.271  17.132  10.390  1.00  0.00     0.009 A 
ATOM     79  C   UNL     1       0.017  17.605  12.749  1.00  0.00     0.009 A 
ATOM     80  C   UNL     1       0.365  18.500  10.130  1.00  0.00     0.001 A 
ATOM     81  C   UNL     1       0.081  18.973  12.482  1.00  0.00     0.001 A 
ATOM     82  C   UNL     1       0.265  19.419  11.174  1.00  0.00     0.000 A 
ENDBRANCH  64  77
ENDBRANCH  38  39
ENDBRANCH  30  33
ENDBRANCH  28  29
ENDBRANCH  27  28
ENDBRANCH  26  27
ENDBRANCH   1  26
TORSDOF 17
