REMARK SMILES COc1ccc(-c2noc(C[N@H+]3CCCC[C@@H]3C(=O)NCCCCCCNC(=O)c3ccc(-c4c5nc(c(-c6ccccc6)c6ccc([nH]6)c(-c6ccccc6)c6nc(c(-c7ccccc7)c7ccc4[nH]7)C=C6)C=C5)cc3)n2)cc1OC
REMARK SMILES IDX 22 1 21 2 20 3 18 4 19 5 17 7 12 8 13 9 14 11 16 12 15 13
REMARK SMILES IDX 11 14 10 15 7 16 8 17 78 18 9 19 6 20 3 21 4 22 80 23 5 24
REMARK SMILES IDX 79 25 2 26 1 27 81 28 82 29 23 30 24 31 25 32 26 33 27 34
REMARK SMILES IDX 28 35 29 37 30 38 31 39 77 40 32 41 76 42 33 43 34 44 35 45
REMARK SMILES IDX 70 46 36 47 75 48 69 49 71 50 37 51 74 52 68 53 67 54 38 56
REMARK SMILES IDX 60 57 45 58 59 59 46 60 49 61 58 62 72 63 47 64 48 65 57 67
REMARK SMILES IDX 73 68 50 69 39 70 40 71 44 72 41 73 43 74 42 75 61 76 62 77
REMARK SMILES IDX 66 78 63 79 65 80 64 81 51 82 52 83 56 84 53 85 55 86 54 87
REMARK H PARENT 20 6 12 10 27 36 71 55 49 66
REMARK Flexibility Score: inf
ROOT
ATOM      1  C   UNL     1       4.812   3.081 -13.933  1.00  0.00     0.021 C 
ENDROOT
BRANCH   1   2
ATOM      2  C   UNL     1       4.881   2.414 -12.560  1.00  0.00     0.116 C 
BRANCH   2   3
ATOM      3  N   UNL     1       4.550   3.378 -11.528  1.00  0.00    -0.351 N 
ATOM      4  C   UNL     1       3.458   3.440 -10.715  1.00  0.00     0.278 C 
ATOM      5  O   UNL     1       3.351   4.418  -9.971  1.00  0.00    -0.268 OA
ATOM      6  H   UNL     1       5.213   4.094 -11.396  1.00  0.00     0.163 HD
BRANCH   4   7
ATOM      7  C   UNL     1       2.432   2.286 -10.667  1.00  0.00     0.274 C 
ATOM      8  N   UNL     1       3.119   1.012 -10.317  1.00  0.00    -0.317 N 
ATOM      9  C   UNL     1       2.217  -0.144 -10.352  1.00  0.00     0.263 C 
ATOM     10  H   UNL     1       3.817   0.874 -11.048  1.00  0.00     0.349 HD
ATOM     11  C   UNL     1       1.519  -0.262 -11.705  1.00  0.00     0.062 C 
ATOM     12  C   UNL     1       1.611   2.224 -11.965  1.00  0.00     0.076 C 
ATOM     13  C   UNL     1       0.714   0.994 -12.008  1.00  0.00     0.012 C 
BRANCH   8  14
ATOM     14  C   UNL     1       3.858   1.083  -9.026  1.00  0.00     0.364 C 
BRANCH  14  15
ATOM     15  C   UNL     1       3.039   1.229  -7.785  1.00  0.00     0.282 A 
ATOM     16  C   UNL     1       2.004   1.062  -5.974  1.00  0.00     0.202 A 
ATOM     17  N   UNL     1       1.599   2.247  -6.450  1.00  0.00    -0.057 NA
ATOM     18  N   UNL     1       2.892   0.393  -6.783  1.00  0.00    -0.186 NA
ATOM     19  O   UNL     1       2.323   2.380  -7.633  1.00  0.00    -0.333 OA
BRANCH  16  20
ATOM     20  C   UNL     1       1.645   0.564  -4.666  1.00  0.00     0.027 A 
ATOM     21  C   UNL     1       1.053  -0.378  -2.102  1.00  0.00     0.160 A 
ATOM     22  C   UNL     1       0.027  -0.182  -3.040  1.00  0.00     0.051 A 
ATOM     23  C   UNL     1       2.385  -0.124  -2.449  1.00  0.00     0.161 A 
ATOM     24  C   UNL     1       0.319   0.304  -4.317  1.00  0.00     0.016 A 
ATOM     25  C   UNL     1       2.665   0.340  -3.736  1.00  0.00     0.062 A 
BRANCH  21  26
ATOM     26  O   UNL     1       0.722  -0.927  -0.893  1.00  0.00    -0.493 OA
ATOM     27  C   UNL     1       0.101   0.029  -0.033  1.00  0.00     0.278 C 
ENDBRANCH  21  26
BRANCH  23  28
ATOM     28  O   UNL     1       3.515  -0.296  -1.699  1.00  0.00    -0.493 OA
ATOM     29  C   UNL     1       3.380  -0.348  -0.290  1.00  0.00     0.278 C 
ENDBRANCH  23  28
ENDBRANCH  16  20
ENDBRANCH  14  15
ENDBRANCH   8  14
ENDBRANCH   4   7
ENDBRANCH   2   3
ENDBRANCH   1   2
BRANCH   1  30
ATOM     30  C   UNL     1       5.926   4.108 -14.165  1.00  0.00     0.002 C 
BRANCH  30  31
ATOM     31  C   UNL     1       7.346   3.542 -14.060  1.00  0.00     0.002 C 
BRANCH  31  32
ATOM     32  C   UNL     1       7.620   2.341 -14.966  1.00  0.00     0.021 C 
BRANCH  32  33
ATOM     33  C   UNL     1       7.401   2.620 -16.448  1.00  0.00     0.116 C 
BRANCH  33  34
ATOM     34  N   UNL     1       8.332   3.618 -16.953  1.00  0.00    -0.352 N 
ATOM     35  C   UNL     1       9.176   3.536 -18.034  1.00  0.00     0.251 C 
ATOM     36  H   UNL     1       8.360   4.466 -16.454  1.00  0.00     0.163 HD
ATOM     37  O   UNL     1      10.048   4.374 -18.213  1.00  0.00    -0.269 OA
BRANCH  35  38
ATOM     38  C   UNL     1       9.026   2.404 -18.971  1.00  0.00     0.039 A 
ATOM     39  C   UNL     1      10.158   1.681 -19.353  1.00  0.00     0.014 A 
ATOM     40  C   UNL     1       7.761   2.049 -19.447  1.00  0.00     0.014 A 
ATOM     41  C   UNL     1      10.011   0.555 -20.166  1.00  0.00     0.010 A 
ATOM     42  C   UNL     1       7.610   0.888 -20.195  1.00  0.00     0.010 A 
ATOM     43  C   UNL     1       8.733   0.130 -20.564  1.00  0.00    -0.014 A 
BRANCH  43  44
ATOM     44  C   UNL     1       8.531  -1.092 -21.380  1.00  0.00     0.031 A 
ATOM     45  C   UNL     1       7.929  -0.973 -22.754  1.00  0.00     0.074 A 
ATOM     46  C   UNL     1       8.808  -2.305 -20.862  1.00  0.00     0.049 A 
ATOM     47  N   UNL     1       7.527  -1.919 -23.564  1.00  0.00    -0.248 NA
ATOM     48  C   UNL     1       7.732   0.390 -23.276  1.00  0.00     0.031 C 
ATOM     49  C   UNL     1       9.386  -2.555 -19.540  1.00  0.00     0.029 A 
ATOM     50  N   UNL     1       8.621  -3.561 -21.384  1.00  0.00    -0.354 N 
ATOM     51  C   UNL     1       7.021  -1.266 -24.680  1.00  0.00     0.074 A 
ATOM     52  C   UNL     1       7.116   0.154 -24.425  1.00  0.00     0.031 C 
ATOM     53  C   UNL     1       9.518  -3.880 -19.361  1.00  0.00     0.029 A 
ATOM     54  C   UNL     1       8.984  -4.574 -20.528  1.00  0.00     0.049 A 
ATOM     55  H   UNL     1       8.261  -3.721 -22.287  1.00  0.00     0.167 HD
ATOM     56  C   UNL     1       6.540  -1.801 -25.827  1.00  0.00     0.031 A 
ATOM     57  C   UNL     1       8.875  -5.910 -20.661  1.00  0.00     0.031 A 
ATOM     58  C   UNL     1       6.451  -3.212 -26.084  1.00  0.00     0.049 A 
ATOM     59  C   UNL     1       8.276  -6.476 -21.922  1.00  0.00     0.074 A 
ATOM     60  C   UNL     1       5.992  -3.852 -27.221  1.00  0.00     0.029 A 
ATOM     61  N   UNL     1       6.836  -4.200 -25.193  1.00  0.00    -0.354 N 
ATOM     62  N   UNL     1       7.832  -5.845 -22.982  1.00  0.00    -0.248 NA
ATOM     63  C   UNL     1       8.170  -7.940 -22.008  1.00  0.00     0.031 C 
ATOM     64  C   UNL     1       6.056  -5.230 -27.001  1.00  0.00     0.029 A 
ATOM     65  C   UNL     1       6.616  -5.446 -25.753  1.00  0.00     0.049 A 
ATOM     66  H   UNL     1       7.210  -4.040 -24.296  1.00  0.00     0.167 HD
ATOM     67  C   UNL     1       7.445  -6.834 -23.877  1.00  0.00     0.074 A 
ATOM     68  C   UNL     1       7.707  -8.106 -23.239  1.00  0.00     0.031 C 
ATOM     69  C   UNL     1       6.921  -6.701 -25.119  1.00  0.00     0.031 A 
BRANCH  56  70
ATOM     70  C   UNL     1       6.079  -0.856 -26.901  1.00  0.00    -0.014 A 
ATOM     71  C   UNL     1       7.001  -0.088 -27.629  1.00  0.00     0.009 A 
ATOM     72  C   UNL     1       4.718  -0.784 -27.237  1.00  0.00     0.009 A 
ATOM     73  C   UNL     1       6.567   0.751 -28.657  1.00  0.00     0.001 A 
ATOM     74  C   UNL     1       4.291   0.032 -28.285  1.00  0.00     0.001 A 
ATOM     75  C   UNL     1       5.214   0.803 -28.990  1.00  0.00     0.000 A 
ENDBRANCH  56  70
BRANCH  57  76
ATOM     76  C   UNL     1       9.325  -6.821 -19.573  1.00  0.00    -0.014 A 
ATOM     77  C   UNL     1      10.406  -7.694 -19.773  1.00  0.00     0.009 A 
ATOM     78  C   UNL     1       8.640  -6.866 -18.348  1.00  0.00     0.009 A 
ATOM     79  C   UNL     1      10.760  -8.624 -18.793  1.00  0.00     0.001 A 
ATOM     80  C   UNL     1       9.020  -7.772 -17.354  1.00  0.00     0.001 A 
ATOM     81  C   UNL     1      10.067  -8.661 -17.584  1.00  0.00     0.000 A 
ENDBRANCH  57  76
BRANCH  69  82
ATOM     82  C   UNL     1       6.676  -7.952 -25.914  1.00  0.00    -0.014 A 
ATOM     83  C   UNL     1       5.617  -8.820 -25.614  1.00  0.00     0.009 A 
ATOM     84  C   UNL     1       7.479  -8.217 -27.036  1.00  0.00     0.009 A 
ATOM     85  C   UNL     1       5.379  -9.941 -26.412  1.00  0.00     0.001 A 
ATOM     86  C   UNL     1       7.220  -9.320 -27.849  1.00  0.00     0.001 A 
ATOM     87  C   UNL     1       6.174 -10.185 -27.532  1.00  0.00     0.000 A 
ENDBRANCH  69  82
ENDBRANCH  43  44
ENDBRANCH  35  38
ENDBRANCH  33  34
ENDBRANCH  32  33
ENDBRANCH  31  32
ENDBRANCH  30  31
ENDBRANCH   1  30
TORSDOF 18
