REMARK SMILES Cc1ccc(N2C(=O)C[C@H](Sc3ccccc3C(=O)NCCCCCCNC(=O)c3ccc(-c4c5nc(c(-c6ccccc6)c6ccc([nH]6)c(-c6ccccc6)c6nc(c(-c7ccccc7)c7ccc4[nH]7)C=C6)C=C5)cc3)C2=O)cc1
REMARK SMILES IDX 23 1 22 2 21 3 20 4 18 5 19 6 17 8 12 9 13 10 14 11 16 12
REMARK SMILES IDX 15 13 11 14 10 15 6 16 7 17 78 18 8 19 9 20 79 21 5 22 1 23
REMARK SMILES IDX 2 24 3 25 81 26 4 27 80 28 24 29 25 30 26 31 27 32 28 33
REMARK SMILES IDX 29 35 30 36 31 37 77 38 32 39 76 40 33 41 34 42 35 43 70 44
REMARK SMILES IDX 36 45 75 46 69 47 71 48 37 49 74 50 68 51 67 52 38 54 60 55
REMARK SMILES IDX 45 56 59 57 46 58 49 59 58 60 72 61 47 62 48 63 57 65 73 66
REMARK SMILES IDX 50 67 39 68 40 69 44 70 41 71 43 72 42 73 61 74 62 75 66 76
REMARK SMILES IDX 63 77 65 78 64 79 51 80 52 81 56 82 53 83 55 84 54 85
REMARK H PARENT 20 7 27 34 71 53 49 64
REMARK Flexibility Score: inf
ROOT
ATOM      1  C   UNL     1      -5.198   5.069  -3.548  1.00  0.00     0.002 C 
ENDROOT
BRANCH   1   2
ATOM      2  C   UNL     1      -4.495   5.024  -2.189  1.00  0.00     0.021 C 
BRANCH   2   3
ATOM      3  C   UNL     1      -5.351   4.953  -0.926  1.00  0.00     0.116 C 
BRANCH   3   4
ATOM      4  N   UNL     1      -6.344   3.897  -0.900  1.00  0.00    -0.352 N 
ATOM      5  C   UNL     1      -6.822   3.133   0.144  1.00  0.00     0.252 C 
ATOM      6  O   UNL     1      -7.837   2.469  -0.049  1.00  0.00    -0.269 OA
ATOM      7  H   UNL     1      -6.746   3.691  -1.775  1.00  0.00     0.163 HD
BRANCH   5   8
ATOM      8  C   UNL     1      -6.106   3.058   1.449  1.00  0.00     0.053 A 
ATOM      9  C   UNL     1      -5.851   1.829   2.101  1.00  0.00     0.021 A 
ATOM     10  C   UNL     1      -5.169   1.851   3.333  1.00  0.00     0.016 A 
ATOM     11  C   UNL     1      -4.755   3.052   3.914  1.00  0.00     0.001 A 
ATOM     12  C   UNL     1      -5.745   4.261   2.086  1.00  0.00     0.015 A 
ATOM     13  C   UNL     1      -5.053   4.259   3.297  1.00  0.00     0.001 A 
BRANCH   9  14
ATOM     14  S   UNL     1      -6.567   0.236   1.670  1.00  0.00    -0.111 SA
BRANCH  14  15
ATOM     15  C   UNL     1      -5.442  -0.516   0.450  1.00  0.00     0.151 C 
ATOM     16  N   UNL     1      -3.218   0.051   0.034  1.00  0.00    -0.250 N 
ATOM     17  C   UNL     1      -3.946   0.679  -0.947  1.00  0.00     0.235 C 
ATOM     18  C   UNL     1      -4.015  -0.651   0.916  1.00  0.00     0.247 C 
ATOM     19  O   UNL     1      -3.549   1.436  -1.828  1.00  0.00    -0.274 OA
ATOM     20  C   UNL     1      -5.355   0.180  -0.888  1.00  0.00     0.126 C 
ATOM     21  O   UNL     1      -3.670  -1.261   1.911  1.00  0.00    -0.273 OA
BRANCH  16  22
ATOM     22  C   UNL     1      -1.805   0.062   0.086  1.00  0.00     0.052 A 
ATOM     23  C   UNL     1       2.514   0.002   0.000  1.00  0.00     0.044 C 
ATOM     24  C   UNL     1       1.016   0.033   0.052  1.00  0.00    -0.051 A 
ATOM     25  C   UNL     1       0.297  -1.145   0.278  1.00  0.00     0.005 A 
ATOM     26  C   UNL     1       0.314   1.223  -0.163  1.00  0.00     0.005 A 
ATOM     27  C   UNL     1      -1.100  -1.126   0.323  1.00  0.00     0.027 A 
ATOM     28  C   UNL     1      -1.085   1.233  -0.169  1.00  0.00     0.027 A 
ENDBRANCH  16  22
ENDBRANCH  14  15
ENDBRANCH   9  14
ENDBRANCH   5   8
ENDBRANCH   3   4
ENDBRANCH   2   3
ENDBRANCH   1   2
BRANCH   1  29
ATOM     29  C   UNL     1      -6.368   6.043  -3.726  1.00  0.00     0.002 C 
BRANCH  29  30
ATOM     30  C   UNL     1      -6.148   7.479  -3.270  1.00  0.00     0.021 C 
BRANCH  30  31
ATOM     31  C   UNL     1      -5.080   8.249  -4.026  1.00  0.00     0.116 C 
BRANCH  31  32
ATOM     32  N   UNL     1      -5.544   8.838  -5.277  1.00  0.00    -0.352 N 
ATOM     33  C   UNL     1      -4.950   9.772  -6.110  1.00  0.00     0.251 C 
ATOM     34  H   UNL     1      -6.425   8.519  -5.580  1.00  0.00     0.163 HD
ATOM     35  O   UNL     1      -5.558  10.174  -7.099  1.00  0.00    -0.269 OA
BRANCH  33  36
ATOM     36  C   UNL     1      -3.519  10.133  -5.936  1.00  0.00     0.039 A 
ATOM     37  C   UNL     1      -2.741  10.119  -7.103  1.00  0.00     0.014 A 
ATOM     38  C   UNL     1      -2.913  10.021  -4.696  1.00  0.00     0.014 A 
ATOM     39  C   UNL     1      -1.456   9.606  -7.042  1.00  0.00     0.010 A 
ATOM     40  C   UNL     1      -1.723   9.348  -4.643  1.00  0.00     0.010 A 
ATOM     41  C   UNL     1      -1.039   9.078  -5.829  1.00  0.00    -0.014 A 
BRANCH  41  42
ATOM     42  C   UNL     1       0.141   8.267  -5.656  1.00  0.00     0.031 A 
ATOM     43  C   UNL     1       1.347   8.949  -5.181  1.00  0.00     0.074 A 
ATOM     44  C   UNL     1       0.039   6.926  -5.762  1.00  0.00     0.049 A 
ATOM     45  N   UNL     1       2.530   8.470  -5.292  1.00  0.00    -0.248 NA
ATOM     46  C   UNL     1       1.317  10.288  -4.592  1.00  0.00     0.031 C 
ATOM     47  C   UNL     1       0.966   5.904  -5.291  1.00  0.00     0.029 A 
ATOM     48  N   UNL     1      -0.882   6.221  -6.533  1.00  0.00    -0.354 N 
ATOM     49  C   UNL     1       3.342   9.236  -4.492  1.00  0.00     0.074 A 
ATOM     50  C   UNL     1       2.587  10.429  -4.205  1.00  0.00     0.031 C 
ATOM     51  C   UNL     1       0.736   4.764  -5.968  1.00  0.00     0.029 A 
ATOM     52  C   UNL     1      -0.220   5.075  -7.019  1.00  0.00     0.049 A 
ATOM     53  H   UNL     1      -1.818   6.474  -6.706  1.00  0.00     0.167 HD
ATOM     54  C   UNL     1       4.489   8.675  -4.026  1.00  0.00     0.031 A 
ATOM     55  C   UNL     1       0.030   4.956  -8.360  1.00  0.00     0.031 A 
ATOM     56  C   UNL     1       4.691   7.349  -4.614  1.00  0.00     0.049 A 
ATOM     57  C   UNL     1       1.510   4.986  -8.705  1.00  0.00     0.074 A 
ATOM     58  C   UNL     1       4.506   6.057  -4.152  1.00  0.00     0.029 A 
ATOM     59  N   UNL     1       4.786   7.253  -5.993  1.00  0.00    -0.354 N 
ATOM     60  N   UNL     1       2.452   5.334  -7.870  1.00  0.00    -0.248 NA
ATOM     61  C   UNL     1       2.044   4.685 -10.032  1.00  0.00     0.031 C 
ATOM     62  C   UNL     1       4.490   5.184  -5.281  1.00  0.00     0.029 A 
ATOM     63  C   UNL     1       4.700   5.944  -6.417  1.00  0.00     0.049 A 
ATOM     64  H   UNL     1       4.901   8.023  -6.595  1.00  0.00     0.167 HD
ATOM     65  C   UNL     1       3.670   5.324  -8.497  1.00  0.00     0.074 A 
ATOM     66  C   UNL     1       3.356   4.935  -9.862  1.00  0.00     0.031 C 
ATOM     67  C   UNL     1       4.823   5.662  -7.842  1.00  0.00     0.031 A 
BRANCH  54  68
ATOM     68  C   UNL     1       5.289   9.196  -2.862  1.00  0.00    -0.014 A 
ATOM     69  C   UNL     1       6.219   8.340  -2.245  1.00  0.00     0.009 A 
ATOM     70  C   UNL     1       5.153  10.470  -2.285  1.00  0.00     0.009 A 
ATOM     71  C   UNL     1       6.920   8.708  -1.091  1.00  0.00     0.001 A 
ATOM     72  C   UNL     1       5.841  10.844  -1.122  1.00  0.00     0.001 A 
ATOM     73  C   UNL     1       6.721   9.957  -0.520  1.00  0.00     0.000 A 
ENDBRANCH  54  68
BRANCH  55  74
ATOM     74  C   UNL     1      -1.068   5.560  -9.183  1.00  0.00    -0.014 A 
ATOM     75  C   UNL     1      -2.356   4.990  -9.067  1.00  0.00     0.009 A 
ATOM     76  C   UNL     1      -0.965   6.884  -9.636  1.00  0.00     0.009 A 
ATOM     77  C   UNL     1      -3.503   5.780  -9.204  1.00  0.00     0.001 A 
ATOM     78  C   UNL     1      -2.121   7.659  -9.805  1.00  0.00     0.001 A 
ATOM     79  C   UNL     1      -3.381   7.126  -9.531  1.00  0.00     0.000 A 
ENDBRANCH  55  74
BRANCH  67  80
ATOM     80  C   UNL     1       6.195   5.805  -8.466  1.00  0.00    -0.014 A 
ATOM     81  C   UNL     1       6.641   5.068  -9.565  1.00  0.00     0.009 A 
ATOM     82  C   UNL     1       7.143   6.677  -7.876  1.00  0.00     0.009 A 
ATOM     83  C   UNL     1       7.926   5.263 -10.098  1.00  0.00     0.001 A 
ATOM     84  C   UNL     1       8.427   6.862  -8.387  1.00  0.00     0.001 A 
ATOM     85  C   UNL     1       8.813   6.165  -9.517  1.00  0.00     0.000 A 
ENDBRANCH  67  80
ENDBRANCH  41  42
ENDBRANCH  33  36
ENDBRANCH  31  32
ENDBRANCH  30  31
ENDBRANCH  29  30
ENDBRANCH   1  29
TORSDOF 16
