REMARK SMILES Cc1n[nH]c(C(=O)Nc2cc(C(=O)NCCCCCCNC(=O)c3ccc(-c4c5nc(c(-c6ccccc6)c6ccc([nH]6)c(-c6ccccc6)c6nc(c(-c7ccccc7)c7ccc4[nH]7)C=C6)C=C5)cc3)[nH]n2)n1
REMARK SMILES IDX 17 1 16 2 15 3 14 4 12 5 13 6 11 8 9 9 10 10 73 11 72 12
REMARK SMILES IDX 8 14 6 15 7 16 5 18 1 19 2 20 3 21 74 22 4 23 18 25 19 26
REMARK SMILES IDX 20 27 21 28 22 29 23 31 24 32 25 33 71 34 26 35 70 36 27 37
REMARK SMILES IDX 28 38 29 39 64 40 30 41 69 42 63 43 65 44 31 45 68 46 62 47
REMARK SMILES IDX 61 48 32 50 54 51 39 52 53 53 40 54 43 55 52 56 66 57 41 58
REMARK SMILES IDX 42 59 51 61 67 62 44 63 33 64 34 65 38 66 35 67 37 68 36 69
REMARK SMILES IDX 55 70 56 71 60 72 57 73 59 74 58 75 45 76 46 77 50 78 47 79
REMARK SMILES IDX 49 80 48 81
REMARK H PARENT 14 7 72 13 8 17 4 24 21 30 65 49 43 60
REMARK Flexibility Score: inf
ROOT
ATOM      1  C   UNL     1       1.515  -4.758   5.343  1.00  0.00     0.002 C 
ENDROOT
BRANCH   1   2
ATOM      2  C   UNL     1       0.627  -4.871   4.098  1.00  0.00     0.021 C 
BRANCH   2   3
ATOM      3  C   UNL     1       1.409  -4.737   2.793  1.00  0.00     0.116 C 
BRANCH   3   4
ATOM      4  N   UNL     1       2.070  -5.984   2.457  1.00  0.00    -0.351 N 
ATOM      5  C   UNL     1       1.807  -6.937   1.506  1.00  0.00     0.269 C 
ATOM      6  O   UNL     1       2.581  -7.879   1.412  1.00  0.00    -0.268 OA
ATOM      7  H   UNL     1       2.854  -6.184   3.017  1.00  0.00     0.163 HD
BRANCH   5   8
ATOM      8  C   UNL     1       0.709  -6.781   0.588  1.00  0.00     0.125 A 
ATOM      9  C   UNL     1      -0.887  -6.097  -0.782  1.00  0.00     0.155 A 
ATOM     10  C   UNL     1      -0.439  -6.020   0.550  1.00  0.00     0.082 A 
ATOM     11  N   UNL     1      -0.287  -7.085  -1.437  1.00  0.00    -0.157 NA
ATOM     12  N   UNL     1       0.667  -7.502  -0.581  1.00  0.00    -0.271 N 
ATOM     13  H   UNL     1       1.274  -8.252  -0.774  1.00  0.00     0.190 HD
BRANCH   9  14
ATOM     14  N   UNL     1      -1.774  -5.270  -1.413  1.00  0.00    -0.302 N 
ATOM     15  C   UNL     1      -1.959  -3.916  -1.202  1.00  0.00     0.294 C 
ATOM     16  O   UNL     1      -3.039  -3.433  -1.547  1.00  0.00    -0.265 OA
ATOM     17  H   UNL     1      -2.347  -5.686  -2.098  1.00  0.00     0.172 HD
BRANCH  15  18
ATOM     18  C   UNL     1      -0.844  -3.098  -0.725  1.00  0.00     0.214 A 
ATOM     19  C   UNL     1       0.736  -0.043   0.147  1.00  0.00     0.092 C 
ATOM     20  C   UNL     1       0.358  -1.441  -0.147  1.00  0.00     0.148 A 
ATOM     21  N   UNL     1       1.260  -2.413  -0.307  1.00  0.00    -0.159 NA
ATOM     22  N   UNL     1      -0.941  -1.834  -0.341  1.00  0.00    -0.207 NA
ATOM     23  N   UNL     1       0.488  -3.419  -0.745  1.00  0.00    -0.255 N 
ATOM     24  H   UNL     1       0.838  -4.288  -1.046  1.00  0.00     0.192 HD
ENDBRANCH  15  18
ENDBRANCH   9  14
ENDBRANCH   5   8
ENDBRANCH   3   4
ENDBRANCH   2   3
ENDBRANCH   1   2
BRANCH   1  25
ATOM     25  C   UNL     1       2.327  -3.456   5.456  1.00  0.00     0.002 C 
BRANCH  25  26
ATOM     26  C   UNL     1       1.536  -2.149   5.297  1.00  0.00     0.021 C 
BRANCH  26  27
ATOM     27  C   UNL     1       0.541  -1.902   6.421  1.00  0.00     0.116 C 
BRANCH  27  28
ATOM     28  N   UNL     1       1.208  -1.678   7.702  1.00  0.00    -0.352 N 
ATOM     29  C   UNL     1       0.644  -1.487   8.945  1.00  0.00     0.251 C 
ATOM     30  H   UNL     1       2.192  -1.663   7.673  1.00  0.00     0.163 HD
ATOM     31  O   UNL     1       1.276  -0.953   9.847  1.00  0.00    -0.269 OA
BRANCH  29  32
ATOM     32  C   UNL     1      -0.736  -1.942   9.177  1.00  0.00     0.039 A 
ATOM     33  C   UNL     1      -1.627  -1.183   9.941  1.00  0.00     0.014 A 
ATOM     34  C   UNL     1      -1.134  -3.150   8.609  1.00  0.00     0.014 A 
ATOM     35  C   UNL     1      -2.945  -1.615  10.061  1.00  0.00     0.010 A 
ATOM     36  C   UNL     1      -2.460  -3.498   8.604  1.00  0.00     0.010 A 
ATOM     37  C   UNL     1      -3.358  -2.765   9.371  1.00  0.00    -0.014 A 
BRANCH  37  38
ATOM     38  C   UNL     1      -4.763  -3.150   9.335  1.00  0.00     0.031 A 
ATOM     39  C   UNL     1      -5.675  -2.098   8.815  1.00  0.00     0.074 A 
ATOM     40  C   UNL     1      -5.181  -4.420   9.528  1.00  0.00     0.049 A 
ATOM     41  N   UNL     1      -6.596  -1.473   9.468  1.00  0.00    -0.248 NA
ATOM     42  C   UNL     1      -5.458  -1.585   7.452  1.00  0.00     0.031 C 
ATOM     43  C   UNL     1      -4.365  -5.621   9.740  1.00  0.00     0.029 A 
ATOM     44  N   UNL     1      -6.438  -4.930   9.435  1.00  0.00    -0.354 N 
ATOM     45  C   UNL     1      -7.217  -0.631   8.550  1.00  0.00     0.074 A 
ATOM     46  C   UNL     1      -6.365  -0.607   7.388  1.00  0.00     0.031 C 
ATOM     47  C   UNL     1      -5.112  -6.722   9.501  1.00  0.00     0.029 A 
ATOM     48  C   UNL     1      -6.487  -6.311   9.284  1.00  0.00     0.049 A 
ATOM     49  H   UNL     1      -7.246  -4.368   9.473  1.00  0.00     0.167 HD
ATOM     50  C   UNL     1      -8.509  -0.235   8.724  1.00  0.00     0.031 A 
ATOM     51  C   UNL     1      -7.572  -7.059   8.964  1.00  0.00     0.031 A 
ATOM     52  C   UNL     1      -8.969  -0.506  10.064  1.00  0.00     0.049 A 
ATOM     53  C   UNL     1      -8.773  -6.244   9.260  1.00  0.00     0.074 A 
ATOM     54  C   UNL     1      -8.543  -0.148  11.328  1.00  0.00     0.029 A 
ATOM     55  N   UNL     1      -9.779  -1.605  10.235  1.00  0.00    -0.354 N 
ATOM     56  N   UNL     1      -9.137  -5.926  10.469  1.00  0.00    -0.248 NA
ATOM     57  C   UNL     1      -9.299  -5.390   8.206  1.00  0.00     0.031 C 
ATOM     58  C   UNL     1      -8.702  -1.329  12.112  1.00  0.00     0.029 A 
ATOM     59  C   UNL     1      -9.299  -2.304  11.311  1.00  0.00     0.049 A 
ATOM     60  H   UNL     1     -10.559  -1.845   9.686  1.00  0.00     0.167 HD
ATOM     61  C   UNL     1      -9.525  -4.598  10.377  1.00  0.00     0.074 A 
ATOM     62  C   UNL     1      -9.710  -4.355   8.946  1.00  0.00     0.031 C 
ATOM     63  C   UNL     1      -9.368  -3.743  11.431  1.00  0.00     0.031 A 
BRANCH  50  64
ATOM     64  C   UNL     1      -9.482  -0.027   7.588  1.00  0.00    -0.014 A 
ATOM     65  C   UNL     1     -10.799   0.364   7.899  1.00  0.00     0.009 A 
ATOM     66  C   UNL     1      -9.255  -0.485   6.277  1.00  0.00     0.009 A 
ATOM     67  C   UNL     1     -11.844   0.202   6.983  1.00  0.00     0.001 A 
ATOM     68  C   UNL     1     -10.289  -0.607   5.345  1.00  0.00     0.001 A 
ATOM     69  C   UNL     1     -11.590  -0.296   5.710  1.00  0.00     0.000 A 
ENDBRANCH  50  64
BRANCH  51  70
ATOM     70  C   UNL     1      -7.650  -8.337   8.223  1.00  0.00    -0.014 A 
ATOM     71  C   UNL     1      -8.818  -9.117   8.253  1.00  0.00     0.009 A 
ATOM     72  C   UNL     1      -6.673  -8.666   7.266  1.00  0.00     0.009 A 
ATOM     73  C   UNL     1      -9.018 -10.156   7.332  1.00  0.00     0.001 A 
ATOM     74  C   UNL     1      -6.869  -9.706   6.349  1.00  0.00     0.001 A 
ATOM     75  C   UNL     1      -8.050 -10.440   6.372  1.00  0.00     0.000 A 
ENDBRANCH  51  70
BRANCH  63  76
ATOM     76  C   UNL     1      -8.983  -4.321  12.772  1.00  0.00    -0.014 A 
ATOM     77  C   UNL     1      -7.808  -5.063  12.988  1.00  0.00     0.009 A 
ATOM     78  C   UNL     1      -9.753  -3.961  13.888  1.00  0.00     0.009 A 
ATOM     79  C   UNL     1      -7.436  -5.459  14.278  1.00  0.00     0.001 A 
ATOM     80  C   UNL     1      -9.370  -4.335  15.177  1.00  0.00     0.001 A 
ATOM     81  C   UNL     1      -8.215  -5.089  15.372  1.00  0.00     0.000 A 
ENDBRANCH  63  76
ENDBRANCH  37  38
ENDBRANCH  29  32
ENDBRANCH  27  28
ENDBRANCH  26  27
ENDBRANCH  25  26
ENDBRANCH   1  25
TORSDOF 15
