REMARK SMILES O=C(NCCCCCCNC(=O)[C@H]1CC[C@H]2CCCC[C@@H]2[N@H+]1C[C@@H]1CCCCO1)c1ccc(-c2c3nc(c(-c4ccccc4)c4ccc([nH]4)c(-c4ccccc4)c4nc(c(-c5ccccc5)c5ccc2[nH]5)C=C4)C=C3)cc1
REMARK SMILES IDX 6 1 5 2 4 3 3 4 1 5 2 6 30 8 31 9 77 10 32 11 76 12 33 13
REMARK SMILES IDX 34 14 35 15 70 16 36 17 75 18 69 19 71 20 37 21 74 22 68 23
REMARK SMILES IDX 67 24 38 26 60 27 45 28 59 29 46 30 49 31 58 32 72 33 47 34
REMARK SMILES IDX 48 35 57 37 73 38 50 39 39 40 40 41 44 42 41 43 43 44 42 45
REMARK SMILES IDX 61 46 62 47 66 48 63 49 65 50 64 51 51 52 52 53 56 54 53 55
REMARK SMILES IDX 55 56 54 57 7 58 8 59 9 60 10 61 11 62 12 64 13 65 14 66
REMARK SMILES IDX 22 67 15 68 21 69 16 71 20 72 17 73 19 74 18 75 23 76 24 77
REMARK SMILES IDX 25 78 29 79 26 80 28 81 27 82
REMARK H PARENT 3 7 71 25 49 36 10 63 22 70
REMARK Flexibility Score: inf
ROOT
ATOM      1  C   UNL     1       3.626  -1.347  -3.482  1.00  0.00     0.002 C 
ENDROOT
BRANCH   1   2
ATOM      2  C   UNL     1       4.472  -1.366  -2.205  1.00  0.00     0.021 C 
BRANCH   2   3
ATOM      3  C   UNL     1       4.287  -0.134  -1.331  1.00  0.00     0.116 C 
BRANCH   3   4
ATOM      4  N   UNL     1       2.876   0.146  -1.096  1.00  0.00    -0.352 N 
ATOM      5  O   UNL     1       0.934   0.106   0.051  1.00  0.00    -0.269 OA
ATOM      6  C   UNL     1       2.159   0.104   0.069  1.00  0.00     0.251 C 
ATOM      7  H   UNL     1       2.362   0.404  -1.895  1.00  0.00     0.163 HD
BRANCH   6   8
ATOM      8  C   UNL     1       2.890   0.053   1.344  1.00  0.00     0.039 A 
ATOM      9  C   UNL     1       4.016   0.859   1.523  1.00  0.00     0.014 A 
ATOM     10  C   UNL     1       2.457  -0.806   2.355  1.00  0.00     0.014 A 
ATOM     11  C   UNL     1       4.803   0.691   2.647  1.00  0.00     0.010 A 
ATOM     12  C   UNL     1       3.183  -0.878   3.543  1.00  0.00     0.010 A 
ATOM     13  C   UNL     1       4.372  -0.144   3.688  1.00  0.00    -0.014 A 
BRANCH  13  14
ATOM     14  C   UNL     1       5.130  -0.146   4.959  1.00  0.00     0.031 A 
ATOM     15  C   UNL     1       5.775  -1.392   5.484  1.00  0.00     0.074 A 
ATOM     16  C   UNL     1       5.236   1.016   5.633  1.00  0.00     0.049 A 
ATOM     17  N   UNL     1       6.472  -1.550   6.581  1.00  0.00    -0.248 NA
ATOM     18  C   UNL     1       5.614  -2.619   4.689  1.00  0.00     0.031 C 
ATOM     19  C   UNL     1       4.649   2.294   5.212  1.00  0.00     0.029 A 
ATOM     20  N   UNL     1       5.886   1.321   6.799  1.00  0.00    -0.354 N 
ATOM     21  C   UNL     1       6.818  -2.894   6.618  1.00  0.00     0.074 A 
ATOM     22  C   UNL     1       6.226  -3.514   5.453  1.00  0.00     0.031 C 
ATOM     23  C   UNL     1       5.010   3.250   6.076  1.00  0.00     0.029 A 
ATOM     24  C   UNL     1       5.771   2.641   7.158  1.00  0.00     0.049 A 
ATOM     25  H   UNL     1       6.385   0.658   7.329  1.00  0.00     0.167 HD
ATOM     26  C   UNL     1       7.565  -3.545   7.542  1.00  0.00     0.031 A 
ATOM     27  C   UNL     1       6.200   3.291   8.254  1.00  0.00     0.031 A 
ATOM     28  C   UNL     1       8.127  -2.919   8.712  1.00  0.00     0.049 A 
ATOM     29  C   UNL     1       6.955   2.523   9.297  1.00  0.00     0.074 A 
ATOM     30  C   UNL     1       8.920  -3.489   9.694  1.00  0.00     0.029 A 
ATOM     31  N   UNL     1       7.941  -1.592   9.071  1.00  0.00    -0.354 N 
ATOM     32  N   UNL     1       7.314   1.262   9.297  1.00  0.00    -0.248 NA
ATOM     33  C   UNL     1       7.367   3.270  10.491  1.00  0.00     0.031 C 
ATOM     34  C   UNL     1       9.137  -2.533  10.689  1.00  0.00     0.029 A 
ATOM     35  C   UNL     1       8.568  -1.338  10.281  1.00  0.00     0.049 A 
ATOM     36  H   UNL     1       7.439  -0.929   8.544  1.00  0.00     0.167 HD
ATOM     37  C   UNL     1       8.025   1.073  10.474  1.00  0.00     0.074 A 
ATOM     38  C   UNL     1       8.063   2.354  11.149  1.00  0.00     0.031 C 
ATOM     39  C   UNL     1       8.596  -0.060  10.949  1.00  0.00     0.031 A 
BRANCH  26  40
ATOM     40  C   UNL     1       7.779  -5.023   7.352  1.00  0.00    -0.014 A 
ATOM     41  C   UNL     1       8.543  -5.527   6.287  1.00  0.00     0.009 A 
ATOM     42  C   UNL     1       7.244  -5.926   8.285  1.00  0.00     0.009 A 
ATOM     43  C   UNL     1       8.729  -6.903   6.137  1.00  0.00     0.001 A 
ATOM     44  C   UNL     1       7.464  -7.298   8.156  1.00  0.00     0.001 A 
ATOM     45  C   UNL     1       8.195  -7.786   7.075  1.00  0.00     0.000 A 
ENDBRANCH  26  40
BRANCH  27  46
ATOM     46  C   UNL     1       5.894   4.735   8.430  1.00  0.00    -0.014 A 
ATOM     47  C   UNL     1       6.921   5.688   8.461  1.00  0.00     0.009 A 
ATOM     48  C   UNL     1       4.565   5.165   8.579  1.00  0.00     0.009 A 
ATOM     49  C   UNL     1       6.628   7.036   8.679  1.00  0.00     0.001 A 
ATOM     50  C   UNL     1       4.271   6.518   8.752  1.00  0.00     0.001 A 
ATOM     51  C   UNL     1       5.304   7.450   8.819  1.00  0.00     0.000 A 
ENDBRANCH  27  46
BRANCH  39  52
ATOM     52  C   UNL     1       9.360   0.045  12.241  1.00  0.00    -0.014 A 
ATOM     53  C   UNL     1       8.720   0.308  13.462  1.00  0.00     0.009 A 
ATOM     54  C   UNL     1      10.750  -0.157  12.236  1.00  0.00     0.009 A 
ATOM     55  C   UNL     1       9.461   0.414  14.641  1.00  0.00     0.001 A 
ATOM     56  C   UNL     1      11.482  -0.096  13.422  1.00  0.00     0.001 A 
ATOM     57  C   UNL     1      10.839   0.204  14.621  1.00  0.00     0.000 A 
ENDBRANCH  39  52
ENDBRANCH  13  14
ENDBRANCH   6   8
ENDBRANCH   3   4
ENDBRANCH   2   3
ENDBRANCH   1   2
BRANCH   1  58
ATOM     58  C   UNL     1       3.808  -0.116  -4.389  1.00  0.00     0.002 C 
BRANCH  58  59
ATOM     59  C   UNL     1       5.231   0.139  -4.849  1.00  0.00     0.021 C 
BRANCH  59  60
ATOM     60  C   UNL     1       5.910  -1.100  -5.391  1.00  0.00     0.116 C 
BRANCH  60  61
ATOM     61  N   UNL     1       6.174  -1.258  -6.789  1.00  0.00    -0.351 N 
ATOM     62  C   UNL     1       7.270  -1.842  -7.387  1.00  0.00     0.278 C 
ATOM     63  H   UNL     1       5.487  -0.904  -7.400  1.00  0.00     0.163 HD
ATOM     64  O   UNL     1       7.045  -2.307  -8.515  1.00  0.00    -0.268 OA
BRANCH  62  65
ATOM     65  C   UNL     1       8.781  -1.791  -6.851  1.00  0.00     0.274 C 
ATOM     66  C   UNL     1       9.150  -0.300  -6.098  1.00  0.00     0.076 C 
ATOM     67  N   UNL     1       9.303  -2.841  -5.992  1.00  0.00    -0.320 N 
ATOM     68  C   UNL     1      11.152   0.418  -5.495  1.00  0.00     0.016 C 
ATOM     69  C   UNL     1      11.115  -2.825  -6.224  1.00  0.00     0.187 C 
ATOM     70  H   UNL     1       9.104  -3.836  -6.094  1.00  0.00     0.349 HD
ATOM     71  C   UNL     1      12.232  -1.230  -6.154  1.00  0.00     0.048 C 
ATOM     72  C   UNL     1      11.892  -3.969  -6.881  1.00  0.00     0.065 C 
ATOM     73  C   UNL     1      13.568  -1.574  -5.487  1.00  0.00     0.010 C 
ATOM     74  C   UNL     1      13.238  -4.104  -6.088  1.00  0.00     0.006 C 
ATOM     75  C   UNL     1      14.146  -2.859  -6.120  1.00  0.00     0.001 C 
BRANCH  67  76
ATOM     76  C   UNL     1       8.579  -2.187  -4.537  1.00  0.00     0.295 C 
BRANCH  76  77
ATOM     77  C   UNL     1       8.739  -0.376  -3.953  1.00  0.00     0.173 C 
ATOM     78  C   UNL     1       8.941   1.363  -4.771  1.00  0.00     0.038 C 
ATOM     79  O   UNL     1      10.086  -0.507  -3.706  1.00  0.00    -0.372 OA
ATOM     80  C   UNL     1       9.776   1.555  -6.518  1.00  0.00     0.005 C 
ATOM     81  C   UNL     1      10.581  -1.164  -5.016  1.00  0.00     0.161 C 
ATOM     82  C   UNL     1      10.661  -0.234  -7.010  1.00  0.00     0.029 C 
ENDBRANCH  76  77
ENDBRANCH  67  76
ENDBRANCH  62  65
ENDBRANCH  60  61
ENDBRANCH  59  60
ENDBRANCH  58  59
ENDBRANCH   1  58
TORSDOF 15
