REMARK SMILES CC[C@H](C(=O)NCCCCCCNC(=O)c1ccc(-c2c3nc(c(-c4ccccc4)c4ccc([nH]4)c(-c4ccccc4)c4nc(c(-c5ccccc5)c5ccc2[nH]5)C=C4)C=C3)cc1)N(C)C(=O)[C@H]1CC[C@@H](C[NH3+])CC1
REMARK SMILES IDX 8 1 7 2 6 3 4 4 5 5 3 7 2 8 1 9 64 10 65 11 66 12 67 13
REMARK SMILES IDX 68 14 75 15 69 16 74 17 70 18 71 19 72 20 73 21 9 25 10 26
REMARK SMILES IDX 11 27 12 28 13 29 14 30 15 32 16 33 17 34 63 35 18 36 62 37
REMARK SMILES IDX 19 38 20 39 21 40 56 41 22 42 61 43 55 44 57 45 23 46 60 47
REMARK SMILES IDX 54 48 53 49 24 51 46 52 31 53 45 54 32 55 35 56 44 57 58 58
REMARK SMILES IDX 33 59 34 60 43 62 59 63 36 64 25 65 26 66 30 67 27 68 29 69
REMARK SMILES IDX 28 70 47 71 48 72 52 73 49 74 51 75 50 76 37 77 38 78 42 79
REMARK SMILES IDX 39 80 41 81 40 82
REMARK H PARENT 6 6 73 22 73 23 73 24 13 31 57 50 35 61
REMARK Flexibility Score: inf
ROOT
ATOM      1  C   UNL     1      -0.187  -1.774  -1.198  1.00  0.00     0.021 C 
ENDROOT
BRANCH   1   2
ATOM      2  C   UNL     1      -0.879  -0.414  -1.106  1.00  0.00     0.116 C 
BRANCH   2   3
ATOM      3  N   UNL     1      -0.350   0.351  -0.001  1.00  0.00    -0.354 N 
ATOM      4  C   UNL     1       0.454   1.436   0.084  1.00  0.00     0.242 C 
ATOM      5  O   UNL     1       0.740   1.781   1.244  1.00  0.00    -0.273 OA
ATOM      6  H   UNL     1      -0.634   0.011   0.878  1.00  0.00     0.163 HD
BRANCH   4   7
ATOM      7  C   UNL     1       0.996   2.293  -1.100  1.00  0.00     0.173 C 
BRANCH   7   8
ATOM      8  C   UNL     1       0.894   1.913  -2.579  1.00  0.00     0.032 C 
ATOM      9  C   UNL     1       1.798   0.747  -2.956  1.00  0.00     0.006 C 
ENDBRANCH   7   8
BRANCH   7  10
ATOM     10  N   UNL     1       0.519   3.680  -0.861  1.00  0.00    -0.334 N 
ATOM     11  C   UNL     1       1.543   4.627  -0.451  1.00  0.00     0.147 C 
BRANCH  10  12
ATOM     12  C   UNL     1      -0.829   3.945  -1.051  1.00  0.00     0.226 C 
ATOM     13  O   UNL     1      -1.598   3.049  -1.422  1.00  0.00    -0.275 OA
BRANCH  12  14
ATOM     14  C   UNL     1      -1.431   5.327  -0.775  1.00  0.00     0.078 C 
ATOM     15  C   UNL     1      -1.555   5.611   0.727  1.00  0.00     0.014 C 
ATOM     16  C   UNL     1      -0.825   6.473  -1.593  1.00  0.00     0.014 C 
ATOM     17  C   UNL     1      -2.178   6.981   1.003  1.00  0.00     0.010 C 
ATOM     18  C   UNL     1      -1.486   7.810  -1.262  1.00  0.00     0.010 C 
ATOM     19  C   UNL     1      -1.481   8.126   0.244  1.00  0.00     0.044 C 
BRANCH  19  20
ATOM     20  C   UNL     1      -0.084   8.399   0.839  1.00  0.00     0.262 C 
BRANCH  20  21
ATOM     21  N   UNL     1       0.605   9.505   0.184  1.00  0.00    -0.357 N 
ATOM     22  H   UNL     1       0.750   9.281  -0.800  1.00  0.00     0.344 HD
ATOM     23  H   UNL     1       1.507   9.658   0.635  1.00  0.00     0.344 HD
ATOM     24  H   UNL     1       0.039  10.351   0.261  1.00  0.00     0.344 HD
ENDBRANCH  20  21
ENDBRANCH  19  20
ENDBRANCH  12  14
ENDBRANCH  10  12
ENDBRANCH   7  10
ENDBRANCH   4   7
ENDBRANCH   2   3
ENDBRANCH   1   2
BRANCH   1  25
ATOM     25  C   UNL     1      -0.768  -2.834  -0.257  1.00  0.00     0.002 C 
BRANCH  25  26
ATOM     26  C   UNL     1      -2.217  -3.238  -0.549  1.00  0.00     0.002 C 
BRANCH  26  27
ATOM     27  C   UNL     1      -2.506  -3.660  -1.993  1.00  0.00     0.021 C 
BRANCH  27  28
ATOM     28  C   UNL     1      -1.633  -4.796  -2.521  1.00  0.00     0.116 C 
BRANCH  28  29
ATOM     29  N   UNL     1      -1.810  -6.019  -1.758  1.00  0.00    -0.352 N 
ATOM     30  C   UNL     1      -2.192  -7.266  -2.176  1.00  0.00     0.251 C 
ATOM     31  H   UNL     1      -1.628  -5.940  -0.793  1.00  0.00     0.163 HD
ATOM     32  O   UNL     1      -2.485  -8.128  -1.348  1.00  0.00    -0.269 OA
BRANCH  30  33
ATOM     33  C   UNL     1      -2.266  -7.588  -3.617  1.00  0.00     0.039 A 
ATOM     34  C   UNL     1      -3.358  -8.325  -4.084  1.00  0.00     0.014 A 
ATOM     35  C   UNL     1      -1.244  -7.215  -4.497  1.00  0.00     0.014 A 
ATOM     36  C   UNL     1      -3.446  -8.653  -5.437  1.00  0.00     0.010 A 
ATOM     37  C   UNL     1      -1.362  -7.494  -5.858  1.00  0.00     0.010 A 
ATOM     38  C   UNL     1      -2.459  -8.225  -6.339  1.00  0.00    -0.014 A 
BRANCH  38  39
ATOM     39  C   UNL     1      -2.569  -8.541  -7.784  1.00  0.00     0.031 A 
ATOM     40  C   UNL     1      -1.599  -9.486  -8.436  1.00  0.00     0.074 A 
ATOM     41  C   UNL     1      -3.527  -7.947  -8.520  1.00  0.00     0.049 A 
ATOM     42  N   UNL     1      -1.554  -9.893  -9.680  1.00  0.00    -0.248 NA
ATOM     43  C   UNL     1      -0.525 -10.027  -7.588  1.00  0.00     0.031 C 
ATOM     44  C   UNL     1      -4.496  -6.970  -8.019  1.00  0.00     0.029 A 
ATOM     45  N   UNL     1      -3.842  -8.079  -9.849  1.00  0.00    -0.354 N 
ATOM     46  C   UNL     1      -0.444 -10.723  -9.767  1.00  0.00     0.074 A 
ATOM     47  C   UNL     1       0.182 -10.729  -8.462  1.00  0.00     0.031 C 
ATOM     48  C   UNL     1      -5.316  -6.614  -9.021  1.00  0.00     0.029 A 
ATOM     49  C   UNL     1      -4.917  -7.319 -10.236  1.00  0.00     0.049 A 
ATOM     50  H   UNL     1      -3.344  -8.664 -10.465  1.00  0.00     0.167 HD
ATOM     51  C   UNL     1       0.006 -11.431 -10.831  1.00  0.00     0.031 A 
ATOM     52  C   UNL     1      -5.521  -7.207 -11.433  1.00  0.00     0.031 A 
ATOM     53  C   UNL     1      -0.622 -11.439 -12.125  1.00  0.00     0.049 A 
ATOM     54  C   UNL     1      -5.023  -8.024 -12.590  1.00  0.00     0.074 A 
ATOM     55  C   UNL     1      -0.281 -12.177 -13.246  1.00  0.00     0.029 A 
ATOM     56  N   UNL     1      -1.721 -10.669 -12.472  1.00  0.00    -0.354 N 
ATOM     57  N   UNL     1      -4.020  -8.867 -12.633  1.00  0.00    -0.248 NA
ATOM     58  C   UNL     1      -5.753  -7.885 -13.858  1.00  0.00     0.031 C 
ATOM     59  C   UNL     1      -1.151 -11.823 -14.284  1.00  0.00     0.029 A 
ATOM     60  C   UNL     1      -2.059 -10.897 -13.796  1.00  0.00     0.049 A 
ATOM     61  H   UNL     1      -2.192 -10.051 -11.867  1.00  0.00     0.167 HD
ATOM     62  C   UNL     1      -4.008  -9.372 -13.926  1.00  0.00     0.074 A 
ATOM     63  C   UNL     1      -5.116  -8.757 -14.628  1.00  0.00     0.031 C 
ATOM     64  C   UNL     1      -3.155 -10.266 -14.483  1.00  0.00     0.031 A 
BRANCH  51  65
ATOM     65  C   UNL     1       1.248 -12.254 -10.634  1.00  0.00    -0.014 A 
ATOM     66  C   UNL     1       1.228 -13.426  -9.862  1.00  0.00     0.009 A 
ATOM     67  C   UNL     1       2.448 -11.866 -11.250  1.00  0.00     0.009 A 
ATOM     68  C   UNL     1       2.393 -14.173  -9.680  1.00  0.00     0.001 A 
ATOM     69  C   UNL     1       3.606 -12.629 -11.087  1.00  0.00     0.001 A 
ATOM     70  C   UNL     1       3.580 -13.776 -10.294  1.00  0.00     0.000 A 
ENDBRANCH  51  65
BRANCH  52  71
ATOM     71  C   UNL     1      -6.693  -6.308 -11.587  1.00  0.00    -0.014 A 
ATOM     72  C   UNL     1      -7.986  -6.841 -11.701  1.00  0.00     0.009 A 
ATOM     73  C   UNL     1      -6.524  -4.915 -11.611  1.00  0.00     0.009 A 
ATOM     74  C   UNL     1      -9.086  -5.996 -11.857  1.00  0.00     0.001 A 
ATOM     75  C   UNL     1      -7.630  -4.072 -11.743  1.00  0.00     0.001 A 
ATOM     76  C   UNL     1      -8.908  -4.613 -11.874  1.00  0.00     0.000 A 
ENDBRANCH  52  71
BRANCH  64  77
ATOM     77  C   UNL     1      -3.401 -10.637 -15.917  1.00  0.00    -0.014 A 
ATOM     78  C   UNL     1      -3.101  -9.743 -16.957  1.00  0.00     0.009 A 
ATOM     79  C   UNL     1      -3.921 -11.901 -16.232  1.00  0.00     0.009 A 
ATOM     80  C   UNL     1      -3.352 -10.097 -18.284  1.00  0.00     0.001 A 
ATOM     81  C   UNL     1      -4.147 -12.261 -17.561  1.00  0.00     0.001 A 
ATOM     82  C   UNL     1      -3.872 -11.355 -18.585  1.00  0.00     0.000 A 
ENDBRANCH  64  77
ENDBRANCH  38  39
ENDBRANCH  30  33
ENDBRANCH  28  29
ENDBRANCH  27  28
ENDBRANCH  26  27
ENDBRANCH  25  26
ENDBRANCH   1  25
TORSDOF 19
