REMARK SMILES O=C(CC[NH+]1CC[NH+](Cc2ccccc2C2CC2)CC1)NCCCCCCNC(=O)c1ccc(-c2c3nc(c(-c4ccccc4)c4ccc([nH]4)c(-c4ccccc4)c4nc(c(-c5ccccc5)c5ccc2[nH]5)C=C4)C=C3)cc1
REMARK SMILES IDX 23 1 22 2 21 3 1 4 2 5 3 7 4 8 5 9 6 10 20 11 7 13 19 14
REMARK SMILES IDX 8 15 9 17 10 18 11 19 15 20 12 21 14 22 13 23 16 24 17 25
REMARK SMILES IDX 18 26 24 27 25 28 26 29 27 30 28 31 29 32 30 34 31 35 32 36
REMARK SMILES IDX 78 37 33 38 77 39 34 40 35 41 36 42 71 43 37 44 76 45 70 46
REMARK SMILES IDX 72 47 38 48 75 49 69 50 68 51 39 53 61 54 46 55 60 56 47 57
REMARK SMILES IDX 50 58 59 59 73 60 48 61 49 62 58 64 74 65 51 66 40 67 41 68
REMARK SMILES IDX 45 69 42 70 44 71 43 72 62 73 63 74 67 75 64 76 66 77 65 78
REMARK SMILES IDX 52 79 53 80 57 81 54 82 56 83 55 84
REMARK H PARENT 21 6 5 12 8 16 28 33 72 52 50 63
REMARK Flexibility Score: inf
ROOT
ATOM      1  C   UNL     1       2.236   2.335  -2.099  1.00  0.00     0.021 C 
ENDROOT
BRANCH   1   2
ATOM      2  C   UNL     1       1.856   0.850  -2.139  1.00  0.00     0.116 C 
BRANCH   2   3
ATOM      3  N   UNL     1       2.353   0.063  -1.019  1.00  0.00    -0.356 N 
ATOM      4  O   UNL     1       0.299  -0.262  -0.074  1.00  0.00    -0.275 OA
ATOM      5  C   UNL     1       1.508  -0.496  -0.087  1.00  0.00     0.225 C 
ATOM      6  H   UNL     1       3.324  -0.073  -0.925  1.00  0.00     0.163 HD
BRANCH   5   7
ATOM      7  C   UNL     1       2.125  -1.345   1.022  1.00  0.00     0.161 C 
BRANCH   7   8
ATOM      8  C   UNL     1       3.320  -2.251   0.684  1.00  0.00     0.272 C 
BRANCH   8   9
ATOM      9  N   UNL     1       4.503  -1.565   0.171  1.00  0.00    -0.325 N 
ATOM     10  C   UNL     1       4.958  -0.439   0.988  1.00  0.00     0.324 C 
ATOM     11  C   UNL     1       5.631  -2.466  -0.163  1.00  0.00     0.324 C 
ATOM     12  H   UNL     1       4.167  -1.168  -0.706  1.00  0.00     0.348 HD
ATOM     13  C   UNL     1       5.968  -0.729   2.100  1.00  0.00     0.324 C 
ATOM     14  C   UNL     1       6.793  -2.613   0.868  1.00  0.00     0.324 C 
ATOM     15  N   UNL     1       7.166  -1.417   1.631  1.00  0.00    -0.322 N 
ATOM     16  H   UNL     1       7.681  -1.768   2.438  1.00  0.00     0.348 HD
BRANCH  15  17
ATOM     17  C   UNL     1       8.203  -0.538   1.066  1.00  0.00     0.299 C 
BRANCH  17  18
ATOM     18  C   UNL     1       8.089  -0.062  -0.373  1.00  0.00     0.010 A 
ATOM     19  C   UNL     1       8.653  -0.922  -1.351  1.00  0.00     0.010 A 
ATOM     20  C   UNL     1       7.473   1.149  -0.787  1.00  0.00    -0.036 A 
ATOM     21  C   UNL     1       8.533  -0.670  -2.714  1.00  0.00     0.001 A 
ATOM     22  C   UNL     1       7.394   1.371  -2.182  1.00  0.00     0.004 A 
ATOM     23  C   UNL     1       7.881   0.474  -3.133  1.00  0.00     0.000 A 
BRANCH  20  24
ATOM     24  C   UNL     1       6.748   2.172   0.084  1.00  0.00     0.020 C 
ATOM     25  C   UNL     1       7.199   2.697   1.414  1.00  0.00     0.009 C 
ATOM     26  C   UNL     1       7.287   3.575   0.205  1.00  0.00     0.009 C 
ENDBRANCH  20  24
ENDBRANCH  17  18
ENDBRANCH  15  17
ENDBRANCH   8   9
ENDBRANCH   7   8
ENDBRANCH   5   7
ENDBRANCH   2   3
ENDBRANCH   1   2
BRANCH   1  27
ATOM     27  C   UNL     1       3.689   2.660  -2.466  1.00  0.00     0.002 C 
BRANCH  27  28
ATOM     28  C   UNL     1       4.151   2.219  -3.859  1.00  0.00     0.002 C 
BRANCH  28  29
ATOM     29  C   UNL     1       3.518   2.951  -5.039  1.00  0.00     0.021 C 
BRANCH  29  30
ATOM     30  C   UNL     1       3.862   4.436  -5.145  1.00  0.00     0.116 C 
BRANCH  30  31
ATOM     31  N   UNL     1       5.292   4.704  -5.275  1.00  0.00    -0.352 N 
ATOM     32  C   UNL     1       5.962   5.465  -6.206  1.00  0.00     0.251 C 
ATOM     33  H   UNL     1       5.862   4.277  -4.595  1.00  0.00     0.163 HD
ATOM     34  O   UNL     1       7.189   5.502  -6.219  1.00  0.00    -0.269 OA
BRANCH  32  35
ATOM     35  C   UNL     1       5.191   6.206  -7.223  1.00  0.00     0.039 A 
ATOM     36  C   UNL     1       5.527   6.062  -8.572  1.00  0.00     0.014 A 
ATOM     37  C   UNL     1       4.092   6.979  -6.845  1.00  0.00     0.014 A 
ATOM     38  C   UNL     1       4.686   6.599  -9.550  1.00  0.00     0.010 A 
ATOM     39  C   UNL     1       3.212   7.434  -7.817  1.00  0.00     0.010 A 
ATOM     40  C   UNL     1       3.490   7.235  -9.179  1.00  0.00    -0.014 A 
BRANCH  40  41
ATOM     41  C   UNL     1       2.493   7.668 -10.189  1.00  0.00     0.031 A 
ATOM     42  C   UNL     1       2.113   9.118 -10.299  1.00  0.00     0.074 A 
ATOM     43  C   UNL     1       1.847   6.744 -10.928  1.00  0.00     0.049 A 
ATOM     44  N   UNL     1       1.186   9.675 -11.034  1.00  0.00    -0.248 NA
ATOM     45  C   UNL     1       2.849  10.060  -9.440  1.00  0.00     0.031 C 
ATOM     46  C   UNL     1       2.075   5.298 -10.870  1.00  0.00     0.029 A 
ATOM     47  N   UNL     1       0.851   6.884 -11.862  1.00  0.00    -0.354 N 
ATOM     48  C   UNL     1       1.210  11.025 -10.708  1.00  0.00     0.074 A 
ATOM     49  C   UNL     1       2.204  11.193  -9.670  1.00  0.00     0.031 C 
ATOM     50  C   UNL     1       1.259   4.688 -11.744  1.00  0.00     0.029 A 
ATOM     51  C   UNL     1       0.422   5.691 -12.393  1.00  0.00     0.049 A 
ATOM     52  H   UNL     1       0.479   7.756 -12.126  1.00  0.00     0.167 HD
ATOM     53  C   UNL     1       0.486  12.039 -11.238  1.00  0.00     0.031 A 
ATOM     54  C   UNL     1      -0.544   5.432 -13.294  1.00  0.00     0.031 A 
ATOM     55  C   UNL     1      -0.491  11.874 -12.280  1.00  0.00     0.049 A 
ATOM     56  C   UNL     1      -1.328   6.573 -13.877  1.00  0.00     0.074 A 
ATOM     57  C   UNL     1      -1.226  12.846 -12.935  1.00  0.00     0.029 A 
ATOM     58  N   UNL     1      -0.871  10.653 -12.816  1.00  0.00    -0.354 N 
ATOM     59  N   UNL     1      -1.237   7.854 -13.617  1.00  0.00    -0.248 NA
ATOM     60  C   UNL     1      -2.342   6.232 -14.885  1.00  0.00     0.031 C 
ATOM     61  C   UNL     1      -2.085  12.208 -13.837  1.00  0.00     0.029 A 
ATOM     62  C   UNL     1      -1.848  10.844 -13.778  1.00  0.00     0.049 A 
ATOM     63  H   UNL     1      -0.501   9.780 -12.552  1.00  0.00     0.167 HD
ATOM     64  C   UNL     1      -2.166   8.475 -14.440  1.00  0.00     0.074 A 
ATOM     65  C   UNL     1      -2.797   7.431 -15.222  1.00  0.00     0.031 C 
ATOM     66  C   UNL     1      -2.470   9.792 -14.540  1.00  0.00     0.031 A 
BRANCH  53  67
ATOM     67  C   UNL     1       0.729  13.416 -10.686  1.00  0.00    -0.014 A 
ATOM     68  C   UNL     1       1.939  14.090 -10.920  1.00  0.00     0.009 A 
ATOM     69  C   UNL     1      -0.265  14.051  -9.926  1.00  0.00     0.009 A 
ATOM     70  C   UNL     1       2.167  15.350 -10.364  1.00  0.00     0.001 A 
ATOM     71  C   UNL     1      -0.046  15.325  -9.397  1.00  0.00     0.001 A 
ATOM     72  C   UNL     1       1.174  15.967  -9.606  1.00  0.00     0.000 A 
ENDBRANCH  53  67
BRANCH  54  73
ATOM     73  C   UNL     1      -0.814   4.030 -13.707  1.00  0.00    -0.014 A 
ATOM     74  C   UNL     1      -0.435   3.579 -14.981  1.00  0.00     0.009 A 
ATOM     75  C   UNL     1      -1.439   3.133 -12.827  1.00  0.00     0.009 A 
ATOM     76  C   UNL     1      -0.695   2.263 -15.372  1.00  0.00     0.001 A 
ATOM     77  C   UNL     1      -1.674   1.811 -13.212  1.00  0.00     0.001 A 
ATOM     78  C   UNL     1      -1.309   1.379 -14.486  1.00  0.00     0.000 A 
ENDBRANCH  54  73
BRANCH  66  79
ATOM     79  C   UNL     1      -3.518  10.180 -15.543  1.00  0.00    -0.014 A 
ATOM     80  C   UNL     1      -4.877   9.921 -15.309  1.00  0.00     0.009 A 
ATOM     81  C   UNL     1      -3.144  10.858 -16.714  1.00  0.00     0.009 A 
ATOM     82  C   UNL     1      -5.839  10.309 -16.244  1.00  0.00     0.001 A 
ATOM     83  C   UNL     1      -4.110  11.269 -17.633  1.00  0.00     0.001 A 
ATOM     84  C   UNL     1      -5.455  10.988 -17.401  1.00  0.00     0.000 A 
ENDBRANCH  66  79
ENDBRANCH  40  41
ENDBRANCH  32  35
ENDBRANCH  30  31
ENDBRANCH  29  30
ENDBRANCH  28  29
ENDBRANCH  27  28
ENDBRANCH   1  27
TORSDOF 18
