REMARK SMILES [NH3+][C@@H](Cc1cn(-c2nc(Cl)nc(N3CCOCC3)n2)c2ccccc12)C(=O)NCCCCCCNC(=O)c1ccc(-c2c3nc(c(-c4ccccc4)c4ccc([nH]4)c(-c4ccccc4)c4nc(c(-c5ccccc5)c5ccc2[nH]5)C=C4)C=C3)cc1
REMARK SMILES IDX 30 1 29 2 28 3 26 4 27 5 2 7 1 8 3 12 4 13 5 14 25 15 6 16
REMARK SMILES IDX 20 17 24 18 21 19 23 20 22 21 7 22 8 23 19 24 9 25 12 26
REMARK SMILES IDX 10 27 11 28 13 29 14 30 18 31 15 32 17 33 16 34 31 35 32 36
REMARK SMILES IDX 33 37 34 38 35 39 36 40 37 42 38 43 39 44 85 45 40 46 84 47
REMARK SMILES IDX 41 48 42 49 43 50 78 51 44 52 83 53 77 54 79 55 45 56 82 57
REMARK SMILES IDX 76 58 75 59 46 61 68 62 53 63 67 64 54 65 57 66 66 67 80 68
REMARK SMILES IDX 55 69 56 70 65 72 81 73 58 74 47 75 48 76 52 77 49 78 51 79
REMARK SMILES IDX 50 80 69 81 70 82 74 83 71 84 73 85 72 86 59 87 60 88 64 89
REMARK SMILES IDX 61 90 63 91 62 92
REMARK H PARENT 28 6 1 9 1 10 1 11 35 41 79 60 57 71
REMARK Flexibility Score: inf
ROOT
ATOM      1  C   UNL     1      -2.455  -1.607   1.317  1.00  0.00     0.021 C 
ENDROOT
BRANCH   1   2
ATOM      2  C   UNL     1      -2.127  -1.964  -0.135  1.00  0.00     0.116 C 
BRANCH   2   3
ATOM      3  N   UNL     1      -1.962  -0.789  -0.968  1.00  0.00    -0.351 N 
ATOM      4  C   UNL     1      -0.907  -0.138  -1.506  1.00  0.00     0.278 C 
ATOM      5  O   UNL     1      -1.212   0.848  -2.202  1.00  0.00    -0.268 OA
ATOM      6  H   UNL     1      -2.822  -0.365  -1.196  1.00  0.00     0.163 HD
BRANCH   4   7
ATOM      7  C   UNL     1       0.602  -0.435  -1.302  1.00  0.00     0.275 C 
BRANCH   7   8
ATOM      8  N   UNL     1       1.192   0.515  -0.337  1.00  0.00    -0.347 N 
ATOM      9  H   UNL     1       2.183   0.305  -0.215  1.00  0.00     0.345 HD
ATOM     10  H   UNL     1       0.714   0.430   0.560  1.00  0.00     0.345 HD
ATOM     11  H   UNL     1       1.087   1.466  -0.690  1.00  0.00     0.345 HD
ENDBRANCH   7   8
BRANCH   7  12
ATOM     12  C   UNL     1       1.175  -1.850  -1.279  1.00  0.00     0.113 C 
BRANCH  12  13
ATOM     13  C   UNL     1       1.175  -2.740  -0.066  1.00  0.00    -0.015 A 
ATOM     14  C   UNL     1       1.359  -4.108  -0.205  1.00  0.00     0.099 A 
ATOM     15  C   UNL     1       1.004  -2.510   1.346  1.00  0.00     0.004 A 
ATOM     16  N   UNL     1       1.100  -4.721   0.992  1.00  0.00    -0.285 N 
ATOM     17  C   UNL     1       0.894  -3.766   1.966  1.00  0.00     0.056 A 
ATOM     18  C   UNL     1       0.863  -1.377   2.179  1.00  0.00     0.010 A 
ATOM     19  C   UNL     1       0.641  -3.919   3.342  1.00  0.00     0.027 A 
ATOM     20  C   UNL     1       0.617  -1.516   3.551  1.00  0.00     0.001 A 
ATOM     21  C   UNL     1       0.503  -2.773   4.123  1.00  0.00     0.002 A 
BRANCH  16  22
ATOM     22  C   UNL     1       1.024  -6.121   1.162  1.00  0.00     0.240 A 
ATOM     23  N   UNL     1      -0.181  -6.653   1.325  1.00  0.00    -0.181 NA
ATOM     24  N   UNL     1       2.172  -6.795   1.090  1.00  0.00    -0.176 NA
ATOM     25  C   UNL     1      -0.144  -7.977   1.314  1.00  0.00     0.228 A 
ATOM     26  C   UNL     1       2.076  -8.114   1.191  1.00  0.00     0.231 A 
ATOM     27  Cl  UNL     1      -1.654  -8.761   1.464  1.00  0.00    -0.041 Cl
ATOM     28  N   UNL     1       0.921  -8.761   1.226  1.00  0.00    -0.182 NA
BRANCH  26  29
ATOM     29  N   UNL     1       3.222  -8.835   1.374  1.00  0.00    -0.336 N 
ATOM     30  C   UNL     1       4.307  -8.278   2.176  1.00  0.00     0.148 C 
ATOM     31  C   UNL     1       3.591  -9.858   0.404  1.00  0.00     0.148 C 
ATOM     32  C   UNL     1       5.481  -7.870   1.282  1.00  0.00     0.181 C 
ATOM     33  C   UNL     1       4.816  -9.386  -0.406  1.00  0.00     0.181 C 
ATOM     34  O   UNL     1       5.897  -8.965   0.446  1.00  0.00    -0.378 OA
ENDBRANCH  26  29
ENDBRANCH  16  22
ENDBRANCH  12  13
ENDBRANCH   7  12
ENDBRANCH   4   7
ENDBRANCH   2   3
ENDBRANCH   1   2
BRANCH   1  35
ATOM     35  C   UNL     1      -3.864  -2.002   1.772  1.00  0.00     0.002 C 
BRANCH  35  36
ATOM     36  C   UNL     1      -4.128  -3.512   1.873  1.00  0.00     0.002 C 
BRANCH  36  37
ATOM     37  C   UNL     1      -3.196  -4.317   2.789  1.00  0.00     0.021 C 
BRANCH  37  38
ATOM     38  C   UNL     1      -2.999  -3.755   4.197  1.00  0.00     0.116 C 
BRANCH  38  39
ATOM     39  N   UNL     1      -4.217  -3.581   4.963  1.00  0.00    -0.352 N 
ATOM     40  C   UNL     1      -5.028  -4.403   5.690  1.00  0.00     0.251 C 
ATOM     41  H   UNL     1      -4.534  -2.649   4.958  1.00  0.00     0.163 HD
ATOM     42  O   UNL     1      -5.947  -3.857   6.312  1.00  0.00    -0.269 OA
BRANCH  40  43
ATOM     43  C   UNL     1      -4.928  -5.886   5.736  1.00  0.00     0.039 A 
ATOM     44  C   UNL     1      -3.818  -6.642   5.359  1.00  0.00     0.014 A 
ATOM     45  C   UNL     1      -6.074  -6.561   6.196  1.00  0.00     0.014 A 
ATOM     46  C   UNL     1      -3.885  -8.036   5.343  1.00  0.00     0.010 A 
ATOM     47  C   UNL     1      -6.136  -7.950   6.210  1.00  0.00     0.010 A 
ATOM     48  C   UNL     1      -5.055  -8.689   5.735  1.00  0.00    -0.014 A 
BRANCH  48  49
ATOM     49  C   UNL     1      -5.088 -10.152   5.684  1.00  0.00     0.031 A 
ATOM     50  C   UNL     1      -4.160 -10.882   6.599  1.00  0.00     0.074 A 
ATOM     51  C   UNL     1      -6.013 -10.838   4.982  1.00  0.00     0.049 A 
ATOM     52  N   UNL     1      -3.316 -11.823   6.317  1.00  0.00    -0.248 NA
ATOM     53  C   UNL     1      -4.164 -10.488   8.017  1.00  0.00     0.031 C 
ATOM     54  C   UNL     1      -7.198 -10.306   4.303  1.00  0.00     0.029 A 
ATOM     55  N   UNL     1      -6.154 -12.189   4.841  1.00  0.00    -0.354 N 
ATOM     56  C   UNL     1      -2.776 -12.242   7.534  1.00  0.00     0.074 A 
ATOM     57  C   UNL     1      -3.271 -11.331   8.535  1.00  0.00     0.031 C 
ATOM     58  C   UNL     1      -8.050 -11.320   4.038  1.00  0.00     0.029 A 
ATOM     59  C   UNL     1      -7.407 -12.574   4.390  1.00  0.00     0.049 A 
ATOM     60  H   UNL     1      -5.433 -12.829   5.040  1.00  0.00     0.167 HD
ATOM     61  C   UNL     1      -2.080 -13.405   7.675  1.00  0.00     0.031 A 
ATOM     62  C   UNL     1      -7.914 -13.828   4.373  1.00  0.00     0.031 A 
ATOM     63  C   UNL     1      -1.583 -13.900   6.423  1.00  0.00     0.049 A 
ATOM     64  C   UNL     1      -6.794 -14.786   4.466  1.00  0.00     0.074 A 
ATOM     65  C   UNL     1      -0.692 -13.440   5.476  1.00  0.00     0.029 A 
ATOM     66  N   UNL     1      -2.254 -14.942   5.835  1.00  0.00    -0.354 N 
ATOM     67  N   UNL     1      -5.909 -14.970   3.530  1.00  0.00    -0.248 NA
ATOM     68  C   UNL     1      -6.449 -15.333   5.768  1.00  0.00     0.031 C 
ATOM     69  C   UNL     1      -1.196 -13.915   4.231  1.00  0.00     0.029 A 
ATOM     70  C   UNL     1      -2.347 -14.661   4.497  1.00  0.00     0.049 A 
ATOM     71  H   UNL     1      -2.603 -15.742   6.289  1.00  0.00     0.167 HD
ATOM     72  C   UNL     1      -4.738 -15.270   4.206  1.00  0.00     0.074 A 
ATOM     73  C   UNL     1      -5.163 -15.623   5.556  1.00  0.00     0.031 C 
ATOM     74  C   UNL     1      -3.519 -14.932   3.690  1.00  0.00     0.031 A 
BRANCH  61  75
ATOM     75  C   UNL     1      -2.108 -14.259   8.921  1.00  0.00    -0.014 A 
ATOM     76  C   UNL     1      -3.076 -14.113   9.932  1.00  0.00     0.009 A 
ATOM     77  C   UNL     1      -1.308 -15.417   8.981  1.00  0.00     0.009 A 
ATOM     78  C   UNL     1      -3.245 -15.064  10.944  1.00  0.00     0.001 A 
ATOM     79  C   UNL     1      -1.504 -16.394   9.968  1.00  0.00     0.001 A 
ATOM     80  C   UNL     1      -2.474 -16.217  10.948  1.00  0.00     0.000 A 
ENDBRANCH  61  75
BRANCH  62  81
ATOM     81  C   UNL     1      -9.315 -14.239   4.599  1.00  0.00    -0.014 A 
ATOM     82  C   UNL     1     -10.135 -13.489   5.462  1.00  0.00     0.009 A 
ATOM     83  C   UNL     1      -9.765 -15.506   4.201  1.00  0.00     0.009 A 
ATOM     84  C   UNL     1     -11.345 -14.000   5.940  1.00  0.00     0.001 A 
ATOM     85  C   UNL     1     -10.975 -16.020   4.683  1.00  0.00     0.001 A 
ATOM     86  C   UNL     1     -11.757 -15.274   5.563  1.00  0.00     0.000 A 
ENDBRANCH  62  81
BRANCH  74  87
ATOM     87  C   UNL     1      -3.450 -14.494   2.245  1.00  0.00    -0.014 A 
ATOM     88  C   UNL     1      -2.509 -15.105   1.401  1.00  0.00     0.009 A 
ATOM     89  C   UNL     1      -4.161 -13.386   1.751  1.00  0.00     0.009 A 
ATOM     90  C   UNL     1      -2.281 -14.621   0.110  1.00  0.00     0.001 A 
ATOM     91  C   UNL     1      -3.953 -12.919   0.450  1.00  0.00     0.001 A 
ATOM     92  C   UNL     1      -3.006 -13.531  -0.367  1.00  0.00     0.000 A 
ENDBRANCH  74  87
ENDBRANCH  48  49
ENDBRANCH  40  43
ENDBRANCH  38  39
ENDBRANCH  37  38
ENDBRANCH  36  37
ENDBRANCH  35  36
ENDBRANCH   1  35
TORSDOF 18
