REMARK SMILES CC1C[NH+]([C@@H](C(=O)NCCCCCCNC(=O)c2ccc(-c3c4nc(c(-c5ccccc5)c5ccc([nH]5)c(-c5ccccc5)c5nc(c(-c6ccccc6)c6ccc3[nH]6)C=C5)C=C4)cc2)C2CCCCC2)C1
REMARK SMILES IDX 12 1 11 2 10 3 9 4 8 5 6 6 7 7 5 9 4 10 1 11 2 12 3 13 72 14
REMARK SMILES IDX 66 16 67 17 71 18 68 19 70 20 69 21 13 22 14 23 15 24 16 25
REMARK SMILES IDX 17 27 18 28 19 29 65 30 20 31 64 32 21 33 22 34 23 35 58 36
REMARK SMILES IDX 24 37 63 38 57 39 59 40 25 41 62 42 56 43 55 44 26 46 48 47
REMARK SMILES IDX 33 48 47 49 34 50 37 51 46 52 60 53 35 54 36 55 45 57 61 58
REMARK SMILES IDX 38 59 27 60 28 61 32 62 29 63 31 64 30 65 49 66 50 67 54 68
REMARK SMILES IDX 51 69 53 70 52 71 39 72 40 73 44 74 41 75 43 76 42 77
REMARK H PARENT 8 8 4 15 15 26 59 45 37 56
REMARK Flexibility Score: inf
ROOT
ATOM      1  C   UNL     1      -1.430   4.219  -3.289  1.00  0.00     0.002 C 
ENDROOT
BRANCH   1   2
ATOM      2  C   UNL     1      -0.640   3.130  -2.563  1.00  0.00     0.002 C 
BRANCH   2   3
ATOM      3  C   UNL     1      -1.403   1.817  -2.351  1.00  0.00     0.021 C 
BRANCH   3   4
ATOM      4  C   UNL     1      -1.442   0.880  -3.566  1.00  0.00     0.116 C 
BRANCH   4   5
ATOM      5  N   UNL     1      -0.119   0.403  -3.927  1.00  0.00    -0.351 N 
ATOM      6  C   UNL     1       0.511  -0.801  -3.790  1.00  0.00     0.278 C 
ATOM      7  O   UNL     1       1.692  -0.814  -4.154  1.00  0.00    -0.268 OA
ATOM      8  H   UNL     1       0.440   1.089  -4.359  1.00  0.00     0.163 HD
BRANCH   6   9
ATOM      9  C   UNL     1      -0.203  -2.070  -3.247  1.00  0.00     0.277 C 
BRANCH   9  10
ATOM     10  N   UNL     1      -0.120  -2.320  -1.778  1.00  0.00    -0.324 N 
ATOM     11  C   UNL     1       0.890  -0.181   0.730  1.00  0.00     0.020 C 
ATOM     12  C   UNL     1       0.578  -0.646  -0.675  1.00  0.00     0.096 C 
ATOM     13  C   UNL     1       1.173  -1.982  -1.143  1.00  0.00     0.271 C 
ATOM     14  C   UNL     1      -0.791  -1.325  -0.931  1.00  0.00     0.271 C 
ATOM     15  H   UNL     1      -0.446  -3.287  -1.797  1.00  0.00     0.348 HD
ENDBRANCH   9  10
BRANCH   9  16
ATOM     16  C   UNL     1       0.290  -3.356  -4.024  1.00  0.00     0.057 C 
ATOM     17  C   UNL     1       1.712  -3.831  -3.638  1.00  0.00     0.010 C 
ATOM     18  C   UNL     1      -0.718  -4.519  -3.858  1.00  0.00     0.010 C 
ATOM     19  C   UNL     1       2.135  -5.110  -4.348  1.00  0.00     0.001 C 
ATOM     20  C   UNL     1      -0.255  -5.820  -4.518  1.00  0.00     0.001 C 
ATOM     21  C   UNL     1       1.141  -6.225  -4.063  1.00  0.00     0.000 C 
ENDBRANCH   9  16
ENDBRANCH   6   9
ENDBRANCH   4   5
ENDBRANCH   3   4
ENDBRANCH   2   3
ENDBRANCH   1   2
BRANCH   1  22
ATOM     22  C   UNL     1      -2.781   4.575  -2.661  1.00  0.00     0.021 C 
BRANCH  22  23
ATOM     23  C   UNL     1      -2.740   4.894  -1.168  1.00  0.00     0.116 C 
BRANCH  23  24
ATOM     24  N   UNL     1      -2.021   6.126  -0.890  1.00  0.00    -0.352 N 
ATOM     25  C   UNL     1      -2.474   7.269  -0.277  1.00  0.00     0.251 C 
ATOM     26  H   UNL     1      -1.081   6.144  -1.182  1.00  0.00     0.163 HD
ATOM     27  O   UNL     1      -1.806   8.296  -0.299  1.00  0.00    -0.269 OA
BRANCH  25  28
ATOM     28  C   UNL     1      -3.787   7.259   0.401  1.00  0.00     0.039 A 
ATOM     29  C   UNL     1      -4.696   8.286   0.134  1.00  0.00     0.014 A 
ATOM     30  C   UNL     1      -4.117   6.241   1.302  1.00  0.00     0.014 A 
ATOM     31  C   UNL     1      -5.959   8.264   0.730  1.00  0.00     0.010 A 
ATOM     32  C   UNL     1      -5.397   6.187   1.846  1.00  0.00     0.010 A 
ATOM     33  C   UNL     1      -6.329   7.200   1.569  1.00  0.00    -0.014 A 
BRANCH  33  34
ATOM     34  C   UNL     1      -7.684   7.133   2.171  1.00  0.00     0.031 A 
ATOM     35  C   UNL     1      -7.857   7.243   3.660  1.00  0.00     0.074 A 
ATOM     36  C   UNL     1      -8.755   6.914   1.384  1.00  0.00     0.049 A 
ATOM     37  N   UNL     1      -8.952   7.157   4.373  1.00  0.00    -0.248 NA
ATOM     38  C   UNL     1      -6.637   7.454   4.455  1.00  0.00     0.031 C 
ATOM     39  C   UNL     1      -8.719   6.751  -0.071  1.00  0.00     0.029 A 
ATOM     40  N   UNL     1     -10.084   6.782   1.701  1.00  0.00    -0.354 N 
ATOM     41  C   UNL     1      -8.551   7.285   5.697  1.00  0.00     0.074 A 
ATOM     42  C   UNL     1      -7.109   7.409   5.692  1.00  0.00     0.031 C 
ATOM     43  C   UNL     1      -9.970   6.566  -0.522  1.00  0.00     0.029 A 
ATOM     44  C   UNL     1     -10.890   6.560   0.611  1.00  0.00     0.049 A 
ATOM     45  H   UNL     1     -10.426   6.841   2.622  1.00  0.00     0.167 HD
ATOM     46  C   UNL     1      -9.314   7.316   6.816  1.00  0.00     0.031 A 
ATOM     47  C   UNL     1     -12.220   6.370   0.533  1.00  0.00     0.031 A 
ATOM     48  C   UNL     1     -10.748   7.205   6.822  1.00  0.00     0.049 A 
ATOM     49  C   UNL     1     -13.045   6.400   1.789  1.00  0.00     0.074 A 
ATOM     50  C   UNL     1     -11.614   7.283   7.899  1.00  0.00     0.029 A 
ATOM     51  N   UNL     1     -11.527   6.990   5.697  1.00  0.00    -0.354 N 
ATOM     52  N   UNL     1     -12.657   6.589   3.026  1.00  0.00    -0.248 NA
ATOM     53  C   UNL     1     -14.493   6.201   1.634  1.00  0.00     0.031 C 
ATOM     54  C   UNL     1     -12.914   7.069   7.431  1.00  0.00     0.029 A 
ATOM     55  C   UNL     1     -12.862   6.909   6.055  1.00  0.00     0.049 A 
ATOM     56  H   UNL     1     -11.182   6.907   4.778  1.00  0.00     0.167 HD
ATOM     57  C   UNL     1     -13.814   6.558   3.794  1.00  0.00     0.074 A 
ATOM     58  C   UNL     1     -14.918   6.346   2.881  1.00  0.00     0.031 C 
ATOM     59  C   UNL     1     -13.949   6.695   5.136  1.00  0.00     0.031 A 
BRANCH  46  60
ATOM     60  C   UNL     1      -8.602   7.467   8.132  1.00  0.00    -0.014 A 
ATOM     61  C   UNL     1      -7.989   8.677   8.492  1.00  0.00     0.009 A 
ATOM     62  C   UNL     1      -8.568   6.393   9.035  1.00  0.00     0.009 A 
ATOM     63  C   UNL     1      -7.321   8.796   9.713  1.00  0.00     0.001 A 
ATOM     64  C   UNL     1      -7.924   6.524  10.267  1.00  0.00     0.001 A 
ATOM     65  C   UNL     1      -7.293   7.721  10.601  1.00  0.00     0.000 A 
ENDBRANCH  46  60
BRANCH  47  66
ATOM     66  C   UNL     1     -12.862   6.153  -0.790  1.00  0.00    -0.014 A 
ATOM     67  C   UNL     1     -13.660   7.154  -1.365  1.00  0.00     0.009 A 
ATOM     68  C   UNL     1     -12.681   4.946  -1.483  1.00  0.00     0.009 A 
ATOM     69  C   UNL     1     -14.282   6.942  -2.597  1.00  0.00     0.001 A 
ATOM     70  C   UNL     1     -13.284   4.747  -2.727  1.00  0.00     0.001 A 
ATOM     71  C   UNL     1     -14.090   5.741  -3.279  1.00  0.00     0.000 A 
ENDBRANCH  47  66
BRANCH  59  72
ATOM     72  C   UNL     1     -15.343   6.651   5.693  1.00  0.00    -0.014 A 
ATOM     73  C   UNL     1     -16.058   5.446   5.773  1.00  0.00     0.009 A 
ATOM     74  C   UNL     1     -15.933   7.828   6.180  1.00  0.00     0.009 A 
ATOM     75  C   UNL     1     -17.350   5.427   6.303  1.00  0.00     0.001 A 
ATOM     76  C   UNL     1     -17.214   7.801   6.734  1.00  0.00     0.001 A 
ATOM     77  C   UNL     1     -17.924   6.602   6.786  1.00  0.00     0.000 A 
ENDBRANCH  59  72
ENDBRANCH  33  34
ENDBRANCH  25  28
ENDBRANCH  23  24
ENDBRANCH  22  23
ENDBRANCH   1  22
TORSDOF 15
