REMARK SMILES Cn1cncc1COc1c(F)cc(C(=O)NCCCCCCNC(=O)c2ccc(-c3c4nc(c(-c5ccccc5)c5ccc([nH]5)c(-c5ccccc5)c5nc(c(-c6ccccc6)c6ccc3[nH]6)C=C5)C=C4)cc2)cc1F
REMARK SMILES IDX 19 1 18 2 17 3 16 4 14 5 15 6 13 8 9 9 10 10 75 11 11 12
REMARK SMILES IDX 12 13 74 14 76 15 8 16 7 17 6 18 1 19 2 20 3 21 4 22 5 23
REMARK SMILES IDX 20 24 21 25 22 26 23 27 24 28 25 30 26 31 27 32 73 33 28 34
REMARK SMILES IDX 72 35 29 36 30 37 31 38 66 39 32 40 71 41 65 42 67 43 33 44
REMARK SMILES IDX 70 45 64 46 63 47 34 49 56 50 41 51 55 52 42 53 45 54 54 55
REMARK SMILES IDX 68 56 43 57 44 58 53 60 69 61 46 62 35 63 36 64 40 65 37 66
REMARK SMILES IDX 39 67 38 68 57 69 58 70 62 71 59 72 61 73 60 74 47 75 48 76
REMARK SMILES IDX 52 77 49 78 51 79 50 80
REMARK H PARENT 16 7 23 29 67 48 45 59
REMARK Flexibility Score: inf
ROOT
ATOM      1  C   UNL     1      -0.533   2.651   7.546  1.00  0.00     0.002 C 
ENDROOT
BRANCH   1   2
ATOM      2  C   UNL     1      -0.471   1.781   6.286  1.00  0.00     0.021 C 
BRANCH   2   3
ATOM      3  C   UNL     1       0.885   1.097   6.077  1.00  0.00     0.116 C 
BRANCH   3   4
ATOM      4  N   UNL     1       0.956  -0.156   6.809  1.00  0.00    -0.352 N 
ATOM      5  C   UNL     1       0.853  -1.466   6.413  1.00  0.00     0.251 C 
ATOM      6  O   UNL     1       1.065  -2.342   7.250  1.00  0.00    -0.269 OA
ATOM      7  H   UNL     1       1.108  -0.044   7.775  1.00  0.00     0.163 HD
BRANCH   5   8
ATOM      8  C   UNL     1       0.525  -1.874   5.020  1.00  0.00     0.045 A 
ATOM      9  C   UNL     1      -0.029  -2.737   2.386  1.00  0.00     0.191 A 
ATOM     10  C   UNL     1      -0.487  -1.513   2.858  1.00  0.00     0.168 A 
ATOM     11  C   UNL     1       0.635  -3.571   3.280  1.00  0.00     0.168 A 
ATOM     12  F   UNL     1      -1.240  -0.711   2.100  1.00  0.00    -0.203 F 
ATOM     13  C   UNL     1      -0.222  -1.085   4.152  1.00  0.00     0.057 A 
ATOM     14  C   UNL     1       0.918  -3.150   4.584  1.00  0.00     0.057 A 
ATOM     15  F   UNL     1       1.006  -4.804   2.905  1.00  0.00    -0.203 F 
BRANCH   9  16
ATOM     16  O   UNL     1      -0.355  -3.180   1.131  1.00  0.00    -0.481 OA
BRANCH  16  17
ATOM     17  C   UNL     1       0.499  -2.658   0.097  1.00  0.00     0.285 C 
BRANCH  17  18
ATOM     18  C   UNL     1       0.005  -1.321  -0.331  1.00  0.00     0.075 A 
ATOM     19  C   UNL     1       2.174  -0.042  -0.140  1.00  0.00     0.151 C 
ATOM     20  N   UNL     1       0.757  -0.171  -0.377  1.00  0.00    -0.335 N 
ATOM     21  C   UNL     1      -0.079   0.865  -0.686  1.00  0.00     0.199 A 
ATOM     22  N   UNL     1      -1.299   0.445  -0.920  1.00  0.00    -0.245 NA
ATOM     23  C   UNL     1      -1.260  -0.908  -0.709  1.00  0.00     0.138 A 
ENDBRANCH  17  18
ENDBRANCH  16  17
ENDBRANCH   9  16
ENDBRANCH   5   8
ENDBRANCH   3   4
ENDBRANCH   2   3
ENDBRANCH   1   2
BRANCH   1  24
ATOM     24  C   UNL     1       0.437   3.839   7.554  1.00  0.00     0.002 C 
BRANCH  24  25
ATOM     25  C   UNL     1       0.297   4.795   6.367  1.00  0.00     0.021 C 
BRANCH  25  26
ATOM     26  C   UNL     1      -1.060   5.487   6.281  1.00  0.00     0.116 C 
BRANCH  26  27
ATOM     27  N   UNL     1      -1.298   6.340   7.437  1.00  0.00    -0.352 N 
ATOM     28  C   UNL     1      -1.443   7.705   7.498  1.00  0.00     0.251 C 
ATOM     29  H   UNL     1      -1.365   5.871   8.300  1.00  0.00     0.163 HD
ATOM     30  O   UNL     1      -1.375   8.290   8.571  1.00  0.00    -0.269 OA
BRANCH  28  31
ATOM     31  C   UNL     1      -1.670   8.465   6.252  1.00  0.00     0.039 A 
ATOM     32  C   UNL     1      -0.941   9.634   6.024  1.00  0.00     0.014 A 
ATOM     33  C   UNL     1      -2.600   8.015   5.311  1.00  0.00     0.014 A 
ATOM     34  C   UNL     1      -1.091  10.313   4.814  1.00  0.00     0.010 A 
ATOM     35  C   UNL     1      -2.694   8.649   4.078  1.00  0.00     0.010 A 
ATOM     36  C   UNL     1      -1.937   9.801   3.816  1.00  0.00    -0.014 A 
BRANCH  36  37
ATOM     37  C   UNL     1      -2.027  10.438   2.479  1.00  0.00     0.031 A 
ATOM     38  C   UNL     1      -3.327  11.026   2.007  1.00  0.00     0.074 A 
ATOM     39  C   UNL     1      -0.958  10.411   1.659  1.00  0.00     0.049 A 
ATOM     40  N   UNL     1      -3.621  11.547   0.843  1.00  0.00    -0.248 NA
ATOM     41  C   UNL     1      -4.448  11.008   2.960  1.00  0.00     0.031 C 
ATOM     42  C   UNL     1       0.350   9.840   1.989  1.00  0.00     0.029 A 
ATOM     43  N   UNL     1      -0.806  10.867   0.374  1.00  0.00    -0.354 N 
ATOM     44  C   UNL     1      -4.962  11.903   0.919  1.00  0.00     0.074 A 
ATOM     45  C   UNL     1      -5.435  11.496   2.224  1.00  0.00     0.031 C 
ATOM     46  C   UNL     1       1.176  10.001   0.944  1.00  0.00     0.029 A 
ATOM     47  C   UNL     1       0.445  10.638  -0.147  1.00  0.00     0.049 A 
ATOM     48  H   UNL     1      -1.525  11.315  -0.128  1.00  0.00     0.167 HD
ATOM     49  C   UNL     1      -5.725  12.528  -0.009  1.00  0.00     0.031 A 
ATOM     50  C   UNL     1       0.943  10.895  -1.371  1.00  0.00     0.031 A 
ATOM     51  C   UNL     1      -5.252  12.929  -1.307  1.00  0.00     0.049 A 
ATOM     52  C   UNL     1       0.060  11.546  -2.399  1.00  0.00     0.074 A 
ATOM     53  C   UNL     1      -5.932  13.615  -2.298  1.00  0.00     0.029 A 
ATOM     54  N   UNL     1      -3.982  12.669  -1.800  1.00  0.00    -0.354 N 
ATOM     55  N   UNL     1      -1.184  11.944  -2.286  1.00  0.00    -0.248 NA
ATOM     56  C   UNL     1       0.652  11.785  -3.723  1.00  0.00     0.031 C 
ATOM     57  C   UNL     1      -5.096  13.712  -3.414  1.00  0.00     0.029 A 
ATOM     58  C   UNL     1      -3.872  13.147  -3.094  1.00  0.00     0.049 A 
ATOM     59  H   UNL     1      -3.266  12.211  -1.303  1.00  0.00     0.167 HD
ATOM     60  C   UNL     1      -1.515  12.503  -3.514  1.00  0.00     0.074 A 
ATOM     61  C   UNL     1      -0.335  12.410  -4.349  1.00  0.00     0.031 C 
ATOM     62  C   UNL     1      -2.692  13.044  -3.914  1.00  0.00     0.031 A 
BRANCH  49  63
ATOM     63  C   UNL     1      -7.161  12.803   0.345  1.00  0.00    -0.014 A 
ATOM     64  C   UNL     1      -7.503  13.749   1.325  1.00  0.00     0.009 A 
ATOM     65  C   UNL     1      -8.188  12.135  -0.340  1.00  0.00     0.009 A 
ATOM     66  C   UNL     1      -8.842  13.991   1.639  1.00  0.00     0.001 A 
ATOM     67  C   UNL     1      -9.527  12.402  -0.047  1.00  0.00     0.001 A 
ATOM     68  C   UNL     1      -9.853  13.322   0.949  1.00  0.00     0.000 A 
ENDBRANCH  49  63
BRANCH  50  69
ATOM     69  C   UNL     1       2.348  10.533  -1.696  1.00  0.00    -0.014 A 
ATOM     70  C   UNL     1       3.309  11.531  -1.913  1.00  0.00     0.009 A 
ATOM     71  C   UNL     1       2.734   9.187  -1.801  1.00  0.00     0.009 A 
ATOM     72  C   UNL     1       4.620  11.190  -2.257  1.00  0.00     0.001 A 
ATOM     73  C   UNL     1       4.052   8.848  -2.113  1.00  0.00     0.001 A 
ATOM     74  C   UNL     1       4.991   9.850  -2.352  1.00  0.00     0.000 A 
ENDBRANCH  50  69
BRANCH  62  75
ATOM     75  C   UNL     1      -2.756  13.602  -5.308  1.00  0.00    -0.014 A 
ATOM     76  C   UNL     1      -2.765  12.761  -6.432  1.00  0.00     0.009 A 
ATOM     77  C   UNL     1      -2.863  14.990  -5.497  1.00  0.00     0.009 A 
ATOM     78  C   UNL     1      -2.852  13.301  -7.717  1.00  0.00     0.001 A 
ATOM     79  C   UNL     1      -2.982  15.524  -6.780  1.00  0.00     0.001 A 
ATOM     80  C   UNL     1      -2.968  14.680  -7.889  1.00  0.00     0.000 A 
ENDBRANCH  62  75
ENDBRANCH  36  37
ENDBRANCH  28  31
ENDBRANCH  26  27
ENDBRANCH  25  26
ENDBRANCH  24  25
ENDBRANCH   1  24
TORSDOF 16
