REMARK SMILES CS(=O)(=O)Nc1ccc(-c2cc(Cl)cc3c2O[C@H](C(F)(F)F)C(C(=O)NCCCCCCNC(=O)c2ccc(-c4c5nc(c(-c6ccccc6)c6ccc([nH]6)c(-c6ccccc6)c6nc(c(-c7ccccc7)c7ccc4[nH]7)C=C6)C=C5)cc2)=C3)cc1
REMARK SMILES IDX 29 1 28 2 27 3 26 4 24 5 25 6 23 8 10 9 11 10 16 11 12 12
REMARK SMILES IDX 15 13 17 14 13 15 14 16 84 17 18 18 9 19 6 20 7 21 86 22
REMARK SMILES IDX 8 23 85 24 5 25 2 27 1 28 3 29 4 30 19 31 20 32 21 33 22 34
REMARK SMILES IDX 30 35 31 36 32 37 33 38 34 39 35 41 36 42 37 43 83 44 38 45
REMARK SMILES IDX 82 46 39 47 40 48 41 49 76 50 42 51 81 52 75 53 77 54 43 55
REMARK SMILES IDX 80 56 74 57 73 58 44 60 66 61 51 62 65 63 52 64 55 65 64 66
REMARK SMILES IDX 78 67 53 68 54 69 63 71 79 72 56 73 45 74 46 75 50 76 47 77
REMARK SMILES IDX 49 78 48 79 67 80 68 81 72 82 69 83 71 84 70 85 57 86 58 87
REMARK SMILES IDX 62 88 59 89 61 90 60 91
REMARK H PARENT 26 7 5 26 33 40 77 59 55 70
REMARK Flexibility Score: inf
ROOT
ATOM      1  C   UNL     1      10.504  -0.841 -11.808  1.00  0.00     0.002 C 
ENDROOT
BRANCH   1   2
ATOM      2  C   UNL     1      10.783  -1.565 -10.480  1.00  0.00     0.021 C 
BRANCH   2   3
ATOM      3  C   UNL     1      10.479  -0.740  -9.220  1.00  0.00     0.116 C 
BRANCH   3   4
ATOM      4  N   UNL     1       9.084  -0.351  -9.212  1.00  0.00    -0.352 N 
ATOM      5  C   UNL     1       8.180  -0.740  -8.277  1.00  0.00     0.251 C 
ATOM      6  O   UNL     1       7.120  -1.248  -8.619  1.00  0.00    -0.270 OA
ATOM      7  H   UNL     1       8.769   0.238  -9.935  1.00  0.00     0.163 HD
BRANCH   5   8
ATOM      8  C   UNL     1       8.485  -0.354  -6.868  1.00  0.00     0.067 C 
ATOM      9  C   UNL     1       4.986  -1.418  -5.101  1.00  0.00     0.026 A 
ATOM     10  C   UNL     1       3.958  -0.977  -5.979  1.00  0.00     0.033 A 
ATOM     11  C   UNL     1       6.271  -0.911  -5.357  1.00  0.00     0.135 A 
ATOM     12  C   UNL     1       4.146   0.043  -6.909  1.00  0.00     0.042 A 
ATOM     13  C   UNL     1       6.412   0.210  -6.214  1.00  0.00     0.019 A 
ATOM     14  O   UNL     1       7.436  -1.494  -4.872  1.00  0.00    -0.475 OA
ATOM     15  Cl  UNL     1       2.856   0.500  -7.948  1.00  0.00    -0.084 Cl
ATOM     16  C   UNL     1       5.355   0.702  -6.973  1.00  0.00     0.032 A 
ATOM     17  C   UNL     1       7.778   0.719  -6.463  1.00  0.00     0.025 C 
ATOM     18  C   UNL     1       8.547  -1.507  -5.877  1.00  0.00     0.314 C 
BRANCH   9  19
ATOM     19  C   UNL     1       4.495  -2.141  -3.891  1.00  0.00    -0.014 A 
ATOM     20  C   UNL     1       2.570  -2.552  -1.830  1.00  0.00     0.048 A 
ATOM     21  C   UNL     1       2.524  -3.296  -3.012  1.00  0.00     0.027 A 
ATOM     22  C   UNL     1       3.680  -1.740  -1.607  1.00  0.00     0.027 A 
ATOM     23  C   UNL     1       3.490  -3.120  -4.014  1.00  0.00     0.011 A 
ATOM     24  C   UNL     1       4.637  -1.542  -2.626  1.00  0.00     0.011 A 
BRANCH  20  25
ATOM     25  N   UNL     1       1.388  -2.556  -1.035  1.00  0.00    -0.284 N 
ATOM     26  H   UNL     1       0.657  -3.136  -1.350  1.00  0.00     0.180 HD
BRANCH  25  27
ATOM     27  S   UNL     1       1.093  -1.701   0.358  1.00  0.00     0.229 S 
ATOM     28  C   UNL     1       1.044   0.004  -0.172  1.00  0.00     0.183 C 
ATOM     29  O   UNL     1       2.195  -1.878   1.278  1.00  0.00    -0.207 OA
ATOM     30  O   UNL     1      -0.257  -2.064   0.737  1.00  0.00    -0.207 OA
ENDBRANCH  25  27
ENDBRANCH  20  25
ENDBRANCH   9  19
BRANCH  18  31
ATOM     31  C   UNL     1       9.942  -1.476  -5.211  1.00  0.00     0.429 C 
ATOM     32  F   UNL     1       9.893  -1.121  -3.909  1.00  0.00    -0.167 F 
ATOM     33  F   UNL     1      10.550  -2.684  -5.288  1.00  0.00    -0.167 F 
ATOM     34  F   UNL     1      10.786  -0.596  -5.817  1.00  0.00    -0.167 F 
ENDBRANCH  18  31
ENDBRANCH   5   8
ENDBRANCH   3   4
ENDBRANCH   2   3
ENDBRANCH   1   2
BRANCH   1  35
ATOM     35  C   UNL     1      11.207   0.509 -11.966  1.00  0.00     0.002 C 
BRANCH  35  36
ATOM     36  C   UNL     1      12.731   0.442 -11.872  1.00  0.00     0.021 C 
BRANCH  36  37
ATOM     37  C   UNL     1      13.383  -0.525 -12.852  1.00  0.00     0.116 C 
BRANCH  37  38
ATOM     38  N   UNL     1      13.129  -0.168 -14.239  1.00  0.00    -0.352 N 
ATOM     39  C   UNL     1      14.018  -0.063 -15.279  1.00  0.00     0.251 C 
ATOM     40  H   UNL     1      12.190   0.025 -14.462  1.00  0.00     0.163 HD
ATOM     41  O   UNL     1      13.667   0.414 -16.353  1.00  0.00    -0.269 OA
BRANCH  39  42
ATOM     42  C   UNL     1      15.415  -0.504 -15.087  1.00  0.00     0.039 A 
ATOM     43  C   UNL     1      16.450   0.329 -15.517  1.00  0.00     0.014 A 
ATOM     44  C   UNL     1      15.700  -1.724 -14.469  1.00  0.00     0.014 A 
ATOM     45  C   UNL     1      17.775  -0.037 -15.271  1.00  0.00     0.010 A 
ATOM     46  C   UNL     1      17.016  -2.049 -14.155  1.00  0.00     0.010 A 
ATOM     47  C   UNL     1      18.067  -1.211 -14.557  1.00  0.00    -0.014 A 
BRANCH  47  48
ATOM     48  C   UNL     1      19.467  -1.575 -14.220  1.00  0.00     0.031 A 
ATOM     49  C   UNL     1      20.078  -2.831 -14.779  1.00  0.00     0.074 A 
ATOM     50  C   UNL     1      20.168  -0.803 -13.366  1.00  0.00     0.049 A 
ATOM     51  N   UNL     1      21.270  -3.332 -14.569  1.00  0.00    -0.248 NA
ATOM     52  C   UNL     1      19.236  -3.643 -15.672  1.00  0.00     0.031 C 
ATOM     53  C   UNL     1      19.677   0.421 -12.728  1.00  0.00     0.029 A 
ATOM     54  N   UNL     1      21.447  -0.936 -12.886  1.00  0.00    -0.354 N 
ATOM     55  C   UNL     1      21.310  -4.522 -15.284  1.00  0.00     0.074 A 
ATOM     56  C   UNL     1      20.012  -4.694 -15.897  1.00  0.00     0.031 C 
ATOM     57  C   UNL     1      20.655   0.946 -11.972  1.00  0.00     0.029 A 
ATOM     58  C   UNL     1      21.823   0.074 -12.033  1.00  0.00     0.049 A 
ATOM     59  H   UNL     1      22.039  -1.683 -13.130  1.00  0.00     0.167 HD
ATOM     60  C   UNL     1      22.341  -5.387 -15.432  1.00  0.00     0.031 A 
ATOM     61  C   UNL     1      22.978   0.272 -11.369  1.00  0.00     0.031 A 
ATOM     62  C   UNL     1      23.638  -5.208 -14.835  1.00  0.00     0.049 A 
ATOM     63  C   UNL     1      24.096  -0.721 -11.532  1.00  0.00     0.074 A 
ATOM     64  C   UNL     1      24.769  -5.992 -14.984  1.00  0.00     0.029 A 
ATOM     65  N   UNL     1      23.975  -4.178 -13.972  1.00  0.00    -0.354 N 
ATOM     66  N   UNL     1      24.146  -1.797 -12.280  1.00  0.00    -0.248 NA
ATOM     67  C   UNL     1      25.323  -0.465 -10.764  1.00  0.00     0.031 C 
ATOM     68  C   UNL     1      25.770  -5.474 -14.158  1.00  0.00     0.029 A 
ATOM     69  C   UNL     1      25.285  -4.327 -13.550  1.00  0.00     0.049 A 
ATOM     70  H   UNL     1      23.373  -3.448 -13.699  1.00  0.00     0.167 HD
ATOM     71  C   UNL     1      25.420  -2.323 -12.101  1.00  0.00     0.074 A 
ATOM     72  C   UNL     1      26.114  -1.440 -11.188  1.00  0.00     0.031 C 
ATOM     73  C   UNL     1      25.966  -3.437 -12.646  1.00  0.00     0.031 A 
BRANCH  60  74
ATOM     74  C   UNL     1      22.109  -6.620 -16.261  1.00  0.00    -0.014 A 
ATOM     75  C   UNL     1      21.946  -6.546 -17.654  1.00  0.00     0.009 A 
ATOM     76  C   UNL     1      22.110  -7.881 -15.645  1.00  0.00     0.009 A 
ATOM     77  C   UNL     1      21.759  -7.708 -18.407  1.00  0.00     0.001 A 
ATOM     78  C   UNL     1      21.954  -9.043 -16.403  1.00  0.00     0.001 A 
ATOM     79  C   UNL     1      21.771  -8.955 -17.782  1.00  0.00     0.000 A 
ENDBRANCH  60  74
BRANCH  61  80
ATOM     80  C   UNL     1      23.151   1.461 -10.492  1.00  0.00    -0.014 A 
ATOM     81  C   UNL     1      24.069   2.468 -10.833  1.00  0.00     0.009 A 
ATOM     82  C   UNL     1      22.431   1.581  -9.294  1.00  0.00     0.009 A 
ATOM     83  C   UNL     1      24.290   3.547  -9.973  1.00  0.00     0.001 A 
ATOM     84  C   UNL     1      22.629   2.678  -8.453  1.00  0.00     0.001 A 
ATOM     85  C   UNL     1      23.568   3.652  -8.786  1.00  0.00     0.000 A 
ENDBRANCH  61  80
BRANCH  73  86
ATOM     86  C   UNL     1      27.399  -3.739 -12.306  1.00  0.00    -0.014 A 
ATOM     87  C   UNL     1      27.775  -4.167 -11.024  1.00  0.00     0.009 A 
ATOM     88  C   UNL     1      28.383  -3.629 -13.302  1.00  0.00     0.009 A 
ATOM     89  C   UNL     1      29.114  -4.441 -10.736  1.00  0.00     0.001 A 
ATOM     90  C   UNL     1      29.715  -3.937 -13.021  1.00  0.00     0.001 A 
ATOM     91  C   UNL     1      30.080  -4.332 -11.736  1.00  0.00     0.000 A 
ENDBRANCH  73  86
ENDBRANCH  47  48
ENDBRANCH  39  42
ENDBRANCH  37  38
ENDBRANCH  36  37
ENDBRANCH  35  36
ENDBRANCH   1  35
TORSDOF 17
