REMARK SMILES CCc1cc(C(=O)c2[nH]c3cc(Cl)ccc3c2CC(=O)NCCCCCCNC(=O)c2ccc(-c3c4nc(c(-c5ccccc5)c5ccc([nH]5)c(-c5ccccc5)c5nc(c(-c6ccccc6)c6ccc3[nH]6)C=C5)C=C4)cc2)ncc1Cl
REMARK SMILES IDX 23 1 22 2 21 3 19 4 20 5 18 7 17 8 8 9 9 10 10 11 16 13
REMARK SMILES IDX 11 14 15 15 12 16 14 17 13 18 6 19 7 20 5 21 3 22 4 23 81 24
REMARK SMILES IDX 80 25 82 26 79 27 2 28 1 29 24 30 25 31 26 32 27 33 28 34
REMARK SMILES IDX 29 35 30 37 31 38 32 39 78 40 33 41 77 42 34 43 35 44 36 45
REMARK SMILES IDX 71 46 37 47 76 48 70 49 72 50 38 51 75 52 69 53 68 54 39 56
REMARK SMILES IDX 61 57 46 58 60 59 47 60 50 61 59 62 73 63 48 64 49 65 58 67
REMARK SMILES IDX 74 68 51 69 40 70 41 71 45 72 42 73 44 74 43 75 62 76 63 77
REMARK SMILES IDX 67 78 64 79 66 80 65 81 52 82 53 83 57 84 54 85 56 86 55 87
REMARK H PARENT 21 6 9 12 28 36 72 55 50 66
REMARK Flexibility Score: inf
ROOT
ATOM      1  C   UNL     1       5.643  -0.475  -8.869  1.00  0.00     0.021 C 
ENDROOT
BRANCH   1   2
ATOM      2  C   UNL     1       4.332  -0.275  -9.629  1.00  0.00     0.116 C 
BRANCH   2   3
ATOM      3  N   UNL     1       3.404  -1.367  -9.421  1.00  0.00    -0.356 N 
ATOM      4  C   UNL     1       2.276  -1.415  -8.653  1.00  0.00     0.224 C 
ATOM      5  O   UNL     1       1.587  -2.438  -8.696  1.00  0.00    -0.275 OA
ATOM      6  H   UNL     1       3.617  -2.197  -9.906  1.00  0.00     0.163 HD
BRANCH   4   7
ATOM      7  C   UNL     1       1.812  -0.201  -7.866  1.00  0.00     0.138 C 
BRANCH   7   8
ATOM      8  C   UNL     1       2.742   0.257  -6.778  1.00  0.00    -0.002 A 
ATOM      9  C   UNL     1       3.168  -0.462  -5.666  1.00  0.00     0.093 A 
ATOM     10  N   UNL     1       4.081   0.317  -4.994  1.00  0.00    -0.351 N 
ATOM     11  C   UNL     1       4.149   1.570  -5.549  1.00  0.00     0.048 A 
ATOM     12  H   UNL     1       4.612   0.017  -4.222  1.00  0.00     0.167 HD
ATOM     13  C   UNL     1       3.313   1.571  -6.663  1.00  0.00     0.004 A 
ATOM     14  C   UNL     1       4.894   2.690  -5.155  1.00  0.00     0.047 A 
ATOM     15  C   UNL     1       3.205   2.758  -7.419  1.00  0.00     0.012 A 
ATOM     16  C   UNL     1       4.767   3.849  -5.925  1.00  0.00     0.043 A 
ATOM     17  C   UNL     1       3.937   3.890  -7.040  1.00  0.00     0.021 A 
ATOM     18  Cl  UNL     1       5.661   5.253  -5.483  1.00  0.00    -0.084 Cl
BRANCH   9  19
ATOM     19  C   UNL     1       2.840  -1.817  -5.256  1.00  0.00     0.227 C 
ATOM     20  O   UNL     1       3.325  -2.783  -5.836  1.00  0.00    -0.285 OA
BRANCH  19  21
ATOM     21  C   UNL     1       1.933  -2.006  -4.059  1.00  0.00     0.113 A 
ATOM     22  C   UNL     1       0.628  -1.167  -2.190  1.00  0.00    -0.026 A 
ATOM     23  C   UNL     1       1.435  -0.929  -3.320  1.00  0.00     0.037 A 
ATOM     24  C   UNL     1       0.329  -2.494  -1.864  1.00  0.00     0.062 A 
ATOM     25  C   UNL     1       0.858  -3.504  -2.657  1.00  0.00     0.132 A 
ATOM     26  Cl  UNL     1      -0.666  -2.925  -0.526  1.00  0.00    -0.082 Cl
ATOM     27  N   UNL     1       1.657  -3.292  -3.729  1.00  0.00    -0.251 NA
BRANCH  22  28
ATOM     28  C   UNL     1       0.152   0.008  -1.369  1.00  0.00     0.034 C 
ATOM     29  C   UNL     1       1.014   0.234  -0.133  1.00  0.00     0.009 C 
ENDBRANCH  22  28
ENDBRANCH  19  21
ENDBRANCH   9  19
ENDBRANCH   7   8
ENDBRANCH   4   7
ENDBRANCH   2   3
ENDBRANCH   1   2
BRANCH   1  30
ATOM     30  C   UNL     1       6.541  -1.591  -9.421  1.00  0.00     0.002 C 
BRANCH  30  31
ATOM     31  C   UNL     1       6.999  -1.424 -10.875  1.00  0.00     0.002 C 
BRANCH  31  32
ATOM     32  C   UNL     1       7.676  -0.091 -11.214  1.00  0.00     0.021 C 
BRANCH  32  33
ATOM     33  C   UNL     1       8.935   0.231 -10.412  1.00  0.00     0.116 C 
BRANCH  33  34
ATOM     34  N   UNL     1      10.025  -0.689 -10.691  1.00  0.00    -0.352 N 
ATOM     35  C   UNL     1      11.343  -0.427 -10.974  1.00  0.00     0.251 C 
ATOM     36  H   UNL     1       9.782  -1.643 -10.676  1.00  0.00     0.163 HD
ATOM     37  O   UNL     1      12.086  -1.336 -11.329  1.00  0.00    -0.269 OA
BRANCH  35  38
ATOM     38  C   UNL     1      11.878   0.951 -10.875  1.00  0.00     0.039 A 
ATOM     39  C   UNL     1      12.714   1.418 -11.896  1.00  0.00     0.014 A 
ATOM     40  C   UNL     1      11.605   1.764  -9.771  1.00  0.00     0.014 A 
ATOM     41  C   UNL     1      13.232   2.715 -11.837  1.00  0.00     0.010 A 
ATOM     42  C   UNL     1      12.089   3.072  -9.733  1.00  0.00     0.010 A 
ATOM     43  C   UNL     1      12.906   3.559 -10.765  1.00  0.00    -0.014 A 
BRANCH  43  44
ATOM     44  C   UNL     1      13.410   4.953 -10.708  1.00  0.00     0.031 A 
ATOM     45  C   UNL     1      14.441   5.347  -9.690  1.00  0.00     0.074 A 
ATOM     46  C   UNL     1      12.898   5.882 -11.537  1.00  0.00     0.049 A 
ATOM     47  N   UNL     1      14.943   6.530  -9.439  1.00  0.00    -0.248 NA
ATOM     48  C   UNL     1      14.963   4.275  -8.829  1.00  0.00     0.031 C 
ATOM     49  C   UNL     1      11.876   5.640 -12.557  1.00  0.00     0.029 A 
ATOM     50  N   UNL     1      13.166   7.224 -11.643  1.00  0.00    -0.354 N 
ATOM     51  C   UNL     1      15.819   6.351  -8.378  1.00  0.00     0.074 A 
ATOM     52  C   UNL     1      15.768   4.949  -8.019  1.00  0.00     0.031 C 
ATOM     53  C   UNL     1      11.613   6.793 -13.194  1.00  0.00     0.029 A 
ATOM     54  C   UNL     1      12.426   7.856 -12.611  1.00  0.00     0.049 A 
ATOM     55  H   UNL     1      13.825   7.689 -11.078  1.00  0.00     0.167 HD
ATOM     56  C   UNL     1      16.602   7.267  -7.760  1.00  0.00     0.031 A 
ATOM     57  C   UNL     1      12.400   9.148 -12.985  1.00  0.00     0.031 A 
ATOM     58  C   UNL     1      16.679   8.656  -8.122  1.00  0.00     0.049 A 
ATOM     59  C   UNL     1      13.286  10.143 -12.293  1.00  0.00     0.074 A 
ATOM     60  C   UNL     1      17.484   9.646  -7.584  1.00  0.00     0.029 A 
ATOM     61  N   UNL     1      15.924   9.252  -9.119  1.00  0.00    -0.354 N 
ATOM     62  N   UNL     1      14.133   9.949 -11.313  1.00  0.00    -0.248 NA
ATOM     63  C   UNL     1      13.212  11.534 -12.764  1.00  0.00     0.031 C 
ATOM     64  C   UNL     1      17.199  10.848  -8.242  1.00  0.00     0.029 A 
ATOM     65  C   UNL     1      16.236  10.598  -9.205  1.00  0.00     0.049 A 
ATOM     66  H   UNL     1      15.265   8.787  -9.683  1.00  0.00     0.167 HD
ATOM     67  C   UNL     1      14.705  11.188 -11.060  1.00  0.00     0.074 A 
ATOM     68  C   UNL     1      14.114  12.125 -11.993  1.00  0.00     0.031 C 
ATOM     69  C   UNL     1      15.639  11.518 -10.136  1.00  0.00     0.031 A 
BRANCH  56  70
ATOM     70  C   UNL     1      17.435   6.787  -6.609  1.00  0.00    -0.014 A 
ATOM     71  C   UNL     1      18.612   6.054  -6.825  1.00  0.00     0.009 A 
ATOM     72  C   UNL     1      17.047   7.087  -5.294  1.00  0.00     0.009 A 
ATOM     73  C   UNL     1      19.370   5.605  -5.743  1.00  0.00     0.001 A 
ATOM     74  C   UNL     1      17.818   6.651  -4.215  1.00  0.00     0.001 A 
ATOM     75  C   UNL     1      18.974   5.905  -4.440  1.00  0.00     0.000 A 
ENDBRANCH  56  70
BRANCH  57  76
ATOM     76  C   UNL     1      11.506   9.577 -14.087  1.00  0.00    -0.014 A 
ATOM     77  C   UNL     1      12.027   9.801 -15.370  1.00  0.00     0.009 A 
ATOM     78  C   UNL     1      10.133   9.757 -13.864  1.00  0.00     0.009 A 
ATOM     79  C   UNL     1      11.189  10.212 -16.408  1.00  0.00     0.001 A 
ATOM     80  C   UNL     1       9.296  10.153 -14.908  1.00  0.00     0.001 A 
ATOM     81  C   UNL     1       9.825  10.385 -16.177  1.00  0.00     0.000 A 
ENDBRANCH  57  76
BRANCH  69  82
ATOM     82  C   UNL     1      16.092  12.946 -10.107  1.00  0.00    -0.014 A 
ATOM     83  C   UNL     1      15.317  13.934  -9.480  1.00  0.00     0.009 A 
ATOM     84  C   UNL     1      17.319  13.301 -10.686  1.00  0.00     0.009 A 
ATOM     85  C   UNL     1      15.756  15.259  -9.454  1.00  0.00     0.001 A 
ATOM     86  C   UNL     1      17.761  14.623 -10.645  1.00  0.00     0.001 A 
ATOM     87  C   UNL     1      16.977  15.602 -10.034  1.00  0.00     0.000 A 
ENDBRANCH  69  82
ENDBRANCH  43  44
ENDBRANCH  35  38
ENDBRANCH  33  34
ENDBRANCH  32  33
ENDBRANCH  31  32
ENDBRANCH  30  31
ENDBRANCH   1  30
TORSDOF 17
