REMARK SMILES COc1cc(Cl)cc(/C=C/C(=O)NCCCCCCNC(=O)c2ccc(-c3c4nc(c(-c5ccccc5)c5ccc([nH]5)c(-c5ccccc5)c5nc(c(-c6ccccc6)c6ccc3[nH]6)C=C5)C=C4)cc2)c1OC
REMARK SMILES IDX 16 1 15 2 14 3 13 4 11 5 12 6 10 8 9 9 8 10 3 11 4 12 71 13
REMARK SMILES IDX 5 14 6 15 7 16 2 17 1 18 72 19 73 20 17 21 18 22 19 23 20 24
REMARK SMILES IDX 21 25 22 27 23 28 24 29 70 30 25 31 69 32 26 33 27 34 28 35
REMARK SMILES IDX 63 36 29 37 68 38 62 39 64 40 30 41 67 42 61 43 60 44 31 46
REMARK SMILES IDX 53 47 38 48 52 49 39 50 42 51 51 52 65 53 40 54 41 55 50 57
REMARK SMILES IDX 66 58 43 59 32 60 33 61 37 62 34 63 36 64 35 65 54 66 55 67
REMARK SMILES IDX 59 68 56 69 58 70 57 71 44 72 45 73 49 74 46 75 48 76 47 77
REMARK H PARENT 13 7 20 26 64 45 42 56
REMARK Flexibility Score: inf
ROOT
ATOM      1  C   UNL     1      -5.246  -7.487  -0.199  1.00  0.00     0.002 C 
ENDROOT
BRANCH   1   2
ATOM      2  C   UNL     1      -4.031  -6.548  -0.193  1.00  0.00     0.021 C 
BRANCH   2   3
ATOM      3  C   UNL     1      -2.950  -6.953   0.808  1.00  0.00     0.116 C 
BRANCH   3   4
ATOM      4  N   UNL     1      -2.182  -8.074   0.297  1.00  0.00    -0.353 N 
ATOM      5  C   UNL     1      -0.873  -8.168  -0.050  1.00  0.00     0.244 C 
ATOM      6  O   UNL     1      -0.413  -9.252  -0.404  1.00  0.00    -0.270 OA
ATOM      7  H   UNL     1      -2.697  -8.905   0.182  1.00  0.00     0.163 HD
BRANCH   5   8
ATOM      8  C   UNL     1       0.037  -7.011   0.087  1.00  0.00     0.072 C 
ATOM      9  C   UNL     1      -0.214  -5.777  -0.374  1.00  0.00     0.018 C 
BRANCH   9  10
ATOM     10  C   UNL     1       0.728  -4.651  -0.213  1.00  0.00     0.022 A 
ATOM     11  C   UNL     1       1.209  -2.326   0.330  1.00  0.00     0.162 A 
ATOM     12  C   UNL     1       2.562  -2.551   0.040  1.00  0.00     0.071 A 
ATOM     13  C   UNL     1       0.278  -3.379   0.228  1.00  0.00     0.168 A 
ATOM     14  C   UNL     1       2.986  -3.798  -0.402  1.00  0.00     0.045 A 
ATOM     15  Cl  UNL     1       4.646  -4.053  -0.775  1.00  0.00    -0.084 Cl
ATOM     16  C   UNL     1       2.079  -4.841  -0.540  1.00  0.00     0.032 A 
BRANCH  11  17
ATOM     17  O   UNL     1       0.832  -1.093   0.800  1.00  0.00    -0.493 OA
ATOM     18  C   UNL     1       1.172  -0.027  -0.088  1.00  0.00     0.278 C 
ENDBRANCH  11  17
BRANCH  13  19
ATOM     19  O   UNL     1      -1.065  -3.325   0.519  1.00  0.00    -0.492 OA
ATOM     20  C   UNL     1      -1.643  -2.098   0.938  1.00  0.00     0.278 C 
ENDBRANCH  13  19
ENDBRANCH   9  10
ENDBRANCH   5   8
ENDBRANCH   3   4
ENDBRANCH   2   3
ENDBRANCH   1   2
BRANCH   1  21
ATOM     21  C   UNL     1      -6.021  -7.553   1.124  1.00  0.00     0.002 C 
BRANCH  21  22
ATOM     22  C   UNL     1      -6.481  -6.201   1.676  1.00  0.00     0.021 C 
BRANCH  22  23
ATOM     23  C   UNL     1      -7.412  -5.424   0.751  1.00  0.00     0.116 C 
BRANCH  23  24
ATOM     24  N   UNL     1      -8.676  -6.114   0.549  1.00  0.00    -0.352 N 
ATOM     25  C   UNL     1      -9.957  -5.660   0.735  1.00  0.00     0.251 C 
ATOM     26  H   UNL     1      -8.601  -7.043   0.232  1.00  0.00     0.163 HD
ATOM     27  O   UNL     1     -10.899  -6.446   0.719  1.00  0.00    -0.269 OA
BRANCH  25  28
ATOM     28  C   UNL     1     -10.206  -4.221   0.969  1.00  0.00     0.039 A 
ATOM     29  C   UNL     1     -11.116  -3.849   1.962  1.00  0.00     0.014 A 
ATOM     30  C   UNL     1      -9.568  -3.245   0.198  1.00  0.00     0.014 A 
ATOM     31  C   UNL     1     -11.347  -2.495   2.216  1.00  0.00     0.010 A 
ATOM     32  C   UNL     1      -9.749  -1.897   0.498  1.00  0.00     0.010 A 
ATOM     33  C   UNL     1     -10.643  -1.509   1.506  1.00  0.00    -0.014 A 
BRANCH  33  34
ATOM     34  C   UNL     1     -10.831  -0.069   1.813  1.00  0.00     0.031 A 
ATOM     35  C   UNL     1     -11.435   0.856   0.793  1.00  0.00     0.074 A 
ATOM     36  C   UNL     1     -10.410   0.416   2.998  1.00  0.00     0.049 A 
ATOM     37  N   UNL     1     -11.653   2.145   0.875  1.00  0.00    -0.248 NA
ATOM     38  C   UNL     1     -11.825   0.262  -0.496  1.00  0.00     0.031 C 
ATOM     39  C   UNL     1      -9.769  -0.369   4.055  1.00  0.00     0.029 A 
ATOM     40  N   UNL     1     -10.458   1.688   3.510  1.00  0.00    -0.354 N 
ATOM     41  C   UNL     1     -12.192   2.515  -0.350  1.00  0.00     0.074 A 
ATOM     42  C   UNL     1     -12.222   1.328  -1.176  1.00  0.00     0.031 C 
ATOM     43  C   UNL     1      -9.513   0.432   5.102  1.00  0.00     0.029 A 
ATOM     44  C   UNL     1      -9.936   1.790   4.777  1.00  0.00     0.049 A 
ATOM     45  H   UNL     1     -10.830   2.454   3.017  1.00  0.00     0.167 HD
ATOM     46  C   UNL     1     -12.640   3.730  -0.747  1.00  0.00     0.031 A 
ATOM     47  C   UNL     1      -9.812   2.858   5.587  1.00  0.00     0.031 A 
ATOM     48  C   UNL     1     -12.620   4.910   0.076  1.00  0.00     0.049 A 
ATOM     49  C   UNL     1     -10.313   4.196   5.120  1.00  0.00     0.074 A 
ATOM     50  C   UNL     1     -13.100   6.175  -0.218  1.00  0.00     0.029 A 
ATOM     51  N   UNL     1     -12.089   4.970   1.355  1.00  0.00    -0.354 N 
ATOM     52  N   UNL     1     -10.882   4.514   3.983  1.00  0.00    -0.248 NA
ATOM     53  C   UNL     1     -10.165   5.318   6.057  1.00  0.00     0.031 C 
ATOM     54  C   UNL     1     -12.816   7.013   0.866  1.00  0.00     0.029 A 
ATOM     55  C   UNL     1     -12.209   6.256   1.856  1.00  0.00     0.049 A 
ATOM     56  H   UNL     1     -11.686   4.212   1.836  1.00  0.00     0.167 HD
ATOM     57  C   UNL     1     -11.186   5.866   4.078  1.00  0.00     0.074 A 
ATOM     58  C   UNL     1     -10.754   6.301   5.391  1.00  0.00     0.031 C 
ATOM     59  C   UNL     1     -11.771   6.674   3.162  1.00  0.00     0.031 A 
BRANCH  46  60
ATOM     60  C   UNL     1     -13.190   3.844  -2.143  1.00  0.00    -0.014 A 
ATOM     61  C   UNL     1     -14.416   3.255  -2.491  1.00  0.00     0.009 A 
ATOM     62  C   UNL     1     -12.494   4.583  -3.111  1.00  0.00     0.009 A 
ATOM     63  C   UNL     1     -14.915   3.373  -3.790  1.00  0.00     0.001 A 
ATOM     64  C   UNL     1     -13.009   4.724  -4.402  1.00  0.00     0.001 A 
ATOM     65  C   UNL     1     -14.214   4.111  -4.742  1.00  0.00     0.000 A 
ENDBRANCH  46  60
BRANCH  47  66
ATOM     66  C   UNL     1      -9.207   2.704   6.935  1.00  0.00    -0.014 A 
ATOM     67  C   UNL     1     -10.000   2.810   8.088  1.00  0.00     0.009 A 
ATOM     68  C   UNL     1      -7.832   2.460   7.078  1.00  0.00     0.009 A 
ATOM     69  C   UNL     1      -9.425   2.704   9.356  1.00  0.00     0.001 A 
ATOM     70  C   UNL     1      -7.264   2.325   8.347  1.00  0.00     0.001 A 
ATOM     71  C   UNL     1      -8.059   2.458   9.484  1.00  0.00     0.000 A 
ENDBRANCH  47  66
BRANCH  59  72
ATOM     72  C   UNL     1     -12.007   8.103   3.562  1.00  0.00    -0.014 A 
ATOM     73  C   UNL     1     -10.946   9.014   3.678  1.00  0.00     0.009 A 
ATOM     74  C   UNL     1     -13.317   8.550   3.799  1.00  0.00     0.009 A 
ATOM     75  C   UNL     1     -11.188  10.334   4.061  1.00  0.00     0.001 A 
ATOM     76  C   UNL     1     -13.559   9.878   4.153  1.00  0.00     0.001 A 
ATOM     77  C   UNL     1     -12.494  10.766   4.294  1.00  0.00     0.000 A 
ENDBRANCH  59  72
ENDBRANCH  33  34
ENDBRANCH  25  28
ENDBRANCH  23  24
ENDBRANCH  22  23
ENDBRANCH  21  22
ENDBRANCH   1  21
TORSDOF 16
