REMARK SMILES CC[NH2+][C@@]1(C(=O)NCCCCCCNC(=O)c2ccc(-c3c4nc(c(-c5ccccc5)c5ccc([nH]5)c(-c5ccccc5)c5nc(c(-c6ccccc6)c6ccc3[nH]6)C=C5)C=C4)cc2)CC[C@@H]([NH+]2CC[NH+](C(C)C)CC2)C1
REMARK SMILES IDX 10 1 9 2 8 3 7 4 5 5 6 6 4 8 65 9 77 10 66 11 67 12 3 13
REMARK SMILES IDX 2 16 1 17 68 18 69 19 76 20 70 22 75 23 71 24 72 26 73 27
REMARK SMILES IDX 74 28 11 29 12 30 13 31 14 32 15 33 16 35 17 36 18 37 64 38
REMARK SMILES IDX 19 39 63 40 20 41 21 42 22 43 57 44 23 45 62 46 56 47 58 48
REMARK SMILES IDX 24 49 61 50 55 51 54 52 25 54 47 55 32 56 46 57 33 58 36 59
REMARK SMILES IDX 45 60 59 61 34 62 35 63 44 65 60 66 37 67 26 68 27 69 31 70
REMARK SMILES IDX 28 71 30 72 29 73 48 74 49 75 53 76 50 77 52 78 51 79 38 80
REMARK SMILES IDX 39 81 43 82 40 83 42 84 41 85
REMARK H PARENT 7 7 3 14 3 15 68 21 71 25 14 34 58 53 36 64
REMARK Flexibility Score: inf
ROOT
ATOM      1  C   UNL     1      -3.705  -0.665  -7.342  1.00  0.00     0.002 C 
ENDROOT
BRANCH   1   2
ATOM      2  C   UNL     1      -2.249  -0.600  -6.876  1.00  0.00     0.021 C 
BRANCH   2   3
ATOM      3  C   UNL     1      -2.007   0.478  -5.823  1.00  0.00     0.116 C 
BRANCH   3   4
ATOM      4  N   UNL     1      -2.143  -0.033  -4.488  1.00  0.00    -0.351 N 
ATOM      5  C   UNL     1      -1.243  -0.287  -3.504  1.00  0.00     0.281 C 
ATOM      6  O   UNL     1      -1.753  -0.800  -2.498  1.00  0.00    -0.268 OA
ATOM      7  H   UNL     1      -3.072  -0.239  -4.236  1.00  0.00     0.163 HD
BRANCH   5   8
ATOM      8  C   UNL     1       0.315   0.008  -3.617  1.00  0.00     0.181 C 
ATOM      9  C   UNL     1       0.706   1.452  -3.974  1.00  0.00     0.085 C 
ATOM     10  C   UNL     1       0.965  -0.873  -4.707  1.00  0.00     0.144 C 
ATOM     11  C   UNL     1       1.246   1.490  -5.399  1.00  0.00     0.072 C 
ATOM     12  C   UNL     1       1.417   0.035  -5.863  1.00  0.00     0.191 C 
BRANCH   8  13
ATOM     13  N   UNL     1       0.950  -0.382  -2.317  1.00  0.00    -0.334 N 
ATOM     14  H   UNL     1       0.662  -1.336  -2.100  1.00  0.00     0.347 HD
ATOM     15  H   UNL     1       1.955  -0.276  -2.455  1.00  0.00     0.347 HD
BRANCH  13  16
ATOM     16  C   UNL     1       0.612   0.462  -1.169  1.00  0.00     0.257 C 
ATOM     17  C   UNL     1       1.175  -0.164   0.098  1.00  0.00     0.071 C 
ENDBRANCH  13  16
ENDBRANCH   8  13
BRANCH  12  18
ATOM     18  N   UNL     1       2.683  -0.247  -6.548  1.00  0.00    -0.323 N 
ATOM     19  C   UNL     1       3.924   0.141  -5.869  1.00  0.00     0.324 C 
ATOM     20  C   UNL     1       2.797  -1.618  -7.082  1.00  0.00     0.324 C 
ATOM     21  H   UNL     1       2.600   0.402  -7.331  1.00  0.00     0.348 HD
ATOM     22  C   UNL     1       4.489  -0.886  -4.877  1.00  0.00     0.324 C 
ATOM     23  C   UNL     1       3.481  -2.675  -6.172  1.00  0.00     0.324 C 
ATOM     24  N   UNL     1       4.665  -2.237  -5.413  1.00  0.00    -0.324 N 
ATOM     25  H   UNL     1       4.732  -2.827  -4.583  1.00  0.00     0.348 HD
BRANCH  24  26
ATOM     26  C   UNL     1       5.956  -2.552  -6.044  1.00  0.00     0.178 C 
ATOM     27  C   UNL     1       6.210  -1.955  -7.431  1.00  0.00     0.075 C 
ATOM     28  C   UNL     1       7.143  -2.223  -5.125  1.00  0.00     0.075 C 
ENDBRANCH  24  26
ENDBRANCH  12  18
ENDBRANCH   5   8
ENDBRANCH   3   4
ENDBRANCH   2   3
ENDBRANCH   1   2
BRANCH   1  29
ATOM     29  C   UNL     1      -4.250   0.649  -7.917  1.00  0.00     0.002 C 
BRANCH  29  30
ATOM     30  C   UNL     1      -3.409   1.259  -9.043  1.00  0.00     0.021 C 
BRANCH  30  31
ATOM     31  C   UNL     1      -3.260   0.357 -10.263  1.00  0.00     0.116 C 
BRANCH  31  32
ATOM     32  N   UNL     1      -4.557   0.004 -10.820  1.00  0.00    -0.352 N 
ATOM     33  C   UNL     1      -5.084   0.297 -12.050  1.00  0.00     0.251 C 
ATOM     34  H   UNL     1      -5.140  -0.523 -10.227  1.00  0.00     0.163 HD
ATOM     35  O   UNL     1      -6.286   0.178 -12.257  1.00  0.00    -0.269 OA
BRANCH  33  36
ATOM     36  C   UNL     1      -4.189   0.752 -13.131  1.00  0.00     0.039 A 
ATOM     37  C   UNL     1      -4.584   1.819 -13.941  1.00  0.00     0.014 A 
ATOM     38  C   UNL     1      -2.973   0.102 -13.355  1.00  0.00     0.014 A 
ATOM     39  C   UNL     1      -3.732   2.266 -14.951  1.00  0.00     0.010 A 
ATOM     40  C   UNL     1      -2.096   0.592 -14.315  1.00  0.00     0.010 A 
ATOM     41  C   UNL     1      -2.472   1.671 -15.128  1.00  0.00    -0.014 A 
BRANCH  41  42
ATOM     42  C   UNL     1      -1.528   2.150 -16.166  1.00  0.00     0.031 A 
ATOM     43  C   UNL     1      -1.142   1.243 -17.301  1.00  0.00     0.074 A 
ATOM     44  C   UNL     1      -0.962   3.365 -16.041  1.00  0.00     0.049 A 
ATOM     45  N   UNL     1      -0.264   1.438 -18.252  1.00  0.00    -0.248 NA
ATOM     46  C   UNL     1      -1.810  -0.069 -17.362  1.00  0.00     0.031 C 
ATOM     47  C   UNL     1      -1.234   4.324 -14.967  1.00  0.00     0.029 A 
ATOM     48  N   UNL     1      -0.027   3.997 -16.821  1.00  0.00    -0.354 N 
ATOM     49  C   UNL     1      -0.253   0.269 -19.001  1.00  0.00     0.074 A 
ATOM     50  C   UNL     1      -1.183  -0.646 -18.376  1.00  0.00     0.031 C 
ATOM     51  C   UNL     1      -0.502   5.431 -15.171  1.00  0.00     0.029 A 
ATOM     52  C   UNL     1       0.324   5.243 -16.359  1.00  0.00     0.049 A 
ATOM     53  H   UNL     1       0.356   3.597 -17.635  1.00  0.00     0.167 HD
ATOM     54  C   UNL     1       0.458  -0.012 -20.118  1.00  0.00     0.031 A 
ATOM     55  C   UNL     1       1.219   6.128 -16.835  1.00  0.00     0.031 A 
ATOM     56  C   UNL     1       1.362   0.910 -20.751  1.00  0.00     0.049 A 
ATOM     57  C   UNL     1       2.006   5.780 -18.068  1.00  0.00     0.074 A 
ATOM     58  C   UNL     1       2.071   0.748 -21.928  1.00  0.00     0.029 A 
ATOM     59  N   UNL     1       1.682   2.164 -20.256  1.00  0.00    -0.354 N 
ATOM     60  N   UNL     1       1.948   4.701 -18.810  1.00  0.00    -0.248 NA
ATOM     61  C   UNL     1       2.979   6.779 -18.534  1.00  0.00     0.031 C 
ATOM     62  C   UNL     1       2.864   1.883 -22.117  1.00  0.00     0.029 A 
ATOM     63  C   UNL     1       2.604   2.775 -21.089  1.00  0.00     0.049 A 
ATOM     64  H   UNL     1       1.311   2.561 -19.436  1.00  0.00     0.167 HD
ATOM     65  C   UNL     1       2.847   4.907 -19.848  1.00  0.00     0.074 A 
ATOM     66  C   UNL     1       3.429   6.217 -19.646  1.00  0.00     0.031 C 
ATOM     67  C   UNL     1       3.162   4.085 -20.879  1.00  0.00     0.031 A 
BRANCH  54  68
ATOM     68  C   UNL     1       0.299  -1.378 -20.724  1.00  0.00    -0.014 A 
ATOM     69  C   UNL     1      -0.885  -1.755 -21.378  1.00  0.00     0.009 A 
ATOM     70  C   UNL     1       1.371  -2.283 -20.688  1.00  0.00     0.009 A 
ATOM     71  C   UNL     1      -1.001  -3.021 -21.957  1.00  0.00     0.001 A 
ATOM     72  C   UNL     1       1.263  -3.537 -21.291  1.00  0.00     0.001 A 
ATOM     73  C   UNL     1       0.075  -3.908 -21.919  1.00  0.00     0.000 A 
ENDBRANCH  54  68
BRANCH  55  74
ATOM     74  C   UNL     1       1.420   7.435 -16.156  1.00  0.00    -0.014 A 
ATOM     75  C   UNL     1       1.018   8.626 -16.779  1.00  0.00     0.009 A 
ATOM     76  C   UNL     1       2.037   7.503 -14.897  1.00  0.00     0.009 A 
ATOM     77  C   UNL     1       1.263   9.861 -16.173  1.00  0.00     0.001 A 
ATOM     78  C   UNL     1       2.252   8.737 -14.280  1.00  0.00     0.001 A 
ATOM     79  C   UNL     1       1.877   9.915 -14.923  1.00  0.00     0.000 A 
ENDBRANCH  55  74
BRANCH  67  80
ATOM     80  C   UNL     1       4.142   4.598 -21.895  1.00  0.00    -0.014 A 
ATOM     81  C   UNL     1       5.509   4.710 -21.600  1.00  0.00     0.009 A 
ATOM     82  C   UNL     1       3.693   4.924 -23.184  1.00  0.00     0.009 A 
ATOM     83  C   UNL     1       6.403   5.168 -22.570  1.00  0.00     0.001 A 
ATOM     84  C   UNL     1       4.592   5.351 -24.160  1.00  0.00     0.001 A 
ATOM     85  C   UNL     1       5.945   5.481 -23.850  1.00  0.00     0.000 A 
ENDBRANCH  67  80
ENDBRANCH  41  42
ENDBRANCH  33  36
ENDBRANCH  31  32
ENDBRANCH  30  31
ENDBRANCH  29  30
ENDBRANCH   1  29
TORSDOF 17
