REMARK SMILES COC(=O)C1=C(C)N(c2cccc(OC)c2)C(=O)/C1=C\c1ccc(C(=O)NCCCCCCNC(=O)c2ccc(-c3c4nc(c(-c5ccccc5)c5ccc([nH]5)c(-c5ccccc5)c5nc(c(-c6ccccc6)c6ccc3[nH]6)C=C5)C=C4)cc2)cc1
REMARK SMILES IDX 30 1 29 2 28 3 27 4 25 5 26 6 24 8 21 9 22 10 86 11 23 12
REMARK SMILES IDX 85 13 20 14 5 15 6 16 19 17 7 18 8 19 17 20 18 21 3 22 4 23
REMARK SMILES IDX 2 24 1 25 9 26 10 27 16 28 11 29 13 30 12 31 14 32 15 33
REMARK SMILES IDX 31 34 32 35 33 36 34 37 35 38 36 40 37 41 38 42 84 43 39 44
REMARK SMILES IDX 83 45 40 46 41 47 42 48 77 49 43 50 82 51 76 52 78 53 44 54
REMARK SMILES IDX 81 55 75 56 74 57 45 59 67 60 52 61 66 62 53 63 56 64 65 65
REMARK SMILES IDX 79 66 54 67 55 68 64 70 80 71 57 72 46 73 47 74 51 75 48 76
REMARK SMILES IDX 50 77 49 78 68 79 69 80 73 81 70 82 72 83 71 84 58 85 59 86
REMARK SMILES IDX 63 87 60 88 62 89 61 90
REMARK H PARENT 27 7 34 39 78 58 56 69
REMARK Flexibility Score: inf
ROOT
ATOM      1  C   UNL     1       4.973   8.615  10.131  1.00  0.00     0.002 C 
ENDROOT
BRANCH   1   2
ATOM      2  C   UNL     1       4.411   7.582   9.145  1.00  0.00     0.021 C 
BRANCH   2   3
ATOM      3  C   UNL     1       3.646   8.223   7.984  1.00  0.00     0.116 C 
BRANCH   3   4
ATOM      4  N   UNL     1       4.585   8.716   6.996  1.00  0.00    -0.352 N 
ATOM      5  C   UNL     1       4.978   8.238   5.773  1.00  0.00     0.251 C 
ATOM      6  O   UNL     1       5.832   8.877   5.158  1.00  0.00    -0.269 OA
ATOM      7  H   UNL     1       5.026   9.558   7.253  1.00  0.00     0.163 HD
BRANCH   5   8
ATOM      8  C   UNL     1       4.375   7.035   5.136  1.00  0.00     0.039 A 
ATOM      9  C   UNL     1       3.114   4.924   3.769  1.00  0.00    -0.025 A 
ATOM     10  C   UNL     1       3.701   5.967   3.051  1.00  0.00     0.009 A 
ATOM     11  C   UNL     1       3.220   4.904   5.162  1.00  0.00     0.009 A 
ATOM     12  C   UNL     1       4.323   7.018   3.733  1.00  0.00     0.014 A 
ATOM     13  C   UNL     1       3.878   5.935   5.838  1.00  0.00     0.014 A 
BRANCH   9  14
ATOM     14  C   UNL     1       2.393   3.844   3.099  1.00  0.00     0.023 C 
ATOM     15  C   UNL     1       0.302   2.757   2.257  1.00  0.00     0.092 C 
ATOM     16  C   UNL     1      -0.981   3.159   2.127  1.00  0.00     0.039 C 
ATOM     17  C   UNL     1       1.069   3.821   2.878  1.00  0.00     0.057 C 
ATOM     18  C   UNL     1      -2.061   2.379   1.449  1.00  0.00     0.066 C 
ATOM     19  N   UNL     1      -1.128   4.459   2.620  1.00  0.00    -0.280 N 
ATOM     20  C   UNL     1       0.096   4.930   3.159  1.00  0.00     0.263 C 
ATOM     21  O   UNL     1       0.339   5.982   3.718  1.00  0.00    -0.268 OA
BRANCH  15  22
ATOM     22  C   UNL     1       0.878   1.476   1.815  1.00  0.00     0.340 C 
ATOM     23  O   UNL     1       1.660   0.817   2.483  1.00  0.00    -0.246 OA
BRANCH  22  24
ATOM     24  O   UNL     1       0.469   1.190   0.555  1.00  0.00    -0.465 OA
ATOM     25  C   UNL     1       1.013  -0.018   0.024  1.00  0.00     0.282 C 
ENDBRANCH  22  24
ENDBRANCH  15  22
BRANCH  19  26
ATOM     26  C   UNL     1      -2.246   5.330   2.494  1.00  0.00     0.053 A 
ATOM     27  C   UNL     1      -3.557   4.912   2.740  1.00  0.00     0.027 A 
ATOM     28  C   UNL     1      -2.030   6.636   2.024  1.00  0.00     0.073 A 
ATOM     29  C   UNL     1      -4.631   5.762   2.466  1.00  0.00     0.006 A 
ATOM     30  C   UNL     1      -3.098   7.479   1.719  1.00  0.00     0.120 A 
ATOM     31  C   UNL     1      -4.400   7.034   1.942  1.00  0.00     0.046 A 
BRANCH  30  32
ATOM     32  O   UNL     1      -2.992   8.733   1.180  1.00  0.00    -0.497 OA
ATOM     33  C   UNL     1      -1.681   9.164   0.825  1.00  0.00     0.278 C 
ENDBRANCH  30  32
ENDBRANCH  19  26
ENDBRANCH   9  14
ENDBRANCH   5   8
ENDBRANCH   3   4
ENDBRANCH   2   3
ENDBRANCH   1   2
BRANCH   1  34
ATOM     34  C   UNL     1       3.908   9.442  10.862  1.00  0.00     0.002 C 
BRANCH  34  35
ATOM     35  C   UNL     1       2.868   8.616  11.623  1.00  0.00     0.021 C 
BRANCH  35  36
ATOM     36  C   UNL     1       3.457   7.745  12.728  1.00  0.00     0.116 C 
BRANCH  36  37
ATOM     37  N   UNL     1       4.062   8.552  13.777  1.00  0.00    -0.352 N 
ATOM     38  C   UNL     1       3.744   8.627  15.109  1.00  0.00     0.251 C 
ATOM     39  H   UNL     1       4.807   9.127  13.489  1.00  0.00     0.163 HD
ATOM     40  O   UNL     1       4.180   9.541  15.801  1.00  0.00    -0.269 OA
BRANCH  38  41
ATOM     41  C   UNL     1       2.860   7.605  15.708  1.00  0.00     0.039 A 
ATOM     42  C   UNL     1       1.839   8.014  16.568  1.00  0.00     0.014 A 
ATOM     43  C   UNL     1       3.043   6.249  15.423  1.00  0.00     0.014 A 
ATOM     44  C   UNL     1       0.958   7.066  17.090  1.00  0.00     0.010 A 
ATOM     45  C   UNL     1       2.120   5.315  15.883  1.00  0.00     0.010 A 
ATOM     46  C   UNL     1       1.066   5.715  16.718  1.00  0.00    -0.014 A 
BRANCH  46  47
ATOM     47  C   UNL     1       0.064   4.716  17.167  1.00  0.00     0.031 A 
ATOM     48  C   UNL     1       0.472   3.565  18.044  1.00  0.00     0.074 A 
ATOM     49  C   UNL     1      -1.205   4.813  16.724  1.00  0.00     0.049 A 
ATOM     50  N   UNL     1      -0.256   2.573  18.491  1.00  0.00    -0.248 NA
ATOM     51  C   UNL     1       1.884   3.506  18.455  1.00  0.00     0.031 C 
ATOM     52  C   UNL     1      -1.714   5.858  15.832  1.00  0.00     0.029 A 
ATOM     53  N   UNL     1      -2.298   4.015  16.957  1.00  0.00    -0.354 N 
ATOM     54  C   UNL     1       0.609   1.767  19.220  1.00  0.00     0.074 A 
ATOM     55  C   UNL     1       1.925   2.361  19.120  1.00  0.00     0.031 C 
ATOM     56  C   UNL     1      -3.023   5.651  15.614  1.00  0.00     0.029 A 
ATOM     57  C   UNL     1      -3.434   4.435  16.308  1.00  0.00     0.049 A 
ATOM     58  H   UNL     1      -2.271   3.219  17.534  1.00  0.00     0.167 HD
ATOM     59  C   UNL     1       0.330   0.642  19.920  1.00  0.00     0.031 A 
ATOM     60  C   UNL     1      -4.666   3.895  16.260  1.00  0.00     0.031 A 
ATOM     61  C   UNL     1      -0.981   0.058  20.021  1.00  0.00     0.049 A 
ATOM     62  C   UNL     1      -4.941   2.633  17.030  1.00  0.00     0.074 A 
ATOM     63  C   UNL     1      -1.377  -1.041  20.764  1.00  0.00     0.029 A 
ATOM     64  N   UNL     1      -2.106   0.515  19.352  1.00  0.00    -0.354 N 
ATOM     65  N   UNL     1      -4.131   1.934  17.788  1.00  0.00    -0.248 NA
ATOM     66  C   UNL     1      -6.305   2.090  16.945  1.00  0.00     0.031 C 
ATOM     67  C   UNL     1      -2.724  -1.292  20.489  1.00  0.00     0.029 A 
ATOM     68  C   UNL     1      -3.186  -0.306  19.632  1.00  0.00     0.049 A 
ATOM     69  H   UNL     1      -2.132   1.305  18.766  1.00  0.00     0.167 HD
ATOM     70  C   UNL     1      -4.892   0.885  18.288  1.00  0.00     0.074 A 
ATOM     71  C   UNL     1      -6.233   1.054  17.768  1.00  0.00     0.031 C 
ATOM     72  C   UNL     1      -4.513  -0.130  19.103  1.00  0.00     0.031 A 
BRANCH  59  73
ATOM     73  C   UNL     1       1.467  -0.047  20.623  1.00  0.00    -0.014 A 
ATOM     74  C   UNL     1       2.085   0.522  21.748  1.00  0.00     0.009 A 
ATOM     75  C   UNL     1       1.882  -1.317  20.192  1.00  0.00     0.009 A 
ATOM     76  C   UNL     1       3.114  -0.155  22.408  1.00  0.00     0.001 A 
ATOM     77  C   UNL     1       2.889  -2.005  20.872  1.00  0.00     0.001 A 
ATOM     78  C   UNL     1       3.509  -1.420  21.974  1.00  0.00     0.000 A 
ENDBRANCH  59  73
BRANCH  60  79
ATOM     79  C   UNL     1      -5.733   4.533  15.443  1.00  0.00    -0.014 A 
ATOM     80  C   UNL     1      -6.854   5.117  16.054  1.00  0.00     0.009 A 
ATOM     81  C   UNL     1      -5.645   4.543  14.042  1.00  0.00     0.009 A 
ATOM     82  C   UNL     1      -7.879   5.663  15.278  1.00  0.00     0.001 A 
ATOM     83  C   UNL     1      -6.654   5.122  13.270  1.00  0.00     0.001 A 
ATOM     84  C   UNL     1      -7.776   5.669  13.887  1.00  0.00     0.000 A 
ENDBRANCH  60  79
BRANCH  72  85
ATOM     85  C   UNL     1      -5.570  -1.121  19.506  1.00  0.00    -0.014 A 
ATOM     86  C   UNL     1      -6.103  -2.036  18.585  1.00  0.00     0.009 A 
ATOM     87  C   UNL     1      -6.009  -1.165  20.839  1.00  0.00     0.009 A 
ATOM     88  C   UNL     1      -7.080  -2.950  18.983  1.00  0.00     0.001 A 
ATOM     89  C   UNL     1      -6.960  -2.103  21.242  1.00  0.00     0.001 A 
ATOM     90  C   UNL     1      -7.503  -2.987  20.311  1.00  0.00     0.000 A 
ENDBRANCH  72  85
ENDBRANCH  46  47
ENDBRANCH  38  41
ENDBRANCH  36  37
ENDBRANCH  35  36
ENDBRANCH  34  35
ENDBRANCH   1  34
TORSDOF 18
