REMARK SMILES CC(C)c1ccc(NC(=O)C[C@H]2SC[C@@H](C(=O)NCCCCCCNC(=O)c3ccc(-c4c5nc(c(-c6ccccc6)c6ccc([nH]6)c(-c6ccccc6)c6nc(c(-c7ccccc7)c7ccc4[nH]7)C=C6)C=C5)cc3)NC2=O)cc1
REMARK SMILES IDX 20 1 19 2 18 3 16 4 17 5 15 7 12 8 13 9 77 10 14 11 76 12
REMARK SMILES IDX 78 13 11 15 9 16 8 17 10 19 7 20 4 21 5 22 80 23 6 24 79 25
REMARK SMILES IDX 2 26 1 27 3 28 21 29 22 30 23 31 24 32 25 33 26 34 27 36
REMARK SMILES IDX 28 37 29 38 75 39 30 40 74 41 31 42 32 43 33 44 68 45 34 46
REMARK SMILES IDX 73 47 67 48 69 49 35 50 72 51 66 52 65 53 36 55 58 56 43 57
REMARK SMILES IDX 57 58 44 59 47 60 56 61 70 62 45 63 46 64 55 66 71 67 48 68
REMARK SMILES IDX 37 69 38 70 42 71 39 72 41 73 40 74 59 75 60 76 64 77 61 78
REMARK SMILES IDX 63 79 62 80 49 81 50 82 54 83 51 84 53 85 52 86
REMARK H PARENT 18 6 76 14 8 18 25 35 69 54 47 65
REMARK Flexibility Score: inf
ROOT
ATOM      1  C   UNL     1       2.312   0.799   0.367  1.00  0.00     0.021 C 
ENDROOT
BRANCH   1   2
ATOM      2  C   UNL     1       1.171  -0.208   0.517  1.00  0.00     0.116 C 
BRANCH   2   3
ATOM      3  N   UNL     1       0.424   0.102   1.713  1.00  0.00    -0.354 N 
ATOM      4  C   UNL     1      -0.586   1.017   1.828  1.00  0.00     0.243 C 
ATOM      5  O   UNL     1      -0.709   1.592   2.908  1.00  0.00    -0.273 OA
ATOM      6  H   UNL     1       0.666  -0.395   2.528  1.00  0.00     0.163 HD
BRANCH   4   7
ATOM      7  C   UNL     1      -1.665   1.037   0.724  1.00  0.00     0.181 C 
ATOM      8  C   UNL     1      -4.276   1.324   2.281  1.00  0.00     0.145 C 
ATOM      9  S   UNL     1      -3.424   2.916   1.891  1.00  0.00    -0.145 SA
ATOM     10  C   UNL     1      -3.346   0.105   2.232  1.00  0.00     0.234 C 
ATOM     11  C   UNL     1      -2.347   2.382   0.531  1.00  0.00     0.105 C 
ATOM     12  N   UNL     1      -2.555  -0.042   1.118  1.00  0.00    -0.343 N 
ATOM     13  O   UNL     1      -3.326  -0.822   3.036  1.00  0.00    -0.274 OA
ATOM     14  H   UNL     1      -2.591  -0.873   0.590  1.00  0.00     0.164 HD
BRANCH   8  15
ATOM     15  C   UNL     1      -5.109   1.539   3.553  1.00  0.00     0.124 C 
BRANCH  15  16
ATOM     16  C   UNL     1      -5.315   0.400   4.532  1.00  0.00     0.226 C 
ATOM     17  N   UNL     1      -5.832  -0.811   4.192  1.00  0.00    -0.326 N 
ATOM     18  H   UNL     1      -5.898  -1.441   4.946  1.00  0.00     0.169 HD
ATOM     19  O   UNL     1      -5.016   0.567   5.722  1.00  0.00    -0.275 OA
BRANCH  17  20
ATOM     20  C   UNL     1      -6.287  -1.333   2.977  1.00  0.00     0.041 A 
ATOM     21  C   UNL     1      -6.908  -2.504   0.478  1.00  0.00    -0.045 A 
ATOM     22  C   UNL     1      -7.166  -1.150   0.731  1.00  0.00     0.006 A 
ATOM     23  C   UNL     1      -6.396  -3.277   1.531  1.00  0.00     0.006 A 
ATOM     24  C   UNL     1      -6.876  -0.576   1.974  1.00  0.00     0.026 A 
ATOM     25  C   UNL     1      -6.097  -2.701   2.767  1.00  0.00     0.026 A 
BRANCH  21  26
ATOM     26  C   UNL     1      -7.181  -3.167  -0.865  1.00  0.00     0.013 C 
ATOM     27  C   UNL     1      -7.897  -2.279  -1.889  1.00  0.00     0.012 C 
ATOM     28  C   UNL     1      -5.887  -3.704  -1.493  1.00  0.00     0.012 C 
ENDBRANCH  21  26
ENDBRANCH  17  20
ENDBRANCH  15  16
ENDBRANCH   8  15
ENDBRANCH   4   7
ENDBRANCH   2   3
ENDBRANCH   1   2
BRANCH   1  29
ATOM     29  C   UNL     1       3.306   0.776   1.540  1.00  0.00     0.002 C 
BRANCH  29  30
ATOM     30  C   UNL     1       3.927  -0.595   1.829  1.00  0.00     0.002 C 
BRANCH  30  31
ATOM     31  C   UNL     1       4.579  -1.264   0.619  1.00  0.00     0.021 C 
BRANCH  31  32
ATOM     32  C   UNL     1       5.659  -0.426  -0.051  1.00  0.00     0.116 C 
BRANCH  32  33
ATOM     33  N   UNL     1       6.803  -0.214   0.820  1.00  0.00    -0.352 N 
ATOM     34  C   UNL     1       8.130  -0.439   0.562  1.00  0.00     0.251 C 
ATOM     35  H   UNL     1       6.597   0.139   1.715  1.00  0.00     0.163 HD
ATOM     36  O   UNL     1       8.958  -0.392   1.470  1.00  0.00    -0.269 OA
BRANCH  34  37
ATOM     37  C   UNL     1       8.561  -0.763  -0.813  1.00  0.00     0.039 A 
ATOM     38  C   UNL     1       9.446  -1.824  -1.011  1.00  0.00     0.014 A 
ATOM     39  C   UNL     1       8.085  -0.028  -1.903  1.00  0.00     0.014 A 
ATOM     40  C   UNL     1       9.812  -2.184  -2.309  1.00  0.00     0.010 A 
ATOM     41  C   UNL     1       8.390  -0.436  -3.198  1.00  0.00     0.010 A 
ATOM     42  C   UNL     1       9.262  -1.514  -3.414  1.00  0.00    -0.014 A 
BRANCH  42  43
ATOM     43  C   UNL     1       9.589  -1.926  -4.802  1.00  0.00     0.031 A 
ATOM     44  C   UNL     1      10.318  -0.982  -5.720  1.00  0.00     0.074 A 
ATOM     45  C   UNL     1       9.177  -3.126  -5.256  1.00  0.00     0.049 A 
ATOM     46  N   UNL     1      10.647  -1.143  -6.977  1.00  0.00    -0.248 NA
ATOM     47  C   UNL     1      10.707   0.324  -5.161  1.00  0.00     0.031 C 
ATOM     48  C   UNL     1       8.429  -4.118  -4.479  1.00  0.00     0.029 A 
ATOM     49  N   UNL     1       9.325  -3.715  -6.488  1.00  0.00    -0.354 N 
ATOM     50  C   UNL     1      11.256   0.044  -7.363  1.00  0.00     0.074 A 
ATOM     51  C   UNL     1      11.216   0.933  -6.223  1.00  0.00     0.031 C 
ATOM     52  C   UNL     1       8.210  -5.201  -5.243  1.00  0.00     0.029 A 
ATOM     53  C   UNL     1       8.761  -4.965  -6.573  1.00  0.00     0.049 A 
ATOM     54  H   UNL     1       9.792  -3.282  -7.239  1.00  0.00     0.167 HD
ATOM     55  C   UNL     1      11.813   0.361  -8.556  1.00  0.00     0.031 A 
ATOM     56  C   UNL     1       8.689  -5.822  -7.609  1.00  0.00     0.031 A 
ATOM     57  C   UNL     1      11.876  -0.531  -9.682  1.00  0.00     0.049 A 
ATOM     58  C   UNL     1       9.308  -5.437  -8.925  1.00  0.00     0.074 A 
ATOM     59  C   UNL     1      12.491  -0.330 -10.905  1.00  0.00     0.029 A 
ATOM     60  N   UNL     1      11.300  -1.790  -9.724  1.00  0.00    -0.354 N 
ATOM     61  N   UNL     1       9.958  -4.345  -9.245  1.00  0.00    -0.248 NA
ATOM     62  C   UNL     1       9.191  -6.410 -10.020  1.00  0.00     0.031 C 
ATOM     63  C   UNL     1      12.233  -1.443 -11.711  1.00  0.00     0.029 A 
ATOM     64  C   UNL     1      11.514  -2.363 -10.967  1.00  0.00     0.049 A 
ATOM     65  H   UNL     1      10.811  -2.215  -8.982  1.00  0.00     0.167 HD
ATOM     66  C   UNL     1      10.358  -4.516 -10.564  1.00  0.00     0.074 A 
ATOM     67  C   UNL     1       9.890  -5.822 -10.979  1.00  0.00     0.031 C 
ATOM     68  C   UNL     1      11.050  -3.667 -11.362  1.00  0.00     0.031 A 
BRANCH  55  69
ATOM     69  C   UNL     1      12.394   1.739  -8.715  1.00  0.00    -0.014 A 
ATOM     70  C   UNL     1      13.577   2.115  -8.058  1.00  0.00     0.009 A 
ATOM     71  C   UNL     1      11.782   2.653  -9.587  1.00  0.00     0.009 A 
ATOM     72  C   UNL     1      14.117   3.389  -8.251  1.00  0.00     0.001 A 
ATOM     73  C   UNL     1      12.340   3.914  -9.800  1.00  0.00     0.001 A 
ATOM     74  C   UNL     1      13.503   4.284  -9.126  1.00  0.00     0.000 A 
ENDBRANCH  55  69
BRANCH  56  75
ATOM     75  C   UNL     1       8.008  -7.136  -7.455  1.00  0.00    -0.014 A 
ATOM     76  C   UNL     1       8.744  -8.330  -7.507  1.00  0.00     0.009 A 
ATOM     77  C   UNL     1       6.615  -7.205  -7.296  1.00  0.00     0.009 A 
ATOM     78  C   UNL     1       8.095  -9.566  -7.444  1.00  0.00     0.001 A 
ATOM     79  C   UNL     1       5.973  -8.441  -7.200  1.00  0.00     0.001 A 
ATOM     80  C   UNL     1       6.711  -9.620  -7.288  1.00  0.00     0.000 A 
ENDBRANCH  56  75
BRANCH  68  81
ATOM     81  C   UNL     1      11.385  -4.142 -12.748  1.00  0.00    -0.014 A 
ATOM     82  C   UNL     1      10.398  -4.266 -13.738  1.00  0.00     0.009 A 
ATOM     83  C   UNL     1      12.719  -4.431 -13.077  1.00  0.00     0.009 A 
ATOM     84  C   UNL     1      10.736  -4.705 -15.020  1.00  0.00     0.001 A 
ATOM     85  C   UNL     1      13.058  -4.838 -14.367  1.00  0.00     0.001 A 
ATOM     86  C   UNL     1      12.066  -4.985 -15.334  1.00  0.00     0.000 A 
ENDBRANCH  68  81
ENDBRANCH  42  43
ENDBRANCH  34  37
ENDBRANCH  32  33
ENDBRANCH  31  32
ENDBRANCH  30  31
ENDBRANCH  29  30
ENDBRANCH   1  29
TORSDOF 17
