REMARK SMILES COC(=O)c1ccc([C@H]2CC(=O)Nc3c(C(=O)NCCCCCCNC(=O)c4ccc(-c5c6nc(c(-c7ccccc7)c7ccc([nH]7)c(-c7ccccc7)c7nc(c(-c8ccccc8)c8ccc5[nH]8)C=C7)C=C6)cc4)cn(-c4ccccc4)c32)cc1
REMARK SMILES IDX 21 1 20 2 19 3 18 4 16 5 17 6 15 8 9 9 10 10 84 11 11 12
REMARK SMILES IDX 14 13 77 14 12 15 13 16 76 17 8 19 5 20 6 21 86 22 7 23
REMARK SMILES IDX 85 24 3 25 4 26 2 27 1 28 78 29 79 30 83 31 80 32 82 33
REMARK SMILES IDX 81 34 22 35 23 36 24 37 25 38 26 39 27 41 28 42 29 43 75 44
REMARK SMILES IDX 30 45 74 46 31 47 32 48 33 49 68 50 34 51 73 52 67 53 69 54
REMARK SMILES IDX 35 55 72 56 66 57 65 58 36 60 58 61 43 62 57 63 44 64 47 65
REMARK SMILES IDX 56 66 70 67 45 68 46 69 55 71 71 72 48 73 37 74 38 75 42 76
REMARK SMILES IDX 39 77 41 78 40 79 59 80 60 81 64 82 61 83 63 84 62 85 49 86
REMARK SMILES IDX 50 87 54 88 51 89 53 90 52 91
REMARK H PARENT 18 7 13 18 25 40 69 59 47 70
REMARK Flexibility Score: inf
ROOT
ATOM      1  C   UNL     1      -8.257   6.795   5.091  1.00  0.00     0.002 C 
ENDROOT
BRANCH   1   2
ATOM      2  C   UNL     1      -6.768   6.457   5.191  1.00  0.00     0.021 C 
BRANCH   2   3
ATOM      3  C   UNL     1      -6.024   6.591   3.855  1.00  0.00     0.116 C 
BRANCH   3   4
ATOM      4  N   UNL     1      -5.401   7.884   3.764  1.00  0.00    -0.352 N 
ATOM      5  C   UNL     1      -4.144   8.341   4.033  1.00  0.00     0.254 C 
ATOM      6  O   UNL     1      -3.974   9.542   3.797  1.00  0.00    -0.269 OA
ATOM      7  H   UNL     1      -6.008   8.586   3.438  1.00  0.00     0.163 HD
BRANCH   5   8
ATOM      8  C   UNL     1      -3.030   7.520   4.528  1.00  0.00     0.081 A 
ATOM      9  C   UNL     1      -0.897   4.956   6.244  1.00  0.00     0.078 C 
ATOM     10  C   UNL     1      -1.988   4.085   6.880  1.00  0.00     0.115 C 
ATOM     11  C   UNL     1      -1.487   6.087   5.436  1.00  0.00     0.055 A 
ATOM     12  C   UNL     1      -3.335   4.129   6.215  1.00  0.00     0.225 C 
ATOM     13  C   UNL     1      -2.834   6.265   5.185  1.00  0.00     0.076 A 
ATOM     14  N   UNL     1      -0.803   7.145   4.863  1.00  0.00    -0.317 N 
ATOM     15  O   UNL     1      -4.150   3.214   6.339  1.00  0.00    -0.275 OA
ATOM     16  N   UNL     1      -3.702   5.281   5.587  1.00  0.00    -0.324 N 
ATOM     17  C   UNL     1      -1.742   8.040   4.417  1.00  0.00     0.107 A 
ATOM     18  H   UNL     1      -4.660   5.417   5.409  1.00  0.00     0.170 HD
BRANCH   9  19
ATOM     19  C   UNL     1       0.059   5.359   7.370  1.00  0.00    -0.038 A 
ATOM     20  C   UNL     1       1.975   6.061   9.315  1.00  0.00     0.060 A 
ATOM     21  C   UNL     1       1.896   4.746   8.845  1.00  0.00     0.016 A 
ATOM     22  C   UNL     1       1.044   7.005   8.873  1.00  0.00     0.016 A 
ATOM     23  C   UNL     1       0.954   4.401   7.874  1.00  0.00     0.005 A 
ATOM     24  C   UNL     1       0.070   6.643   7.940  1.00  0.00     0.005 A 
BRANCH  20  25
ATOM     25  C   UNL     1       3.085   6.410  10.243  1.00  0.00     0.337 C 
ATOM     26  O   UNL     1       3.971   5.638  10.549  1.00  0.00    -0.246 OA
BRANCH  25  27
ATOM     27  O   UNL     1       2.967   7.699  10.658  1.00  0.00    -0.465 OA
ATOM     28  C   UNL     1       4.040   8.136  11.491  1.00  0.00     0.282 C 
ENDBRANCH  25  27
ENDBRANCH  20  25
ENDBRANCH   9  19
BRANCH  14  29
ATOM     29  C   UNL     1       0.594   7.379   4.861  1.00  0.00     0.045 A 
ATOM     30  C   UNL     1       1.484   6.345   4.556  1.00  0.00     0.026 A 
ATOM     31  C   UNL     1       1.072   8.623   5.296  1.00  0.00     0.026 A 
ATOM     32  C   UNL     1       2.851   6.534   4.755  1.00  0.00     0.002 A 
ATOM     33  C   UNL     1       2.437   8.791   5.524  1.00  0.00     0.002 A 
ATOM     34  C   UNL     1       3.323   7.744   5.265  1.00  0.00     0.000 A 
ENDBRANCH  14  29
ENDBRANCH   5   8
ENDBRANCH   3   4
ENDBRANCH   2   3
ENDBRANCH   1   2
BRANCH   1  35
ATOM     35  C   UNL     1      -9.056   5.900   4.130  1.00  0.00     0.002 C 
BRANCH  35  36
ATOM     36  C   UNL     1      -8.929   4.383   4.350  1.00  0.00     0.021 C 
BRANCH  36  37
ATOM     37  C   UNL     1      -9.640   3.891   5.601  1.00  0.00     0.116 C 
BRANCH  37  38
ATOM     38  N   UNL     1     -11.087   4.104   5.512  1.00  0.00    -0.352 N 
ATOM     39  C   UNL     1     -12.058   3.995   6.483  1.00  0.00     0.251 C 
ATOM     40  H   UNL     1     -11.415   4.365   4.621  1.00  0.00     0.163 HD
ATOM     41  O   UNL     1     -13.238   3.866   6.178  1.00  0.00    -0.269 OA
BRANCH  39  42
ATOM     42  C   UNL     1     -11.661   4.042   7.897  1.00  0.00     0.039 A 
ATOM     43  C   UNL     1     -12.285   3.241   8.857  1.00  0.00     0.014 A 
ATOM     44  C   UNL     1     -10.625   4.900   8.251  1.00  0.00     0.014 A 
ATOM     45  C   UNL     1     -11.799   3.262  10.161  1.00  0.00     0.010 A 
ATOM     46  C   UNL     1     -10.027   4.774   9.474  1.00  0.00     0.010 A 
ATOM     47  C   UNL     1     -10.653   4.019  10.455  1.00  0.00    -0.014 A 
BRANCH  47  48
ATOM     48  C   UNL     1     -10.023   3.959  11.765  1.00  0.00     0.031 A 
ATOM     49  C   UNL     1      -9.678   2.588  12.209  1.00  0.00     0.074 A 
ATOM     50  C   UNL     1      -9.585   5.050  12.429  1.00  0.00     0.049 A 
ATOM     51  N   UNL     1     -10.272   1.896  13.121  1.00  0.00    -0.248 NA
ATOM     52  C   UNL     1      -8.663   1.839  11.451  1.00  0.00     0.031 C 
ATOM     53  C   UNL     1      -9.563   6.447  11.975  1.00  0.00     0.029 A 
ATOM     54  N   UNL     1      -8.947   5.120  13.627  1.00  0.00    -0.354 N 
ATOM     55  C   UNL     1      -9.554   0.712  13.221  1.00  0.00     0.074 A 
ATOM     56  C   UNL     1      -8.727   0.643  12.042  1.00  0.00     0.031 C 
ATOM     57  C   UNL     1      -8.736   7.168  12.764  1.00  0.00     0.029 A 
ATOM     58  C   UNL     1      -8.322   6.336  13.877  1.00  0.00     0.049 A 
ATOM     59  H   UNL     1      -8.928   4.370  14.266  1.00  0.00     0.167 HD
ATOM     60  C   UNL     1      -9.472   0.048  14.408  1.00  0.00     0.031 A 
ATOM     61  C   UNL     1      -7.508   6.631  14.919  1.00  0.00     0.031 A 
ATOM     62  C   UNL     1     -10.453   0.532  15.352  1.00  0.00     0.049 A 
ATOM     63  C   UNL     1      -7.781   5.640  15.983  1.00  0.00     0.074 A 
ATOM     64  C   UNL     1     -11.828   0.654  15.362  1.00  0.00     0.029 A 
ATOM     65  N   UNL     1      -9.994   1.373  16.339  1.00  0.00    -0.354 N 
ATOM     66  N   UNL     1      -8.905   5.586  16.637  1.00  0.00    -0.248 NA
ATOM     67  C   UNL     1      -6.980   4.428  16.017  1.00  0.00     0.031 C 
ATOM     68  C   UNL     1     -12.083   1.898  16.014  1.00  0.00     0.029 A 
ATOM     69  C   UNL     1     -10.862   2.427  16.436  1.00  0.00     0.049 A 
ATOM     70  H   UNL     1      -9.183   1.240  16.882  1.00  0.00     0.167 HD
ATOM     71  C   UNL     1      -9.172   4.231  16.758  1.00  0.00     0.074 A 
ATOM     72  C   UNL     1      -7.899   3.571  16.471  1.00  0.00     0.031 C 
ATOM     73  C   UNL     1     -10.458   3.771  16.790  1.00  0.00     0.031 A 
BRANCH  60  74
ATOM     74  C   UNL     1      -8.221  -0.665  14.873  1.00  0.00    -0.014 A 
ATOM     75  C   UNL     1      -8.244  -1.299  16.129  1.00  0.00     0.009 A 
ATOM     76  C   UNL     1      -6.955  -0.477  14.286  1.00  0.00     0.009 A 
ATOM     77  C   UNL     1      -7.062  -1.626  16.802  1.00  0.00     0.001 A 
ATOM     78  C   UNL     1      -5.774  -0.843  14.936  1.00  0.00     0.001 A 
ATOM     79  C   UNL     1      -5.826  -1.385  16.210  1.00  0.00     0.000 A 
ENDBRANCH  60  74
BRANCH  61  80
ATOM     80  C   UNL     1      -6.351   7.548  14.980  1.00  0.00    -0.014 A 
ATOM     81  C   UNL     1      -5.829   7.958  16.218  1.00  0.00     0.009 A 
ATOM     82  C   UNL     1      -5.575   7.785  13.831  1.00  0.00     0.009 A 
ATOM     83  C   UNL     1      -4.555   8.535  16.307  1.00  0.00     0.001 A 
ATOM     84  C   UNL     1      -4.304   8.364  13.920  1.00  0.00     0.001 A 
ATOM     85  C   UNL     1      -3.787   8.721  15.161  1.00  0.00     0.000 A 
ENDBRANCH  61  80
BRANCH  73  86
ATOM     86  C   UNL     1     -11.565   4.782  16.972  1.00  0.00    -0.014 A 
ATOM     87  C   UNL     1     -11.811   5.836  16.073  1.00  0.00     0.009 A 
ATOM     88  C   UNL     1     -12.471   4.584  18.024  1.00  0.00     0.009 A 
ATOM     89  C   UNL     1     -12.910   6.685  16.247  1.00  0.00     0.001 A 
ATOM     90  C   UNL     1     -13.580   5.417  18.184  1.00  0.00     0.001 A 
ATOM     91  C   UNL     1     -13.796   6.472  17.301  1.00  0.00     0.000 A 
ENDBRANCH  73  86
ENDBRANCH  47  48
ENDBRANCH  39  42
ENDBRANCH  37  38
ENDBRANCH  36  37
ENDBRANCH  35  36
ENDBRANCH   1  35
TORSDOF 17
