REMARK SMILES CCCC[C@@H](C(=O)NCCCCCCNC(=O)c1ccc(-c2c3nc(c(-c4ccccc4)c4ccc([nH]4)c(-c4ccccc4)c4nc(c(-c5ccccc5)c5ccc2[nH]5)C=C4)C=C3)cc1)[C@H](O)c1ccc(Br)cc1F
REMARK SMILES IDX 11 1 10 2 9 3 8 4 6 5 7 6 5 8 4 9 3 10 2 11 1 12 66 13 68 14
REMARK SMILES IDX 69 15 74 16 70 17 73 18 75 19 71 20 72 21 67 22 12 24 13 25
REMARK SMILES IDX 14 26 15 27 16 28 17 30 18 31 19 32 65 33 20 34 64 35 21 36
REMARK SMILES IDX 22 37 23 38 58 39 24 40 63 41 57 42 59 43 25 44 62 45 56 46
REMARK SMILES IDX 55 47 26 49 48 50 33 51 47 52 34 53 37 54 46 55 60 56 35 57
REMARK SMILES IDX 36 58 45 60 61 61 38 62 27 63 28 64 32 65 29 66 31 67 30 68
REMARK SMILES IDX 49 69 50 70 54 71 51 72 53 73 52 74 39 75 40 76 44 77 41 78
REMARK SMILES IDX 43 79 42 80
REMARK H PARENT 8 7 67 23 15 29 59 48 37 59
REMARK Flexibility Score: inf
ROOT
ATOM      1  C   UNL     1       2.868   4.869  -3.074  1.00  0.00     0.002 C 
ENDROOT
BRANCH   1   2
ATOM      2  C   UNL     1       1.549   5.072  -2.329  1.00  0.00     0.021 C 
BRANCH   2   3
ATOM      3  C   UNL     1       0.868   3.767  -1.895  1.00  0.00     0.116 C 
BRANCH   3   4
ATOM      4  N   UNL     1       1.230   3.459  -0.527  1.00  0.00    -0.356 N 
ATOM      5  C   UNL     1       0.531   3.617   0.634  1.00  0.00     0.226 C 
ATOM      6  O   UNL     1       1.188   3.622   1.679  1.00  0.00    -0.275 OA
ATOM      7  H   UNL     1       2.128   3.072  -0.416  1.00  0.00     0.163 HD
BRANCH   5   8
ATOM      8  C   UNL     1      -0.993   3.832   0.632  1.00  0.00     0.112 C 
BRANCH   8   9
ATOM      9  C   UNL     1      -1.284   5.355   0.664  1.00  0.00     0.016 C 
BRANCH   9  10
ATOM     10  C   UNL     1      -1.353   6.119  -0.662  1.00  0.00     0.001 C 
BRANCH  10  11
ATOM     11  C   UNL     1      -2.350   5.601  -1.701  1.00  0.00    -0.003 C 
ATOM     12  C   UNL     1      -3.792   5.947  -1.375  1.00  0.00     0.004 C 
ENDBRANCH  10  11
ENDBRANCH   9  10
ENDBRANCH   8   9
BRANCH   8  13
ATOM     13  C   UNL     1      -1.556   3.103   1.905  1.00  0.00     0.160 C 
BRANCH  13  14
ATOM     14  C   UNL     1      -3.082   3.042   2.020  1.00  0.00     0.017 A 
ATOM     15  C   UNL     1      -3.806   4.156   2.485  1.00  0.00     0.010 A 
ATOM     16  C   UNL     1      -3.826   1.892   1.707  1.00  0.00     0.130 A 
ATOM     17  C   UNL     1      -5.205   4.150   2.535  1.00  0.00     0.016 A 
ATOM     18  C   UNL     1      -5.217   1.857   1.806  1.00  0.00     0.055 A 
ATOM     19  F   UNL     1      -3.215   0.759   1.336  1.00  0.00    -0.207 F 
ATOM     20  C   UNL     1      -5.904   2.998   2.194  1.00  0.00     0.020 A 
ATOM     21  Br  UNL     1      -7.791   2.983   2.276  1.00  0.00    -0.051 Br
ENDBRANCH  13  14
BRANCH  13  22
ATOM     22  O   UNL     1      -1.030   1.771   1.931  1.00  0.00    -0.387 OA
ATOM     23  H   UNL     1      -1.346   1.283   1.155  1.00  0.00     0.211 HD
ENDBRANCH  13  22
ENDBRANCH   8  13
ENDBRANCH   5   8
ENDBRANCH   3   4
ENDBRANCH   2   3
ENDBRANCH   1   2
BRANCH   1  24
ATOM     24  C   UNL     1       2.712   4.294  -4.485  1.00  0.00     0.002 C 
BRANCH  24  25
ATOM     25  C   UNL     1       1.819   5.104  -5.431  1.00  0.00     0.021 C 
BRANCH  25  26
ATOM     26  C   UNL     1       2.220   6.568  -5.601  1.00  0.00     0.116 C 
BRANCH  26  27
ATOM     27  N   UNL     1       3.568   6.704  -6.132  1.00  0.00    -0.352 N 
ATOM     28  C   UNL     1       3.990   7.208  -7.337  1.00  0.00     0.251 C 
ATOM     29  H   UNL     1       4.286   6.387  -5.537  1.00  0.00     0.163 HD
ATOM     30  O   UNL     1       5.141   7.026  -7.716  1.00  0.00    -0.269 OA
BRANCH  28  31
ATOM     31  C   UNL     1       3.047   7.962  -8.188  1.00  0.00     0.039 A 
ATOM     32  C   UNL     1       2.977   7.666  -9.552  1.00  0.00     0.014 A 
ATOM     33  C   UNL     1       2.241   8.964  -7.641  1.00  0.00     0.014 A 
ATOM     34  C   UNL     1       2.042   8.323 -10.353  1.00  0.00     0.010 A 
ATOM     35  C   UNL     1       1.267   9.572  -8.427  1.00  0.00     0.010 A 
ATOM     36  C   UNL     1       1.151   9.250  -9.788  1.00  0.00    -0.014 A 
BRANCH  36  37
ATOM     37  C   UNL     1       0.063   9.864 -10.589  1.00  0.00     0.031 A 
ATOM     38  C   UNL     1       0.041  11.347 -10.832  1.00  0.00     0.074 A 
ATOM     39  C   UNL     1      -0.952   9.092 -11.024  1.00  0.00     0.049 A 
ATOM     40  N   UNL     1      -0.874  12.070 -11.428  1.00  0.00    -0.248 NA
ATOM     41  C   UNL     1       1.184  12.120 -10.322  1.00  0.00     0.031 C 
ATOM     42  C   UNL     1      -1.062   7.646 -10.825  1.00  0.00     0.029 A 
ATOM     43  N   UNL     1      -2.092   9.420 -11.714  1.00  0.00    -0.354 N 
ATOM     44  C   UNL     1      -0.424  13.383 -11.351  1.00  0.00     0.074 A 
ATOM     45  C   UNL     1       0.821  13.361 -10.614  1.00  0.00     0.031 C 
ATOM     46  C   UNL     1      -2.196   7.208 -11.395  1.00  0.00     0.029 A 
ATOM     47  C   UNL     1      -2.915   8.347 -11.957  1.00  0.00     0.049 A 
ATOM     48  H   UNL     1      -2.301  10.336 -12.007  1.00  0.00     0.167 HD
ATOM     49  C   UNL     1      -0.991  14.502 -11.861  1.00  0.00     0.031 A 
ATOM     50  C   UNL     1      -4.123   8.286 -12.549  1.00  0.00     0.031 A 
ATOM     51  C   UNL     1      -2.230  14.521 -12.593  1.00  0.00     0.049 A 
ATOM     52  C   UNL     1      -4.750   9.550 -13.067  1.00  0.00     0.074 A 
ATOM     53  C   UNL     1      -2.856  15.597 -13.198  1.00  0.00     0.029 A 
ATOM     54  N   UNL     1      -3.036  13.414 -12.810  1.00  0.00    -0.354 N 
ATOM     55  N   UNL     1      -4.279  10.773 -13.049  1.00  0.00    -0.248 NA
ATOM     56  C   UNL     1      -6.075   9.423 -13.690  1.00  0.00     0.031 C 
ATOM     57  C   UNL     1      -4.071  15.152 -13.729  1.00  0.00     0.029 A 
ATOM     58  C   UNL     1      -4.172  13.788 -13.508  1.00  0.00     0.049 A 
ATOM     59  H   UNL     1      -2.831  12.498 -12.512  1.00  0.00     0.167 HD
ATOM     60  C   UNL     1      -5.238  11.557 -13.676  1.00  0.00     0.074 A 
ATOM     61  C   UNL     1      -6.308  10.669 -14.080  1.00  0.00     0.031 C 
ATOM     62  C   UNL     1      -5.231  12.894 -13.897  1.00  0.00     0.031 A 
BRANCH  49  63
ATOM     63  C   UNL     1      -0.280  15.807 -11.630  1.00  0.00    -0.014 A 
ATOM     64  C   UNL     1       0.934  16.099 -12.272  1.00  0.00     0.009 A 
ATOM     65  C   UNL     1      -0.855  16.777 -10.794  1.00  0.00     0.009 A 
ATOM     66  C   UNL     1       1.576  17.320 -12.052  1.00  0.00     0.001 A 
ATOM     67  C   UNL     1      -0.227  18.009 -10.599  1.00  0.00     0.001 A 
ATOM     68  C   UNL     1       0.992  18.275 -11.220  1.00  0.00     0.000 A 
ENDBRANCH  49  63
BRANCH  50  69
ATOM     69  C   UNL     1      -4.823   6.981 -12.680  1.00  0.00    -0.014 A 
ATOM     70  C   UNL     1      -4.982   6.382 -13.938  1.00  0.00     0.009 A 
ATOM     71  C   UNL     1      -5.338   6.329 -11.548  1.00  0.00     0.009 A 
ATOM     72  C   UNL     1      -5.665   5.170 -14.064  1.00  0.00     0.001 A 
ATOM     73  C   UNL     1      -5.993   5.102 -11.673  1.00  0.00     0.001 A 
ATOM     74  C   UNL     1      -6.164   4.528 -12.931  1.00  0.00     0.000 A 
ENDBRANCH  50  69
BRANCH  62  75
ATOM     75  C   UNL     1      -6.408  13.476 -14.628  1.00  0.00    -0.014 A 
ATOM     76  C   UNL     1      -7.660  13.605 -14.007  1.00  0.00     0.009 A 
ATOM     77  C   UNL     1      -6.247  13.950 -15.940  1.00  0.00     0.009 A 
ATOM     78  C   UNL     1      -8.734  14.173 -14.694  1.00  0.00     0.001 A 
ATOM     79  C   UNL     1      -7.315  14.545 -16.614  1.00  0.00     0.001 A 
ATOM     80  C   UNL     1      -8.559  14.649 -15.994  1.00  0.00     0.000 A 
ENDBRANCH  62  75
ENDBRANCH  36  37
ENDBRANCH  28  31
ENDBRANCH  26  27
ENDBRANCH  25  26
ENDBRANCH  24  25
ENDBRANCH   1  24
TORSDOF 19
