REMARK SMILES Cc1cccc(O[C@H](C)C(=O)N2CCC[C@@H](C(=O)NCCCCCCNC(=O)c3ccc(-c4c5nc(c(-c6ccccc6)c6ccc([nH]6)c(-c6ccccc6)c6nc(c(-c7ccccc7)c7ccc4[nH]7)C=C6)C=C5)cc3)C2)c1
REMARK SMILES IDX 21 1 20 2 19 3 17 4 18 5 16 7 12 8 13 9 77 10 14 11 15 12
REMARK SMILES IDX 10 13 11 14 8 15 9 16 7 17 6 18 1 19 2 20 3 21 78 22 4 23
REMARK SMILES IDX 5 24 22 25 23 26 24 27 25 28 26 29 27 30 28 32 29 33 30 34
REMARK SMILES IDX 76 35 31 36 75 37 32 38 33 39 34 40 69 41 35 42 74 43 68 44
REMARK SMILES IDX 70 45 36 46 73 47 67 48 66 49 37 51 59 52 44 53 58 54 45 55
REMARK SMILES IDX 48 56 57 57 71 58 46 59 47 60 56 62 72 63 49 64 38 65 39 66
REMARK SMILES IDX 43 67 40 68 42 69 41 70 60 71 61 72 65 73 62 74 64 75 63 76
REMARK SMILES IDX 50 77 51 78 55 79 52 80 54 81 53 82
REMARK H PARENT 19 6 26 31 70 50 48 61
REMARK Flexibility Score: inf
ROOT
ATOM      1  C   UNL     1       0.711  -1.666   0.737  1.00  0.00     0.021 C 
ENDROOT
BRANCH   1   2
ATOM      2  C   UNL     1       1.482  -1.796  -0.574  1.00  0.00     0.116 C 
BRANCH   2   3
ATOM      3  N   UNL     1       0.574  -1.875  -1.699  1.00  0.00    -0.356 N 
ATOM      4  C   UNL     1       0.070  -0.917  -2.517  1.00  0.00     0.224 C 
ATOM      5  O   UNL     1      -0.807  -1.273  -3.311  1.00  0.00    -0.275 OA
ATOM      6  H   UNL     1       0.268  -2.787  -1.908  1.00  0.00     0.163 HD
BRANCH   4   7
ATOM      7  C   UNL     1       0.572   0.520  -2.540  1.00  0.00     0.098 C 
ATOM      8  N   UNL     1       0.850   2.700  -1.412  1.00  0.00    -0.339 N 
ATOM      9  C   UNL     1       2.189   2.864  -1.992  1.00  0.00     0.119 C 
ATOM     10  C   UNL     1       0.426   1.308  -1.231  1.00  0.00     0.133 C 
ATOM     11  C   UNL     1       2.367   2.090  -3.294  1.00  0.00     0.022 C 
ATOM     12  C   UNL     1       1.988   0.623  -3.116  1.00  0.00     0.017 C 
BRANCH   8  13
ATOM     13  C   UNL     1       0.174   3.850  -1.034  1.00  0.00     0.263 C 
ATOM     14  O   UNL     1       0.532   4.945  -1.495  1.00  0.00    -0.271 OA
BRANCH  13  15
ATOM     15  C   UNL     1      -0.980   3.860   0.011  1.00  0.00     0.259 C 
ATOM     16  C   UNL     1      -2.293   3.167  -0.332  1.00  0.00     0.064 C 
BRANCH  15  17
ATOM     17  O   UNL     1      -0.602   3.877   1.387  1.00  0.00    -0.481 OA
BRANCH  17  18
ATOM     18  C   UNL     1      -0.164   2.775   2.047  1.00  0.00     0.120 A 
ATOM     19  C   UNL     1       2.563   2.176   4.657  1.00  0.00     0.044 C 
ATOM     20  C   UNL     1       1.395   1.956   3.741  1.00  0.00    -0.047 A 
ATOM     21  C   UNL     1       0.710   0.740   3.760  1.00  0.00     0.003 A 
ATOM     22  C   UNL     1       0.959   2.962   2.866  1.00  0.00     0.049 A 
ATOM     23  C   UNL     1      -0.435   0.568   2.986  1.00  0.00     0.004 A 
ATOM     24  C   UNL     1      -0.875   1.586   2.137  1.00  0.00     0.046 A 
ENDBRANCH  17  18
ENDBRANCH  15  17
ENDBRANCH  13  15
ENDBRANCH   8  13
ENDBRANCH   4   7
ENDBRANCH   2   3
ENDBRANCH   1   2
BRANCH   1  25
ATOM     25  C   UNL     1      -0.004  -2.936   1.219  1.00  0.00     0.002 C 
BRANCH  25  26
ATOM     26  C   UNL     1       0.886  -4.151   1.510  1.00  0.00     0.002 C 
BRANCH  26  27
ATOM     27  C   UNL     1       2.086  -3.892   2.421  1.00  0.00     0.021 C 
BRANCH  27  28
ATOM     28  C   UNL     1       1.735  -3.584   3.873  1.00  0.00     0.116 C 
BRANCH  28  29
ATOM     29  N   UNL     1       1.652  -4.769   4.717  1.00  0.00    -0.352 N 
ATOM     30  C   UNL     1       1.387  -4.898   6.072  1.00  0.00     0.251 C 
ATOM     31  H   UNL     1       1.810  -5.619   4.247  1.00  0.00     0.163 HD
ATOM     32  O   UNL     1       1.380  -6.002   6.582  1.00  0.00    -0.269 OA
BRANCH  30  33
ATOM     33  C   UNL     1       0.986  -3.712   6.873  1.00  0.00     0.039 A 
ATOM     34  C   UNL     1      -0.052  -3.869   7.803  1.00  0.00     0.014 A 
ATOM     35  C   UNL     1       1.500  -2.445   6.626  1.00  0.00     0.014 A 
ATOM     36  C   UNL     1      -0.731  -2.747   8.277  1.00  0.00     0.010 A 
ATOM     37  C   UNL     1       0.782  -1.338   7.027  1.00  0.00     0.010 A 
ATOM     38  C   UNL     1      -0.379  -1.494   7.784  1.00  0.00    -0.014 A 
BRANCH  38  39
ATOM     39  C   UNL     1      -1.229  -0.316   7.874  1.00  0.00     0.031 A 
ATOM     40  C   UNL     1      -0.895   0.803   8.773  1.00  0.00     0.074 A 
ATOM     41  C   UNL     1      -2.299  -0.205   7.057  1.00  0.00     0.049 A 
ATOM     42  N   UNL     1      -1.775   1.607   9.271  1.00  0.00    -0.248 NA
ATOM     43  C   UNL     1       0.467   1.091   9.212  1.00  0.00     0.031 C 
ATOM     44  C   UNL     1      -3.084   0.993   6.770  1.00  0.00     0.029 A 
ATOM     45  N   UNL     1      -3.017  -1.211   6.438  1.00  0.00    -0.354 N 
ATOM     46  C   UNL     1      -1.091   2.668   9.809  1.00  0.00     0.074 A 
ATOM     47  C   UNL     1       0.296   2.261   9.835  1.00  0.00     0.031 C 
ATOM     48  C   UNL     1      -4.270   0.626   6.257  1.00  0.00     0.029 A 
ATOM     49  C   UNL     1      -4.352  -0.823   6.340  1.00  0.00     0.049 A 
ATOM     50  H   UNL     1      -2.645  -2.065   6.118  1.00  0.00     0.167 HD
ATOM     51  C   UNL     1      -1.727   3.851  10.027  1.00  0.00     0.031 A 
ATOM     52  C   UNL     1      -5.347  -1.507   6.979  1.00  0.00     0.031 A 
ATOM     53  C   UNL     1      -3.127   3.813   9.621  1.00  0.00     0.049 A 
ATOM     54  C   UNL     1      -6.099  -0.679   8.002  1.00  0.00     0.074 A 
ATOM     55  C   UNL     1      -3.787   4.270   8.491  1.00  0.00     0.029 A 
ATOM     56  N   UNL     1      -4.013   2.974  10.282  1.00  0.00    -0.354 N 
ATOM     57  N   UNL     1      -5.652   0.435   8.510  1.00  0.00    -0.248 NA
ATOM     58  C   UNL     1      -7.393  -1.059   8.563  1.00  0.00     0.031 C 
ATOM     59  C   UNL     1      -5.075   3.678   8.463  1.00  0.00     0.029 A 
ATOM     60  C   UNL     1      -5.201   2.879   9.585  1.00  0.00     0.049 A 
ATOM     61  H   UNL     1      -3.821   2.511  11.130  1.00  0.00     0.167 HD
ATOM     62  C   UNL     1      -6.548   0.924   9.427  1.00  0.00     0.074 A 
ATOM     63  C   UNL     1      -7.626  -0.048   9.419  1.00  0.00     0.031 C 
ATOM     64  C   UNL     1      -6.304   2.083  10.109  1.00  0.00     0.031 A 
BRANCH  51  65
ATOM     65  C   UNL     1      -0.970   5.120  10.312  1.00  0.00    -0.014 A 
ATOM     66  C   UNL     1      -1.414   6.339   9.769  1.00  0.00     0.009 A 
ATOM     67  C   UNL     1       0.208   5.166  11.075  1.00  0.00     0.009 A 
ATOM     68  C   UNL     1      -0.669   7.517   9.891  1.00  0.00     0.001 A 
ATOM     69  C   UNL     1       0.979   6.333  11.168  1.00  0.00     0.001 A 
ATOM     70  C   UNL     1       0.545   7.507  10.565  1.00  0.00     0.000 A 
ENDBRANCH  51  65
BRANCH  52  71
ATOM     71  C   UNL     1      -5.074  -2.965   7.117  1.00  0.00    -0.014 A 
ATOM     72  C   UNL     1      -5.067  -3.754   5.949  1.00  0.00     0.009 A 
ATOM     73  C   UNL     1      -4.460  -3.471   8.272  1.00  0.00     0.009 A 
ATOM     74  C   UNL     1      -4.357  -4.957   5.904  1.00  0.00     0.001 A 
ATOM     75  C   UNL     1      -3.760  -4.684   8.224  1.00  0.00     0.001 A 
ATOM     76  C   UNL     1      -3.676  -5.404   7.033  1.00  0.00     0.000 A 
ENDBRANCH  52  71
BRANCH  64  77
ATOM     77  C   UNL     1      -7.078   2.654  11.280  1.00  0.00    -0.014 A 
ATOM     78  C   UNL     1      -8.049   1.970  12.019  1.00  0.00     0.009 A 
ATOM     79  C   UNL     1      -6.737   3.947  11.751  1.00  0.00     0.009 A 
ATOM     80  C   UNL     1      -8.662   2.552  13.141  1.00  0.00     0.001 A 
ATOM     81  C   UNL     1      -7.310   4.513  12.892  1.00  0.00     0.001 A 
ATOM     82  C   UNL     1      -8.284   3.815  13.585  1.00  0.00     0.000 A 
ENDBRANCH  64  77
ENDBRANCH  38  39
ENDBRANCH  30  33
ENDBRANCH  28  29
ENDBRANCH  27  28
ENDBRANCH  26  27
ENDBRANCH  25  26
ENDBRANCH   1  25
TORSDOF 17
