REMARK SMILES Cc1c(CC(=O)NCCCCCCNC(=O)c2ccc(-c3c4nc(c(-c5ccccc5)c5ccc([nH]5)c(-c5ccccc5)c5nc(c(-c6ccccc6)c6ccc3[nH]6)C=C5)C=C4)cc2)c(=O)oc2cc(OCc3c(F)cccc3Cl)ccc12
REMARK SMILES IDX 9 1 8 2 7 3 5 4 6 5 4 7 3 8 1 9 2 10 83 11 65 12 68 13 82 14
REMARK SMILES IDX 66 15 67 16 69 17 81 18 70 19 71 20 72 21 73 22 74 23 79 24
REMARK SMILES IDX 75 25 76 26 78 27 80 28 77 29 10 30 11 31 12 32 13 33 14 34
REMARK SMILES IDX 15 35 16 37 17 38 18 39 64 40 19 41 63 42 20 43 21 44 22 45
REMARK SMILES IDX 57 46 23 47 62 48 56 49 58 50 24 51 61 52 55 53 54 54 25 56
REMARK SMILES IDX 47 57 32 58 46 59 33 60 36 61 45 62 59 63 34 64 35 65 44 67
REMARK SMILES IDX 60 68 37 69 26 70 27 71 31 72 28 73 30 74 29 75 48 76 49 77
REMARK SMILES IDX 53 78 50 79 52 80 51 81 38 82 39 83 43 84 40 85 42 86 41 87
REMARK H PARENT 7 6 14 36 58 55 36 66
REMARK Flexibility Score: inf
ROOT
ATOM      1  C   UNL     1      -1.860  -0.301  -3.458  1.00  0.00     0.021 C 
ENDROOT
BRANCH   1   2
ATOM      2  C   UNL     1      -3.160  -0.652  -2.732  1.00  0.00     0.116 C 
BRANCH   2   3
ATOM      3  N   UNL     1      -3.208  -2.063  -2.409  1.00  0.00    -0.356 N 
ATOM      4  C   UNL     1      -3.112  -2.683  -1.202  1.00  0.00     0.224 C 
ATOM      5  O   UNL     1      -3.122  -3.917  -1.188  1.00  0.00    -0.275 OA
ATOM      6  H   UNL     1      -3.328  -2.664  -3.179  1.00  0.00     0.163 HD
BRANCH   4   7
ATOM      7  C   UNL     1      -3.048  -1.879   0.094  1.00  0.00     0.143 C 
BRANCH   7   8
ATOM      8  C   UNL     1      -1.778  -1.077   0.285  1.00  0.00     0.051 A 
ATOM      9  C   UNL     1      -0.227  -3.065   0.209  1.00  0.00     0.046 C 
ATOM     10  C   UNL     1      -0.527  -1.591   0.313  1.00  0.00    -0.029 A 
ATOM     11  C   UNL     1       0.625  -0.673   0.404  1.00  0.00     0.021 A 
ATOM     12  C   UNL     1      -2.011   0.384   0.478  1.00  0.00     0.340 A 
ATOM     13  C   UNL     1       0.395   0.698   0.488  1.00  0.00     0.142 A 
ATOM     14  C   UNL     1       1.958  -1.092   0.342  1.00  0.00     0.016 A 
ATOM     15  O   UNL     1      -3.142   0.859   0.534  1.00  0.00    -0.246 OA
ATOM     16  O   UNL     1      -0.907   1.210   0.564  1.00  0.00    -0.422 OA
ATOM     17  C   UNL     1       1.423   1.647   0.448  1.00  0.00     0.094 A 
ATOM     18  C   UNL     1       2.997  -0.158   0.285  1.00  0.00     0.047 A 
ATOM     19  C   UNL     1       2.729   1.212   0.275  1.00  0.00     0.123 A 
BRANCH  19  20
ATOM     20  O   UNL     1       3.809   1.987  -0.038  1.00  0.00    -0.489 OA
BRANCH  20  21
ATOM     21  C   UNL     1       3.623   3.364  -0.368  1.00  0.00     0.270 C 
BRANCH  21  22
ATOM     22  C   UNL     1       2.814   3.757  -1.592  1.00  0.00     0.044 A 
ATOM     23  C   UNL     1       2.449   5.114  -1.658  1.00  0.00     0.131 A 
ATOM     24  C   UNL     1       2.405   2.943  -2.657  1.00  0.00     0.050 A 
ATOM     25  F   UNL     1       2.894   5.961  -0.718  1.00  0.00    -0.207 F 
ATOM     26  C   UNL     1       1.639   5.628  -2.668  1.00  0.00     0.040 A 
ATOM     27  C   UNL     1       1.543   3.443  -3.649  1.00  0.00     0.021 A 
ATOM     28  Cl  UNL     1       2.947   1.323  -2.905  1.00  0.00    -0.084 Cl
ATOM     29  C   UNL     1       1.151   4.780  -3.651  1.00  0.00     0.005 A 
ENDBRANCH  21  22
ENDBRANCH  20  21
ENDBRANCH  19  20
ENDBRANCH   7   8
ENDBRANCH   4   7
ENDBRANCH   2   3
ENDBRANCH   1   2
BRANCH   1  30
ATOM     30  C   UNL     1      -1.746  -0.913  -4.862  1.00  0.00     0.002 C 
BRANCH  30  31
ATOM     31  C   UNL     1      -2.892  -0.564  -5.819  1.00  0.00     0.002 C 
BRANCH  31  32
ATOM     32  C   UNL     1      -3.146   0.933  -6.004  1.00  0.00     0.021 C 
BRANCH  32  33
ATOM     33  C   UNL     1      -1.959   1.710  -6.562  1.00  0.00     0.116 C 
BRANCH  33  34
ATOM     34  N   UNL     1      -1.613   1.286  -7.910  1.00  0.00    -0.352 N 
ATOM     35  C   UNL     1      -1.495   2.033  -9.056  1.00  0.00     0.251 C 
ATOM     36  H   UNL     1      -1.439   0.323  -8.016  1.00  0.00     0.163 HD
ATOM     37  O   UNL     1      -1.399   1.482 -10.146  1.00  0.00    -0.269 OA
BRANCH  35  38
ATOM     38  C   UNL     1      -1.502   3.509  -8.973  1.00  0.00     0.039 A 
ATOM     39  C   UNL     1      -2.259   4.233  -9.897  1.00  0.00     0.014 A 
ATOM     40  C   UNL     1      -0.757   4.176  -7.997  1.00  0.00     0.014 A 
ATOM     41  C   UNL     1      -2.316   5.624  -9.803  1.00  0.00     0.010 A 
ATOM     42  C   UNL     1      -0.876   5.556  -7.857  1.00  0.00     0.010 A 
ATOM     43  C   UNL     1      -1.653   6.295  -8.762  1.00  0.00    -0.014 A 
BRANCH  43  44
ATOM     44  C   UNL     1      -1.767   7.767  -8.605  1.00  0.00     0.031 A 
ATOM     45  C   UNL     1      -0.550   8.642  -8.736  1.00  0.00     0.074 A 
ATOM     46  C   UNL     1      -2.959   8.313  -8.294  1.00  0.00     0.049 A 
ATOM     47  N   UNL     1      -0.450   9.940  -8.598  1.00  0.00    -0.248 NA
ATOM     48  C   UNL     1       0.724   7.970  -9.035  1.00  0.00     0.031 C 
ATOM     49  C   UNL     1      -4.207   7.571  -8.099  1.00  0.00     0.029 A 
ATOM     50  N   UNL     1      -3.316   9.621  -8.085  1.00  0.00    -0.354 N 
ATOM     51  C   UNL     1       0.895  10.236  -8.782  1.00  0.00     0.074 A 
ATOM     52  C   UNL     1       1.581   8.978  -8.983  1.00  0.00     0.031 C 
ATOM     53  C   UNL     1      -5.197   8.438  -7.835  1.00  0.00     0.029 A 
ATOM     54  C   UNL     1      -4.649   9.789  -7.796  1.00  0.00     0.049 A 
ATOM     55  H   UNL     1      -2.677  10.369  -8.136  1.00  0.00     0.167 HD
ATOM     56  C   UNL     1       1.503  11.446  -8.804  1.00  0.00     0.031 A 
ATOM     57  C   UNL     1      -5.352  10.906  -7.527  1.00  0.00     0.031 A 
ATOM     58  C   UNL     1       0.819  12.698  -8.612  1.00  0.00     0.049 A 
ATOM     59  C   UNL     1      -4.649  12.235  -7.533  1.00  0.00     0.074 A 
ATOM     60  C   UNL     1       1.337  13.980  -8.671  1.00  0.00     0.029 A 
ATOM     61  N   UNL     1      -0.530  12.824  -8.318  1.00  0.00    -0.354 N 
ATOM     62  N   UNL     1      -3.390  12.503  -7.781  1.00  0.00    -0.248 NA
ATOM     63  C   UNL     1      -5.469  13.417  -7.232  1.00  0.00     0.031 C 
ATOM     64  C   UNL     1       0.315  14.879  -8.353  1.00  0.00     0.029 A 
ATOM     65  C   UNL     1      -0.855  14.161  -8.162  1.00  0.00     0.049 A 
ATOM     66  H   UNL     1      -1.162  12.074  -8.233  1.00  0.00     0.167 HD
ATOM     67  C   UNL     1      -3.273  13.884  -7.695  1.00  0.00     0.074 A 
ATOM     68  C   UNL     1      -4.592  14.398  -7.391  1.00  0.00     0.031 C 
ATOM     69  C   UNL     1      -2.172  14.658  -7.856  1.00  0.00     0.031 A 
BRANCH  56  70
ATOM     70  C   UNL     1       2.989  11.472  -9.037  1.00  0.00    -0.014 A 
ATOM     71  C   UNL     1       3.539  11.124 -10.281  1.00  0.00     0.009 A 
ATOM     72  C   UNL     1       3.850  11.887  -8.008  1.00  0.00     0.009 A 
ATOM     73  C   UNL     1       4.921  11.152 -10.478  1.00  0.00     0.001 A 
ATOM     74  C   UNL     1       5.229  11.945  -8.218  1.00  0.00     0.001 A 
ATOM     75  C   UNL     1       5.764  11.568  -9.448  1.00  0.00     0.000 A 
ENDBRANCH  56  70
BRANCH  57  76
ATOM     76  C   UNL     1      -6.808  10.819  -7.240  1.00  0.00    -0.014 A 
ATOM     77  C   UNL     1      -7.746  11.333  -8.148  1.00  0.00     0.009 A 
ATOM     78  C   UNL     1      -7.268  10.232  -6.051  1.00  0.00     0.009 A 
ATOM     79  C   UNL     1      -9.112  11.288  -7.858  1.00  0.00     0.001 A 
ATOM     80  C   UNL     1      -8.636  10.158  -5.778  1.00  0.00     0.001 A 
ATOM     81  C   UNL     1      -9.556  10.696  -6.676  1.00  0.00     0.000 A 
ENDBRANCH  57  76
BRANCH  69  82
ATOM     82  C   UNL     1      -2.352  16.146  -7.738  1.00  0.00    -0.014 A 
ATOM     83  C   UNL     1      -2.607  16.757  -6.501  1.00  0.00     0.009 A 
ATOM     84  C   UNL     1      -2.222  16.952  -8.880  1.00  0.00     0.009 A 
ATOM     85  C   UNL     1      -2.763  18.142  -6.417  1.00  0.00     0.001 A 
ATOM     86  C   UNL     1      -2.345  18.339  -8.788  1.00  0.00     0.001 A 
ATOM     87  C   UNL     1      -2.626  18.932  -7.558  1.00  0.00     0.000 A 
ENDBRANCH  69  82
ENDBRANCH  43  44
ENDBRANCH  35  38
ENDBRANCH  33  34
ENDBRANCH  32  33
ENDBRANCH  31  32
ENDBRANCH  30  31
ENDBRANCH   1  30
TORSDOF 17
