REMARK SMILES CN(CC[NH+](C)C)C(=O)N1CC(n2cc(C(=O)NCCCCCCNC(=O)c3ccc(-c4c5nc(c(-c6ccccc6)c6ccc([nH]6)c(-c6ccccc6)c6nc(c(-c7ccccc7)c7ccc4[nH]7)C=C6)C=C5)cc3)nn2)C1
REMARK SMILES IDX 20 1 19 2 18 3 16 4 17 5 15 7 13 8 14 9 77 10 76 11 12 12
REMARK SMILES IDX 8 13 9 14 10 15 11 16 78 17 2 18 1 19 3 20 4 21 5 22 6 23
REMARK SMILES IDX 7 24 21 26 22 27 23 28 24 29 25 30 26 31 27 33 28 34 29 35
REMARK SMILES IDX 75 36 30 37 74 38 31 39 32 40 33 41 68 42 34 43 73 44 67 45
REMARK SMILES IDX 69 46 35 47 72 48 66 49 65 50 36 52 58 53 43 54 57 55 44 56
REMARK SMILES IDX 47 57 56 58 70 59 45 60 46 61 55 63 71 64 48 65 37 66 38 67
REMARK SMILES IDX 42 68 39 69 41 70 40 71 59 72 60 73 64 74 61 75 63 76 62 77
REMARK SMILES IDX 49 78 50 79 54 80 51 81 53 82 52 83
REMARK H PARENT 18 6 5 25 25 32 69 51 47 62
REMARK Flexibility Score: inf
ROOT
ATOM      1  C   UNL     1      -0.580   8.758  -4.712  1.00  0.00     0.021 C 
ENDROOT
BRANCH   1   2
ATOM      2  C   UNL     1       0.769   8.059  -4.882  1.00  0.00     0.116 C 
BRANCH   2   3
ATOM      3  N   UNL     1       1.835   8.835  -4.278  1.00  0.00    -0.351 N 
ATOM      4  C   UNL     1       2.672   8.567  -3.219  1.00  0.00     0.273 C 
ATOM      5  O   UNL     1       3.582   9.368  -3.008  1.00  0.00    -0.267 OA
ATOM      6  H   UNL     1       1.988   9.710  -4.702  1.00  0.00     0.163 HD
BRANCH   4   7
ATOM      7  C   UNL     1       2.507   7.358  -2.424  1.00  0.00     0.170 A 
ATOM      8  N   UNL     1       1.858   5.496  -1.526  1.00  0.00    -0.245 N 
ATOM      9  C   UNL     1       1.374   6.627  -2.120  1.00  0.00     0.145 A 
ATOM     10  N   UNL     1       3.177   5.586  -1.312  1.00  0.00    -0.066 NA
ATOM     11  N   UNL     1       3.585   6.735  -1.832  1.00  0.00    -0.125 NA
BRANCH   8  12
ATOM     12  C   UNL     1       1.089   4.297  -1.414  1.00  0.00     0.148 C 
ATOM     13  C   UNL     1       0.486   1.272  -1.872  1.00  0.00     0.320 C 
ATOM     14  O   UNL     1      -0.536   1.349  -1.197  1.00  0.00    -0.248 OA
ATOM     15  N   UNL     1       1.409   2.299  -1.905  1.00  0.00    -0.320 N 
ATOM     16  C   UNL     1       1.760   3.116  -0.724  1.00  0.00     0.150 C 
ATOM     17  C   UNL     1       1.200   3.497  -2.722  1.00  0.00     0.150 C 
BRANCH  13  18
ATOM     18  N   UNL     1       0.875   0.152  -2.595  1.00  0.00    -0.322 N 
ATOM     19  C   UNL     1       2.000   0.187  -3.518  1.00  0.00     0.149 C 
BRANCH  18  20
ATOM     20  C   UNL     1       0.240  -1.138  -2.326  1.00  0.00     0.182 C 
BRANCH  20  21
ATOM     21  C   UNL     1       0.859  -1.941  -1.145  1.00  0.00     0.283 C 
BRANCH  21  22
ATOM     22  N   UNL     1       0.502  -1.616   0.247  1.00  0.00    -0.338 N 
ATOM     23  C   UNL     1       1.298  -0.542   0.824  1.00  0.00     0.332 C 
ATOM     24  C   UNL     1      -0.928  -1.459   0.472  1.00  0.00     0.332 C 
ATOM     25  H   UNL     1       0.761  -2.450   0.775  1.00  0.00     0.347 HD
ENDBRANCH  21  22
ENDBRANCH  20  21
ENDBRANCH  18  20
ENDBRANCH  13  18
ENDBRANCH   8  12
ENDBRANCH   4   7
ENDBRANCH   2   3
ENDBRANCH   1   2
BRANCH   1  26
ATOM     26  C   UNL     1      -0.806   9.910  -5.702  1.00  0.00     0.002 C 
BRANCH  26  27
ATOM     27  C   UNL     1      -0.692   9.542  -7.191  1.00  0.00     0.002 C 
BRANCH  27  28
ATOM     28  C   UNL     1      -1.520   8.336  -7.660  1.00  0.00     0.021 C 
BRANCH  28  29
ATOM     29  C   UNL     1      -3.020   8.583  -7.625  1.00  0.00     0.116 C 
BRANCH  29  30
ATOM     30  N   UNL     1      -3.438   9.588  -8.602  1.00  0.00    -0.352 N 
ATOM     31  C   UNL     1      -4.707  10.080  -8.847  1.00  0.00     0.251 C 
ATOM     32  H   UNL     1      -2.719   9.965  -9.160  1.00  0.00     0.163 HD
ATOM     33  O   UNL     1      -4.981  10.629  -9.899  1.00  0.00    -0.269 OA
BRANCH  31  34
ATOM     34  C   UNL     1      -5.725   9.939  -7.792  1.00  0.00     0.039 A 
ATOM     35  C   UNL     1      -7.054   9.621  -8.091  1.00  0.00     0.014 A 
ATOM     36  C   UNL     1      -5.313  10.122  -6.476  1.00  0.00     0.014 A 
ATOM     37  C   UNL     1      -7.947   9.416  -7.042  1.00  0.00     0.010 A 
ATOM     38  C   UNL     1      -6.139   9.753  -5.452  1.00  0.00     0.010 A 
ATOM     39  C   UNL     1      -7.474   9.472  -5.724  1.00  0.00    -0.014 A 
BRANCH  39  40
ATOM     40  C   UNL     1      -8.318   9.124  -4.588  1.00  0.00     0.031 A 
ATOM     41  C   UNL     1      -8.831   7.728  -4.614  1.00  0.00     0.074 A 
ATOM     42  C   UNL     1      -8.368   9.905  -3.485  1.00  0.00     0.049 A 
ATOM     43  N   UNL     1     -10.061   7.338  -4.667  1.00  0.00    -0.248 NA
ATOM     44  C   UNL     1      -7.854   6.629  -4.727  1.00  0.00     0.031 C 
ATOM     45  C   UNL     1      -7.624  11.148  -3.228  1.00  0.00     0.029 A 
ATOM     46  N   UNL     1      -8.970   9.675  -2.288  1.00  0.00    -0.354 N 
ATOM     47  C   UNL     1     -10.022   5.947  -4.602  1.00  0.00     0.074 A 
ATOM     48  C   UNL     1      -8.654   5.569  -4.844  1.00  0.00     0.031 C 
ATOM     49  C   UNL     1      -7.609  11.402  -1.901  1.00  0.00     0.029 A 
ATOM     50  C   UNL     1      -8.477  10.447  -1.239  1.00  0.00     0.049 A 
ATOM     51  H   UNL     1      -9.694   9.018  -2.172  1.00  0.00     0.167 HD
ATOM     52  C   UNL     1     -11.055   5.237  -4.067  1.00  0.00     0.031 A 
ATOM     53  C   UNL     1      -8.729  10.287   0.085  1.00  0.00     0.031 A 
ATOM     54  C   UNL     1     -12.240   6.046  -3.939  1.00  0.00     0.049 A 
ATOM     55  C   UNL     1      -9.939   9.443   0.201  1.00  0.00     0.074 A 
ATOM     56  C   UNL     1     -13.040   6.755  -4.813  1.00  0.00     0.029 A 
ATOM     57  N   UNL     1     -12.516   6.540  -2.686  1.00  0.00    -0.354 N 
ATOM     58  N   UNL     1     -11.122   9.834  -0.174  1.00  0.00    -0.248 NA
ATOM     59  C   UNL     1      -9.757   8.004   0.298  1.00  0.00     0.031 C 
ATOM     60  C   UNL     1     -13.385   7.945  -4.107  1.00  0.00     0.029 A 
ATOM     61  C   UNL     1     -12.851   7.861  -2.820  1.00  0.00     0.049 A 
ATOM     62  H   UNL     1     -12.480   6.034  -1.842  1.00  0.00     0.167 HD
ATOM     63  C   UNL     1     -11.672   8.725  -0.800  1.00  0.00     0.074 A 
ATOM     64  C   UNL     1     -10.834   7.601  -0.384  1.00  0.00     0.031 C 
ATOM     65  C   UNL     1     -12.565   8.869  -1.824  1.00  0.00     0.031 A 
BRANCH  52  66
ATOM     66  C   UNL     1     -10.865   3.985  -3.241  1.00  0.00    -0.014 A 
ATOM     67  C   UNL     1     -12.008   3.337  -2.736  1.00  0.00     0.009 A 
ATOM     68  C   UNL     1      -9.628   3.595  -2.693  1.00  0.00     0.009 A 
ATOM     69  C   UNL     1     -11.921   2.424  -1.678  1.00  0.00     0.001 A 
ATOM     70  C   UNL     1      -9.534   2.652  -1.667  1.00  0.00     0.001 A 
ATOM     71  C   UNL     1     -10.685   2.090  -1.137  1.00  0.00     0.000 A 
ENDBRANCH  52  66
BRANCH  53  72
ATOM     72  C   UNL     1      -7.866  10.582   1.250  1.00  0.00    -0.014 A 
ATOM     73  C   UNL     1      -8.409  10.686   2.541  1.00  0.00     0.009 A 
ATOM     74  C   UNL     1      -6.466  10.489   1.139  1.00  0.00     0.009 A 
ATOM     75  C   UNL     1      -7.587  10.656   3.677  1.00  0.00     0.001 A 
ATOM     76  C   UNL     1      -5.645  10.460   2.272  1.00  0.00     0.001 A 
ATOM     77  C   UNL     1      -6.207  10.527   3.542  1.00  0.00     0.000 A 
ENDBRANCH  53  72
BRANCH  65  78
ATOM     78  C   UNL     1     -13.118  10.249  -2.091  1.00  0.00    -0.014 A 
ATOM     79  C   UNL     1     -12.321  11.345  -2.469  1.00  0.00     0.009 A 
ATOM     80  C   UNL     1     -14.511  10.404  -2.111  1.00  0.00     0.009 A 
ATOM     81  C   UNL     1     -12.904  12.567  -2.826  1.00  0.00     0.001 A 
ATOM     82  C   UNL     1     -15.094  11.615  -2.488  1.00  0.00     0.001 A 
ATOM     83  C   UNL     1     -14.291  12.698  -2.840  1.00  0.00     0.000 A 
ENDBRANCH  65  78
ENDBRANCH  39  40
ENDBRANCH  31  34
ENDBRANCH  29  30
ENDBRANCH  28  29
ENDBRANCH  27  28
ENDBRANCH  26  27
ENDBRANCH   1  26
TORSDOF 18
