REMARK SMILES O=C(NCCCCCCNC(=O)[C@@H]1C[C@@H]1C(=O)N1CCN(c2ncc(C(F)(F)F)cc2Cl)CC1)c1ccc(-c2c3nc(c(-c4ccccc4)c4ccc([nH]4)c(-c4ccccc4)c4nc(c(-c5ccccc5)c5ccc2[nH]5)C=C4)C=C3)cc1
REMARK SMILES IDX 7 1 6 2 5 3 4 4 3 5 1 6 2 7 35 9 36 10 82 11 37 12 81 13
REMARK SMILES IDX 38 14 39 15 40 16 75 17 41 18 80 19 74 20 76 21 42 22 79 23
REMARK SMILES IDX 73 24 72 25 43 27 65 28 50 29 64 30 51 31 54 32 63 33 77 34
REMARK SMILES IDX 52 35 53 36 62 38 78 39 55 40 44 41 45 42 49 43 46 44 48 45
REMARK SMILES IDX 47 46 66 47 67 48 71 49 68 50 70 51 69 52 56 53 57 54 61 55
REMARK SMILES IDX 58 56 60 57 59 58 8 59 9 60 10 61 11 62 12 64 13 65 14 66
REMARK SMILES IDX 15 67 16 68 17 69 18 70 19 71 34 72 20 73 33 74 21 75 22 76
REMARK SMILES IDX 23 77 31 78 24 79 30 80 32 81 25 82 26 83 27 84 28 85 29 86
REMARK H PARENT 3 8 76 26 54 37 10 63
REMARK Flexibility Score: inf
ROOT
ATOM      1  C   UNL     1       3.860   4.574   0.785  1.00  0.00     0.002 C 
ENDROOT
BRANCH   1   2
ATOM      2  C   UNL     1       3.462   3.957  -0.564  1.00  0.00     0.002 C 
BRANCH   2   3
ATOM      3  C   UNL     1       4.190   2.669  -0.961  1.00  0.00     0.021 C 
BRANCH   3   4
ATOM      4  C   UNL     1       4.029   1.502   0.006  1.00  0.00     0.116 C 
BRANCH   4   5
ATOM      5  N   UNL     1       2.655   1.048   0.115  1.00  0.00    -0.352 N 
ATOM      6  O   UNL     1       0.886  -0.323  -0.082  1.00  0.00    -0.269 OA
ATOM      7  C   UNL     1       2.106  -0.188  -0.107  1.00  0.00     0.251 C 
ATOM      8  H   UNL     1       2.012   1.741   0.392  1.00  0.00     0.163 HD
BRANCH   7   9
ATOM      9  C   UNL     1       2.960  -1.364  -0.395  1.00  0.00     0.039 A 
ATOM     10  C   UNL     1       4.125  -1.625   0.331  1.00  0.00     0.014 A 
ATOM     11  C   UNL     1       2.536  -2.267  -1.376  1.00  0.00     0.014 A 
ATOM     12  C   UNL     1       4.915  -2.729   0.009  1.00  0.00     0.010 A 
ATOM     13  C   UNL     1       3.291  -3.410  -1.652  1.00  0.00     0.010 A 
ATOM     14  C   UNL     1       4.496  -3.643  -0.972  1.00  0.00    -0.014 A 
BRANCH  14  15
ATOM     15  C   UNL     1       5.276  -4.882  -1.220  1.00  0.00     0.031 A 
ATOM     16  C   UNL     1       5.960  -5.121  -2.538  1.00  0.00     0.074 A 
ATOM     17  C   UNL     1       5.344  -5.812  -0.247  1.00  0.00     0.049 A 
ATOM     18  N   UNL     1       6.653  -6.162  -2.927  1.00  0.00    -0.248 NA
ATOM     19  C   UNL     1       5.850  -4.060  -3.551  1.00  0.00     0.031 C 
ATOM     20  C   UNL     1       4.710  -5.708   1.069  1.00  0.00     0.029 A 
ATOM     21  N   UNL     1       5.975  -7.030  -0.216  1.00  0.00    -0.354 N 
ATOM     22  C   UNL     1       7.047  -5.892  -4.232  1.00  0.00     0.074 A 
ATOM     23  C   UNL     1       6.500  -4.596  -4.576  1.00  0.00     0.031 C 
ATOM     24  C   UNL     1       5.003  -6.803   1.787  1.00  0.00     0.029 A 
ATOM     25  C   UNL     1       5.795  -7.710   0.965  1.00  0.00     0.049 A 
ATOM     26  H   UNL     1       6.506  -7.383  -0.966  1.00  0.00     0.167 HD
ATOM     27  C   UNL     1       7.798  -6.652  -5.064  1.00  0.00     0.031 A 
ATOM     28  C   UNL     1       6.200  -8.937   1.339  1.00  0.00     0.031 A 
ATOM     29  C   UNL     1       8.343  -7.941  -4.722  1.00  0.00     0.049 A 
ATOM     30  C   UNL     1       6.998  -9.772   0.379  1.00  0.00     0.074 A 
ATOM     31  C   UNL     1       9.156  -8.762  -5.486  1.00  0.00     0.029 A 
ATOM     32  N   UNL     1       8.123  -8.601  -3.524  1.00  0.00    -0.354 N 
ATOM     33  N   UNL     1       7.408  -9.475  -0.829  1.00  0.00    -0.248 NA
ATOM     34  C   UNL     1       7.391 -11.111   0.839  1.00  0.00     0.031 C 
ATOM     35  C   UNL     1       9.386  -9.941  -4.769  1.00  0.00     0.029 A 
ATOM     36  C   UNL     1       8.761  -9.830  -3.538  1.00  0.00     0.049 A 
ATOM     37  H   UNL     1       7.592  -8.248  -2.774  1.00  0.00     0.167 HD
ATOM     38  C   UNL     1       8.125 -10.581  -1.266  1.00  0.00     0.074 A 
ATOM     39  C   UNL     1       8.111 -11.545  -0.186  1.00  0.00     0.031 C 
ATOM     40  C   UNL     1       8.737 -10.780  -2.458  1.00  0.00     0.031 A 
BRANCH  27  41
ATOM     41  C   UNL     1       8.071  -6.124  -6.445  1.00  0.00    -0.014 A 
ATOM     42  C   UNL     1       8.985  -5.080  -6.657  1.00  0.00     0.009 A 
ATOM     43  C   UNL     1       7.465  -6.733  -7.555  1.00  0.00     0.009 A 
ATOM     44  C   UNL     1       9.272  -4.646  -7.954  1.00  0.00     0.001 A 
ATOM     45  C   UNL     1       7.771  -6.312  -8.851  1.00  0.00     0.001 A 
ATOM     46  C   UNL     1       8.670  -5.266  -9.049  1.00  0.00     0.000 A 
ENDBRANCH  27  41
BRANCH  28  47
ATOM     47  C   UNL     1       5.835  -9.464   2.679  1.00  0.00    -0.014 A 
ATOM     48  C   UNL     1       6.815  -9.644   3.667  1.00  0.00     0.009 A 
ATOM     49  C   UNL     1       4.505  -9.804   2.970  1.00  0.00     0.009 A 
ATOM     50  C   UNL     1       6.473 -10.180   4.911  1.00  0.00     0.001 A 
ATOM     51  C   UNL     1       4.161 -10.310   4.225  1.00  0.00     0.001 A 
ATOM     52  C   UNL     1       5.147 -10.508   5.190  1.00  0.00     0.000 A 
ENDBRANCH  28  47
BRANCH  40  53
ATOM     53  C   UNL     1       9.470 -12.079  -2.639  1.00  0.00    -0.014 A 
ATOM     54  C   UNL     1       8.778 -13.286  -2.817  1.00  0.00     0.009 A 
ATOM     55  C   UNL     1      10.874 -12.088  -2.656  1.00  0.00     0.009 A 
ATOM     56  C   UNL     1       9.478 -14.484  -2.973  1.00  0.00     0.001 A 
ATOM     57  C   UNL     1      11.571 -13.283  -2.839  1.00  0.00     0.001 A 
ATOM     58  C   UNL     1      10.873 -14.481  -2.988  1.00  0.00     0.000 A 
ENDBRANCH  40  53
ENDBRANCH  14  15
ENDBRANCH   7   9
ENDBRANCH   4   5
ENDBRANCH   3   4
ENDBRANCH   2   3
ENDBRANCH   1   2
BRANCH   1  59
ATOM     59  C   UNL     1       5.363   4.671   1.060  1.00  0.00     0.021 C 
BRANCH  59  60
ATOM     60  C   UNL     1       6.178   5.399  -0.008  1.00  0.00     0.116 C 
BRANCH  60  61
ATOM     61  N   UNL     1       6.345   6.798   0.272  1.00  0.00    -0.356 N 
ATOM     62  C   UNL     1       7.462   7.558   0.442  1.00  0.00     0.223 C 
ATOM     63  H   UNL     1       5.500   7.298   0.355  1.00  0.00     0.163 HD
ATOM     64  O   UNL     1       7.305   8.777   0.516  1.00  0.00    -0.275 OA
BRANCH  62  65
ATOM     65  C   UNL     1       8.840   7.042   0.654  1.00  0.00     0.091 C 
ATOM     66  C   UNL     1       9.737   7.299  -0.557  1.00  0.00     0.028 C 
ATOM     67  C   UNL     1       9.768   5.976   0.132  1.00  0.00     0.092 C 
BRANCH  67  68
ATOM     68  C   UNL     1       9.439   4.719  -0.571  1.00  0.00     0.226 C 
ATOM     69  O   UNL     1       9.326   4.708  -1.798  1.00  0.00    -0.275 OA
ATOM     70  N   UNL     1       9.351   3.572   0.216  1.00  0.00    -0.339 N 
ATOM     71  C   UNL     1       9.154   2.287  -0.478  1.00  0.00     0.141 C 
ATOM     72  C   UNL     1       8.997   3.633   1.648  1.00  0.00     0.141 C 
ATOM     73  C   UNL     1       9.446   1.044   0.385  1.00  0.00     0.139 C 
ATOM     74  C   UNL     1       9.254   2.343   2.442  1.00  0.00     0.139 C 
ATOM     75  N   UNL     1       8.759   1.202   1.669  1.00  0.00    -0.352 N 
BRANCH  75  76
ATOM     76  C   UNL     1       8.350   0.069   2.349  1.00  0.00     0.147 A 
ATOM     77  N   UNL     1       9.087  -1.058   2.199  1.00  0.00    -0.237 NA
ATOM     78  C   UNL     1       7.173   0.050   3.120  1.00  0.00     0.084 A 
ATOM     79  C   UNL     1       8.677  -2.196   2.815  1.00  0.00     0.126 A 
ATOM     80  C   UNL     1       6.757  -1.138   3.721  1.00  0.00     0.039 A 
ATOM     81  Cl  UNL     1       6.141   1.427   3.299  1.00  0.00    -0.080 Cl
ATOM     82  C   UNL     1       7.519  -2.297   3.567  1.00  0.00     0.075 A 
BRANCH  82  83
ATOM     83  C   UNL     1       7.119  -3.589   4.208  1.00  0.00     0.417 C 
ATOM     84  F   UNL     1       7.689  -4.679   3.631  1.00  0.00    -0.166 F 
ATOM     85  F   UNL     1       7.458  -3.635   5.524  1.00  0.00    -0.166 F 
ATOM     86  F   UNL     1       5.774  -3.797   4.160  1.00  0.00    -0.166 F 
ENDBRANCH  82  83
ENDBRANCH  75  76
ENDBRANCH  67  68
ENDBRANCH  62  65
ENDBRANCH  60  61
ENDBRANCH  59  60
ENDBRANCH   1  59
TORSDOF 16
