REMARK SMILES C[C@H]1[C@H](C)CC[C@@]2(C(=O)NCCCCCCNC(=O)c3ccc(-c4c5nc(c(-c6ccccc6)c6ccc([nH]6)c(-c6ccccc6)c6nc(c(-c7ccccc7)c7ccc4[nH]7)C=C6)C=C5)cc3)CC[C@@]3(C)C(=CC[C@@H]4[C@@]5(C)CC[C@H](O)C(C)(C)[C@@H]5CC[C@]43C)[C@H]12
REMARK SMILES IDX 14 1 13 2 12 3 11 4 10 5 8 6 9 7 7 9 1 10 2 11 3 12 90 13
REMARK SMILES IDX 4 14 5 15 72 16 6 17 68 18 70 19 73 20 69 21 71 22 88 23
REMARK SMILES IDX 74 24 75 25 87 26 89 27 76 28 86 29 77 30 78 31 85 32 79 33
REMARK SMILES IDX 82 34 80 35 83 36 84 37 81 38 15 40 16 41 17 42 18 43 19 45
REMARK SMILES IDX 20 46 21 47 67 48 22 49 66 50 23 51 24 52 25 53 60 54 26 55
REMARK SMILES IDX 65 56 59 57 61 58 27 59 64 60 58 61 57 62 28 64 50 65 35 66
REMARK SMILES IDX 49 67 36 68 39 69 48 70 62 71 37 72 38 73 47 75 63 76 40 77
REMARK SMILES IDX 29 78 30 79 34 80 31 81 33 82 32 83 51 84 52 85 56 86 53 87
REMARK SMILES IDX 55 88 54 89 41 90 42 91 46 92 43 93 45 94 44 95
REMARK H PARENT 10 8 81 39 17 44 61 63 39 74
REMARK Flexibility Score: inf
ROOT
ATOM      1  C   UNL     1      -1.015  -2.038  -0.610  1.00  0.00     0.002 C 
ENDROOT
BRANCH   1   2
ATOM      2  C   UNL     1      -2.309  -1.465  -0.022  1.00  0.00     0.002 C 
BRANCH   2   3
ATOM      3  C   UNL     1      -2.421  -1.245   1.494  1.00  0.00     0.021 C 
BRANCH   3   4
ATOM      4  C   UNL     1      -1.401  -0.330   2.177  1.00  0.00     0.116 C 
BRANCH   4   5
ATOM      5  N   UNL     1      -1.528   1.080   1.860  1.00  0.00    -0.356 N 
ATOM      6  C   UNL     1      -0.900   2.181   2.383  1.00  0.00     0.226 C 
ATOM      7  O   UNL     1      -1.636   3.171   2.496  1.00  0.00    -0.274 OA
ATOM      8  H   UNL     1      -2.177   1.281   1.147  1.00  0.00     0.163 HD
BRANCH   6   9
ATOM      9  C   UNL     1       0.633   2.274   2.756  1.00  0.00     0.056 C 
ATOM     10  C   UNL     1       2.682   0.377  -0.047  1.00  0.00     0.008 C 
ATOM     11  C   UNL     1       1.735   0.571   1.148  1.00  0.00    -0.003 C 
ATOM     12  C   UNL     1       2.253  -0.234   2.389  1.00  0.00    -0.011 C 
ATOM     13  C   UNL     1       1.564   2.069   1.522  1.00  0.00     0.034 C 
ATOM     14  C   UNL     1       2.308  -1.756   2.190  1.00  0.00     0.008 C 
ATOM     15  C   UNL     1       1.476  -0.012   3.696  1.00  0.00     0.005 C 
ATOM     16  C   UNL     1       1.067   3.108   0.487  1.00  0.00    -0.063 C 
ATOM     17  C   UNL     1       0.961   1.382   3.964  1.00  0.00     0.018 C 
ATOM     18  C   UNL     1       0.956   3.728   3.279  1.00  0.00     0.018 C 
ATOM     19  C   UNL     1       1.407   4.593   0.816  1.00  0.00    -0.006 C 
ATOM     20  C   UNL     1       0.143   2.783  -0.442  1.00  0.00    -0.027 C 
ATOM     21  C   UNL     1       0.912   4.884   2.273  1.00  0.00     0.013 C 
ATOM     22  C   UNL     1       2.946   4.789   0.780  1.00  0.00     0.017 C 
ATOM     23  C   UNL     1       0.700   5.625  -0.229  1.00  0.00    -0.020 C 
ATOM     24  C   UNL     1      -0.809   3.777  -1.064  1.00  0.00     0.032 C 
ATOM     25  C   UNL     1      -0.795   5.149  -0.333  1.00  0.00     0.006 C 
ATOM     26  C   UNL     1       0.804   7.101   0.240  1.00  0.00     0.008 C 
ATOM     27  C   UNL     1       1.408   5.584  -1.619  1.00  0.00     0.012 C 
ATOM     28  C   UNL     1      -1.919   6.191  -0.748  1.00  0.00    -0.025 C 
ATOM     29  C   UNL     1      -0.154   8.042  -0.493  1.00  0.00     0.005 C 
ATOM     30  C   UNL     1      -2.143   6.131  -2.269  1.00  0.00     0.012 C 
ATOM     31  C   UNL     1      -3.250   5.779  -0.034  1.00  0.00     0.010 C 
ATOM     32  C   UNL     1      -1.597   7.628  -0.186  1.00  0.00     0.003 C 
ATOM     33  C   UNL     1      -4.400   6.765  -0.237  1.00  0.00     0.033 C 
ATOM     34  C   UNL     1      -2.688   8.733  -0.458  1.00  0.00    -0.006 C 
ATOM     35  C   UNL     1      -4.046   8.214   0.111  1.00  0.00     0.120 C 
ATOM     36  C   UNL     1      -2.794   9.176  -1.933  1.00  0.00     0.014 C 
ATOM     37  C   UNL     1      -2.345  10.035   0.325  1.00  0.00     0.014 C 
BRANCH  35  38
ATOM     38  O   UNL     1      -5.130   9.059  -0.281  1.00  0.00    -0.393 OA
ATOM     39  H   UNL     1      -5.242   9.017  -1.243  1.00  0.00     0.210 HD
ENDBRANCH  35  38
ENDBRANCH   6   9
ENDBRANCH   4   5
ENDBRANCH   3   4
ENDBRANCH   2   3
ENDBRANCH   1   2
BRANCH   1  40
ATOM     40  C   UNL     1      -0.419  -3.295   0.020  1.00  0.00     0.021 C 
BRANCH  40  41
ATOM     41  C   UNL     1      -1.346  -4.466   0.302  1.00  0.00     0.116 C 
BRANCH  41  42
ATOM     42  N   UNL     1      -2.027  -4.973  -0.869  1.00  0.00    -0.352 N 
ATOM     43  C   UNL     1      -2.283  -6.270  -1.241  1.00  0.00     0.251 C 
ATOM     44  H   UNL     1      -2.356  -4.285  -1.492  1.00  0.00     0.163 HD
ATOM     45  O   UNL     1      -2.812  -6.492  -2.325  1.00  0.00    -0.269 OA
BRANCH  43  46
ATOM     46  C   UNL     1      -1.899  -7.411  -0.370  1.00  0.00     0.039 A 
ATOM     47  C   UNL     1      -1.412  -8.568  -0.985  1.00  0.00     0.014 A 
ATOM     48  C   UNL     1      -2.042  -7.379   1.020  1.00  0.00     0.014 A 
ATOM     49  C   UNL     1      -1.041  -9.669  -0.210  1.00  0.00     0.010 A 
ATOM     50  C   UNL     1      -1.587  -8.445   1.800  1.00  0.00     0.010 A 
ATOM     51  C   UNL     1      -1.102  -9.611   1.192  1.00  0.00    -0.014 A 
BRANCH  51  52
ATOM     52  C   UNL     1      -0.671 -10.777   2.007  1.00  0.00     0.031 A 
ATOM     53  C   UNL     1      -1.658 -11.525   2.864  1.00  0.00     0.074 A 
ATOM     54  C   UNL     1       0.617 -11.172   1.965  1.00  0.00     0.049 A 
ATOM     55  N   UNL     1      -1.482 -12.621   3.559  1.00  0.00    -0.248 NA
ATOM     56  C   UNL     1      -3.013 -10.962   2.973  1.00  0.00     0.031 C 
ATOM     57  C   UNL     1       1.683 -10.500   1.218  1.00  0.00     0.029 A 
ATOM     58  N   UNL     1       1.244 -12.247   2.544  1.00  0.00    -0.354 N 
ATOM     59  C   UNL     1      -2.696 -12.873   4.186  1.00  0.00     0.074 A 
ATOM     60  C   UNL     1      -3.582 -11.784   3.842  1.00  0.00     0.031 C 
ATOM     61  C   UNL     1       2.816 -11.210   1.335  1.00  0.00     0.029 A 
ATOM     62  C   UNL     1       2.568 -12.364   2.192  1.00  0.00     0.049 A 
ATOM     63  H   UNL     1       0.790 -12.873   3.152  1.00  0.00     0.167 HD
ATOM     64  C   UNL     1      -3.054 -13.929   4.957  1.00  0.00     0.031 A 
ATOM     65  C   UNL     1       3.477 -13.305   2.509  1.00  0.00     0.031 A 
ATOM     66  C   UNL     1      -2.171 -15.012   5.301  1.00  0.00     0.049 A 
ATOM     67  C   UNL     1       3.055 -14.467   3.364  1.00  0.00     0.074 A 
ATOM     68  C   UNL     1      -2.447 -16.152   6.036  1.00  0.00     0.029 A 
ATOM     69  N   UNL     1      -0.835 -15.086   4.937  1.00  0.00    -0.354 N 
ATOM     70  N   UNL     1       1.879 -14.733   3.879  1.00  0.00    -0.248 NA
ATOM     71  C   UNL     1       4.086 -15.471   3.663  1.00  0.00     0.031 C 
ATOM     72  C   UNL     1      -1.263 -16.886   6.166  1.00  0.00     0.029 A 
ATOM     73  C   UNL     1      -0.266 -16.239   5.453  1.00  0.00     0.049 A 
ATOM     74  H   UNL     1      -0.360 -14.418   4.391  1.00  0.00     0.167 HD
ATOM     75  C   UNL     1       2.021 -15.946   4.540  1.00  0.00     0.074 A 
ATOM     76  C   UNL     1       3.389 -16.375   4.336  1.00  0.00     0.031 C 
ATOM     77  C   UNL     1       1.102 -16.644   5.253  1.00  0.00     0.031 A 
BRANCH  64  78
ATOM     78  C   UNL     1      -4.463 -13.954   5.489  1.00  0.00    -0.014 A 
ATOM     79  C   UNL     1      -5.563 -14.135   4.634  1.00  0.00     0.009 A 
ATOM     80  C   UNL     1      -4.693 -13.827   6.868  1.00  0.00     0.009 A 
ATOM     81  C   UNL     1      -6.864 -14.146   5.144  1.00  0.00     0.001 A 
ATOM     82  C   UNL     1      -5.992 -13.872   7.378  1.00  0.00     0.001 A 
ATOM     83  C   UNL     1      -7.077 -14.020   6.515  1.00  0.00     0.000 A 
ENDBRANCH  64  78
BRANCH  65  84
ATOM     84  C   UNL     1       4.867 -13.207   1.988  1.00  0.00    -0.014 A 
ATOM     85  C   UNL     1       5.344 -14.124   1.039  1.00  0.00     0.009 A 
ATOM     86  C   UNL     1       5.727 -12.196   2.444  1.00  0.00     0.009 A 
ATOM     87  C   UNL     1       6.662 -14.050   0.582  1.00  0.00     0.001 A 
ATOM     88  C   UNL     1       7.034 -12.104   1.961  1.00  0.00     0.001 A 
ATOM     89  C   UNL     1       7.504 -13.037   1.039  1.00  0.00     0.000 A 
ENDBRANCH  65  84
BRANCH  77  90
ATOM     90  C   UNL     1       1.547 -17.958   5.835  1.00  0.00    -0.014 A 
ATOM     91  C   UNL     1       2.479 -18.018   6.883  1.00  0.00     0.009 A 
ATOM     92  C   UNL     1       1.018 -19.155   5.327  1.00  0.00     0.009 A 
ATOM     93  C   UNL     1       2.914 -19.252   7.371  1.00  0.00     0.001 A 
ATOM     94  C   UNL     1       1.426 -20.386   5.843  1.00  0.00     0.001 A 
ATOM     95  C   UNL     1       2.385 -20.434   6.853  1.00  0.00     0.000 A 
ENDBRANCH  77  90
ENDBRANCH  51  52
ENDBRANCH  43  46
ENDBRANCH  41  42
ENDBRANCH  40  41
ENDBRANCH   1  40
TORSDOF 14
