REMARK SMILES CCc1cc(N2CCC(O)(C(=O)NCCCCCCNC(=O)c3ccc(-c4c5nc(c(-c6ccccc6)c6ccc([nH]6)c(-c6ccccc6)c6nc(c(-c7ccccc7)c7ccc4[nH]7)C=C6)C=C5)cc3)CC2)nc(N2CCOCC2)n1
REMARK SMILES IDX 16 1 15 2 14 3 13 4 11 5 12 6 9 8 6 9 7 10 72 11 8 12 71 13
REMARK SMILES IDX 5 14 3 15 4 16 81 17 74 18 73 19 2 20 1 21 75 22 76 23 80 24
REMARK SMILES IDX 77 25 79 26 78 27 10 28 17 30 18 31 19 32 20 33 21 34 22 36
REMARK SMILES IDX 23 37 24 38 70 39 25 40 69 41 26 42 27 43 28 44 63 45 29 46
REMARK SMILES IDX 68 47 62 48 64 49 30 50 67 51 61 52 60 53 31 55 53 56 38 57
REMARK SMILES IDX 52 58 39 59 42 60 51 61 65 62 40 63 41 64 50 66 66 67 43 68
REMARK SMILES IDX 32 69 33 70 37 71 34 72 36 73 35 74 54 75 55 76 59 77 56 78
REMARK SMILES IDX 58 79 57 80 44 81 45 82 49 83 46 84 48 85 47 86
REMARK H PARENT 13 7 10 29 20 35 64 54 42 65
REMARK Flexibility Score: inf
ROOT
ATOM      1  C   UNL     1      -4.614   9.539   4.418  1.00  0.00     0.002 C 
ENDROOT
BRANCH   1   2
ATOM      2  C   UNL     1      -4.233   8.476   3.380  1.00  0.00     0.021 C 
BRANCH   2   3
ATOM      3  C   UNL     1      -3.426   9.031   2.207  1.00  0.00     0.116 C 
BRANCH   3   4
ATOM      4  N   UNL     1      -2.112   9.444   2.653  1.00  0.00    -0.354 N 
ATOM      5  C   UNL     1      -0.892   8.877   2.433  1.00  0.00     0.252 C 
ATOM      6  O   UNL     1       0.073   9.403   2.995  1.00  0.00    -0.272 OA
ATOM      7  H   UNL     1      -2.097  10.261   3.201  1.00  0.00     0.163 HD
BRANCH   5   8
ATOM      8  C   UNL     1      -0.743   7.639   1.504  1.00  0.00     0.146 C 
ATOM      9  N   UNL     1       0.195   4.981   0.974  1.00  0.00    -0.356 N 
ATOM     10  C   UNL     1      -1.227   5.207   1.157  1.00  0.00     0.121 C 
ATOM     11  C   UNL     1       1.047   6.078   0.550  1.00  0.00     0.121 C 
ATOM     12  C   UNL     1      -1.433   6.398   2.084  1.00  0.00     0.067 C 
ATOM     13  C   UNL     1       0.766   7.345   1.344  1.00  0.00     0.067 C 
BRANCH   9  14
ATOM     14  C   UNL     1       0.763   3.887   1.598  1.00  0.00     0.134 A 
ATOM     15  C   UNL     1       1.030   1.559   1.769  1.00  0.00     0.048 A 
ATOM     16  C   UNL     1       0.370   2.626   1.208  1.00  0.00     0.071 A 
ATOM     17  N   UNL     1       2.008   1.727   2.676  1.00  0.00    -0.218 NA
ATOM     18  C   UNL     1       2.276   2.982   3.069  1.00  0.00     0.227 A 
ATOM     19  N   UNL     1       1.692   4.071   2.546  1.00  0.00    -0.196 NA
BRANCH  15  20
ATOM     20  C   UNL     1       0.674   0.155   1.360  1.00  0.00     0.053 C 
ATOM     21  C   UNL     1       1.128  -0.157  -0.058  1.00  0.00     0.011 C 
ENDBRANCH  15  20
BRANCH  18  22
ATOM     22  N   UNL     1       3.190   3.159   4.061  1.00  0.00    -0.336 N 
ATOM     23  C   UNL     1       2.869   3.923   5.252  1.00  0.00     0.148 C 
ATOM     24  C   UNL     1       4.536   2.638   3.934  1.00  0.00     0.148 C 
ATOM     25  C   UNL     1       3.948   4.984   5.498  1.00  0.00     0.181 C 
ATOM     26  C   UNL     1       5.526   3.785   4.207  1.00  0.00     0.181 C 
ATOM     27  O   UNL     1       5.272   4.415   5.478  1.00  0.00    -0.378 OA
ENDBRANCH  18  22
ENDBRANCH   9  14
BRANCH   8  28
ATOM     28  O   UNL     1      -1.346   7.936   0.234  1.00  0.00    -0.380 OA
ATOM     29  H   UNL     1      -2.291   8.116   0.359  1.00  0.00     0.212 HD
ENDBRANCH   8  28
ENDBRANCH   5   8
ENDBRANCH   3   4
ENDBRANCH   2   3
ENDBRANCH   1   2
BRANCH   1  30
ATOM     30  C   UNL     1      -5.419  10.716   3.860  1.00  0.00     0.002 C 
BRANCH  30  31
ATOM     31  C   UNL     1      -6.690  10.317   3.109  1.00  0.00     0.021 C 
BRANCH  31  32
ATOM     32  C   UNL     1      -7.688   9.535   3.953  1.00  0.00     0.116 C 
BRANCH  32  33
ATOM     33  N   UNL     1      -8.214  10.336   5.048  1.00  0.00    -0.352 N 
ATOM     34  C   UNL     1      -9.521  10.615   5.357  1.00  0.00     0.251 C 
ATOM     35  H   UNL     1      -7.542  10.731   5.649  1.00  0.00     0.163 HD
ATOM     36  O   UNL     1      -9.799  11.480   6.183  1.00  0.00    -0.269 OA
BRANCH  34  37
ATOM     37  C   UNL     1     -10.596   9.873   4.672  1.00  0.00     0.039 A 
ATOM     38  C   UNL     1     -11.684  10.574   4.148  1.00  0.00     0.014 A 
ATOM     39  C   UNL     1     -10.514   8.484   4.535  1.00  0.00     0.014 A 
ATOM     40  C   UNL     1     -12.666   9.886   3.434  1.00  0.00     0.010 A 
ATOM     41  C   UNL     1     -11.447   7.814   3.755  1.00  0.00     0.010 A 
ATOM     42  C   UNL     1     -12.539   8.506   3.207  1.00  0.00    -0.014 A 
BRANCH  42  43
ATOM     43  C   UNL     1     -13.540   7.752   2.414  1.00  0.00     0.031 A 
ATOM     44  C   UNL     1     -14.330   6.651   3.065  1.00  0.00     0.074 A 
ATOM     45  C   UNL     1     -13.673   7.990   1.097  1.00  0.00     0.049 A 
ATOM     46  N   UNL     1     -15.168   5.803   2.524  1.00  0.00    -0.248 NA
ATOM     47  C   UNL     1     -14.124   6.458   4.509  1.00  0.00     0.031 C 
ATOM     48  C   UNL     1     -12.938   9.006   0.340  1.00  0.00     0.029 A 
ATOM     49  N   UNL     1     -14.463   7.379   0.156  1.00  0.00    -0.354 N 
ATOM     50  C   UNL     1     -15.566   4.962   3.555  1.00  0.00     0.074 A 
ATOM     51  C   UNL     1     -14.835   5.366   4.737  1.00  0.00     0.031 C 
ATOM     52  C   UNL     1     -13.323   8.957  -0.945  1.00  0.00     0.029 A 
ATOM     53  C   UNL     1     -14.293   7.879  -1.112  1.00  0.00     0.049 A 
ATOM     54  H   UNL     1     -15.092   6.652   0.369  1.00  0.00     0.167 HD
ATOM     55  C   UNL     1     -16.470   3.954   3.527  1.00  0.00     0.031 A 
ATOM     56  C   UNL     1     -14.841   7.500  -2.282  1.00  0.00     0.031 A 
ATOM     57  C   UNL     1     -17.192   3.556   2.349  1.00  0.00     0.049 A 
ATOM     58  C   UNL     1     -15.827   6.367  -2.300  1.00  0.00     0.074 A 
ATOM     59  C   UNL     1     -18.172   2.587   2.225  1.00  0.00     0.029 A 
ATOM     60  N   UNL     1     -17.004   4.100   1.087  1.00  0.00    -0.354 N 
ATOM     61  N   UNL     1     -16.247   5.623  -1.305  1.00  0.00    -0.248 NA
ATOM     62  C   UNL     1     -16.424   6.028  -3.599  1.00  0.00     0.031 C 
ATOM     63  C   UNL     1     -18.530   2.500   0.875  1.00  0.00     0.029 A 
ATOM     64  C   UNL     1     -17.827   3.465   0.172  1.00  0.00     0.049 A 
ATOM     65  H   UNL     1     -16.379   4.830   0.874  1.00  0.00     0.167 HD
ATOM     66  C   UNL     1     -17.179   4.749  -1.850  1.00  0.00     0.074 A 
ATOM     67  C   UNL     1     -17.267   5.061  -3.263  1.00  0.00     0.031 C 
ATOM     68  C   UNL     1     -17.902   3.783  -1.233  1.00  0.00     0.031 A 
BRANCH  55  69
ATOM     69  C   UNL     1     -16.696   3.199   4.810  1.00  0.00    -0.014 A 
ATOM     70  C   UNL     1     -17.280   3.813   5.931  1.00  0.00     0.009 A 
ATOM     71  C   UNL     1     -16.311   1.853   4.901  1.00  0.00     0.009 A 
ATOM     72  C   UNL     1     -17.415   3.114   7.132  1.00  0.00     0.001 A 
ATOM     73  C   UNL     1     -16.483   1.145   6.092  1.00  0.00     0.001 A 
ATOM     74  C   UNL     1     -17.018   1.780   7.211  1.00  0.00     0.000 A 
ENDBRANCH  55  69
BRANCH  56  75
ATOM     75  C   UNL     1     -14.467   8.217  -3.529  1.00  0.00    -0.014 A 
ATOM     76  C   UNL     1     -15.377   9.082  -4.156  1.00  0.00     0.009 A 
ATOM     77  C   UNL     1     -13.183   8.071  -4.077  1.00  0.00     0.009 A 
ATOM     78  C   UNL     1     -15.012   9.775  -5.313  1.00  0.00     0.001 A 
ATOM     79  C   UNL     1     -12.811   8.788  -5.217  1.00  0.00     0.001 A 
ATOM     80  C   UNL     1     -13.728   9.634  -5.837  1.00  0.00     0.000 A 
ENDBRANCH  56  75
BRANCH  68  81
ATOM     81  C   UNL     1     -18.889   3.012  -2.067  1.00  0.00    -0.014 A 
ATOM     82  C   UNL     1     -18.470   2.063  -3.012  1.00  0.00     0.009 A 
ATOM     83  C   UNL     1     -20.264   3.193  -1.849  1.00  0.00     0.009 A 
ATOM     84  C   UNL     1     -19.411   1.329  -3.737  1.00  0.00     0.001 A 
ATOM     85  C   UNL     1     -21.201   2.436  -2.552  1.00  0.00     0.001 A 
ATOM     86  C   UNL     1     -20.773   1.509  -3.501  1.00  0.00     0.000 A 
ENDBRANCH  68  81
ENDBRANCH  42  43
ENDBRANCH  34  37
ENDBRANCH  32  33
ENDBRANCH  31  32
ENDBRANCH  30  31
ENDBRANCH   1  30
TORSDOF 17
