REMARK SMILES Cc1ccccc1C(=O)Nc1cc(C(=O)NCCCCCCNC(=O)c2ccc(-c3c4nc(c(-c5ccccc5)c5ccc([nH]5)c(-c5ccccc5)c5nc(c(-c6ccccc6)c6ccc3[nH]6)C=C5)C=C4)cc2)ccc1N1CC[NH+](CC(=O)Nc2ccc(F)cc2)CC1
REMARK SMILES IDX 18 1 17 2 16 3 14 4 15 5 13 7 11 8 12 9 76 10 75 11 74 12
REMARK SMILES IDX 10 13 8 14 9 15 7 17 1 18 2 19 3 20 4 21 6 22 5 23 77 24
REMARK SMILES IDX 78 25 93 26 79 27 92 28 80 29 81 31 82 32 83 33 84 34 85 36
REMARK SMILES IDX 86 37 91 38 87 39 90 40 88 41 89 42 19 43 20 44 21 45 22 46
REMARK SMILES IDX 23 47 24 48 25 50 26 51 27 52 73 53 28 54 72 55 29 56 30 57
REMARK SMILES IDX 31 58 66 59 32 60 71 61 65 62 67 63 33 64 70 65 64 66 63 67
REMARK SMILES IDX 34 69 56 70 41 71 55 72 42 73 45 74 54 75 68 76 43 77 44 78
REMARK SMILES IDX 53 80 69 81 46 82 35 83 36 84 40 85 37 86 39 87 38 88 57 89
REMARK SMILES IDX 58 90 62 91 59 92 61 93 60 94 47 95 48 96 52 97 49 98 51 99
REMARK SMILES IDX 50 100
REMARK H PARENT 16 6 10 16 80 30 84 35 23 49 67 68 45 79
REMARK Flexibility Score: inf
ROOT
ATOM      1  C   UNL     1       1.128  -0.725  -4.133  1.00  0.00     0.021 C 
ENDROOT
BRANCH   1   2
ATOM      2  C   UNL     1       1.249  -1.534  -2.838  1.00  0.00     0.116 C 
BRANCH   2   3
ATOM      3  N   UNL     1       2.470  -2.318  -2.814  1.00  0.00    -0.352 N 
ATOM      4  C   UNL     1       3.726  -2.087  -2.308  1.00  0.00     0.251 C 
ATOM      5  O   UNL     1       4.552  -2.994  -2.422  1.00  0.00    -0.269 OA
ATOM      6  H   UNL     1       2.379  -3.196  -3.250  1.00  0.00     0.163 HD
BRANCH   4   7
ATOM      7  C   UNL     1       4.123  -0.842  -1.587  1.00  0.00     0.042 A 
ATOM      8  C   UNL     1       3.698   1.382  -0.737  1.00  0.00     0.065 A 
ATOM      9  C   UNL     1       3.387   0.330  -1.598  1.00  0.00     0.042 A 
ATOM     10  C   UNL     1       4.893   1.405   0.038  1.00  0.00     0.061 A 
ATOM     11  C   UNL     1       5.688   0.253  -0.051  1.00  0.00     0.029 A 
ATOM     12  C   UNL     1       5.293  -0.863  -0.815  1.00  0.00     0.016 A 
BRANCH   8  13
ATOM     13  N   UNL     1       2.788   2.445  -0.673  1.00  0.00    -0.320 N 
ATOM     14  C   UNL     1       1.463   2.443  -0.267  1.00  0.00     0.255 C 
ATOM     15  O   UNL     1       0.947   3.545  -0.046  1.00  0.00    -0.269 OA
ATOM     16  H   UNL     1       3.141   3.319  -0.959  1.00  0.00     0.170 HD
BRANCH  14  17
ATOM     17  C   UNL     1       0.601   1.233  -0.069  1.00  0.00     0.043 A 
ATOM     18  C   UNL     1       2.112  -0.218   1.466  1.00  0.00     0.045 C 
ATOM     19  C   UNL     1       0.879   0.053   0.654  1.00  0.00    -0.038 A 
ATOM     20  C   UNL     1      -0.089  -0.981   0.673  1.00  0.00     0.004 A 
ATOM     21  C   UNL     1      -1.347  -0.816   0.097  1.00  0.00     0.000 A 
ATOM     22  C   UNL     1      -0.698   1.391  -0.602  1.00  0.00     0.014 A 
ATOM     23  C   UNL     1      -1.664   0.388  -0.511  1.00  0.00     0.001 A 
ENDBRANCH  14  17
ENDBRANCH   8  13
BRANCH  10  24
ATOM     24  N   UNL     1       5.241   2.464   0.873  1.00  0.00    -0.359 N 
ATOM     25  C   UNL     1       6.597   2.624   1.472  1.00  0.00     0.178 C 
ATOM     26  C   UNL     1       4.221   3.107   1.700  1.00  0.00     0.178 C 
ATOM     27  C   UNL     1       6.843   4.063   2.079  1.00  0.00     0.284 C 
ATOM     28  C   UNL     1       4.540   4.603   1.730  1.00  0.00     0.284 C 
ATOM     29  N   UNL     1       5.696   4.857   2.580  1.00  0.00    -0.324 N 
ATOM     30  H   UNL     1       5.992   5.831   2.504  1.00  0.00     0.348 HD
BRANCH  29  31
ATOM     31  C   UNL     1       5.395   4.825   4.031  1.00  0.00     0.364 C 
BRANCH  31  32
ATOM     32  C   UNL     1       5.222   3.464   4.703  1.00  0.00     0.279 C 
ATOM     33  O   UNL     1       6.212   2.733   4.862  1.00  0.00    -0.268 OA
ATOM     34  N   UNL     1       4.046   2.990   5.222  1.00  0.00    -0.321 N 
ATOM     35  H   UNL     1       4.212   2.285   5.889  1.00  0.00     0.170 HD
BRANCH  34  36
ATOM     36  C   UNL     1       2.663   3.230   5.067  1.00  0.00     0.041 A 
ATOM     37  C   UNL     1       1.804   2.435   5.848  1.00  0.00     0.029 A 
ATOM     38  C   UNL     1       2.075   4.079   4.135  1.00  0.00     0.029 A 
ATOM     39  C   UNL     1       0.415   2.449   5.658  1.00  0.00     0.041 A 
ATOM     40  C   UNL     1       0.691   4.054   3.893  1.00  0.00     0.041 A 
ATOM     41  C   UNL     1      -0.127   3.238   4.657  1.00  0.00     0.123 A 
ATOM     42  F   UNL     1      -1.447   3.215   4.432  1.00  0.00    -0.207 F 
ENDBRANCH  34  36
ENDBRANCH  31  32
ENDBRANCH  29  31
ENDBRANCH  10  24
ENDBRANCH   4   7
ENDBRANCH   2   3
ENDBRANCH   1   2
BRANCH   1  43
ATOM     43  C   UNL     1       0.424  -1.482  -5.264  1.00  0.00     0.002 C 
BRANCH  43  44
ATOM     44  C   UNL     1      -0.999  -1.977  -4.951  1.00  0.00     0.002 C 
BRANCH  44  45
ATOM     45  C   UNL     1      -1.944  -0.934  -4.350  1.00  0.00     0.021 C 
BRANCH  45  46
ATOM     46  C   UNL     1      -2.392   0.120  -5.350  1.00  0.00     0.116 C 
BRANCH  46  47
ATOM     47  N   UNL     1      -3.573  -0.265  -6.109  1.00  0.00    -0.352 N 
ATOM     48  C   UNL     1      -4.182   0.341  -7.199  1.00  0.00     0.251 C 
ATOM     49  H   UNL     1      -4.012  -1.089  -5.798  1.00  0.00     0.163 HD
ATOM     50  O   UNL     1      -5.211  -0.112  -7.647  1.00  0.00    -0.269 OA
BRANCH  48  51
ATOM     51  C   UNL     1      -3.485   1.452  -7.904  1.00  0.00     0.039 A 
ATOM     52  C   UNL     1      -3.486   1.421  -9.305  1.00  0.00     0.014 A 
ATOM     53  C   UNL     1      -2.670   2.349  -7.225  1.00  0.00     0.014 A 
ATOM     54  C   UNL     1      -2.481   2.086 -10.002  1.00  0.00     0.010 A 
ATOM     55  C   UNL     1      -1.609   2.914  -7.898  1.00  0.00     0.010 A 
ATOM     56  C   UNL     1      -1.479   2.721  -9.276  1.00  0.00    -0.014 A 
BRANCH  56  57
ATOM     57  C   UNL     1      -0.205   3.128  -9.846  1.00  0.00     0.031 A 
ATOM     58  C   UNL     1       0.078   4.554 -10.071  1.00  0.00     0.074 A 
ATOM     59  C   UNL     1       0.751   2.198 -10.056  1.00  0.00     0.049 A 
ATOM     60  N   UNL     1       0.993   4.989 -10.868  1.00  0.00    -0.248 NA
ATOM     61  C   UNL     1      -0.696   5.621  -9.445  1.00  0.00     0.031 C 
ATOM     62  C   UNL     1       2.172   2.415 -10.308  1.00  0.00     0.029 A 
ATOM     63  N   UNL     1       0.560   0.839 -10.303  1.00  0.00    -0.354 N 
ATOM     64  C   UNL     1       1.131   6.336 -10.639  1.00  0.00     0.074 A 
ATOM     65  C   UNL     1       0.005   6.698  -9.812  1.00  0.00     0.031 C 
ATOM     66  C   UNL     1       2.679   1.325 -10.907  1.00  0.00     0.029 A 
ATOM     67  C   UNL     1       1.565   0.439 -11.202  1.00  0.00     0.049 A 
ATOM     68  H   UNL     1      -0.144   0.267  -9.920  1.00  0.00     0.167 HD
ATOM     69  C   UNL     1       2.262   6.964 -11.062  1.00  0.00     0.031 A 
ATOM     70  C   UNL     1       1.244  -0.013 -12.450  1.00  0.00     0.031 A 
ATOM     71  C   UNL     1       3.123   6.066 -11.830  1.00  0.00     0.049 A 
ATOM     72  C   UNL     1       1.798   0.844 -13.570  1.00  0.00     0.074 A 
ATOM     73  C   UNL     1       4.268   5.349 -11.519  1.00  0.00     0.029 A 
ATOM     74  N   UNL     1       2.653   5.554 -13.032  1.00  0.00    -0.354 N 
ATOM     75  N   UNL     1       2.231   2.065 -13.412  1.00  0.00    -0.248 NA
ATOM     76  C   UNL     1       1.887   0.404 -14.959  1.00  0.00     0.031 C 
ATOM     77  C   UNL     1       4.455   4.364 -12.526  1.00  0.00     0.029 A 
ATOM     78  C   UNL     1       3.442   4.504 -13.458  1.00  0.00     0.049 A 
ATOM     79  H   UNL     1       1.865   5.893 -13.515  1.00  0.00     0.167 HD
ATOM     80  C   UNL     1       2.654   2.570 -14.615  1.00  0.00     0.074 A 
ATOM     81  C   UNL     1       2.424   1.486 -15.552  1.00  0.00     0.031 C 
ATOM     82  C   UNL     1       3.148   3.841 -14.723  1.00  0.00     0.031 A 
BRANCH  69  83
ATOM     83  C   UNL     1       2.708   8.310 -10.549  1.00  0.00    -0.014 A 
ATOM     84  C   UNL     1       4.080   8.621 -10.521  1.00  0.00     0.009 A 
ATOM     85  C   UNL     1       1.845   9.291 -10.034  1.00  0.00     0.009 A 
ATOM     86  C   UNL     1       4.564   9.797  -9.933  1.00  0.00     0.001 A 
ATOM     87  C   UNL     1       2.322  10.453  -9.411  1.00  0.00     0.001 A 
ATOM     88  C   UNL     1       3.685  10.701  -9.352  1.00  0.00     0.000 A 
ENDBRANCH  69  83
BRANCH  70  89
ATOM     89  C   UNL     1      -0.049  -0.755 -12.486  1.00  0.00    -0.014 A 
ATOM     90  C   UNL     1      -0.128  -1.973 -11.778  1.00  0.00     0.009 A 
ATOM     91  C   UNL     1      -1.242  -0.107 -12.835  1.00  0.00     0.009 A 
ATOM     92  C   UNL     1      -1.355  -2.455 -11.313  1.00  0.00     0.001 A 
ATOM     93  C   UNL     1      -2.472  -0.605 -12.380  1.00  0.00     0.001 A 
ATOM     94  C   UNL     1      -2.524  -1.752 -11.587  1.00  0.00     0.000 A 
ENDBRANCH  70  89
BRANCH  82  95
ATOM     95  C   UNL     1       3.457   4.609 -15.994  1.00  0.00    -0.014 A 
ATOM     96  C   UNL     1       3.059   4.236 -17.282  1.00  0.00     0.009 A 
ATOM     97  C   UNL     1       4.100   5.868 -15.884  1.00  0.00     0.009 A 
ATOM     98  C   UNL     1       3.309   5.058 -18.394  1.00  0.00     0.001 A 
ATOM     99  C   UNL     1       4.308   6.711 -16.977  1.00  0.00     0.001 A 
ATOM    100  C   UNL     1       3.919   6.299 -18.240  1.00  0.00     0.000 A 
ENDBRANCH  82  95
ENDBRANCH  56  57
ENDBRANCH  48  51
ENDBRANCH  46  47
ENDBRANCH  45  46
ENDBRANCH  44  45
ENDBRANCH  43  44
ENDBRANCH   1  43
TORSDOF 19
