REMARK SMILES C#CCN(CC(=O)NCCCCCCNC(=O)c1ccc(-c2c3nc(c(-c4ccccc4)c4ccc([nH]4)c(-c4ccccc4)c4nc(c(-c5ccccc5)c5ccc2[nH]5)C=C4)C=C3)cc1)C(=O)[C@H](c1ccc(Cl)cc1)C(C)C
REMARK SMILES IDX 10 1 9 2 8 3 6 4 7 5 5 7 4 8 3 9 2 10 1 11 66 12 67 13 68 14
REMARK SMILES IDX 76 15 77 16 78 17 69 18 70 19 75 20 71 21 74 22 72 23 73 24
REMARK SMILES IDX 11 25 12 26 13 27 14 28 15 29 16 30 17 32 18 33 19 34 65 35
REMARK SMILES IDX 20 36 64 37 21 38 22 39 23 40 58 41 24 42 63 43 57 44 59 45
REMARK SMILES IDX 25 46 62 47 56 48 55 49 26 51 48 52 33 53 47 54 34 55 37 56
REMARK SMILES IDX 46 57 60 58 35 59 36 60 45 62 61 63 38 64 27 65 28 66 32 67
REMARK SMILES IDX 29 68 31 69 30 70 49 71 50 72 54 73 51 74 53 75 52 76 39 77
REMARK SMILES IDX 40 78 44 79 41 80 43 81 42 82
REMARK H PARENT 8 6 15 31 59 50 37 61
REMARK Flexibility Score: inf
ROOT
ATOM      1  C   UNL     1       0.371  -1.473   7.603  1.00  0.00     0.021 C 
ENDROOT
BRANCH   1   2
ATOM      2  C   UNL     1       1.434  -1.520   6.511  1.00  0.00     0.116 C 
BRANCH   2   3
ATOM      3  N   UNL     1       1.073  -2.487   5.513  1.00  0.00    -0.355 N 
ATOM      4  C   UNL     1       0.588  -2.282   4.266  1.00  0.00     0.239 C 
ATOM      5  O   UNL     1       0.255  -3.285   3.636  1.00  0.00    -0.273 OA
ATOM      6  H   UNL     1       1.194  -3.430   5.772  1.00  0.00     0.163 HD
BRANCH   4   7
ATOM      7  C   UNL     1       0.529  -0.863   3.678  1.00  0.00     0.220 C 
BRANCH   7   8
ATOM      8  N   UNL     1      -0.468   0.055   4.250  1.00  0.00    -0.322 N 
BRANCH   8   9
ATOM      9  C   UNL     1       0.043   1.244   4.940  1.00  0.00     0.209 C 
BRANCH   9  10
ATOM     10  C   UNL     1      -0.280   2.516   4.276  1.00  0.00    -0.085 C 
ATOM     11  C   UNL     1      -0.579   3.581   3.817  1.00  0.00     0.006 C 
ENDBRANCH   9  10
ENDBRANCH   8   9
BRANCH   8  12
ATOM     12  C   UNL     1      -1.856  -0.046   4.108  1.00  0.00     0.231 C 
ATOM     13  O   UNL     1      -2.582   0.827   4.597  1.00  0.00    -0.274 OA
BRANCH  12  14
ATOM     14  C   UNL     1      -2.501  -1.256   3.366  1.00  0.00     0.111 C 
BRANCH  14  15
ATOM     15  C   UNL     1      -4.042  -1.358   3.661  1.00  0.00    -0.000 C 
ATOM     16  C   UNL     1      -4.671  -2.580   2.975  1.00  0.00     0.008 C 
ATOM     17  C   UNL     1      -4.378  -1.457   5.162  1.00  0.00     0.008 C 
ENDBRANCH  14  15
BRANCH  14  18
ATOM     18  C   UNL     1      -2.216  -1.162   1.860  1.00  0.00    -0.035 A 
ATOM     19  C   UNL     1      -1.326  -2.061   1.249  1.00  0.00     0.006 A 
ATOM     20  C   UNL     1      -2.763  -0.142   1.068  1.00  0.00     0.006 A 
ATOM     21  C   UNL     1      -0.848  -1.842  -0.044  1.00  0.00     0.021 A 
ATOM     22  C   UNL     1      -2.351   0.028  -0.259  1.00  0.00     0.021 A 
ATOM     23  C   UNL     1      -1.358  -0.790  -0.791  1.00  0.00     0.041 A 
ATOM     24  Cl  UNL     1      -0.746  -0.492  -2.370  1.00  0.00    -0.084 Cl
ENDBRANCH  14  18
ENDBRANCH  12  14
ENDBRANCH   8  12
ENDBRANCH   7   8
ENDBRANCH   4   7
ENDBRANCH   2   3
ENDBRANCH   1   2
BRANCH   1  25
ATOM     25  C   UNL     1       0.208  -2.810   8.340  1.00  0.00     0.002 C 
BRANCH  25  26
ATOM     26  C   UNL     1       1.527  -3.442   8.802  1.00  0.00     0.002 C 
BRANCH  26  27
ATOM     27  C   UNL     1       2.425  -2.503   9.607  1.00  0.00     0.021 C 
BRANCH  27  28
ATOM     28  C   UNL     1       1.753  -1.948  10.850  1.00  0.00     0.116 C 
BRANCH  28  29
ATOM     29  N   UNL     1       1.451  -3.005  11.797  1.00  0.00    -0.352 N 
ATOM     30  C   UNL     1       1.884  -3.136  13.090  1.00  0.00     0.251 C 
ATOM     31  H   UNL     1       0.858  -3.720  11.469  1.00  0.00     0.163 HD
ATOM     32  O   UNL     1       1.780  -4.206  13.679  1.00  0.00    -0.269 OA
BRANCH  30  33
ATOM     33  C   UNL     1       2.498  -1.971  13.756  1.00  0.00     0.039 A 
ATOM     34  C   UNL     1       3.661  -2.154  14.503  1.00  0.00     0.014 A 
ATOM     35  C   UNL     1       1.933  -0.699  13.617  1.00  0.00     0.014 A 
ATOM     36  C   UNL     1       4.285  -1.047  15.075  1.00  0.00     0.010 A 
ATOM     37  C   UNL     1       2.610   0.412  14.104  1.00  0.00     0.010 A 
ATOM     38  C   UNL     1       3.784   0.247  14.852  1.00  0.00    -0.014 A 
BRANCH  38  39
ATOM     39  C   UNL     1       4.473   1.439  15.402  1.00  0.00     0.031 A 
ATOM     40  C   UNL     1       3.771   2.326  16.394  1.00  0.00     0.074 A 
ATOM     41  C   UNL     1       5.713   1.746  14.975  1.00  0.00     0.049 A 
ATOM     42  N   UNL     1       4.199   3.423  16.964  1.00  0.00    -0.248 NA
ATOM     43  C   UNL     1       2.402   1.944  16.779  1.00  0.00     0.031 C 
ATOM     44  C   UNL     1       6.485   0.983  13.992  1.00  0.00     0.029 A 
ATOM     45  N   UNL     1       6.543   2.783  15.317  1.00  0.00    -0.354 N 
ATOM     46  C   UNL     1       3.152   3.865  17.763  1.00  0.00     0.074 A 
ATOM     47  C   UNL     1       2.048   2.955  17.557  1.00  0.00     0.031 C 
ATOM     48  C   UNL     1       7.690   1.554  13.842  1.00  0.00     0.029 A 
ATOM     49  C   UNL     1       7.756   2.751  14.673  1.00  0.00     0.049 A 
ATOM     50  H   UNL     1       6.294   3.483  15.963  1.00  0.00     0.167 HD
ATOM     51  C   UNL     1       3.120   4.920  18.611  1.00  0.00     0.031 A 
ATOM     52  C   UNL     1       8.802   3.597  14.738  1.00  0.00     0.031 A 
ATOM     53  C   UNL     1       4.218   5.828  18.808  1.00  0.00     0.049 A 
ATOM     54  C   UNL     1       8.720   4.790  15.649  1.00  0.00     0.074 A 
ATOM     55  C   UNL     1       4.301   6.903  19.675  1.00  0.00     0.029 A 
ATOM     56  N   UNL     1       5.421   5.774  18.120  1.00  0.00    -0.354 N 
ATOM     57  N   UNL     1       7.750   5.154  16.452  1.00  0.00    -0.248 NA
ATOM     58  C   UNL     1       9.886   5.685  15.669  1.00  0.00     0.031 C 
ATOM     59  C   UNL     1       5.523   7.545  19.458  1.00  0.00     0.029 A 
ATOM     60  C   UNL     1       6.237   6.820  18.517  1.00  0.00     0.049 A 
ATOM     61  H   UNL     1       5.659   5.094  17.449  1.00  0.00     0.167 HD
ATOM     62  C   UNL     1       8.201   6.298  17.098  1.00  0.00     0.074 A 
ATOM     63  C   UNL     1       9.539   6.555  16.606  1.00  0.00     0.031 C 
ATOM     64  C   UNL     1       7.566   7.066  18.017  1.00  0.00     0.031 A 
BRANCH  51  65
ATOM     65  C   UNL     1       1.844   5.160  19.373  1.00  0.00    -0.014 A 
ATOM     66  C   UNL     1       1.401   4.265  20.361  1.00  0.00     0.009 A 
ATOM     67  C   UNL     1       1.091   6.319  19.125  1.00  0.00     0.009 A 
ATOM     68  C   UNL     1       0.211   4.503  21.052  1.00  0.00     0.001 A 
ATOM     69  C   UNL     1      -0.078   6.574  19.843  1.00  0.00     0.001 A 
ATOM     70  C   UNL     1      -0.524   5.660  20.797  1.00  0.00     0.000 A 
ENDBRANCH  51  65
BRANCH  52  71
ATOM     71  C   UNL     1      10.018   3.348  13.917  1.00  0.00    -0.014 A 
ATOM     72  C   UNL     1      11.241   3.027  14.527  1.00  0.00     0.009 A 
ATOM     73  C   UNL     1       9.966   3.446  12.517  1.00  0.00     0.009 A 
ATOM     74  C   UNL     1      12.392   2.849  13.756  1.00  0.00     0.001 A 
ATOM     75  C   UNL     1      11.110   3.230  11.747  1.00  0.00     0.001 A 
ATOM     76  C   UNL     1      12.325   2.945  12.367  1.00  0.00     0.000 A 
ENDBRANCH  52  71
BRANCH  64  77
ATOM     77  C   UNL     1       8.328   8.232  18.588  1.00  0.00    -0.014 A 
ATOM     78  C   UNL     1       8.642   9.358  17.811  1.00  0.00     0.009 A 
ATOM     79  C   UNL     1       8.700   8.217  19.942  1.00  0.00     0.009 A 
ATOM     80  C   UNL     1       9.350  10.425  18.369  1.00  0.00     0.001 A 
ATOM     81  C   UNL     1       9.372   9.301  20.507  1.00  0.00     0.001 A 
ATOM     82  C   UNL     1       9.708  10.399  19.717  1.00  0.00     0.000 A 
ENDBRANCH  64  77
ENDBRANCH  38  39
ENDBRANCH  30  33
ENDBRANCH  28  29
ENDBRANCH  27  28
ENDBRANCH  26  27
ENDBRANCH  25  26
ENDBRANCH   1  25
TORSDOF 20
