REMARK SMILES O=C(NCCCCCCNC(=O)[C@@H](Cc1ccccc1)NS(=O)(=O)c1ccccc1C(F)(F)F)c1ccc(-c2c3nc(c(-c4ccccc4)c4ccc([nH]4)c(-c4ccccc4)c4nc(c(-c5ccccc5)c5ccc2[nH]5)C=C4)C=C3)cc1
REMARK SMILES IDX 7 1 6 2 5 3 4 4 3 5 1 6 2 7 35 9 36 10 82 11 37 12 81 13
REMARK SMILES IDX 38 14 39 15 40 16 75 17 41 18 80 19 74 20 76 21 42 22 79 23
REMARK SMILES IDX 73 24 72 25 43 27 65 28 50 29 64 30 51 31 54 32 63 33 77 34
REMARK SMILES IDX 52 35 53 36 62 38 78 39 55 40 44 41 45 42 49 43 46 44 48 45
REMARK SMILES IDX 47 46 66 47 67 48 71 49 68 50 70 51 69 52 56 53 57 54 61 55
REMARK SMILES IDX 58 56 60 57 59 58 8 59 9 60 10 61 11 62 12 64 13 65 14 66
REMARK SMILES IDX 15 67 16 68 20 69 17 70 19 71 18 72 21 73 22 75 23 76 24 77
REMARK SMILES IDX 25 78 26 79 30 80 27 81 29 82 28 83 31 84 32 85 33 86 34 87
REMARK H PARENT 3 8 76 26 54 37 10 63 21 74
REMARK Flexibility Score: inf
ROOT
ATOM      1  C   UNL     1       4.103   4.163   1.899  1.00  0.00     0.002 C 
ENDROOT
BRANCH   1   2
ATOM      2  C   UNL     1       3.653   3.831   0.469  1.00  0.00     0.002 C 
BRANCH   2   3
ATOM      3  C   UNL     1       4.366   2.650  -0.195  1.00  0.00     0.021 C 
BRANCH   3   4
ATOM      4  C   UNL     1       4.243   1.325   0.552  1.00  0.00     0.116 C 
BRANCH   4   5
ATOM      5  N   UNL     1       2.862   0.871   0.622  1.00  0.00    -0.352 N 
ATOM      6  O   UNL     1       1.029  -0.278  -0.003  1.00  0.00    -0.269 OA
ATOM      7  C   UNL     1       2.254  -0.199   0.016  1.00  0.00     0.251 C 
ATOM      8  H   UNL     1       2.273   1.416   1.192  1.00  0.00     0.163 HD
BRANCH   7   9
ATOM      9  C   UNL     1       3.064  -1.270  -0.607  1.00  0.00     0.039 A 
ATOM     10  C   UNL     1       4.200  -1.769   0.035  1.00  0.00     0.014 A 
ATOM     11  C   UNL     1       2.628  -1.847  -1.804  1.00  0.00     0.014 A 
ATOM     12  C   UNL     1       4.949  -2.778  -0.561  1.00  0.00     0.010 A 
ATOM     13  C   UNL     1       3.338  -2.913  -2.365  1.00  0.00     0.010 A 
ATOM     14  C   UNL     1       4.505  -3.386  -1.747  1.00  0.00    -0.014 A 
BRANCH  14  15
ATOM     15  C   UNL     1       5.199  -4.602  -2.237  1.00  0.00     0.031 A 
ATOM     16  C   UNL     1       5.952  -4.610  -3.536  1.00  0.00     0.074 A 
ATOM     17  C   UNL     1       5.142  -5.714  -1.477  1.00  0.00     0.049 A 
ATOM     18  N   UNL     1       6.623  -5.591  -4.086  1.00  0.00    -0.248 NA
ATOM     19  C   UNL     1       5.950  -3.367  -4.322  1.00  0.00     0.031 C 
ATOM     20  C   UNL     1       4.422  -5.828  -0.204  1.00  0.00     0.029 A 
ATOM     21  N   UNL     1       5.704  -6.952  -1.650  1.00  0.00    -0.354 N 
ATOM     22  C   UNL     1       7.110  -5.092  -5.287  1.00  0.00     0.074 A 
ATOM     23  C   UNL     1       6.645  -3.726  -5.396  1.00  0.00     0.031 C 
ATOM     24  C   UNL     1       4.619  -7.053   0.305  1.00  0.00     0.029 A 
ATOM     25  C   UNL     1       5.422  -7.829  -0.630  1.00  0.00     0.049 A 
ATOM     26  H   UNL     1       6.256  -7.190  -2.430  1.00  0.00     0.167 HD
ATOM     27  C   UNL     1       7.876  -5.721  -6.210  1.00  0.00     0.031 A 
ATOM     28  C   UNL     1       5.751  -9.124  -0.473  1.00  0.00     0.031 A 
ATOM     29  C   UNL     1       8.336  -7.082  -6.095  1.00  0.00     0.049 A 
ATOM     30  C   UNL     1       6.570  -9.798  -1.533  1.00  0.00     0.074 A 
ATOM     31  C   UNL     1       9.161  -7.786  -6.956  1.00  0.00     0.029 A 
ATOM     32  N   UNL     1       8.003  -7.946  -5.064  1.00  0.00    -0.354 N 
ATOM     33  N   UNL     1       7.077  -9.290  -2.630  1.00  0.00    -0.248 NA
ATOM     34  C   UNL     1       6.860 -11.224  -1.335  1.00  0.00     0.031 C 
ATOM     35  C   UNL     1       9.278  -9.095  -6.477  1.00  0.00     0.029 A 
ATOM     36  C   UNL     1       8.574  -9.188  -5.288  1.00  0.00     0.049 A 
ATOM     37  H   UNL     1       7.444  -7.712  -4.288  1.00  0.00     0.167 HD
ATOM     38  C   UNL     1       7.755 -10.331  -3.247  1.00  0.00     0.074 A 
ATOM     39  C   UNL     1       7.621 -11.489  -2.387  1.00  0.00     0.031 C 
ATOM     40  C   UNL     1       8.422 -10.331  -4.426  1.00  0.00     0.031 A 
BRANCH  27  41
ATOM     41  C   UNL     1       8.255  -4.961  -7.451  1.00  0.00    -0.014 A 
ATOM     42  C   UNL     1       9.233  -3.956  -7.421  1.00  0.00     0.009 A 
ATOM     43  C   UNL     1       7.691  -5.325  -8.685  1.00  0.00     0.009 A 
ATOM     44  C   UNL     1       9.628  -3.320  -8.601  1.00  0.00     0.001 A 
ATOM     45  C   UNL     1       8.104  -4.703  -9.865  1.00  0.00     0.001 A 
ATOM     46  C   UNL     1       9.069  -3.699  -9.822  1.00  0.00     0.000 A 
ENDBRANCH  27  41
BRANCH  28  47
ATOM     47  C   UNL     1       5.269  -9.878   0.714  1.00  0.00    -0.014 A 
ATOM     48  C   UNL     1       6.168 -10.338   1.687  1.00  0.00     0.009 A 
ATOM     49  C   UNL     1       3.901 -10.156   0.867  1.00  0.00     0.009 A 
ATOM     50  C   UNL     1       5.710 -11.088   2.773  1.00  0.00     0.001 A 
ATOM     51  C   UNL     1       3.442 -10.877   1.971  1.00  0.00     0.001 A 
ATOM     52  C   UNL     1       4.348 -11.353   2.916  1.00  0.00     0.000 A 
ENDBRANCH  28  47
BRANCH  40  53
ATOM     53  C   UNL     1       9.068 -11.622  -4.839  1.00  0.00    -0.014 A 
ATOM     54  C   UNL     1       8.297 -12.709  -5.280  1.00  0.00     0.009 A 
ATOM     55  C   UNL     1      10.465 -11.745  -4.806  1.00  0.00     0.009 A 
ATOM     56  C   UNL     1       8.912 -13.908  -5.645  1.00  0.00     0.001 A 
ATOM     57  C   UNL     1      11.079 -12.934  -5.201  1.00  0.00     0.001 A 
ATOM     58  C   UNL     1      10.302 -14.017  -5.609  1.00  0.00     0.000 A 
ENDBRANCH  40  53
ENDBRANCH  14  15
ENDBRANCH   7   9
ENDBRANCH   4   5
ENDBRANCH   3   4
ENDBRANCH   2   3
ENDBRANCH   1   2
BRANCH   1  59
ATOM     59  C   UNL     1       5.604   4.425   2.076  1.00  0.00     0.021 C 
BRANCH  59  60
ATOM     60  C   UNL     1       6.132   5.624   1.283  1.00  0.00     0.116 C 
BRANCH  60  61
ATOM     61  N   UNL     1       6.548   6.709   2.147  1.00  0.00    -0.355 N 
ATOM     62  C   UNL     1       7.765   7.109   2.591  1.00  0.00     0.238 C 
ATOM     63  H   UNL     1       5.804   7.264   2.475  1.00  0.00     0.163 HD
ATOM     64  O   UNL     1       7.780   8.161   3.245  1.00  0.00    -0.273 OA
BRANCH  62  65
ATOM     65  C   UNL     1       9.091   6.383   2.313  1.00  0.00     0.163 C 
BRANCH  65  66
ATOM     66  C   UNL     1       9.238   5.007   2.988  1.00  0.00     0.065 C 
BRANCH  66  67
ATOM     67  C   UNL     1       9.028   3.672   2.303  1.00  0.00    -0.046 A 
ATOM     68  C   UNL     1       8.801   3.483   0.936  1.00  0.00     0.004 A 
ATOM     69  C   UNL     1       9.123   2.522   3.109  1.00  0.00     0.004 A 
ATOM     70  C   UNL     1       8.584   2.208   0.406  1.00  0.00     0.000 A 
ATOM     71  C   UNL     1       8.939   1.244   2.577  1.00  0.00     0.000 A 
ATOM     72  C   UNL     1       8.648   1.088   1.226  1.00  0.00     0.000 A 
ENDBRANCH  66  67
ENDBRANCH  65  66
BRANCH  65  73
ATOM     73  N   UNL     1       9.526   6.469   0.909  1.00  0.00    -0.198 NA
ATOM     74  H   UNL     1       9.157   7.344   0.537  1.00  0.00     0.142 HD
BRANCH  73  75
ATOM     75  S   UNL     1      11.169   6.437   0.545  1.00  0.00     0.241 S 
ATOM     76  O   UNL     1      11.740   5.270   1.175  1.00  0.00    -0.207 OA
ATOM     77  O   UNL     1      11.314   6.672  -0.873  1.00  0.00    -0.207 OA
BRANCH  75  78
ATOM     78  C   UNL     1      11.818   7.874   1.380  1.00  0.00     0.094 A 
ATOM     79  C   UNL     1      12.741   7.655   2.420  1.00  0.00     0.022 A 
ATOM     80  C   UNL     1      11.455   9.181   1.007  1.00  0.00     0.076 A 
ATOM     81  C   UNL     1      13.302   8.731   3.104  1.00  0.00     0.001 A 
ATOM     82  C   UNL     1      12.049  10.251   1.710  1.00  0.00     0.014 A 
ATOM     83  C   UNL     1      12.956  10.029   2.749  1.00  0.00     0.001 A 
BRANCH  80  84
ATOM     84  C   UNL     1      10.505   9.533  -0.113  1.00  0.00     0.417 C 
ATOM     85  F   UNL     1       9.747  10.627   0.198  1.00  0.00    -0.166 F 
ATOM     86  F   UNL     1      11.151   9.856  -1.264  1.00  0.00    -0.166 F 
ATOM     87  F   UNL     1       9.589   8.579  -0.431  1.00  0.00    -0.166 F 
ENDBRANCH  80  84
ENDBRANCH  75  78
ENDBRANCH  73  75
ENDBRANCH  65  73
ENDBRANCH  62  65
ENDBRANCH  60  61
ENDBRANCH  59  60
ENDBRANCH   1  59
TORSDOF 19
