REMARK SMILES CC[C@@](O)(C(=O)NCCCCCCNC(=O)c1ccc(-c2c3nc(c(-c4ccccc4)c4ccc([nH]4)c(-c4ccccc4)c4nc(c(-c5ccccc5)c5ccc2[nH]5)C=C4)C=C3)cc1)[C@@H](C)c1ccc(OC(C)C)cc1
REMARK SMILES IDX 9 1 8 2 7 3 5 4 6 5 3 7 2 8 1 9 4 10 65 12 66 13 67 14 68 15
REMARK SMILES IDX 76 16 69 17 75 18 70 19 71 20 72 21 73 22 74 23 10 24 11 25
REMARK SMILES IDX 12 26 13 27 14 28 15 29 16 31 17 32 18 33 64 34 19 35 63 36
REMARK SMILES IDX 20 37 21 38 22 39 57 40 23 41 62 42 56 43 58 44 24 45 61 46
REMARK SMILES IDX 55 47 54 48 25 50 47 51 32 52 46 53 33 54 36 55 45 56 59 57
REMARK SMILES IDX 34 58 35 59 44 61 60 62 37 63 26 64 27 65 31 66 28 67 30 68
REMARK SMILES IDX 29 69 48 70 49 71 53 72 50 73 52 74 51 75 38 76 39 77 43 78
REMARK SMILES IDX 40 79 42 80 41 81
REMARK H PARENT 7 6 4 11 14 30 58 49 36 60
REMARK Flexibility Score: inf
ROOT
ATOM      1  C   UNL     1      -2.882   3.034   0.023  1.00  0.00     0.021 C 
ENDROOT
BRANCH   1   2
ATOM      2  C   UNL     1      -2.075   2.778  -1.248  1.00  0.00     0.116 C 
BRANCH   2   3
ATOM      3  N   UNL     1      -0.944   3.683  -1.337  1.00  0.00    -0.354 N 
ATOM      4  C   UNL     1       0.398   3.433  -1.266  1.00  0.00     0.252 C 
ATOM      5  O   UNL     1       1.140   4.395  -1.482  1.00  0.00    -0.272 OA
ATOM      6  H   UNL     1      -1.181   4.629  -1.470  1.00  0.00     0.163 HD
BRANCH   4   7
ATOM      7  C   UNL     1       0.941   1.983  -1.006  1.00  0.00     0.149 C 
BRANCH   7   8
ATOM      8  C   UNL     1       0.459   1.471   0.379  1.00  0.00     0.043 C 
ATOM      9  C   UNL     1       0.683  -0.002   0.691  1.00  0.00     0.007 C 
ENDBRANCH   7   8
BRANCH   7  10
ATOM     10  O   UNL     1       0.319   1.236  -2.071  1.00  0.00    -0.379 OA
ATOM     11  H   UNL     1      -0.644   1.254  -1.960  1.00  0.00     0.212 HD
ENDBRANCH   7  10
BRANCH   7  12
ATOM     12  C   UNL     1       2.518   1.966  -1.169  1.00  0.00     0.057 C 
ATOM     13  C   UNL     1       3.163   2.784  -0.016  1.00  0.00     0.016 C 
BRANCH  12  14
ATOM     14  C   UNL     1       3.207   0.589  -1.305  1.00  0.00    -0.042 A 
ATOM     15  C   UNL     1       2.567  -0.546  -1.822  1.00  0.00     0.008 A 
ATOM     16  C   UNL     1       4.539   0.412  -0.899  1.00  0.00     0.008 A 
ATOM     17  C   UNL     1       3.155  -1.814  -1.756  1.00  0.00     0.047 A 
ATOM     18  C   UNL     1       5.138  -0.855  -0.855  1.00  0.00     0.047 A 
ATOM     19  C   UNL     1       4.431  -1.985  -1.236  1.00  0.00     0.119 A 
BRANCH  19  20
ATOM     20  O   UNL     1       4.825  -3.283  -1.149  1.00  0.00    -0.491 OA
BRANCH  20  21
ATOM     21  C   UNL     1       6.158  -3.669  -0.811  1.00  0.00     0.167 C 
ATOM     22  C   UNL     1       7.183  -3.203  -1.839  1.00  0.00     0.052 C 
ATOM     23  C   UNL     1       6.529  -3.414   0.649  1.00  0.00     0.052 C 
ENDBRANCH  20  21
ENDBRANCH  19  20
ENDBRANCH  12  14
ENDBRANCH   7  12
ENDBRANCH   4   7
ENDBRANCH   2   3
ENDBRANCH   1   2
BRANCH   1  24
ATOM     24  C   UNL     1      -3.627   4.370   0.025  1.00  0.00     0.002 C 
BRANCH  24  25
ATOM     25  C   UNL     1      -4.575   4.576  -1.159  1.00  0.00     0.002 C 
BRANCH  25  26
ATOM     26  C   UNL     1      -5.575   3.440  -1.387  1.00  0.00     0.021 C 
BRANCH  26  27
ATOM     27  C   UNL     1      -6.453   3.126  -0.181  1.00  0.00     0.116 C 
BRANCH  27  28
ATOM     28  N   UNL     1      -7.281   4.260   0.194  1.00  0.00    -0.352 N 
ATOM     29  C   UNL     1      -8.643   4.326   0.336  1.00  0.00     0.251 C 
ATOM     30  H   UNL     1      -6.796   5.098   0.371  1.00  0.00     0.163 HD
ATOM     31  O   UNL     1      -9.204   5.410   0.448  1.00  0.00    -0.269 OA
BRANCH  29  32
ATOM     32  C   UNL     1      -9.436   3.080   0.337  1.00  0.00     0.039 A 
ATOM     33  C   UNL     1     -10.604   3.022  -0.424  1.00  0.00     0.014 A 
ATOM     34  C   UNL     1      -9.027   1.976   1.091  1.00  0.00     0.014 A 
ATOM     35  C   UNL     1     -11.338   1.836  -0.470  1.00  0.00     0.010 A 
ATOM     36  C   UNL     1      -9.718   0.773   0.986  1.00  0.00     0.010 A 
ATOM     37  C   UNL     1     -10.885   0.694   0.211  1.00  0.00    -0.014 A 
BRANCH  37  38
ATOM     38  C   UNL     1     -11.622  -0.591   0.128  1.00  0.00     0.031 A 
ATOM     39  C   UNL     1     -12.252  -1.182   1.358  1.00  0.00     0.074 A 
ATOM     40  C   UNL     1     -11.675  -1.252  -1.044  1.00  0.00     0.049 A 
ATOM     41  N   UNL     1     -12.895  -2.314   1.492  1.00  0.00    -0.248 NA
ATOM     42  C   UNL     1     -12.121  -0.413   2.607  1.00  0.00     0.031 C 
ATOM     43  C   UNL     1     -11.071  -0.802  -2.300  1.00  0.00     0.029 A 
ATOM     44  N   UNL     1     -12.262  -2.449  -1.367  1.00  0.00    -0.354 N 
ATOM     45  C   UNL     1     -13.231  -2.399   2.838  1.00  0.00     0.074 A 
ATOM     46  C   UNL     1     -12.677  -1.232   3.487  1.00  0.00     0.031 C 
ATOM     47  C   UNL     1     -11.345  -1.697  -3.263  1.00  0.00     0.029 A 
ATOM     48  C   UNL     1     -12.104  -2.801  -2.686  1.00  0.00     0.049 A 
ATOM     49  H   UNL     1     -12.750  -3.004  -0.716  1.00  0.00     0.167 HD
ATOM     50  C   UNL     1     -13.953  -3.353   3.473  1.00  0.00     0.031 A 
ATOM     51  C   UNL     1     -12.519  -3.893  -3.353  1.00  0.00     0.031 A 
ATOM     52  C   UNL     1     -14.510  -4.510   2.825  1.00  0.00     0.049 A 
ATOM     53  C   UNL     1     -13.301  -4.948  -2.621  1.00  0.00     0.074 A 
ATOM     54  C   UNL     1     -15.303  -5.505   3.369  1.00  0.00     0.029 A 
ATOM     55  N   UNL     1     -14.326  -4.830   1.489  1.00  0.00    -0.354 N 
ATOM     56  N   UNL     1     -13.671  -4.979  -1.364  1.00  0.00    -0.248 NA
ATOM     57  C   UNL     1     -13.731  -6.114  -3.405  1.00  0.00     0.031 C 
ATOM     58  C   UNL     1     -15.553  -6.457   2.375  1.00  0.00     0.029 A 
ATOM     59  C   UNL     1     -14.968  -6.023   1.197  1.00  0.00     0.049 A 
ATOM     60  H   UNL     1     -13.816  -4.290   0.843  1.00  0.00     0.167 HD
ATOM     61  C   UNL     1     -14.399  -6.152  -1.212  1.00  0.00     0.074 A 
ATOM     62  C   UNL     1     -14.433  -6.794  -2.510  1.00  0.00     0.031 C 
ATOM     63  C   UNL     1     -14.989  -6.651  -0.099  1.00  0.00     0.031 A 
BRANCH  50  64
ATOM     64  C   UNL     1     -14.172  -3.185   4.951  1.00  0.00    -0.014 A 
ATOM     65  C   UNL     1     -14.999  -2.168   5.455  1.00  0.00     0.009 A 
ATOM     66  C   UNL     1     -13.566  -4.074   5.853  1.00  0.00     0.009 A 
ATOM     67  C   UNL     1     -15.183  -2.021   6.832  1.00  0.00     0.001 A 
ATOM     68  C   UNL     1     -13.776  -3.944   7.227  1.00  0.00     0.001 A 
ATOM     69  C   UNL     1     -14.575  -2.912   7.716  1.00  0.00     0.000 A 
ENDBRANCH  50  64
BRANCH  51  70
ATOM     70  C   UNL     1     -12.217  -4.040  -4.801  1.00  0.00    -0.014 A 
ATOM     71  C   UNL     1     -13.241  -3.946  -5.756  1.00  0.00     0.009 A 
ATOM     72  C   UNL     1     -10.904  -4.279  -5.237  1.00  0.00     0.009 A 
ATOM     73  C   UNL     1     -12.962  -4.116  -7.113  1.00  0.00     0.001 A 
ATOM     74  C   UNL     1     -10.623  -4.419  -6.597  1.00  0.00     0.001 A 
ATOM     75  C   UNL     1     -11.653  -4.348  -7.533  1.00  0.00     0.000 A 
ENDBRANCH  51  70
BRANCH  63  76
ATOM     76  C   UNL     1     -15.748  -7.940  -0.243  1.00  0.00    -0.014 A 
ATOM     77  C   UNL     1     -15.084  -9.162  -0.434  1.00  0.00     0.009 A 
ATOM     78  C   UNL     1     -17.148  -7.935  -0.147  1.00  0.00     0.009 A 
ATOM     79  C   UNL     1     -15.810 -10.347  -0.561  1.00  0.00     0.001 A 
ATOM     80  C   UNL     1     -17.870  -9.125  -0.242  1.00  0.00     0.001 A 
ATOM     81  C   UNL     1     -17.201 -10.329  -0.460  1.00  0.00     0.000 A 
ENDBRANCH  63  76
ENDBRANCH  37  38
ENDBRANCH  29  32
ENDBRANCH  27  28
ENDBRANCH  26  27
ENDBRANCH  25  26
ENDBRANCH  24  25
ENDBRANCH   1  24
TORSDOF 19
