REMARK SMILES C[NH2+][C@@]1(C(=O)NCCCCCCNC(=O)c2ccc(-c3c4nc(c(-c5ccccc5)c5ccc([nH]5)c(-c5ccccc5)c5nc(c(-c6ccccc6)c6ccc3[nH]6)C=C5)C=C4)cc2)CCC[C@H]([N@H+](C)C2CC[NH+](C)CC2)C1
REMARK SMILES IDX 9 1 8 2 7 3 6 4 4 5 5 6 3 8 64 9 77 10 65 11 67 12 66 13
REMARK SMILES IDX 2 14 1 15 68 18 69 19 70 21 71 22 76 23 72 24 75 25 73 26
REMARK SMILES IDX 74 27 10 29 11 30 12 31 13 32 14 33 15 35 16 36 17 37 63 38
REMARK SMILES IDX 18 39 62 40 19 41 20 42 21 43 56 44 22 45 61 46 55 47 57 48
REMARK SMILES IDX 23 49 60 50 54 51 53 52 24 54 46 55 31 56 45 57 32 58 35 59
REMARK SMILES IDX 44 60 58 61 33 62 34 63 43 65 59 66 36 67 25 68 26 69 30 70
REMARK SMILES IDX 27 71 29 72 28 73 47 74 48 75 52 76 49 77 51 78 50 79 37 80
REMARK SMILES IDX 38 81 42 82 39 83 41 84 40 85
REMARK H PARENT 6 7 2 16 2 17 68 20 73 28 13 34 57 53 35 64
REMARK Flexibility Score: inf
ROOT
ATOM      1  C   UNL     1      -5.353   1.055  -3.445  1.00  0.00     0.002 C 
ENDROOT
BRANCH   1   2
ATOM      2  C   UNL     1      -4.205   1.474  -2.485  1.00  0.00     0.021 C 
BRANCH   2   3
ATOM      3  C   UNL     1      -3.314   0.514  -1.665  1.00  0.00     0.116 C 
BRANCH   3   4
ATOM      4  N   UNL     1      -2.167  -0.180  -2.218  1.00  0.00    -0.351 N 
ATOM      5  C   UNL     1      -1.310  -1.082  -1.612  1.00  0.00     0.281 C 
ATOM      6  O   UNL     1      -0.757  -1.854  -2.420  1.00  0.00    -0.268 OA
ATOM      7  H   UNL     1      -1.970   0.018  -3.162  1.00  0.00     0.163 HD
BRANCH   5   8
ATOM      8  C   UNL     1      -0.776  -1.105  -0.068  1.00  0.00     0.181 C 
ATOM      9  C   UNL     1      -0.487  -2.581   0.424  1.00  0.00     0.079 C 
ATOM     10  C   UNL     1      -1.516  -0.328   1.027  1.00  0.00     0.144 C 
ATOM     11  C   UNL     1      -1.234  -3.186   1.622  1.00  0.00     0.013 C 
ATOM     12  C   UNL     1      -2.690  -1.083   1.717  1.00  0.00     0.190 C 
ATOM     13  C   UNL     1      -2.108  -2.274   2.451  1.00  0.00     0.065 C 
BRANCH   8  14
ATOM     14  N   UNL     1       0.655  -0.615  -0.175  1.00  0.00    -0.336 N 
ATOM     15  C   UNL     1       0.883   0.796  -0.390  1.00  0.00     0.331 C 
ATOM     16  H   UNL     1       1.127  -0.868   0.692  1.00  0.00     0.346 HD
ATOM     17  H   UNL     1       1.009  -1.058  -1.023  1.00  0.00     0.346 HD
ENDBRANCH   8  14
BRANCH  12  18
ATOM     18  N   UNL     1      -3.855  -1.173   0.817  1.00  0.00    -0.332 N 
ATOM     19  C   UNL     1      -4.677   0.040   1.137  1.00  0.00     0.333 C 
ATOM     20  H   UNL     1      -3.384  -1.284  -0.081  1.00  0.00     0.348 HD
BRANCH  18  21
ATOM     21  C   UNL     1      -4.775  -2.345   0.648  1.00  0.00     0.195 C 
ATOM     22  C   UNL     1      -4.392  -3.827   0.793  1.00  0.00     0.126 C 
ATOM     23  C   UNL     1      -5.443  -2.297  -0.757  1.00  0.00     0.126 C 
ATOM     24  C   UNL     1      -3.623  -4.423  -0.392  1.00  0.00     0.268 C 
ATOM     25  C   UNL     1      -4.653  -2.924  -1.908  1.00  0.00     0.268 C 
ATOM     26  N   UNL     1      -4.378  -4.331  -1.643  1.00  0.00    -0.337 N 
ATOM     27  C   UNL     1      -3.591  -4.892  -2.750  1.00  0.00     0.332 C 
ATOM     28  H   UNL     1      -5.249  -4.857  -1.563  1.00  0.00     0.347 HD
ENDBRANCH  18  21
ENDBRANCH  12  18
ENDBRANCH   5   8
ENDBRANCH   3   4
ENDBRANCH   2   3
ENDBRANCH   1   2
BRANCH   1  29
ATOM     29  C   UNL     1      -6.543   0.104  -3.159  1.00  0.00     0.002 C 
BRANCH  29  30
ATOM     30  C   UNL     1      -7.410   0.149  -1.890  1.00  0.00     0.021 C 
BRANCH  30  31
ATOM     31  C   UNL     1      -8.426   1.256  -1.655  1.00  0.00     0.116 C 
BRANCH  31  32
ATOM     32  N   UNL     1      -9.618   1.145  -2.473  1.00  0.00    -0.352 N 
ATOM     33  C   UNL     1     -10.916   0.769  -2.211  1.00  0.00     0.251 C 
ATOM     34  H   UNL     1      -9.467   1.390  -3.414  1.00  0.00     0.163 HD
ATOM     35  O   UNL     1     -11.677   0.664  -3.173  1.00  0.00    -0.269 OA
BRANCH  33  36
ATOM     36  C   UNL     1     -11.463   0.484  -0.849  1.00  0.00     0.039 A 
ATOM     37  C   UNL     1     -12.549  -0.406  -0.755  1.00  0.00     0.014 A 
ATOM     38  C   UNL     1     -11.057   1.147   0.309  1.00  0.00     0.014 A 
ATOM     39  C   UNL     1     -13.206  -0.627   0.466  1.00  0.00     0.010 A 
ATOM     40  C   UNL     1     -11.660   0.867   1.545  1.00  0.00     0.010 A 
ATOM     41  C   UNL     1     -12.766   0.007   1.634  1.00  0.00    -0.014 A 
BRANCH  41  42
ATOM     42  C   UNL     1     -13.499  -0.133   2.926  1.00  0.00     0.031 A 
ATOM     43  C   UNL     1     -14.155   1.076   3.551  1.00  0.00     0.074 A 
ATOM     44  C   UNL     1     -13.546  -1.315   3.572  1.00  0.00     0.049 A 
ATOM     45  N   UNL     1     -14.748   1.195   4.714  1.00  0.00    -0.248 NA
ATOM     46  C   UNL     1     -14.110   2.326   2.776  1.00  0.00     0.031 C 
ATOM     47  C   UNL     1     -12.943  -2.563   3.103  1.00  0.00     0.029 A 
ATOM     48  N   UNL     1     -14.123  -1.655   4.773  1.00  0.00    -0.354 N 
ATOM     49  C   UNL     1     -15.103   2.535   4.825  1.00  0.00     0.074 A 
ATOM     50  C   UNL     1     -14.628   3.196   3.630  1.00  0.00     0.031 C 
ATOM     51  C   UNL     1     -13.195  -3.535   3.997  1.00  0.00     0.029 A 
ATOM     52  C   UNL     1     -13.947  -2.974   5.116  1.00  0.00     0.049 A 
ATOM     53  H   UNL     1     -14.615  -1.014   5.335  1.00  0.00     0.167 HD
ATOM     54  C   UNL     1     -15.776   3.162   5.821  1.00  0.00     0.031 A 
ATOM     55  C   UNL     1     -14.341  -3.657   6.209  1.00  0.00     0.031 A 
ATOM     56  C   UNL     1     -16.295   2.503   6.989  1.00  0.00     0.049 A 
ATOM     57  C   UNL     1     -15.118  -2.951   7.286  1.00  0.00     0.074 A 
ATOM     58  C   UNL     1     -17.049   3.039   8.020  1.00  0.00     0.029 A 
ATOM     59  N   UNL     1     -16.123   1.159   7.275  1.00  0.00    -0.354 N 
ATOM     60  N   UNL     1     -15.478  -1.692   7.353  1.00  0.00    -0.248 NA
ATOM     61  C   UNL     1     -15.553  -3.764   8.432  1.00  0.00     0.031 C 
ATOM     62  C   UNL     1     -17.305   2.023   8.947  1.00  0.00     0.029 A 
ATOM     63  C   UNL     1     -16.747   0.848   8.471  1.00  0.00     0.049 A 
ATOM     64  H   UNL     1     -15.631   0.519   6.711  1.00  0.00     0.167 HD
ATOM     65  C   UNL     1     -16.201  -1.567   8.533  1.00  0.00     0.074 A 
ATOM     66  C   UNL     1     -16.240  -2.880   9.143  1.00  0.00     0.031 C 
ATOM     67  C   UNL     1     -16.780  -0.463   9.063  1.00  0.00     0.031 A 
BRANCH  54  68
ATOM     68  C   UNL     1     -15.984   4.647   5.689  1.00  0.00    -0.014 A 
ATOM     69  C   UNL     1     -16.872   5.179   4.740  1.00  0.00     0.009 A 
ATOM     70  C   UNL     1     -15.299   5.525   6.543  1.00  0.00     0.009 A 
ATOM     71  C   UNL     1     -17.035   6.561   4.620  1.00  0.00     0.001 A 
ATOM     72  C   UNL     1     -15.485   6.905   6.440  1.00  0.00     0.001 A 
ATOM     73  C   UNL     1     -16.344   7.423   5.471  1.00  0.00     0.000 A 
ENDBRANCH  54  68
BRANCH  55  74
ATOM     74  C   UNL     1     -14.027  -5.105   6.331  1.00  0.00    -0.014 A 
ATOM     75  C   UNL     1     -15.038  -6.066   6.173  1.00  0.00     0.009 A 
ATOM     76  C   UNL     1     -12.719  -5.535   6.601  1.00  0.00     0.009 A 
ATOM     77  C   UNL     1     -14.748  -7.427   6.300  1.00  0.00     0.001 A 
ATOM     78  C   UNL     1     -12.428  -6.897   6.702  1.00  0.00     0.001 A 
ATOM     79  C   UNL     1     -13.443  -7.841   6.559  1.00  0.00     0.000 A 
ENDBRANCH  55  74
BRANCH  67  80
ATOM     80  C   UNL     1     -17.532  -0.632  10.351  1.00  0.00    -0.014 A 
ATOM     81  C   UNL     1     -16.858  -0.793  11.571  1.00  0.00     0.009 A 
ATOM     82  C   UNL     1     -18.935  -0.583  10.348  1.00  0.00     0.009 A 
ATOM     83  C   UNL     1     -17.576  -0.929  12.761  1.00  0.00     0.001 A 
ATOM     84  C   UNL     1     -19.649  -0.697  11.542  1.00  0.00     0.001 A 
ATOM     85  C   UNL     1     -18.970  -0.877  12.745  1.00  0.00     0.000 A 
ENDBRANCH  67  80
ENDBRANCH  41  42
ENDBRANCH  33  36
ENDBRANCH  31  32
ENDBRANCH  30  31
ENDBRANCH  29  30
ENDBRANCH   1  29
TORSDOF 16
