REMARK SMILES CN1C(=O)C[C@@H](C(=O)NCCCCCCNC(=O)c2ccc(-c3c4nc(c(-c5ccccc5)c5ccc([nH]5)c(-c5ccccc5)c5nc(c(-c6ccccc6)c6ccc3[nH]6)C=C5)C=C4)cc2)C12CCN(S(=O)(=O)c1ccccc1F)CC2
REMARK SMILES IDX 12 1 11 2 10 3 9 4 7 5 8 6 6 8 1 9 2 10 3 11 67 12 4 13 5 14
REMARK SMILES IDX 68 15 82 16 69 17 81 18 70 19 71 20 72 21 73 22 74 23 75 24
REMARK SMILES IDX 79 25 76 26 78 27 80 28 77 29 13 30 14 31 15 32 16 33 17 34
REMARK SMILES IDX 18 36 19 37 20 38 66 39 21 40 65 41 22 42 23 43 24 44 59 45
REMARK SMILES IDX 25 46 64 47 58 48 60 49 26 50 63 51 57 52 56 53 27 55 49 56
REMARK SMILES IDX 34 57 48 58 35 59 38 60 47 61 61 62 36 63 37 64 46 66 62 67
REMARK SMILES IDX 39 68 28 69 29 70 33 71 30 72 32 73 31 74 50 75 51 76 55 77
REMARK SMILES IDX 52 78 54 79 53 80 40 81 41 82 45 83 42 84 44 85 43 86
REMARK H PARENT 9 7 16 35 60 54 38 65
REMARK Flexibility Score: inf
ROOT
ATOM      1  C   UNL     1      -2.920  -1.378   3.240  1.00  0.00     0.002 C 
ENDROOT
BRANCH   1   2
ATOM      2  C   UNL     1      -1.861  -0.760   2.324  1.00  0.00     0.021 C 
BRANCH   2   3
ATOM      3  C   UNL     1      -2.363   0.369   1.416  1.00  0.00     0.116 C 
BRANCH   3   4
ATOM      4  N   UNL     1      -2.591   1.619   2.125  1.00  0.00    -0.356 N 
ATOM      5  C   UNL     1      -2.002   2.842   2.094  1.00  0.00     0.226 C 
ATOM      6  O   UNL     1      -2.449   3.674   2.895  1.00  0.00    -0.275 OA
ATOM      7  H   UNL     1      -3.336   1.567   2.767  1.00  0.00     0.163 HD
BRANCH   5   8
ATOM      8  C   UNL     1      -0.834   3.262   1.190  1.00  0.00     0.113 C 
ATOM      9  C   UNL     1       1.418   0.496   0.062  1.00  0.00     0.147 C 
ATOM     10  N   UNL     1       0.509   1.619   0.212  1.00  0.00    -0.339 N 
ATOM     11  C   UNL     1      -0.379   1.994  -0.786  1.00  0.00     0.223 C 
ATOM     12  C   UNL     1       0.531   2.548   1.355  1.00  0.00     0.057 C 
ATOM     13  O   UNL     1      -0.528   1.459  -1.872  1.00  0.00    -0.275 OA
ATOM     14  C   UNL     1      -1.181   3.167  -0.296  1.00  0.00     0.116 C 
ATOM     15  C   UNL     1       0.676   1.851   2.717  1.00  0.00     0.046 C 
ATOM     16  C   UNL     1       1.725   3.536   1.137  1.00  0.00     0.046 C 
ATOM     17  C   UNL     1       1.004   2.812   3.845  1.00  0.00     0.105 C 
ATOM     18  C   UNL     1       2.138   4.352   2.366  1.00  0.00     0.105 C 
ATOM     19  N   UNL     1       2.280   3.498   3.580  1.00  0.00    -0.198 NA
BRANCH  19  20
ATOM     20  S   UNL     1       3.747   2.611   3.687  1.00  0.00     0.245 S 
ATOM     21  O   UNL     1       3.737   1.557   2.696  1.00  0.00    -0.207 OA
ATOM     22  O   UNL     1       4.814   3.594   3.666  1.00  0.00    -0.207 OA
BRANCH  20  23
ATOM     23  C   UNL     1       3.759   1.855   5.287  1.00  0.00     0.118 A 
ATOM     24  C   UNL     1       4.630   2.326   6.276  1.00  0.00     0.025 A 
ATOM     25  C   UNL     1       3.004   0.711   5.532  1.00  0.00     0.143 A 
ATOM     26  C   UNL     1       4.703   1.669   7.510  1.00  0.00     0.002 A 
ATOM     27  C   UNL     1       3.053   0.074   6.770  1.00  0.00     0.041 A 
ATOM     28  F   UNL     1       2.186   0.194   4.607  1.00  0.00    -0.206 F 
ATOM     29  C   UNL     1       3.907   0.551   7.761  1.00  0.00     0.003 A 
ENDBRANCH  20  23
ENDBRANCH  19  20
ENDBRANCH   5   8
ENDBRANCH   3   4
ENDBRANCH   2   3
ENDBRANCH   1   2
BRANCH   1  30
ATOM     30  C   UNL     1      -4.043  -2.128   2.521  1.00  0.00     0.002 C 
BRANCH  30  31
ATOM     31  C   UNL     1      -3.589  -3.151   1.476  1.00  0.00     0.021 C 
BRANCH  31  32
ATOM     32  C   UNL     1      -2.597  -4.198   1.978  1.00  0.00     0.116 C 
BRANCH  32  33
ATOM     33  N   UNL     1      -3.172  -5.066   2.992  1.00  0.00    -0.352 N 
ATOM     34  C   UNL     1      -3.350  -6.427   2.970  1.00  0.00     0.251 C 
ATOM     35  H   UNL     1      -3.478  -4.613   3.811  1.00  0.00     0.163 HD
ATOM     36  O   UNL     1      -4.006  -6.986   3.842  1.00  0.00    -0.269 OA
BRANCH  34  37
ATOM     37  C   UNL     1      -2.764  -7.219   1.870  1.00  0.00     0.039 A 
ATOM     38  C   UNL     1      -3.585  -8.094   1.154  1.00  0.00     0.014 A 
ATOM     39  C   UNL     1      -1.412  -7.084   1.538  1.00  0.00     0.014 A 
ATOM     40  C   UNL     1      -3.068  -8.780   0.053  1.00  0.00     0.010 A 
ATOM     41  C   UNL     1      -0.912  -7.729   0.410  1.00  0.00     0.010 A 
ATOM     42  C   UNL     1      -1.739  -8.572  -0.349  1.00  0.00    -0.014 A 
BRANCH  42  43
ATOM     43  C   UNL     1      -1.198  -9.199  -1.579  1.00  0.00     0.031 A 
ATOM     44  C   UNL     1      -0.121 -10.240  -1.489  1.00  0.00     0.074 A 
ATOM     45  C   UNL     1      -1.624  -8.771  -2.783  1.00  0.00     0.049 A 
ATOM     46  N   UNL     1       0.540 -10.828  -2.453  1.00  0.00    -0.248 NA
ATOM     47  C   UNL     1       0.277 -10.662  -0.137  1.00  0.00     0.031 C 
ATOM     48  C   UNL     1      -2.651  -7.752  -3.007  1.00  0.00     0.029 A 
ATOM     49  N   UNL     1      -1.232  -9.133  -4.047  1.00  0.00    -0.354 N 
ATOM     50  C   UNL     1       1.441 -11.678  -1.827  1.00  0.00     0.074 A 
ATOM     51  C   UNL     1       1.267 -11.503  -0.400  1.00  0.00     0.031 C 
ATOM     52  C   UNL     1      -2.822  -7.585  -4.328  1.00  0.00     0.029 A 
ATOM     53  C   UNL     1      -1.889  -8.451  -5.041  1.00  0.00     0.049 A 
ATOM     54  H   UNL     1      -0.546  -9.817  -4.224  1.00  0.00     0.167 HD
ATOM     55  C   UNL     1       2.325 -12.537  -2.387  1.00  0.00     0.031 A 
ATOM     56  C   UNL     1      -1.746  -8.505  -6.378  1.00  0.00     0.031 A 
ATOM     57  C   UNL     1       2.500 -12.715  -3.804  1.00  0.00     0.049 A 
ATOM     58  C   UNL     1      -0.720  -9.424  -6.975  1.00  0.00     0.074 A 
ATOM     59  C   UNL     1       3.331 -13.601  -4.467  1.00  0.00     0.029 A 
ATOM     60  N   UNL     1       1.836 -11.984  -4.777  1.00  0.00    -0.354 N 
ATOM     61  N   UNL     1       0.091 -10.257  -6.370  1.00  0.00    -0.248 NA
ATOM     62  C   UNL     1      -0.588  -9.406  -8.439  1.00  0.00     0.031 C 
ATOM     63  C   UNL     1       3.202 -13.375  -5.843  1.00  0.00     0.029 A 
ATOM     64  C   UNL     1       2.260 -12.377  -6.035  1.00  0.00     0.049 A 
ATOM     65  H   UNL     1       1.162 -11.288  -4.599  1.00  0.00     0.167 HD
ATOM     66  C   UNL     1       0.817 -10.876  -7.379  1.00  0.00     0.074 A 
ATOM     67  C   UNL     1       0.343 -10.330  -8.635  1.00  0.00     0.031 C 
ATOM     68  C   UNL     1       1.788 -11.816  -7.273  1.00  0.00     0.031 A 
BRANCH  55  69
ATOM     69  C   UNL     1       3.183 -13.343  -1.454  1.00  0.00    -0.014 A 
ATOM     70  C   UNL     1       2.643 -14.398  -0.702  1.00  0.00     0.009 A 
ATOM     71  C   UNL     1       4.551 -13.053  -1.336  1.00  0.00     0.009 A 
ATOM     72  C   UNL     1       3.448 -15.122   0.179  1.00  0.00     0.001 A 
ATOM     73  C   UNL     1       5.359 -13.795  -0.472  1.00  0.00     0.001 A 
ATOM     74  C   UNL     1       4.805 -14.822   0.292  1.00  0.00     0.000 A 
ENDBRANCH  55  69
BRANCH  56  75
ATOM     75  C   UNL     1      -2.604  -7.662  -7.247  1.00  0.00    -0.014 A 
ATOM     76  C   UNL     1      -3.651  -8.242  -7.979  1.00  0.00     0.009 A 
ATOM     77  C   UNL     1      -2.393  -6.277  -7.340  1.00  0.00     0.009 A 
ATOM     78  C   UNL     1      -4.462  -7.454  -8.798  1.00  0.00     0.001 A 
ATOM     79  C   UNL     1      -3.220  -5.489  -8.143  1.00  0.00     0.001 A 
ATOM     80  C   UNL     1      -4.249  -6.078  -8.875  1.00  0.00     0.000 A 
ENDBRANCH  56  75
BRANCH  68  81
ATOM     81  C   UNL     1       2.389 -12.323  -8.551  1.00  0.00    -0.014 A 
ATOM     82  C   UNL     1       3.318 -11.554  -9.268  1.00  0.00     0.009 A 
ATOM     83  C   UNL     1       2.052 -13.602  -9.020  1.00  0.00     0.009 A 
ATOM     84  C   UNL     1       3.881 -12.049 -10.446  1.00  0.00     0.001 A 
ATOM     85  C   UNL     1       2.633 -14.102 -10.186  1.00  0.00     0.001 A 
ATOM     86  C   UNL     1       3.542 -13.323 -10.901  1.00  0.00     0.000 A 
ENDBRANCH  68  81
ENDBRANCH  42  43
ENDBRANCH  34  37
ENDBRANCH  32  33
ENDBRANCH  31  32
ENDBRANCH  30  31
ENDBRANCH   1  30
TORSDOF 15
