REMARK SMILES CCCc1cc(S(F)(F)(F)(F)F)cc2c1O[C@@H](C(F)(F)F)C(C(=O)NCCCCCCNC(=O)c1ccc(-c3c4nc(c(-c5ccccc5)c5ccc([nH]5)c(-c5ccccc5)c5nc(c(-c6ccccc6)c6ccc3[nH]6)C=C5)C=C4)cc1)=C2
REMARK SMILES IDX 28 1 27 2 26 3 25 4 23 5 24 6 22 8 4 9 5 10 15 11 6 12 14 13
REMARK SMILES IDX 16 14 13 15 83 16 17 17 3 18 2 19 1 20 7 21 8 22 9 23 10 24
REMARK SMILES IDX 11 25 12 26 18 27 19 28 20 29 21 30 29 31 30 32 31 33 32 34
REMARK SMILES IDX 33 35 34 37 35 38 36 39 82 40 37 41 81 42 38 43 39 44 40 45
REMARK SMILES IDX 75 46 41 47 80 48 74 49 76 50 42 51 79 52 73 53 72 54 43 56
REMARK SMILES IDX 65 57 50 58 64 59 51 60 54 61 63 62 77 63 52 64 53 65 62 67
REMARK SMILES IDX 78 68 55 69 44 70 45 71 49 72 46 73 48 74 47 75 66 76 67 77
REMARK SMILES IDX 71 78 68 79 70 80 69 81 56 82 57 83 61 84 58 85 60 86 59 87
REMARK H PARENT 25 7 32 36 76 55 54 66
REMARK Flexibility Score: inf
ROOT
ATOM      1  C   UNL     1      -3.386   5.562  -5.670  1.00  0.00     0.002 C 
ENDROOT
BRANCH   1   2
ATOM      2  C   UNL     1      -2.396   5.448  -4.523  1.00  0.00     0.021 C 
BRANCH   2   3
ATOM      3  C   UNL     1      -3.018   4.642  -3.395  1.00  0.00     0.116 C 
BRANCH   3   4
ATOM      4  N   UNL     1      -3.359   3.298  -3.883  1.00  0.00    -0.352 N 
ATOM      5  C   UNL     1      -2.753   2.113  -3.257  1.00  0.00     0.251 C 
ATOM      6  O   UNL     1      -3.048   0.951  -3.680  1.00  0.00    -0.270 OA
ATOM      7  H   UNL     1      -3.992   3.191  -4.629  1.00  0.00     0.163 HD
BRANCH   5   8
ATOM      8  C   UNL     1      -1.775   2.278  -2.106  1.00  0.00     0.067 C 
ATOM      9  C   UNL     1       0.518   2.624   1.369  1.00  0.00    -0.004 A 
ATOM     10  C   UNL     1       1.020   3.857   1.744  1.00  0.00     0.032 A 
ATOM     11  C   UNL     1      -0.278   2.548   0.251  1.00  0.00     0.131 A 
ATOM     12  C   UNL     1       0.730   4.985   1.023  1.00  0.00     0.108 A 
ATOM     13  C   UNL     1      -0.576   3.663  -0.512  1.00  0.00     0.019 A 
ATOM     14  O   UNL     1      -0.860   1.340  -0.044  1.00  0.00    -0.475 OA
ATOM     15  C   UNL     1      -0.059   4.887  -0.104  1.00  0.00     0.036 A 
ATOM     16  C   UNL     1      -1.458   3.485  -1.653  1.00  0.00     0.025 C 
ATOM     17  C   UNL     1      -1.139   1.063  -1.445  1.00  0.00     0.314 C 
BRANCH   9  18
ATOM     18  C   UNL     1       1.024   1.422   2.148  1.00  0.00     0.039 C 
BRANCH  18  19
ATOM     19  C   UNL     1       0.518   0.145   1.497  1.00  0.00     0.001 C 
ATOM     20  C   UNL     1       1.024   0.071   0.066  1.00  0.00     0.004 C 
ENDBRANCH  18  19
ENDBRANCH   9  18
BRANCH  12  21
ATOM     21  S   UNL     1       1.378   6.593   1.545  1.00  0.00     0.310 S 
ATOM     22  F   UNL     1       0.490   6.519   2.857  1.00  0.00    -0.094 F 
ATOM     23  F   UNL     1       0.123   7.202   0.813  1.00  0.00    -0.094 F 
ATOM     24  F   UNL     1       1.832   8.007   2.004  1.00  0.00    -0.094 F 
ATOM     25  F   UNL     1       2.549   5.952   2.389  1.00  0.00    -0.094 F 
ATOM     26  F   UNL     1       0.866   5.142   1.181  1.00  0.00    -0.094 F 
ENDBRANCH  12  21
BRANCH  17  27
ATOM     27  C   UNL     1      -2.099  -0.112  -1.537  1.00  0.00     0.429 C 
ATOM     28  F   UNL     1      -2.357  -0.375  -2.815  1.00  0.00    -0.167 F 
ATOM     29  F   UNL     1      -1.550  -1.180  -0.966  1.00  0.00    -0.167 F 
ATOM     30  F   UNL     1      -3.232   0.192  -0.910  1.00  0.00    -0.167 F 
ENDBRANCH  17  27
ENDBRANCH   5   8
ENDBRANCH   3   4
ENDBRANCH   2   3
ENDBRANCH   1   2
BRANCH   1  31
ATOM     31  C   UNL     1      -4.647   6.259  -5.185  1.00  0.00     0.002 C 
BRANCH  31  32
ATOM     32  C   UNL     1      -4.295   7.649  -4.680  1.00  0.00     0.021 C 
BRANCH  32  33
ATOM     33  C   UNL     1      -3.673   8.455  -5.808  1.00  0.00     0.116 C 
BRANCH  33  34
ATOM     34  N   UNL     1      -4.631   8.565  -6.918  1.00  0.00    -0.352 N 
ATOM     35  C   UNL     1      -5.090   9.888  -7.364  1.00  0.00     0.251 C 
ATOM     36  H   UNL     1      -4.964   7.752  -7.362  1.00  0.00     0.163 HD
ATOM     37  O   UNL     1      -5.918   9.983  -8.323  1.00  0.00    -0.269 OA
BRANCH  35  38
ATOM     38  C   UNL     1      -4.575  11.143  -6.678  1.00  0.00     0.039 A 
ATOM     39  C   UNL     1      -5.403  12.227  -6.437  1.00  0.00     0.014 A 
ATOM     40  C   UNL     1      -3.270  11.206  -6.439  1.00  0.00     0.014 A 
ATOM     41  C   UNL     1      -4.709  13.440  -6.214  1.00  0.00     0.010 A 
ATOM     42  C   UNL     1      -2.680  12.397  -6.091  1.00  0.00     0.010 A 
ATOM     43  C   UNL     1      -3.430  13.523  -5.895  1.00  0.00    -0.014 A 
BRANCH  43  44
ATOM     44  C   UNL     1      -2.825  14.802  -5.340  1.00  0.00     0.031 A 
ATOM     45  C   UNL     1      -1.795  15.338  -6.114  1.00  0.00     0.074 A 
ATOM     46  C   UNL     1      -3.335  15.407  -4.204  1.00  0.00     0.049 A 
ATOM     47  N   UNL     1      -1.160  16.498  -5.933  1.00  0.00    -0.248 NA
ATOM     48  C   UNL     1      -1.228  14.681  -7.301  1.00  0.00     0.031 C 
ATOM     49  C   UNL     1      -4.380  14.877  -3.422  1.00  0.00     0.029 A 
ATOM     50  N   UNL     1      -2.943  16.596  -3.631  1.00  0.00    -0.354 N 
ATOM     51  C   UNL     1      -0.246  16.677  -6.889  1.00  0.00     0.074 A 
ATOM     52  C   UNL     1      -0.273  15.508  -7.779  1.00  0.00     0.031 C 
ATOM     53  C   UNL     1      -4.607  15.728  -2.387  1.00  0.00     0.029 A 
ATOM     54  C   UNL     1      -3.708  16.805  -2.505  1.00  0.00     0.049 A 
ATOM     55  H   UNL     1      -2.237  17.195  -3.969  1.00  0.00     0.167 HD
ATOM     56  C   UNL     1       0.606  17.770  -7.055  1.00  0.00     0.031 A 
ATOM     57  C   UNL     1      -3.639  17.866  -1.617  1.00  0.00     0.031 A 
ATOM     58  C   UNL     1       0.644  18.853  -6.191  1.00  0.00     0.049 A 
ATOM     59  C   UNL     1      -2.746  18.932  -1.750  1.00  0.00     0.074 A 
ATOM     60  C   UNL     1       1.492  19.966  -6.348  1.00  0.00     0.029 A 
ATOM     61  N   UNL     1      -0.104  19.049  -5.051  1.00  0.00    -0.354 N 
ATOM     62  N   UNL     1      -1.860  19.130  -2.727  1.00  0.00    -0.248 NA
ATOM     63  C   UNL     1      -2.642  20.046  -0.798  1.00  0.00     0.031 C 
ATOM     64  C   UNL     1       1.265  20.818  -5.312  1.00  0.00     0.029 A 
ATOM     65  C   UNL     1       0.273  20.249  -4.491  1.00  0.00     0.049 A 
ATOM     66  H   UNL     1      -0.789  18.437  -4.698  1.00  0.00     0.167 HD
ATOM     67  C   UNL     1      -1.197  20.270  -2.523  1.00  0.00     0.074 A 
ATOM     68  C   UNL     1      -1.685  20.872  -1.275  1.00  0.00     0.031 C 
ATOM     69  C   UNL     1      -0.207  20.834  -3.330  1.00  0.00     0.031 A 
BRANCH  56  70
ATOM     70  C   UNL     1       1.544  17.773  -8.251  1.00  0.00    -0.014 A 
ATOM     71  C   UNL     1       1.015  17.721  -9.530  1.00  0.00     0.009 A 
ATOM     72  C   UNL     1       2.856  17.825  -8.050  1.00  0.00     0.009 A 
ATOM     73  C   UNL     1       1.970  17.436 -10.534  1.00  0.00     0.001 A 
ATOM     74  C   UNL     1       3.731  17.674  -9.098  1.00  0.00     0.001 A 
ATOM     75  C   UNL     1       3.276  17.558 -10.382  1.00  0.00     0.000 A 
ENDBRANCH  56  70
BRANCH  57  76
ATOM     76  C   UNL     1      -4.589  17.871  -0.430  1.00  0.00    -0.014 A 
ATOM     77  C   UNL     1      -5.485  18.918  -0.281  1.00  0.00     0.009 A 
ATOM     78  C   UNL     1      -4.545  16.872   0.444  1.00  0.00     0.009 A 
ATOM     79  C   UNL     1      -6.102  18.967   0.991  1.00  0.00     0.001 A 
ATOM     80  C   UNL     1      -5.280  16.925   1.603  1.00  0.00     0.001 A 
ATOM     81  C   UNL     1      -6.141  17.959   1.844  1.00  0.00     0.000 A 
ENDBRANCH  57  76
BRANCH  69  82
ATOM     82  C   UNL     1       0.379  22.172  -2.909  1.00  0.00    -0.014 A 
ATOM     83  C   UNL     1       0.975  22.338  -1.669  1.00  0.00     0.009 A 
ATOM     84  C   UNL     1       0.250  23.189  -3.753  1.00  0.00     0.009 A 
ATOM     85  C   UNL     1       1.146  23.691  -1.292  1.00  0.00     0.001 A 
ATOM     86  C   UNL     1       0.565  24.468  -3.361  1.00  0.00     0.001 A 
ATOM     87  C   UNL     1       1.103  24.713  -2.128  1.00  0.00     0.000 A 
ENDBRANCH  69  82
ENDBRANCH  43  44
ENDBRANCH  35  38
ENDBRANCH  33  34
ENDBRANCH  32  33
ENDBRANCH  31  32
ENDBRANCH   1  31
TORSDOF 17
