REMARK SMILES O=C(NCCCCCCNC(=O)c1ccccc1O[C@H]1CCOC2(CCSCC2)C1)c1ccc(-c2c3nc(c(-c4ccccc4)c4ccc([nH]4)c(-c4ccccc4)c4nc(c(-c5ccccc5)c5ccc2[nH]5)C=C4)C=C3)cc1
REMARK SMILES IDX 6 1 5 2 4 3 3 4 1 5 2 6 31 8 32 9 78 10 33 11 77 12 34 13
REMARK SMILES IDX 35 14 36 15 71 16 37 17 76 18 70 19 72 20 38 21 75 22 69 23
REMARK SMILES IDX 68 24 39 26 61 27 46 28 60 29 47 30 50 31 59 32 73 33 48 34
REMARK SMILES IDX 49 35 58 37 74 38 51 39 40 40 41 41 45 42 42 43 44 44 43 45
REMARK SMILES IDX 62 46 63 47 67 48 64 49 66 50 65 51 52 52 53 53 57 54 54 55
REMARK SMILES IDX 56 56 55 57 7 58 8 59 9 60 10 61 11 62 12 64 13 65 14 66
REMARK SMILES IDX 18 67 15 68 17 69 16 70 19 71 20 72 21 73 30 74 22 75 24 76
REMARK SMILES IDX 23 77 25 78 29 79 26 80 28 81 27 82
REMARK H PARENT 3 7 72 25 50 36 10 63
REMARK Flexibility Score: inf
ROOT
ATOM      1  C   UNL     1       2.212   3.135  -1.759  1.00  0.00     0.002 C 
ENDROOT
BRANCH   1   2
ATOM      2  C   UNL     1       2.252   4.568  -1.230  1.00  0.00     0.021 C 
BRANCH   2   3
ATOM      3  C   UNL     1       0.941   5.335  -1.336  1.00  0.00     0.116 C 
BRANCH   3   4
ATOM      4  N   UNL     1      -0.130   4.743  -0.554  1.00  0.00    -0.352 N 
ATOM      5  O   UNL     1      -1.762   4.674   1.006  1.00  0.00    -0.269 OA
ATOM      6  C   UNL     1      -0.988   5.347   0.332  1.00  0.00     0.251 C 
ATOM      7  H   UNL     1      -0.259   3.775  -0.676  1.00  0.00     0.163 HD
BRANCH   6   8
ATOM      8  C   UNL     1      -0.960   6.817   0.492  1.00  0.00     0.039 A 
ATOM      9  C   UNL     1      -0.924   7.657  -0.623  1.00  0.00     0.014 A 
ATOM     10  C   UNL     1      -0.977   7.360   1.780  1.00  0.00     0.014 A 
ATOM     11  C   UNL     1      -0.775   9.028  -0.451  1.00  0.00     0.010 A 
ATOM     12  C   UNL     1      -0.910   8.745   1.951  1.00  0.00     0.010 A 
ATOM     13  C   UNL     1      -0.785   9.589   0.837  1.00  0.00    -0.014 A 
BRANCH  13  14
ATOM     14  C   UNL     1      -0.748  11.065   0.986  1.00  0.00     0.031 A 
ATOM     15  C   UNL     1       0.415  11.758   1.637  1.00  0.00     0.074 A 
ATOM     16  C   UNL     1      -1.779  11.783   0.501  1.00  0.00     0.049 A 
ATOM     17  N   UNL     1       0.610  13.041   1.817  1.00  0.00    -0.248 NA
ATOM     18  C   UNL     1       1.497  10.908   2.157  1.00  0.00     0.031 C 
ATOM     19  C   UNL     1      -2.968  11.220  -0.145  1.00  0.00     0.029 A 
ATOM     20  N   UNL     1      -1.986  13.137   0.456  1.00  0.00    -0.354 N 
ATOM     21  C   UNL     1       1.822  13.153   2.485  1.00  0.00     0.074 A 
ATOM     22  C   UNL     1       2.310  11.806   2.699  1.00  0.00     0.031 C 
ATOM     23  C   UNL     1      -3.755  12.220  -0.565  1.00  0.00     0.029 A 
ATOM     24  C   UNL     1      -3.161  13.489  -0.163  1.00  0.00     0.049 A 
ATOM     25  H   UNL     1      -1.355  13.793   0.831  1.00  0.00     0.167 HD
ATOM     26  C   UNL     1       2.470  14.276   2.880  1.00  0.00     0.031 A 
ATOM     27  C   UNL     1      -3.711  14.698  -0.373  1.00  0.00     0.031 A 
ATOM     28  C   UNL     1       1.978  15.614   2.670  1.00  0.00     0.049 A 
ATOM     29  C   UNL     1      -2.988  15.921   0.107  1.00  0.00     0.074 A 
ATOM     30  C   UNL     1       2.578  16.815   3.007  1.00  0.00     0.029 A 
ATOM     31  N   UNL     1       0.766  15.926   2.076  1.00  0.00    -0.354 N 
ATOM     32  N   UNL     1      -1.823  16.009   0.702  1.00  0.00    -0.248 NA
ATOM     33  C   UNL     1      -3.656  17.210  -0.113  1.00  0.00     0.031 C 
ATOM     34  C   UNL     1       1.705  17.853   2.663  1.00  0.00     0.029 A 
ATOM     35  C   UNL     1       0.587  17.300   2.060  1.00  0.00     0.049 A 
ATOM     36  H   UNL     1       0.126  15.269   1.717  1.00  0.00     0.167 HD
ATOM     37  C   UNL     1      -1.611  17.364   0.915  1.00  0.00     0.074 A 
ATOM     38  C   UNL     1      -2.756  18.059   0.363  1.00  0.00     0.031 C 
ATOM     39  C   UNL     1      -0.563  17.976   1.517  1.00  0.00     0.031 A 
BRANCH  26  40
ATOM     40  C   UNL     1       3.775  14.108   3.609  1.00  0.00    -0.014 A 
ATOM     41  C   UNL     1       4.939  13.700   2.938  1.00  0.00     0.009 A 
ATOM     42  C   UNL     1       3.853  14.414   4.977  1.00  0.00     0.009 A 
ATOM     43  C   UNL     1       6.146  13.575   3.630  1.00  0.00     0.001 A 
ATOM     44  C   UNL     1       5.066  14.312   5.660  1.00  0.00     0.001 A 
ATOM     45  C   UNL     1       6.210  13.886   4.988  1.00  0.00     0.000 A 
ENDBRANCH  26  40
BRANCH  27  46
ATOM     46  C   UNL     1      -5.024  14.803  -1.058  1.00  0.00    -0.014 A 
ATOM     47  C   UNL     1      -5.116  15.339  -2.350  1.00  0.00     0.009 A 
ATOM     48  C   UNL     1      -6.193  14.349  -0.424  1.00  0.00     0.009 A 
ATOM     49  C   UNL     1      -6.355  15.437  -2.987  1.00  0.00     0.001 A 
ATOM     50  C   UNL     1      -7.425  14.421  -1.075  1.00  0.00     0.001 A 
ATOM     51  C   UNL     1      -7.507  14.973  -2.352  1.00  0.00     0.000 A 
ENDBRANCH  27  46
BRANCH  39  52
ATOM     52  C   UNL     1      -0.602  19.476   1.585  1.00  0.00    -0.014 A 
ATOM     53  C   UNL     1      -1.475  20.141   2.459  1.00  0.00     0.009 A 
ATOM     54  C   UNL     1       0.261  20.231   0.776  1.00  0.00     0.009 A 
ATOM     55  C   UNL     1      -1.508  21.536   2.495  1.00  0.00     0.001 A 
ATOM     56  C   UNL     1       0.245  21.625   0.835  1.00  0.00     0.001 A 
ATOM     57  C   UNL     1      -0.646  22.276   1.686  1.00  0.00     0.000 A 
ENDBRANCH  39  52
ENDBRANCH  13  14
ENDBRANCH   6   8
ENDBRANCH   3   4
ENDBRANCH   2   3
ENDBRANCH   1   2
BRANCH   1  58
ATOM     58  C   UNL     1       1.677   2.965  -3.184  1.00  0.00     0.002 C 
BRANCH  58  59
ATOM     59  C   UNL     1       2.345   3.825  -4.263  1.00  0.00     0.021 C 
BRANCH  59  60
ATOM     60  C   UNL     1       3.863   3.710  -4.343  1.00  0.00     0.116 C 
BRANCH  60  61
ATOM     61  N   UNL     1       4.300   2.361  -4.630  1.00  0.00    -0.352 N 
ATOM     62  C   UNL     1       5.326   1.942  -5.434  1.00  0.00     0.255 C 
ATOM     63  H   UNL     1       3.788   1.646  -4.187  1.00  0.00     0.163 HD
ATOM     64  O   UNL     1       5.509   0.737  -5.601  1.00  0.00    -0.269 OA
BRANCH  62  65
ATOM     65  C   UNL     1       6.179   2.906  -6.164  1.00  0.00     0.081 A 
ATOM     66  C   UNL     1       6.263   2.722  -7.554  1.00  0.00     0.018 A 
ATOM     67  C   UNL     1       6.947   3.896  -5.526  1.00  0.00     0.132 A 
ATOM     68  C   UNL     1       7.103   3.526  -8.320  1.00  0.00     0.001 A 
ATOM     69  C   UNL     1       7.827   4.657  -6.307  1.00  0.00     0.047 A 
ATOM     70  C   UNL     1       7.892   4.485  -7.694  1.00  0.00     0.004 A 
BRANCH  67  71
ATOM     71  O   UNL     1       6.789   4.049  -4.174  1.00  0.00    -0.489 OA
BRANCH  71  72
ATOM     72  C   UNL     1       7.335   5.202  -3.521  1.00  0.00     0.178 C 
ATOM     73  C   UNL     1       6.643   6.503  -3.939  1.00  0.00     0.074 C 
ATOM     74  C   UNL     1       7.112   5.031  -2.010  1.00  0.00     0.080 C 
ATOM     75  C   UNL     1       7.234   7.657  -3.154  1.00  0.00     0.165 C 
ATOM     76  C   UNL     1       7.620   6.251  -1.208  1.00  0.00     0.073 C 
ATOM     77  O   UNL     1       7.068   7.461  -1.755  1.00  0.00    -0.375 OA
ATOM     78  C   UNL     1       9.165   6.282  -1.192  1.00  0.00     0.046 C 
ATOM     79  C   UNL     1       7.071   6.167   0.235  1.00  0.00     0.046 C 
ATOM     80  C   UNL     1       9.761   7.447  -0.413  1.00  0.00     0.072 C 
ATOM     81  C   UNL     1       7.496   7.335   1.122  1.00  0.00     0.072 C 
ATOM     82  S   UNL     1       9.295   7.388   1.336  1.00  0.00    -0.162 SA
ENDBRANCH  71  72
ENDBRANCH  67  71
ENDBRANCH  62  65
ENDBRANCH  60  61
ENDBRANCH  59  60
ENDBRANCH  58  59
ENDBRANCH   1  58
TORSDOF 15
