REMARK SMILES O=C(NCCCCCCNC(=O)c1cc([C@@H]2C=NN=C2c2ccc(F)cc2)c2c(ccc3ccccc32)n1)c1ccc(-c2c3nc(c(-c4ccccc4)c4ccc([nH]4)c(-c4ccccc4)c4nc(c(-c5ccccc5)c5ccc2[nH]5)C=C4)C=C3)cc1
REMARK SMILES IDX 6 1 5 2 4 3 3 4 1 5 2 6 39 8 40 9 86 10 41 11 85 12 42 13
REMARK SMILES IDX 43 14 44 15 79 16 45 17 84 18 78 19 80 20 46 21 83 22 77 23
REMARK SMILES IDX 76 24 47 26 69 27 54 28 68 29 55 30 58 31 67 32 81 33 56 34
REMARK SMILES IDX 57 35 66 37 82 38 59 39 48 40 49 41 53 42 50 43 52 44 51 45
REMARK SMILES IDX 70 46 71 47 75 48 72 49 74 50 73 51 60 52 61 53 65 54 62 55
REMARK SMILES IDX 64 56 63 57 7 58 8 59 9 60 10 61 11 62 12 64 13 65 14 66
REMARK SMILES IDX 38 67 15 68 29 69 28 70 30 71 37 72 31 73 32 74 36 75 33 76
REMARK SMILES IDX 35 77 34 78 16 79 17 80 20 81 18 82 19 83 21 84 22 85 27 86
REMARK SMILES IDX 23 87 26 88 24 89 25 90
REMARK H PARENT 3 7 80 25 58 36 10 63
REMARK Flexibility Score: inf
ROOT
ATOM      1  C   UNL     1       4.211  -2.615  -2.341  1.00  0.00     0.002 C 
ENDROOT
BRANCH   1   2
ATOM      2  C   UNL     1       4.736  -1.946  -1.065  1.00  0.00     0.021 C 
BRANCH   2   3
ATOM      3  C   UNL     1       4.572  -0.426  -1.024  1.00  0.00     0.116 C 
BRANCH   3   4
ATOM      4  N   UNL     1       3.205   0.021  -1.171  1.00  0.00    -0.352 N 
ATOM      5  O   UNL     1       1.159   0.753  -0.782  1.00  0.00    -0.269 OA
ATOM      6  C   UNL     1       2.163   0.211  -0.312  1.00  0.00     0.251 C 
ATOM      7  H   UNL     1       2.974   0.238  -2.103  1.00  0.00     0.163 HD
BRANCH   6   8
ATOM      8  C   UNL     1       2.126  -0.258   1.099  1.00  0.00     0.039 A 
ATOM      9  C   UNL     1       3.199  -0.792   1.816  1.00  0.00     0.014 A 
ATOM     10  C   UNL     1       0.862  -0.207   1.716  1.00  0.00     0.014 A 
ATOM     11  C   UNL     1       2.995  -1.371   3.063  1.00  0.00     0.010 A 
ATOM     12  C   UNL     1       0.654  -0.767   2.967  1.00  0.00     0.010 A 
ATOM     13  C   UNL     1       1.714  -1.395   3.611  1.00  0.00    -0.014 A 
BRANCH  13  14
ATOM     14  C   UNL     1       1.537  -1.995   4.926  1.00  0.00     0.031 A 
ATOM     15  C   UNL     1       2.180  -1.255   6.047  1.00  0.00     0.074 A 
ATOM     16  C   UNL     1       0.723  -3.049   5.134  1.00  0.00     0.049 A 
ATOM     17  N   UNL     1       3.065  -1.681   6.888  1.00  0.00    -0.248 NA
ATOM     18  C   UNL     1       1.860   0.176   6.188  1.00  0.00     0.031 C 
ATOM     19  C   UNL     1      -0.188  -3.685   4.179  1.00  0.00     0.029 A 
ATOM     20  N   UNL     1       0.445  -3.694   6.300  1.00  0.00    -0.354 N 
ATOM     21  C   UNL     1       3.295  -0.628   7.772  1.00  0.00     0.074 A 
ATOM     22  C   UNL     1       2.632   0.524   7.216  1.00  0.00     0.031 C 
ATOM     23  C   UNL     1      -1.083  -4.441   4.855  1.00  0.00     0.029 A 
ATOM     24  C   UNL     1      -0.722  -4.447   6.263  1.00  0.00     0.049 A 
ATOM     25  H   UNL     1       1.018  -3.633   7.098  1.00  0.00     0.167 HD
ATOM     26  C   UNL     1       3.824  -0.824   9.011  1.00  0.00     0.031 A 
ATOM     27  C   UNL     1      -1.384  -4.968   7.325  1.00  0.00     0.031 A 
ATOM     28  C   UNL     1       4.487  -2.094   9.122  1.00  0.00     0.049 A 
ATOM     29  C   UNL     1      -0.447  -5.004   8.470  1.00  0.00     0.074 A 
ATOM     30  C   UNL     1       5.565  -2.695   8.503  1.00  0.00     0.029 A 
ATOM     31  N   UNL     1       3.811  -3.107   9.757  1.00  0.00    -0.354 N 
ATOM     32  N   UNL     1       0.595  -5.782   8.519  1.00  0.00    -0.248 NA
ATOM     33  C   UNL     1      -0.412  -3.857   9.364  1.00  0.00     0.031 C 
ATOM     34  C   UNL     1       5.196  -4.067   8.379  1.00  0.00     0.029 A 
ATOM     35  C   UNL     1       3.946  -4.227   8.979  1.00  0.00     0.049 A 
ATOM     36  H   UNL     1       3.321  -3.041  10.608  1.00  0.00     0.167 HD
ATOM     37  C   UNL     1       1.587  -5.007   9.100  1.00  0.00     0.074 A 
ATOM     38  C   UNL     1       0.883  -3.870   9.690  1.00  0.00     0.031 C 
ATOM     39  C   UNL     1       2.905  -5.211   8.802  1.00  0.00     0.031 A 
BRANCH  26  40
ATOM     40  C   UNL     1       3.375  -0.054  10.230  1.00  0.00    -0.014 A 
ATOM     41  C   UNL     1       3.989  -0.327  11.467  1.00  0.00     0.009 A 
ATOM     42  C   UNL     1       2.182   0.693  10.268  1.00  0.00     0.009 A 
ATOM     43  C   UNL     1       3.389   0.047  12.676  1.00  0.00     0.001 A 
ATOM     44  C   UNL     1       1.603   1.105  11.472  1.00  0.00     0.001 A 
ATOM     45  C   UNL     1       2.190   0.752  12.677  1.00  0.00     0.000 A 
ENDBRANCH  26  40
BRANCH  27  46
ATOM     46  C   UNL     1      -2.843  -5.138   7.498  1.00  0.00    -0.014 A 
ATOM     47  C   UNL     1      -3.363  -5.989   8.485  1.00  0.00     0.009 A 
ATOM     48  C   UNL     1      -3.734  -4.251   6.863  1.00  0.00     0.009 A 
ATOM     49  C   UNL     1      -4.718  -5.931   8.844  1.00  0.00     0.001 A 
ATOM     50  C   UNL     1      -5.085  -4.195   7.219  1.00  0.00     0.001 A 
ATOM     51  C   UNL     1      -5.574  -5.027   8.219  1.00  0.00     0.000 A 
ENDBRANCH  27  46
BRANCH  39  52
ATOM     52  C   UNL     1       3.261  -6.426   7.981  1.00  0.00    -0.014 A 
ATOM     53  C   UNL     1       2.793  -6.623   6.669  1.00  0.00     0.009 A 
ATOM     54  C   UNL     1       4.217  -7.317   8.487  1.00  0.00     0.009 A 
ATOM     55  C   UNL     1       3.246  -7.700   5.900  1.00  0.00     0.001 A 
ATOM     56  C   UNL     1       4.685  -8.380   7.711  1.00  0.00     0.001 A 
ATOM     57  C   UNL     1       4.196  -8.575   6.421  1.00  0.00     0.000 A 
ENDBRANCH  39  52
ENDBRANCH  13  14
ENDBRANCH   6   8
ENDBRANCH   3   4
ENDBRANCH   2   3
ENDBRANCH   1   2
BRANCH   1  58
ATOM     58  C   UNL     1       4.705  -2.006  -3.657  1.00  0.00     0.002 C 
BRANCH  58  59
ATOM     59  C   UNL     1       6.224  -1.897  -3.794  1.00  0.00     0.021 C 
BRANCH  59  60
ATOM     60  C   UNL     1       6.957  -3.228  -3.740  1.00  0.00     0.116 C 
BRANCH  60  61
ATOM     61  N   UNL     1       6.683  -4.053  -4.907  1.00  0.00    -0.351 N 
ATOM     62  C   UNL     1       7.566  -4.545  -5.843  1.00  0.00     0.269 C 
ATOM     63  H   UNL     1       5.738  -4.292  -5.046  1.00  0.00     0.163 HD
ATOM     64  O   UNL     1       7.132  -5.097  -6.858  1.00  0.00    -0.268 OA
BRANCH  62  65
ATOM     65  C   UNL     1       9.029  -4.447  -5.592  1.00  0.00     0.129 A 
ATOM     66  C   UNL     1       9.533  -4.831  -4.373  1.00  0.00     0.039 A 
ATOM     67  N   UNL     1       9.807  -3.973  -6.568  1.00  0.00    -0.243 NA
ATOM     68  C   UNL     1      10.897  -4.634  -4.064  1.00  0.00    -0.021 A 
ATOM     69  C   UNL     1      11.119  -3.863  -6.340  1.00  0.00     0.072 A 
ATOM     70  C   UNL     1      11.788  -4.152  -5.105  1.00  0.00     0.012 A 
ATOM     71  C   UNL     1      11.813  -3.442  -7.450  1.00  0.00     0.029 A 
ATOM     72  C   UNL     1      13.254  -3.957  -5.104  1.00  0.00    -0.009 A 
ATOM     73  C   UNL     1      13.188  -3.281  -7.444  1.00  0.00     0.011 A 
ATOM     74  C   UNL     1      13.915  -3.531  -6.292  1.00  0.00    -0.018 A 
ATOM     75  C   UNL     1      14.133  -4.174  -4.017  1.00  0.00     0.009 A 
ATOM     76  C   UNL     1      15.310  -3.359  -6.355  1.00  0.00     0.009 A 
ATOM     77  C   UNL     1      15.522  -3.997  -4.074  1.00  0.00     0.001 A 
ATOM     78  C   UNL     1      16.115  -3.591  -5.250  1.00  0.00     0.001 A 
BRANCH  68  79
ATOM     79  C   UNL     1      11.187  -5.026  -2.634  1.00  0.00     0.115 C 
ATOM     80  C   UNL     1      11.767  -4.002  -1.730  1.00  0.00     0.123 C 
ATOM     81  C   UNL     1      12.078  -6.171  -2.285  1.00  0.00     0.083 C 
ATOM     82  N   UNL     1      12.650  -4.497  -0.924  1.00  0.00    -0.162 NA
ATOM     83  N   UNL     1      12.845  -5.881  -1.270  1.00  0.00    -0.154 NA
BRANCH  81  84
ATOM     84  C   UNL     1      11.988  -7.519  -2.888  1.00  0.00    -0.001 A 
ATOM     85  C   UNL     1      12.252  -8.623  -2.065  1.00  0.00     0.013 A 
ATOM     86  C   UNL     1      11.640  -7.732  -4.228  1.00  0.00     0.013 A 
ATOM     87  C   UNL     1      12.136  -9.920  -2.571  1.00  0.00     0.040 A 
ATOM     88  C   UNL     1      11.523  -9.029  -4.730  1.00  0.00     0.040 A 
ATOM     89  C   UNL     1      11.767 -10.111  -3.897  1.00  0.00     0.123 A 
ATOM     90  F   UNL     1      11.649 -11.354  -4.380  1.00  0.00    -0.207 F 
ENDBRANCH  81  84
ENDBRANCH  68  79
ENDBRANCH  62  65
ENDBRANCH  60  61
ENDBRANCH  59  60
ENDBRANCH  58  59
ENDBRANCH   1  58
TORSDOF 15
