REMARK SMILES O=C(CS(=O)(=O)N1CCC1)NCCCCCCNC(=O)c1ccc(-c2c3nc(c(-c4ccccc4)c4ccc([nH]4)c(-c4ccccc4)c4nc(c(-c5ccccc5)c5ccc2[nH]5)C=C4)C=C3)cc1
REMARK SMILES IDX 14 1 13 2 12 3 11 4 1 5 2 6 3 8 4 9 5 10 6 11 7 12 8 13
REMARK SMILES IDX 10 14 9 15 15 16 16 17 17 18 18 19 19 20 20 22 21 23 22 24
REMARK SMILES IDX 68 25 23 26 67 27 24 28 25 29 26 30 61 31 27 32 66 33 60 34
REMARK SMILES IDX 62 35 28 36 65 37 59 38 58 39 29 41 51 42 36 43 50 44 37 45
REMARK SMILES IDX 40 46 49 47 63 48 38 49 39 50 48 52 64 53 41 54 30 55 31 56
REMARK SMILES IDX 35 57 32 58 34 59 33 60 52 61 53 62 57 63 54 64 56 65 55 66
REMARK SMILES IDX 42 67 43 68 47 69 44 70 46 71 45 72
REMARK H PARENT 11 7 18 21 62 40 40 51
REMARK Flexibility Score: inf
ROOT
ATOM      1  C   UNL     1       4.129   3.619  -0.383  1.00  0.00     0.002 C 
ENDROOT
BRANCH   1   2
ATOM      2  C   UNL     1       2.626   3.368  -0.203  1.00  0.00     0.021 C 
BRANCH   2   3
ATOM      3  C   UNL     1       2.082   2.160  -0.964  1.00  0.00     0.116 C 
BRANCH   3   4
ATOM      4  N   UNL     1       2.755   0.938  -0.575  1.00  0.00    -0.355 N 
ATOM      5  O   UNL     1       0.984  -0.002   0.517  1.00  0.00    -0.274 OA
ATOM      6  C   UNL     1       2.154  -0.069   0.139  1.00  0.00     0.236 C 
ATOM      7  H   UNL     1       3.696   0.822  -0.838  1.00  0.00     0.163 HD
BRANCH   6   8
ATOM      8  C   UNL     1       3.019  -1.225   0.542  1.00  0.00     0.253 C 
BRANCH   8   9
ATOM      9  S   UNL     1       3.929  -1.919  -0.810  1.00  0.00     0.223 S 
ATOM     10  O   UNL     1       4.589  -0.831  -1.511  1.00  0.00    -0.212 OA
ATOM     11  O   UNL     1       4.710  -3.018  -0.281  1.00  0.00    -0.212 OA
BRANCH   9  12
ATOM     12  N   UNL     1       2.789  -2.569  -1.823  1.00  0.00    -0.201 NA
ATOM     13  C   UNL     1       2.353  -3.983  -1.939  1.00  0.00     0.103 C 
ATOM     14  C   UNL     1       1.434  -2.121  -2.223  1.00  0.00     0.103 C 
ATOM     15  C   UNL     1       1.174  -3.519  -2.816  1.00  0.00     0.033 C 
ENDBRANCH   9  12
ENDBRANCH   8   9
ENDBRANCH   6   8
ENDBRANCH   3   4
ENDBRANCH   2   3
ENDBRANCH   1   2
BRANCH   1  16
ATOM     16  C   UNL     1       4.601   3.819  -1.827  1.00  0.00     0.002 C 
BRANCH  16  17
ATOM     17  C   UNL     1       3.922   4.957  -2.592  1.00  0.00     0.021 C 
BRANCH  17  18
ATOM     18  C   UNL     1       4.031   6.336  -1.946  1.00  0.00     0.116 C 
BRANCH  18  19
ATOM     19  N   UNL     1       5.403   6.806  -1.844  1.00  0.00    -0.352 N 
ATOM     20  C   UNL     1       5.945   8.015  -2.208  1.00  0.00     0.251 C 
ATOM     21  H   UNL     1       6.039   6.162  -1.456  1.00  0.00     0.163 HD
ATOM     22  O   UNL     1       7.160   8.184  -2.166  1.00  0.00    -0.269 OA
BRANCH  20  23
ATOM     23  C   UNL     1       5.072   9.111  -2.684  1.00  0.00     0.039 A 
ATOM     24  C   UNL     1       5.448   9.819  -3.829  1.00  0.00     0.014 A 
ATOM     25  C   UNL     1       3.894   9.445  -2.010  1.00  0.00     0.014 A 
ATOM     26  C   UNL     1       4.606  10.807  -4.344  1.00  0.00     0.010 A 
ATOM     27  C   UNL     1       3.026  10.388  -2.558  1.00  0.00     0.010 A 
ATOM     28  C   UNL     1       3.369  11.070  -3.735  1.00  0.00    -0.014 A 
BRANCH  28  29
ATOM     29  C   UNL     1       2.404  12.024  -4.338  1.00  0.00     0.031 A 
ATOM     30  C   UNL     1       2.032  13.293  -3.625  1.00  0.00     0.074 A 
ATOM     31  C   UNL     1       1.801  11.708  -5.500  1.00  0.00     0.049 A 
ATOM     32  N   UNL     1       1.162  14.208  -3.971  1.00  0.00    -0.248 NA
ATOM     33  C   UNL     1       2.708  13.555  -2.346  1.00  0.00     0.031 C 
ATOM     34  C   UNL     1       2.036  10.485  -6.271  1.00  0.00     0.029 A 
ATOM     35  N   UNL     1       0.854  12.383  -6.228  1.00  0.00    -0.354 N 
ATOM     36  C   UNL     1       1.177  15.148  -2.949  1.00  0.00     0.074 A 
ATOM     37  C   UNL     1       2.108  14.668  -1.949  1.00  0.00     0.031 C 
ATOM     38  C   UNL     1       1.265  10.504  -7.369  1.00  0.00     0.029 A 
ATOM     39  C   UNL     1       0.457  11.719  -7.363  1.00  0.00     0.049 A 
ATOM     40  H   UNL     1       0.492  13.259  -5.962  1.00  0.00     0.167 HD
ATOM     41  C   UNL     1       0.490  16.312  -2.856  1.00  0.00     0.031 A 
ATOM     42  C   UNL     1      -0.462  12.043  -8.291  1.00  0.00     0.031 A 
ATOM     43  C   UNL     1      -0.438  16.791  -3.846  1.00  0.00     0.049 A 
ATOM     44  C   UNL     1      -1.222  13.331  -8.162  1.00  0.00     0.074 A 
ATOM     45  C   UNL     1      -1.135  17.987  -3.869  1.00  0.00     0.029 A 
ATOM     46  N   UNL     1      -0.806  16.093  -4.985  1.00  0.00    -0.354 N 
ATOM     47  N   UNL     1      -1.143  14.243  -7.224  1.00  0.00    -0.248 NA
ATOM     48  C   UNL     1      -2.192  13.636  -9.223  1.00  0.00     0.031 C 
ATOM     49  C   UNL     1      -1.961  17.991  -4.998  1.00  0.00     0.029 A 
ATOM     50  C   UNL     1      -1.742  16.819  -5.703  1.00  0.00     0.049 A 
ATOM     51  H   UNL     1      -0.453  15.211  -5.246  1.00  0.00     0.167 HD
ATOM     52  C   UNL     1      -2.042  15.237  -7.587  1.00  0.00     0.074 A 
ATOM     53  C   UNL     1      -2.640  14.824  -8.841  1.00  0.00     0.031 C 
ATOM     54  C   UNL     1      -2.344  16.388  -6.939  1.00  0.00     0.031 A 
BRANCH  41  55
ATOM     55  C   UNL     1       0.716  17.142  -1.623  1.00  0.00    -0.014 A 
ATOM     56  C   UNL     1       1.932  17.812  -1.410  1.00  0.00     0.009 A 
ATOM     57  C   UNL     1      -0.305  17.269  -0.668  1.00  0.00     0.009 A 
ATOM     58  C   UNL     1       2.137  18.554  -0.245  1.00  0.00     0.001 A 
ATOM     59  C   UNL     1      -0.107  18.035   0.483  1.00  0.00     0.001 A 
ATOM     60  C   UNL     1       1.117  18.667   0.699  1.00  0.00     0.000 A 
ENDBRANCH  41  55
BRANCH  42  61
ATOM     61  C   UNL     1      -0.706  11.124  -9.432  1.00  0.00    -0.014 A 
ATOM     62  C   UNL     1      -0.236  11.442 -10.714  1.00  0.00     0.009 A 
ATOM     63  C   UNL     1      -1.387   9.912  -9.236  1.00  0.00     0.009 A 
ATOM     64  C   UNL     1      -0.455  10.569 -11.782  1.00  0.00     0.001 A 
ATOM     65  C   UNL     1      -1.583   9.031 -10.301  1.00  0.00     0.001 A 
ATOM     66  C   UNL     1      -1.123   9.363 -11.574  1.00  0.00     0.000 A 
ENDBRANCH  42  61
BRANCH  54  67
ATOM     67  C   UNL     1      -3.365  17.285  -7.579  1.00  0.00    -0.014 A 
ATOM     68  C   UNL     1      -4.730  16.957  -7.560  1.00  0.00     0.009 A 
ATOM     69  C   UNL     1      -2.961  18.488  -8.177  1.00  0.00     0.009 A 
ATOM     70  C   UNL     1      -5.667  17.805  -8.155  1.00  0.00     0.001 A 
ATOM     71  C   UNL     1      -3.902  19.346  -8.748  1.00  0.00     0.001 A 
ATOM     72  C   UNL     1      -5.253  19.000  -8.743  1.00  0.00     0.000 A 
ENDBRANCH  54  67
ENDBRANCH  28  29
ENDBRANCH  20  23
ENDBRANCH  18  19
ENDBRANCH  17  18
ENDBRANCH  16  17
ENDBRANCH   1  16
TORSDOF 15
