REMARK SMILES O=C(CCCN1C(=O)/C(=C\c2ccc(O)c(O)c2)SC1=S)NCCCCCCNC(=O)c1ccc(-c2c3nc(c(-c4ccccc4)c4ccc([nH]4)c(-c4ccccc4)c4nc(c(-c5ccccc5)c5ccc2[nH]5)C=C4)C=C3)cc1
REMARK SMILES IDX 24 1 23 2 22 3 1 4 2 5 3 7 4 8 5 9 6 10 7 11 20 12 8 13 9 14
REMARK SMILES IDX 19 15 21 16 10 17 11 18 12 19 18 20 13 21 16 22 14 23 17 24
REMARK SMILES IDX 15 26 25 28 26 29 27 30 28 31 29 32 30 33 31 35 32 36 33 37
REMARK SMILES IDX 79 38 34 39 78 40 35 41 36 42 37 43 72 44 38 45 77 46 71 47
REMARK SMILES IDX 73 48 39 49 76 50 70 51 69 52 40 54 62 55 47 56 61 57 48 58
REMARK SMILES IDX 51 59 60 60 74 61 49 62 50 63 59 65 75 66 52 67 41 68 42 69
REMARK SMILES IDX 46 70 43 71 45 72 44 73 63 74 64 75 68 76 65 77 67 78 66 79
REMARK SMILES IDX 53 80 54 81 58 82 55 83 57 84 56 85
REMARK H PARENT 22 6 17 25 15 27 29 34 73 53 51 64
REMARK Flexibility Score: inf
ROOT
ATOM      1  C   UNL     1       2.493  -1.791   3.058  1.00  0.00     0.021 C 
ENDROOT
BRANCH   1   2
ATOM      2  C   UNL     1       1.873  -0.570   2.373  1.00  0.00     0.116 C 
BRANCH   2   3
ATOM      3  N   UNL     1       2.339  -0.453   1.009  1.00  0.00    -0.356 N 
ATOM      4  O   UNL     1       0.779   1.040   0.250  1.00  0.00    -0.275 OA
ATOM      5  C   UNL     1       1.793   0.379   0.066  1.00  0.00     0.220 C 
ATOM      6  H   UNL     1       3.104  -1.010   0.738  1.00  0.00     0.163 HD
BRANCH   5   7
ATOM      7  C   UNL     1       2.576   0.420  -1.242  1.00  0.00     0.102 C 
BRANCH   7   8
ATOM      8  C   UNL     1       3.897   1.190  -1.145  1.00  0.00     0.032 C 
BRANCH   8   9
ATOM      9  C   UNL     1       4.982   0.662  -0.192  1.00  0.00     0.128 C 
BRANCH   9  10
ATOM     10  N   UNL     1       5.881  -0.391  -0.703  1.00  0.00    -0.293 N 
ATOM     11  C   UNL     1       7.155   0.011  -1.098  1.00  0.00     0.266 C 
ATOM     12  C   UNL     1       5.664  -1.754  -0.704  1.00  0.00     0.148 C 
ATOM     13  O   UNL     1       7.513   1.170  -1.224  1.00  0.00    -0.268 OA
ATOM     14  C   UNL     1       8.040  -1.175  -1.300  1.00  0.00     0.081 C 
ATOM     15  S   UNL     1       7.142  -2.619  -1.083  1.00  0.00    -0.054 SA
ATOM     16  S   UNL     1       4.283  -2.629  -0.398  1.00  0.00    -0.052 S 
ATOM     17  C   UNL     1       9.345  -1.204  -1.598  1.00  0.00     0.029 C 
BRANCH  17  18
ATOM     18  C   UNL     1      10.164  -0.026  -1.856  1.00  0.00    -0.020 A 
ATOM     19  C   UNL     1      10.495   0.873  -0.832  1.00  0.00     0.012 A 
ATOM     20  C   UNL     1      10.587   0.213  -3.166  1.00  0.00     0.058 A 
ATOM     21  C   UNL     1      11.210   2.037  -1.122  1.00  0.00     0.051 A 
ATOM     22  C   UNL     1      11.301   1.367  -3.442  1.00  0.00     0.157 A 
ATOM     23  C   UNL     1      11.602   2.279  -2.433  1.00  0.00     0.157 A 
BRANCH  22  24
ATOM     24  O   UNL     1      11.693   1.611  -4.726  1.00  0.00    -0.504 OA
ATOM     25  H   UNL     1      12.177   2.388  -4.929  1.00  0.00     0.293 HD
ENDBRANCH  22  24
BRANCH  23  26
ATOM     26  O   UNL     1      12.281   3.412  -2.785  1.00  0.00    -0.504 OA
ATOM     27  H   UNL     1      12.501   4.048  -2.133  1.00  0.00     0.293 HD
ENDBRANCH  23  26
ENDBRANCH  17  18
ENDBRANCH   9  10
ENDBRANCH   8   9
ENDBRANCH   7   8
ENDBRANCH   5   7
ENDBRANCH   2   3
ENDBRANCH   1   2
BRANCH   1  28
ATOM     28  C   UNL     1       4.013  -1.714   3.278  1.00  0.00     0.002 C 
BRANCH  28  29
ATOM     29  C   UNL     1       4.493  -0.669   4.286  1.00  0.00     0.002 C 
BRANCH  29  30
ATOM     30  C   UNL     1       3.897  -0.804   5.684  1.00  0.00     0.021 C 
BRANCH  30  31
ATOM     31  C   UNL     1       4.087  -2.172   6.330  1.00  0.00     0.116 C 
BRANCH  31  32
ATOM     32  N   UNL     1       5.483  -2.471   6.611  1.00  0.00    -0.352 N 
ATOM     33  C   UNL     1       6.064  -2.850   7.797  1.00  0.00     0.251 C 
ATOM     34  H   UNL     1       6.096  -2.392   5.845  1.00  0.00     0.163 HD
ATOM     35  O   UNL     1       7.285  -2.900   7.902  1.00  0.00    -0.269 OA
BRANCH  33  36
ATOM     36  C   UNL     1       5.209  -3.169   8.961  1.00  0.00     0.039 A 
ATOM     37  C   UNL     1       5.532  -2.629  10.207  1.00  0.00     0.014 A 
ATOM     38  C   UNL     1       4.080  -3.980   8.817  1.00  0.00     0.014 A 
ATOM     39  C   UNL     1       4.682  -2.845  11.294  1.00  0.00     0.010 A 
ATOM     40  C   UNL     1       3.192  -4.124   9.879  1.00  0.00     0.010 A 
ATOM     41  C   UNL     1       3.484  -3.561  11.130  1.00  0.00    -0.014 A 
BRANCH  41  42
ATOM     42  C   UNL     1       2.525  -3.724  12.252  1.00  0.00     0.031 A 
ATOM     43  C   UNL     1       2.202  -5.094  12.783  1.00  0.00     0.074 A 
ATOM     44  C   UNL     1       1.897  -2.643  12.756  1.00  0.00     0.049 A 
ATOM     45  N   UNL     1       1.361  -5.436  13.727  1.00  0.00    -0.248 NA
ATOM     46  C   UNL     1       2.894  -6.232  12.156  1.00  0.00     0.031 C 
ATOM     47  C   UNL     1       2.087  -1.263  12.302  1.00  0.00     0.029 A 
ATOM     48  N   UNL     1       0.967  -2.536  13.760  1.00  0.00    -0.354 N 
ATOM     49  C   UNL     1       1.412  -6.823  13.794  1.00  0.00     0.074 A 
ATOM     50  C   UNL     1       2.325  -7.263  12.762  1.00  0.00     0.031 C 
ATOM     51  C   UNL     1       1.324  -0.447  13.046  1.00  0.00     0.029 A 
ATOM     52  C   UNL     1       0.557  -1.246  13.996  1.00  0.00     0.049 A 
ATOM     53  H   UNL     1       0.626  -3.310  14.264  1.00  0.00     0.167 HD
ATOM     54  C   UNL     1       0.770  -7.655  14.648  1.00  0.00     0.031 A 
ATOM     55  C   UNL     1      -0.342  -0.759  14.873  1.00  0.00     0.031 A 
ATOM     56  C   UNL     1      -0.133  -7.218  15.679  1.00  0.00     0.049 A 
ATOM     57  C   UNL     1      -1.053  -1.706  15.799  1.00  0.00     0.074 A 
ATOM     58  C   UNL     1      -0.783  -7.981  16.633  1.00  0.00     0.029 A 
ATOM     59  N   UNL     1      -0.520  -5.903  15.885  1.00  0.00    -0.354 N 
ATOM     60  N   UNL     1      -0.936  -3.007  15.899  1.00  0.00    -0.248 NA
ATOM     61  C   UNL     1      -2.011  -1.112  16.742  1.00  0.00     0.031 C 
ATOM     62  C   UNL     1      -1.615  -7.136  17.375  1.00  0.00     0.029 A 
ATOM     63  C   UNL     1      -1.426  -5.837  16.931  1.00  0.00     0.049 A 
ATOM     64  H   UNL     1      -0.200  -5.131  15.365  1.00  0.00     0.167 HD
ATOM     65  C   UNL     1      -1.782  -3.385  16.935  1.00  0.00     0.074 A 
ATOM     66  C   UNL     1      -2.391  -2.172  17.441  1.00  0.00     0.031 C 
ATOM     67  C   UNL     1      -2.030  -4.625  17.423  1.00  0.00     0.031 A 
BRANCH  54  68
ATOM     68  C   UNL     1       1.014  -9.132  14.494  1.00  0.00    -0.014 A 
ATOM     69  C   UNL     1       2.258  -9.705  14.805  1.00  0.00     0.009 A 
ATOM     70  C   UNL     1      -0.031  -9.970  14.074  1.00  0.00     0.009 A 
ATOM     71  C   UNL     1       2.460 -11.080  14.662  1.00  0.00     0.001 A 
ATOM     72  C   UNL     1       0.164 -11.348  13.963  1.00  0.00     0.001 A 
ATOM     73  C   UNL     1       1.412 -11.900  14.248  1.00  0.00     0.000 A 
ENDBRANCH  54  68
BRANCH  55  74
ATOM     74  C   UNL     1      -0.614   0.703  14.924  1.00  0.00    -0.014 A 
ATOM     75  C   UNL     1      -0.213   1.466  16.032  1.00  0.00     0.009 A 
ATOM     76  C   UNL     1      -1.281   1.342  13.867  1.00  0.00     0.009 A 
ATOM     77  C   UNL     1      -0.499   2.832  16.091  1.00  0.00     0.001 A 
ATOM     78  C   UNL     1      -1.536   2.714  13.915  1.00  0.00     0.001 A 
ATOM     79  C   UNL     1      -1.154   3.456  15.031  1.00  0.00     0.000 A 
ENDBRANCH  55  74
BRANCH  67  80
ATOM     80  C   UNL     1      -2.973  -4.732  18.590  1.00  0.00    -0.014 A 
ATOM     81  C   UNL     1      -4.349  -4.498  18.445  1.00  0.00     0.009 A 
ATOM     82  C   UNL     1      -2.477  -5.114  19.847  1.00  0.00     0.009 A 
ATOM     83  C   UNL     1      -5.203  -4.609  19.545  1.00  0.00     0.001 A 
ATOM     84  C   UNL     1      -3.338  -5.257  20.936  1.00  0.00     0.001 A 
ATOM     85  C   UNL     1      -4.698  -4.993  20.787  1.00  0.00     0.000 A 
ENDBRANCH  67  80
ENDBRANCH  41  42
ENDBRANCH  33  36
ENDBRANCH  31  32
ENDBRANCH  30  31
ENDBRANCH  29  30
ENDBRANCH  28  29
ENDBRANCH   1  28
TORSDOF 19
