REMARK SMILES Cc1c(-c2nn(-c3ccccc3)cc2/C=N/O)nnn1-c1ccc(C(=O)NCCCCCCNC(=O)c2ccc(-c3c4nc(c(-c5ccccc5)c5ccc([nH]5)c(-c5ccccc5)c5nc(c(-c6ccccc6)c6ccc3[nH]6)C=C5)C=C4)cc2)cc1
REMARK SMILES IDX 29 1 28 2 27 3 25 4 26 5 24 7 21 8 22 9 86 10 23 11 85 12
REMARK SMILES IDX 20 13 1 14 2 15 3 16 18 17 19 18 4 19 5 20 14 21 6 22 13 23
REMARK SMILES IDX 15 24 16 25 17 26 7 28 8 29 12 30 9 31 11 32 10 33 30 34
REMARK SMILES IDX 31 35 32 36 33 37 34 38 35 39 36 41 37 42 38 43 84 44 39 45
REMARK SMILES IDX 83 46 40 47 41 48 42 49 77 50 43 51 82 52 76 53 78 54 44 55
REMARK SMILES IDX 81 56 75 57 74 58 45 60 67 61 52 62 66 63 53 64 56 65 65 66
REMARK SMILES IDX 79 67 54 68 55 69 64 71 80 72 57 73 46 74 47 75 51 76 48 77
REMARK SMILES IDX 50 78 49 79 68 80 69 81 73 82 70 83 72 84 71 85 58 86 59 87
REMARK SMILES IDX 63 88 60 89 62 90 61 91
REMARK H PARENT 27 6 17 27 34 40 78 59 56 70
REMARK Flexibility Score: inf
ROOT
ATOM      1  C   UNL     1       6.319   4.549   2.078  1.00  0.00     0.021 C 
ENDROOT
BRANCH   1   2
ATOM      2  C   UNL     1       4.989   4.284   2.789  1.00  0.00     0.116 C 
BRANCH   2   3
ATOM      3  N   UNL     1       4.127   5.441   2.674  1.00  0.00    -0.352 N 
ATOM      4  C   UNL     1       3.037   5.732   1.897  1.00  0.00     0.251 C 
ATOM      5  O   UNL     1       2.536   6.849   2.034  1.00  0.00    -0.269 OA
ATOM      6  H   UNL     1       4.376   6.174   3.282  1.00  0.00     0.163 HD
BRANCH   4   7
ATOM      7  C   UNL     1       2.396   4.763   0.960  1.00  0.00     0.039 A 
ATOM      8  C   UNL     1       0.967   2.967  -0.662  1.00  0.00     0.067 A 
ATOM      9  C   UNL     1       0.350   4.138  -0.220  1.00  0.00     0.029 A 
ATOM     10  C   UNL     1       2.311   2.726  -0.365  1.00  0.00     0.029 A 
ATOM     11  C   UNL     1       1.054   5.008   0.617  1.00  0.00     0.016 A 
ATOM     12  C   UNL     1       3.032   3.657   0.390  1.00  0.00     0.016 A 
BRANCH   8  13
ATOM     13  N   UNL     1       0.247   2.056  -1.462  1.00  0.00    -0.217 N 
ATOM     14  C   UNL     1       0.775  -0.142  -0.301  1.00  0.00     0.069 C 
ATOM     15  C   UNL     1       0.253   0.675  -1.422  1.00  0.00     0.071 A 
ATOM     16  C   UNL     1      -0.439   0.330  -2.567  1.00  0.00     0.137 A 
ATOM     17  N   UNL     1      -0.926   1.445  -3.180  1.00  0.00    -0.128 NA
ATOM     18  N   UNL     1      -0.566   2.495  -2.451  1.00  0.00    -0.061 NA
BRANCH  16  19
ATOM     19  C   UNL     1      -0.778  -1.004  -3.041  1.00  0.00     0.124 A 
ATOM     20  N   UNL     1      -1.806  -1.685  -2.525  1.00  0.00    -0.165 NA
ATOM     21  C   UNL     1      -0.068  -1.747  -4.013  1.00  0.00     0.044 A 
ATOM     22  N   UNL     1      -1.701  -2.914  -3.067  1.00  0.00    -0.240 N 
ATOM     23  C   UNL     1      -0.660  -2.996  -3.963  1.00  0.00     0.125 A 
BRANCH  21  24
ATOM     24  C   UNL     1       1.017  -1.389  -4.890  1.00  0.00     0.166 C 
ATOM     25  N   UNL     1       1.583  -0.231  -4.788  1.00  0.00    -0.097 NA
BRANCH  25  26
ATOM     26  O   UNL     1       2.571  -0.115  -5.774  1.00  0.00    -0.411 OA
ATOM     27  H   UNL     1       3.079   0.670  -5.838  1.00  0.00     0.330 HD
ENDBRANCH  25  26
ENDBRANCH  21  24
BRANCH  22  28
ATOM     28  C   UNL     1      -2.570  -3.950  -2.663  1.00  0.00     0.065 A 
ATOM     29  C   UNL     1      -3.910  -3.646  -2.395  1.00  0.00     0.028 A 
ATOM     30  C   UNL     1      -2.088  -5.253  -2.499  1.00  0.00     0.028 A 
ATOM     31  C   UNL     1      -4.778  -4.658  -1.988  1.00  0.00     0.002 A 
ATOM     32  C   UNL     1      -2.952  -6.246  -2.035  1.00  0.00     0.002 A 
ATOM     33  C   UNL     1      -4.296  -5.952  -1.793  1.00  0.00     0.000 A 
ENDBRANCH  22  28
ENDBRANCH  16  19
ENDBRANCH   8  13
ENDBRANCH   4   7
ENDBRANCH   2   3
ENDBRANCH   1   2
BRANCH   1  34
ATOM     34  C   UNL     1       7.302   5.365   2.929  1.00  0.00     0.002 C 
BRANCH  34  35
ATOM     35  C   UNL     1       7.669   4.740   4.287  1.00  0.00     0.002 C 
BRANCH  35  36
ATOM     36  C   UNL     1       8.129   3.275   4.248  1.00  0.00     0.021 C 
BRANCH  36  37
ATOM     37  C   UNL     1       9.460   3.091   3.538  1.00  0.00     0.116 C 
BRANCH  37  38
ATOM     38  N   UNL     1      10.565   3.690   4.284  1.00  0.00    -0.352 N 
ATOM     39  C   UNL     1      11.911   3.689   3.976  1.00  0.00     0.251 C 
ATOM     40  H   UNL     1      10.317   4.155   5.115  1.00  0.00     0.163 HD
ATOM     41  O   UNL     1      12.753   3.900   4.832  1.00  0.00    -0.269 OA
BRANCH  39  42
ATOM     42  C   UNL     1      12.312   3.433   2.581  1.00  0.00     0.039 A 
ATOM     43  C   UNL     1      13.442   2.669   2.283  1.00  0.00     0.014 A 
ATOM     44  C   UNL     1      11.527   3.971   1.564  1.00  0.00     0.014 A 
ATOM     45  C   UNL     1      13.731   2.398   0.949  1.00  0.00     0.010 A 
ATOM     46  C   UNL     1      11.713   3.566   0.269  1.00  0.00     0.010 A 
ATOM     47  C   UNL     1      12.848   2.837  -0.053  1.00  0.00    -0.014 A 
BRANCH  47  48
ATOM     48  C   UNL     1      13.042   2.448  -1.442  1.00  0.00     0.031 A 
ATOM     49  C   UNL     1      13.154   0.982  -1.655  1.00  0.00     0.074 A 
ATOM     50  C   UNL     1      12.931   3.307  -2.478  1.00  0.00     0.049 A 
ATOM     51  N   UNL     1      14.194   0.329  -2.047  1.00  0.00    -0.248 NA
ATOM     52  C   UNL     1      12.023   0.126  -1.259  1.00  0.00     0.031 C 
ATOM     53  C   UNL     1      12.517   4.716  -2.468  1.00  0.00     0.029 A 
ATOM     54  N   UNL     1      13.066   3.052  -3.806  1.00  0.00    -0.354 N 
ATOM     55  C   UNL     1      13.807  -1.003  -2.127  1.00  0.00     0.074 A 
ATOM     56  C   UNL     1      12.520  -1.092  -1.484  1.00  0.00     0.031 C 
ATOM     57  C   UNL     1      12.207   5.109  -3.724  1.00  0.00     0.029 A 
ATOM     58  C   UNL     1      12.571   4.046  -4.642  1.00  0.00     0.049 A 
ATOM     59  H   UNL     1      13.483   2.229  -4.149  1.00  0.00     0.167 HD
ATOM     60  C   UNL     1      14.474  -1.886  -2.921  1.00  0.00     0.031 A 
ATOM     61  C   UNL     1      12.455   3.985  -5.992  1.00  0.00     0.031 A 
ATOM     62  C   UNL     1      15.759  -1.373  -3.324  1.00  0.00     0.049 A 
ATOM     63  C   UNL     1      13.370   2.921  -6.462  1.00  0.00     0.074 A 
ATOM     64  C   UNL     1      16.893  -0.971  -2.646  1.00  0.00     0.029 A 
ATOM     65  N   UNL     1      15.846  -0.802  -4.572  1.00  0.00    -0.354 N 
ATOM     66  N   UNL     1      14.667   3.009  -6.378  1.00  0.00    -0.248 NA
ATOM     67  C   UNL     1      12.841   1.573  -6.585  1.00  0.00     0.031 C 
ATOM     68  C   UNL     1      17.326   0.205  -3.328  1.00  0.00     0.029 A 
ATOM     69  C   UNL     1      16.492   0.401  -4.430  1.00  0.00     0.049 A 
ATOM     70  H   UNL     1      15.508  -1.185  -5.414  1.00  0.00     0.167 HD
ATOM     71  C   UNL     1      15.078   1.746  -5.978  1.00  0.00     0.074 A 
ATOM     72  C   UNL     1      13.923   0.880  -6.216  1.00  0.00     0.031 C 
ATOM     73  C   UNL     1      16.206   1.574  -5.228  1.00  0.00     0.031 A 
BRANCH  60  74
ATOM     74  C   UNL     1      13.800  -3.022  -3.642  1.00  0.00    -0.014 A 
ATOM     75  C   UNL     1      14.587  -3.928  -4.374  1.00  0.00     0.009 A 
ATOM     76  C   UNL     1      12.408  -3.078  -3.853  1.00  0.00     0.009 A 
ATOM     77  C   UNL     1      14.014  -4.800  -5.309  1.00  0.00     0.001 A 
ATOM     78  C   UNL     1      11.829  -3.973  -4.755  1.00  0.00     0.001 A 
ATOM     79  C   UNL     1      12.636  -4.817  -5.503  1.00  0.00     0.000 A 
ENDBRANCH  60  74
BRANCH  61  80
ATOM     80  C   UNL     1      11.422   4.576  -6.870  1.00  0.00    -0.014 A 
ATOM     81  C   UNL     1      11.631   4.683  -8.255  1.00  0.00     0.009 A 
ATOM     82  C   UNL     1      10.113   4.764  -6.391  1.00  0.00     0.009 A 
ATOM     83  C   UNL     1      10.562   4.923  -9.130  1.00  0.00     0.001 A 
ATOM     84  C   UNL     1       9.046   5.005  -7.264  1.00  0.00     0.001 A 
ATOM     85  C   UNL     1       9.268   5.067  -8.635  1.00  0.00     0.000 A 
ENDBRANCH  61  80
BRANCH  73  86
ATOM     86  C   UNL     1      17.105   2.773  -5.014  1.00  0.00    -0.014 A 
ATOM     87  C   UNL     1      16.683   3.957  -4.381  1.00  0.00     0.009 A 
ATOM     88  C   UNL     1      18.465   2.645  -5.331  1.00  0.00     0.009 A 
ATOM     89  C   UNL     1      17.589   4.989  -4.104  1.00  0.00     0.001 A 
ATOM     90  C   UNL     1      19.373   3.664  -5.035  1.00  0.00     0.001 A 
ATOM     91  C   UNL     1      18.935   4.838  -4.428  1.00  0.00     0.000 A 
ENDBRANCH  73  86
ENDBRANCH  47  48
ENDBRANCH  39  42
ENDBRANCH  37  38
ENDBRANCH  36  37
ENDBRANCH  35  36
ENDBRANCH  34  35
ENDBRANCH   1  34
TORSDOF 18
