REMARK SMILES CC[C@](C)(NC(=O)N1Cc2ccccc2C1)C(=O)NCCCCCCNC(=O)c1ccc(-c2c3nc(c(-c4ccccc4)c4ccc([nH]4)c(-c4ccccc4)c4nc(c(-c5ccccc5)c5ccc2[nH]5)C=C4)C=C3)cc1
REMARK SMILES IDX 23 1 22 2 21 3 20 4 19 5 17 6 18 7 3 9 4 10 2 11 1 12 5 13
REMARK SMILES IDX 6 14 7 16 8 17 9 18 16 19 10 20 15 21 11 22 14 23 12 24
REMARK SMILES IDX 13 25 24 26 25 27 26 28 27 29 28 31 29 32 30 33 76 34 31 35
REMARK SMILES IDX 75 36 32 37 33 38 34 39 69 40 35 41 74 42 68 43 70 44 36 45
REMARK SMILES IDX 73 46 67 47 66 48 37 50 59 51 44 52 58 53 45 54 48 55 57 56
REMARK SMILES IDX 71 57 46 58 47 59 56 61 72 62 49 63 38 64 39 65 43 66 40 67
REMARK SMILES IDX 42 68 41 69 60 70 61 71 65 72 62 73 64 74 63 75 50 76 51 77
REMARK SMILES IDX 55 78 52 79 54 80 53 81
REMARK H PARENT 19 8 5 15 26 30 70 49 48 60
REMARK Flexibility Score: inf
ROOT
ATOM      1  C   UNL     1       4.879  -0.979   6.629  1.00  0.00     0.002 C 
ENDROOT
BRANCH   1   2
ATOM      2  C   UNL     1       4.293  -2.087   5.761  1.00  0.00     0.002 C 
BRANCH   2   3
ATOM      3  C   UNL     1       2.768  -2.128   5.644  1.00  0.00     0.021 C 
BRANCH   3   4
ATOM      4  C   UNL     1       2.039  -0.836   5.267  1.00  0.00     0.116 C 
BRANCH   4   5
ATOM      5  N   UNL     1       2.551  -0.108   4.118  1.00  0.00    -0.354 N 
ATOM      6  C   UNL     1       2.188  -0.088   2.797  1.00  0.00     0.245 C 
ATOM      7  O   UNL     1       2.758   0.749   2.087  1.00  0.00    -0.272 OA
ATOM      8  H   UNL     1       3.306   0.486   4.330  1.00  0.00     0.163 HD
BRANCH   6   9
ATOM      9  C   UNL     1       1.042  -0.976   2.232  1.00  0.00     0.117 C 
ATOM     10  C   UNL     1       1.024  -0.991   0.692  1.00  0.00     0.045 C 
BRANCH   9  11
ATOM     11  C   UNL     1      -0.237  -0.221   2.739  1.00  0.00     0.035 C 
ATOM     12  C   UNL     1      -1.590  -0.675   2.216  1.00  0.00     0.007 C 
ENDBRANCH   9  11
BRANCH   9  13
ATOM     13  N   UNL     1       1.090  -2.376   2.711  1.00  0.00    -0.324 N 
ATOM     14  C   UNL     1       1.913  -3.435   2.509  1.00  0.00     0.318 C 
ATOM     15  H   UNL     1       0.348  -2.589   3.322  1.00  0.00     0.166 HD
ATOM     16  O   UNL     1       1.409  -4.539   2.747  1.00  0.00    -0.249 OA
ATOM     17  N   UNL     1       3.219  -3.332   2.144  1.00  0.00    -0.316 N 
ATOM     18  C   UNL     1       4.050  -4.552   2.094  1.00  0.00     0.157 C 
ATOM     19  C   UNL     1       4.059  -2.153   1.987  1.00  0.00     0.157 C 
ATOM     20  C   UNL     1       5.463  -4.045   2.111  1.00  0.00    -0.023 A 
ATOM     21  C   UNL     1       5.459  -2.654   2.049  1.00  0.00    -0.023 A 
ATOM     22  C   UNL     1       6.661  -4.728   2.237  1.00  0.00     0.006 A 
ATOM     23  C   UNL     1       6.619  -1.903   2.156  1.00  0.00     0.006 A 
ATOM     24  C   UNL     1       7.846  -3.984   2.337  1.00  0.00     0.000 A 
ATOM     25  C   UNL     1       7.824  -2.581   2.309  1.00  0.00     0.000 A 
ENDBRANCH   9  13
ENDBRANCH   6   9
ENDBRANCH   4   5
ENDBRANCH   3   4
ENDBRANCH   2   3
ENDBRANCH   1   2
BRANCH   1  26
ATOM     26  C   UNL     1       4.324  -0.906   8.047  1.00  0.00     0.021 C 
BRANCH  26  27
ATOM     27  C   UNL     1       4.442  -2.195   8.848  1.00  0.00     0.116 C 
BRANCH  27  28
ATOM     28  N   UNL     1       5.821  -2.555   9.131  1.00  0.00    -0.352 N 
ATOM     29  C   UNL     1       6.396  -2.852  10.346  1.00  0.00     0.251 C 
ATOM     30  H   UNL     1       6.423  -2.592   8.352  1.00  0.00     0.163 HD
ATOM     31  O   UNL     1       7.605  -2.986  10.456  1.00  0.00    -0.269 OA
BRANCH  29  32
ATOM     32  C   UNL     1       5.522  -2.974  11.532  1.00  0.00     0.039 A 
ATOM     33  C   UNL     1       5.835  -2.247  12.682  1.00  0.00     0.014 A 
ATOM     34  C   UNL     1       4.373  -3.768  11.484  1.00  0.00     0.014 A 
ATOM     35  C   UNL     1       4.955  -2.264  13.765  1.00  0.00     0.010 A 
ATOM     36  C   UNL     1       3.461  -3.722  12.533  1.00  0.00     0.010 A 
ATOM     37  C   UNL     1       3.744  -2.972  13.685  1.00  0.00    -0.014 A 
BRANCH  37  38
ATOM     38  C   UNL     1       2.762  -2.946  14.797  1.00  0.00     0.031 A 
ATOM     39  C   UNL     1       2.432  -4.211  15.540  1.00  0.00     0.074 A 
ATOM     40  C   UNL     1       2.122  -1.799  15.098  1.00  0.00     0.049 A 
ATOM     41  N   UNL     1       1.568  -4.400  16.505  1.00  0.00    -0.248 NA
ATOM     42  C   UNL     1       3.147  -5.428  15.125  1.00  0.00     0.031 C 
ATOM     43  C   UNL     1       2.321  -0.513  14.427  1.00  0.00     0.029 A 
ATOM     44  N   UNL     1       1.168  -1.533  16.049  1.00  0.00    -0.354 N 
ATOM     45  C   UNL     1       1.625  -5.756  16.799  1.00  0.00     0.074 A 
ATOM     46  C   UNL     1       2.566  -6.352  15.876  1.00  0.00     0.031 C 
ATOM     47  C   UNL     1       1.537   0.411  15.006  1.00  0.00     0.029 A 
ATOM     48  C   UNL     1       0.753  -0.223  16.061  1.00  0.00     0.049 A 
ATOM     49  H   UNL     1       0.814  -2.216  16.663  1.00  0.00     0.167 HD
ATOM     50  C   UNL     1       0.970  -6.443  17.765  1.00  0.00     0.031 A 
ATOM     51  C   UNL     1      -0.158   0.397  16.834  1.00  0.00     0.031 A 
ATOM     52  C   UNL     1       0.042  -5.851  18.690  1.00  0.00     0.049 A 
ATOM     53  C   UNL     1      -0.883  -0.391  17.890  1.00  0.00     0.074 A 
ATOM     54  C   UNL     1      -0.629  -6.450  19.741  1.00  0.00     0.029 A 
ATOM     55  N   UNL     1      -0.347  -4.520  18.672  1.00  0.00    -0.354 N 
ATOM     56  N   UNL     1      -0.765  -1.658  18.203  1.00  0.00    -0.248 NA
ATOM     57  C   UNL     1      -1.861   0.343  18.707  1.00  0.00     0.031 C 
ATOM     58  C   UNL     1      -1.464  -5.493  20.328  1.00  0.00     0.029 A 
ATOM     59  C   UNL     1      -1.269  -4.285  19.678  1.00  0.00     0.049 A 
ATOM     60  H   UNL     1      -0.017  -3.843  18.038  1.00  0.00     0.167 HD
ATOM     61  C   UNL     1      -1.629  -1.867  19.271  1.00  0.00     0.074 A 
ATOM     62  C   UNL     1      -2.253  -0.592  19.561  1.00  0.00     0.031 C 
ATOM     63  C   UNL     1      -1.881  -3.011  19.952  1.00  0.00     0.031 A 
BRANCH  50  64
ATOM     64  C   UNL     1       1.235  -7.920  17.861  1.00  0.00    -0.014 A 
ATOM     65  C   UNL     1       2.475  -8.411  18.300  1.00  0.00     0.009 A 
ATOM     66  C   UNL     1       0.223  -8.835  17.530  1.00  0.00     0.009 A 
ATOM     67  C   UNL     1       2.710  -9.786  18.367  1.00  0.00     0.001 A 
ATOM     68  C   UNL     1       0.450 -10.209  17.627  1.00  0.00     0.001 A 
ATOM     69  C   UNL     1       1.696 -10.683  18.035  1.00  0.00     0.000 A 
ENDBRANCH  50  64
BRANCH  51  70
ATOM     70  C   UNL     1      -0.425   1.848  16.656  1.00  0.00    -0.014 A 
ATOM     71  C   UNL     1      -0.014   2.771  17.630  1.00  0.00     0.009 A 
ATOM     72  C   UNL     1      -1.100   2.318  15.519  1.00  0.00     0.009 A 
ATOM     73  C   UNL     1      -0.298   4.131  17.482  1.00  0.00     0.001 A 
ATOM     74  C   UNL     1      -1.356   3.682  15.360  1.00  0.00     0.001 A 
ATOM     75  C   UNL     1      -0.964   4.586  16.346  1.00  0.00     0.000 A 
ENDBRANCH  51  70
BRANCH  63  76
ATOM     76  C   UNL     1      -2.847  -2.929  21.100  1.00  0.00    -0.014 A 
ATOM     77  C   UNL     1      -4.225  -2.771  20.885  1.00  0.00     0.009 A 
ATOM     78  C   UNL     1      -2.372  -3.052  22.415  1.00  0.00     0.009 A 
ATOM     79  C   UNL     1      -5.104  -2.706  21.968  1.00  0.00     0.001 A 
ATOM     80  C   UNL     1      -3.257  -3.017  23.494  1.00  0.00     0.001 A 
ATOM     81  C   UNL     1      -4.620  -2.834  23.270  1.00  0.00     0.000 A 
ENDBRANCH  63  76
ENDBRANCH  37  38
ENDBRANCH  29  32
ENDBRANCH  27  28
ENDBRANCH  26  27
ENDBRANCH   1  26
TORSDOF 15
