REMARK SMILES CC[C@@H](C(=O)NCCCCCCNC(=O)c1ccc(-c2c3nc(c(-c4ccccc4)c4ccc([nH]4)c(-c4ccccc4)c4nc(c(-c5ccccc5)c5ccc2[nH]5)C=C4)C=C3)cc1)N1C(=O)/C(=C/C(C)=C/c2ccccc2)SC1=S
REMARK SMILES IDX 9 1 8 2 7 3 6 4 4 5 5 6 3 8 2 9 1 10 64 11 65 12 79 13 66 14
REMARK SMILES IDX 67 15 78 16 80 17 68 18 69 19 70 20 71 21 72 22 73 23 77 24
REMARK SMILES IDX 74 25 76 26 75 27 10 28 11 29 12 30 13 31 14 32 15 34 16 35
REMARK SMILES IDX 17 36 63 37 18 38 62 39 19 40 20 41 21 42 56 43 22 44 61 45
REMARK SMILES IDX 55 46 57 47 23 48 60 49 54 50 53 51 24 53 46 54 31 55 45 56
REMARK SMILES IDX 32 57 35 58 44 59 58 60 33 61 34 62 43 64 59 65 36 66 25 67
REMARK SMILES IDX 26 68 30 69 27 70 29 71 28 72 47 73 48 74 52 75 49 76 51 77
REMARK SMILES IDX 50 78 37 79 38 80 42 81 39 82 41 83 40 84
REMARK H PARENT 6 7 13 33 57 52 35 63
REMARK Flexibility Score: inf
ROOT
ATOM      1  C   UNL     1       0.799  -3.979   1.144  1.00  0.00     0.002 C 
ENDROOT
BRANCH   1   2
ATOM      2  C   UNL     1       1.081  -2.506   0.837  1.00  0.00     0.021 C 
BRANCH   2   3
ATOM      3  C   UNL     1       1.713  -2.262  -0.537  1.00  0.00     0.116 C 
BRANCH   3   4
ATOM      4  N   UNL     1       0.690  -2.297  -1.566  1.00  0.00    -0.354 N 
ATOM      5  C   UNL     1       0.092  -1.266  -2.235  1.00  0.00     0.243 C 
ATOM      6  O   UNL     1      -0.998  -1.482  -2.772  1.00  0.00    -0.273 OA
ATOM      7  H   UNL     1       0.382  -3.197  -1.820  1.00  0.00     0.163 HD
BRANCH   5   8
ATOM      8  C   UNL     1       0.738   0.141  -2.228  1.00  0.00     0.181 C 
BRANCH   8   9
ATOM      9  C   UNL     1      -0.021   0.924  -1.110  1.00  0.00     0.032 C 
ATOM     10  C   UNL     1       0.761   1.075   0.187  1.00  0.00     0.006 C 
ENDBRANCH   8   9
BRANCH   8  11
ATOM     11  N   UNL     1       0.595   0.841  -3.536  1.00  0.00    -0.280 N 
ATOM     12  C   UNL     1       0.481   0.151  -4.732  1.00  0.00     0.266 C 
ATOM     13  C   UNL     1       0.950   2.156  -3.738  1.00  0.00     0.149 C 
ATOM     14  O   UNL     1       0.757  -1.032  -4.924  1.00  0.00    -0.268 OA
ATOM     15  C   UNL     1       0.126   1.090  -5.845  1.00  0.00     0.080 C 
ATOM     16  S   UNL     1       0.288   2.696  -5.263  1.00  0.00    -0.054 SA
ATOM     17  S   UNL     1       1.910   3.150  -2.799  1.00  0.00    -0.052 S 
ATOM     18  C   UNL     1      -0.240   0.656  -7.063  1.00  0.00     0.024 C 
BRANCH  18  19
ATOM     19  C   UNL     1      -0.675   1.387  -8.268  1.00  0.00    -0.049 C 
ATOM     20  C   UNL     1      -1.407   0.526  -9.273  1.00  0.00     0.044 C 
ATOM     21  C   UNL     1      -0.381   2.684  -8.499  1.00  0.00     0.011 C 
BRANCH  21  22
ATOM     22  C   UNL     1      -0.805   3.602  -9.574  1.00  0.00    -0.025 A 
ATOM     23  C   UNL     1       0.064   4.651  -9.912  1.00  0.00     0.008 A 
ATOM     24  C   UNL     1      -2.081   3.583 -10.148  1.00  0.00     0.008 A 
ATOM     25  C   UNL     1      -0.321   5.642 -10.817  1.00  0.00     0.001 A 
ATOM     26  C   UNL     1      -2.463   4.567 -11.067  1.00  0.00     0.001 A 
ATOM     27  C   UNL     1      -1.584   5.597 -11.399  1.00  0.00     0.000 A 
ENDBRANCH  21  22
ENDBRANCH  18  19
ENDBRANCH   8  11
ENDBRANCH   5   8
ENDBRANCH   3   4
ENDBRANCH   2   3
ENDBRANCH   1   2
BRANCH   1  28
ATOM     28  C   UNL     1       2.043  -4.845   1.364  1.00  0.00     0.002 C 
BRANCH  28  29
ATOM     29  C   UNL     1       3.019  -4.342   2.433  1.00  0.00     0.021 C 
BRANCH  29  30
ATOM     30  C   UNL     1       2.404  -4.065   3.802  1.00  0.00     0.116 C 
BRANCH  30  31
ATOM     31  N   UNL     1       1.827  -5.256   4.401  1.00  0.00    -0.352 N 
ATOM     32  C   UNL     1       2.039  -5.801   5.641  1.00  0.00     0.251 C 
ATOM     33  H   UNL     1       1.189  -5.744   3.832  1.00  0.00     0.163 HD
ATOM     34  O   UNL     1       1.587  -6.912   5.908  1.00  0.00    -0.269 OA
BRANCH  32  35
ATOM     35  C   UNL     1       2.821  -5.067   6.660  1.00  0.00     0.039 A 
ATOM     36  C   UNL     1       3.754  -5.774   7.425  1.00  0.00     0.014 A 
ATOM     37  C   UNL     1       2.603  -3.708   6.904  1.00  0.00     0.014 A 
ATOM     38  C   UNL     1       4.490  -5.113   8.410  1.00  0.00     0.010 A 
ATOM     39  C   UNL     1       3.381  -3.036   7.845  1.00  0.00     0.010 A 
ATOM     40  C   UNL     1       4.317  -3.736   8.620  1.00  0.00    -0.014 A 
BRANCH  40  41
ATOM     41  C   UNL     1       5.076  -3.029   9.682  1.00  0.00     0.031 A 
ATOM     42  C   UNL     1       4.357  -2.483  10.886  1.00  0.00     0.074 A 
ATOM     43  C   UNL     1       6.404  -2.845   9.551  1.00  0.00     0.049 A 
ATOM     44  N   UNL     1       4.840  -1.823  11.908  1.00  0.00    -0.248 NA
ATOM     45  C   UNL     1       2.900  -2.687  10.936  1.00  0.00     0.031 C 
ATOM     46  C   UNL     1       7.215  -3.291   8.417  1.00  0.00     0.029 A 
ATOM     47  N   UNL     1       7.304  -2.234  10.386  1.00  0.00    -0.354 N 
ATOM     48  C   UNL     1       3.747  -1.516  12.709  1.00  0.00     0.074 A 
ATOM     49  C   UNL     1       2.572  -2.023  12.034  1.00  0.00     0.031 C 
ATOM     50  C   UNL     1       8.498  -2.962   8.640  1.00  0.00     0.029 A 
ATOM     51  C   UNL     1       8.595  -2.262   9.918  1.00  0.00     0.049 A 
ATOM     52  H   UNL     1       7.050  -1.814  11.239  1.00  0.00     0.167 HD
ATOM     53  C   UNL     1       3.721  -0.886  13.908  1.00  0.00     0.031 A 
ATOM     54  C   UNL     1       9.731  -1.786  10.461  1.00  0.00     0.031 A 
ATOM     55  C   UNL     1       4.888  -0.400  14.593  1.00  0.00     0.049 A 
ATOM     56  C   UNL     1       9.681  -1.115  11.805  1.00  0.00     0.074 A 
ATOM     57  C   UNL     1       4.970   0.209  15.834  1.00  0.00     0.029 A 
ATOM     58  N   UNL     1       6.180  -0.476  14.097  1.00  0.00    -0.354 N 
ATOM     59  N   UNL     1       8.646  -0.884  12.575  1.00  0.00    -0.248 NA
ATOM     60  C   UNL     1      10.963  -0.660  12.363  1.00  0.00     0.031 C 
ATOM     61  C   UNL     1       6.311   0.530  16.075  1.00  0.00     0.029 A 
ATOM     62  C   UNL     1       7.066   0.082  15.003  1.00  0.00     0.049 A 
ATOM     63  H   UNL     1       6.430  -0.867  13.229  1.00  0.00     0.167 HD
ATOM     64  C   UNL     1       9.154  -0.284  13.720  1.00  0.00     0.074 A 
ATOM     65  C   UNL     1      10.590  -0.199  13.548  1.00  0.00     0.031 C 
ATOM     66  C   UNL     1       8.491   0.153  14.818  1.00  0.00     0.031 A 
BRANCH  53  67
ATOM     67  C   UNL     1       2.377  -0.688  14.550  1.00  0.00    -0.014 A 
ATOM     68  C   UNL     1       1.667  -1.769  15.096  1.00  0.00     0.009 A 
ATOM     69  C   UNL     1       1.821   0.598  14.625  1.00  0.00     0.009 A 
ATOM     70  C   UNL     1       0.409  -1.572  15.669  1.00  0.00     0.001 A 
ATOM     71  C   UNL     1       0.575   0.796  15.223  1.00  0.00     0.001 A 
ATOM     72  C   UNL     1      -0.134  -0.290  15.734  1.00  0.00     0.000 A 
ENDBRANCH  53  67
BRANCH  54  73
ATOM     73  C   UNL     1      11.024  -1.964   9.753  1.00  0.00    -0.014 A 
ATOM     74  C   UNL     1      11.962  -2.899  10.216  1.00  0.00     0.009 A 
ATOM     75  C   UNL     1      11.328  -1.199   8.617  1.00  0.00     0.009 A 
ATOM     76  C   UNL     1      13.191  -3.046   9.570  1.00  0.00     0.001 A 
ATOM     77  C   UNL     1      12.549  -1.365   7.960  1.00  0.00     0.001 A 
ATOM     78  C   UNL     1      13.482  -2.282   8.441  1.00  0.00     0.000 A 
ENDBRANCH  54  73
BRANCH  66  79
ATOM     79  C   UNL     1       9.318   0.723  15.934  1.00  0.00    -0.014 A 
ATOM     80  C   UNL     1       9.904   1.994  15.832  1.00  0.00     0.009 A 
ATOM     81  C   UNL     1       9.488  -0.015  17.116  1.00  0.00     0.009 A 
ATOM     82  C   UNL     1      10.674   2.500  16.881  1.00  0.00     0.001 A 
ATOM     83  C   UNL     1      10.238   0.504  18.172  1.00  0.00     0.001 A 
ATOM     84  C   UNL     1      10.838   1.757  18.050  1.00  0.00     0.000 A 
ENDBRANCH  66  79
ENDBRANCH  40  41
ENDBRANCH  32  35
ENDBRANCH  30  31
ENDBRANCH  29  30
ENDBRANCH  28  29
ENDBRANCH   1  28
TORSDOF 17
