REMARK SMILES CC[NH+]1CCC2(CC1)OC[C@H](C(=O)NCCCCCCNC(=O)c1ccc(-c3c4nc(c(-c5ccccc5)c5ccc([nH]5)c(-c5ccccc5)c5nc(c(-c6ccccc6)c6ccc3[nH]6)C=C5)C=C4)cc1)N2C(=O)c1ccccc1
REMARK SMILES IDX 17 1 16 2 15 3 14 4 12 5 13 6 11 8 3 9 4 10 8 11 5 13 7 14
REMARK SMILES IDX 6 15 9 16 72 17 10 18 2 19 1 20 73 21 74 22 75 23 76 24
REMARK SMILES IDX 80 25 77 26 79 27 78 28 18 29 19 30 20 31 21 32 22 33 23 35
REMARK SMILES IDX 24 36 25 37 71 38 26 39 70 40 27 41 28 42 29 43 64 44 30 45
REMARK SMILES IDX 69 46 63 47 65 48 31 49 68 50 62 51 61 52 32 54 54 55 39 56
REMARK SMILES IDX 53 57 40 58 43 59 52 60 66 61 41 62 42 63 51 65 67 66 44 67
REMARK SMILES IDX 33 68 34 69 38 70 35 71 37 72 36 73 55 74 56 75 60 76 57 77
REMARK SMILES IDX 59 78 58 79 45 80 46 81 50 82 47 83 49 84 48 85
REMARK H PARENT 14 7 3 12 21 34 65 53 43 64
REMARK Flexibility Score: inf
ROOT
ATOM      1  C   UNL     1      -3.861   9.065   2.626  1.00  0.00     0.002 C 
ENDROOT
BRANCH   1   2
ATOM      2  C   UNL     1      -3.232   8.241   3.755  1.00  0.00     0.021 C 
BRANCH   2   3
ATOM      3  C   UNL     1      -2.570   6.951   3.276  1.00  0.00     0.116 C 
BRANCH   3   4
ATOM      4  N   UNL     1      -1.290   7.223   2.649  1.00  0.00    -0.354 N 
ATOM      5  C   UNL     1       0.001   6.891   2.901  1.00  0.00     0.245 C 
ATOM      6  O   UNL     1       0.794   7.285   2.032  1.00  0.00    -0.273 OA
ATOM      7  H   UNL     1      -1.380   7.786   1.846  1.00  0.00     0.163 HD
BRANCH   5   8
ATOM      8  C   UNL     1       0.517   6.019   4.077  1.00  0.00     0.203 C 
ATOM      9  N   UNL     1      -0.008   1.383   1.844  1.00  0.00    -0.335 N 
ATOM     10  C   UNL     1      -0.079   2.664   1.182  1.00  0.00     0.267 C 
ATOM     11  C   UNL     1       0.621   1.292   3.144  1.00  0.00     0.267 C 
ATOM     12  H   UNL     1      -0.978   1.425   2.158  1.00  0.00     0.348 HD
ATOM     13  C   UNL     1      -0.716   3.678   2.113  1.00  0.00     0.120 C 
ATOM     14  C   UNL     1       0.178   2.395   4.103  1.00  0.00     0.120 C 
ATOM     15  C   UNL     1      -0.031   3.779   3.484  1.00  0.00     0.155 C 
ATOM     16  O   UNL     1      -1.061   4.380   4.366  1.00  0.00    -0.352 OA
ATOM     17  N   UNL     1       1.064   4.769   3.549  1.00  0.00    -0.295 N 
ATOM     18  C   UNL     1      -0.436   5.458   5.079  1.00  0.00     0.198 C 
BRANCH   9  19
ATOM     19  C   UNL     1      -0.112   0.168   1.059  1.00  0.00     0.258 C 
ATOM     20  C   UNL     1       0.652   0.096  -0.257  1.00  0.00     0.071 C 
ENDBRANCH   9  19
BRANCH  17  21
ATOM     21  C   UNL     1       2.426   4.742   3.311  1.00  0.00     0.256 C 
ATOM     22  O   UNL     1       3.156   5.717   3.489  1.00  0.00    -0.269 OA
BRANCH  21  23
ATOM     23  C   UNL     1       3.124   3.506   2.955  1.00  0.00     0.040 A 
ATOM     24  C   UNL     1       3.730   2.759   3.972  1.00  0.00     0.014 A 
ATOM     25  C   UNL     1       3.331   3.176   1.616  1.00  0.00     0.014 A 
ATOM     26  C   UNL     1       4.449   1.608   3.646  1.00  0.00     0.001 A 
ATOM     27  C   UNL     1       4.028   2.010   1.296  1.00  0.00     0.001 A 
ATOM     28  C   UNL     1       4.574   1.220   2.310  1.00  0.00     0.000 A 
ENDBRANCH  21  23
ENDBRANCH  17  21
ENDBRANCH   5   8
ENDBRANCH   3   4
ENDBRANCH   2   3
ENDBRANCH   1   2
BRANCH   1  29
ATOM     29  C   UNL     1      -4.963   8.346   1.835  1.00  0.00     0.002 C 
BRANCH  29  30
ATOM     30  C   UNL     1      -6.101   7.770   2.681  1.00  0.00     0.021 C 
BRANCH  30  31
ATOM     31  C   UNL     1      -6.854   8.802   3.515  1.00  0.00     0.116 C 
BRANCH  31  32
ATOM     32  N   UNL     1      -7.533   9.781   2.683  1.00  0.00    -0.352 N 
ATOM     33  C   UNL     1      -8.854  10.153   2.673  1.00  0.00     0.251 C 
ATOM     34  H   UNL     1      -6.961  10.247   2.030  1.00  0.00     0.163 HD
ATOM     35  O   UNL     1      -9.293  10.844   1.763  1.00  0.00    -0.269 OA
BRANCH  33  36
ATOM     36  C   UNL     1      -9.753   9.708   3.760  1.00  0.00     0.039 A 
ATOM     37  C   UNL     1     -11.038   9.268   3.435  1.00  0.00     0.014 A 
ATOM     38  C   UNL     1      -9.341   9.751   5.095  1.00  0.00     0.014 A 
ATOM     39  C   UNL     1     -11.895   8.828   4.446  1.00  0.00     0.010 A 
ATOM     40  C   UNL     1     -10.168   9.241   6.092  1.00  0.00     0.010 A 
ATOM     41  C   UNL     1     -11.458   8.788   5.780  1.00  0.00    -0.014 A 
BRANCH  41  42
ATOM     42  C   UNL     1     -12.345   8.299   6.865  1.00  0.00     0.031 A 
ATOM     43  C   UNL     1     -12.782   9.234   7.960  1.00  0.00     0.074 A 
ATOM     44  C   UNL     1     -12.716   7.004   6.895  1.00  0.00     0.049 A 
ATOM     45  N   UNL     1     -13.511   8.983   9.019  1.00  0.00    -0.248 NA
ATOM     46  C   UNL     1     -12.319  10.628   7.867  1.00  0.00     0.031 C 
ATOM     47  C   UNL     1     -12.335   5.988   5.912  1.00  0.00     0.029 A 
ATOM     48  N   UNL     1     -13.497   6.321   7.793  1.00  0.00    -0.354 N 
ATOM     49  C   UNL     1     -13.579  10.180   9.722  1.00  0.00     0.074 A 
ATOM     50  C   UNL     1     -12.773  11.140   9.001  1.00  0.00     0.031 C 
ATOM     51  C   UNL     1     -12.906   4.820   6.244  1.00  0.00     0.029 A 
ATOM     52  C   UNL     1     -13.658   4.992   7.483  1.00  0.00     0.049 A 
ATOM     53  H   UNL     1     -13.904   6.742   8.584  1.00  0.00     0.167 HD
ATOM     54  C   UNL     1     -14.267  10.463  10.854  1.00  0.00     0.031 A 
ATOM     55  C   UNL     1     -14.331   4.020   8.127  1.00  0.00     0.031 A 
ATOM     56  C   UNL     1     -15.075   9.510  11.566  1.00  0.00     0.049 A 
ATOM     57  C   UNL     1     -15.069   4.354   9.395  1.00  0.00     0.074 A 
ATOM     58  C   UNL     1     -15.850   9.710  12.696  1.00  0.00     0.029 A 
ATOM     59  N   UNL     1     -15.213   8.175  11.218  1.00  0.00    -0.354 N 
ATOM     60  N   UNL     1     -15.174   5.506  10.012  1.00  0.00    -0.248 NA
ATOM     61  C   UNL     1     -15.794   3.254  10.045  1.00  0.00     0.031 C 
ATOM     62  C   UNL     1     -16.412   8.484  13.063  1.00  0.00     0.029 A 
ATOM     63  C   UNL     1     -16.041   7.534  12.125  1.00  0.00     0.049 A 
ATOM     64  H   UNL     1     -14.785   7.747  10.442  1.00  0.00     0.167 HD
ATOM     65  C   UNL     1     -16.002   5.277  11.103  1.00  0.00     0.074 A 
ATOM     66  C   UNL     1     -16.384   3.881  11.053  1.00  0.00     0.031 C 
ATOM     67  C   UNL     1     -16.413   6.145  12.060  1.00  0.00     0.031 A 
BRANCH  54  68
ATOM     68  C   UNL     1     -14.164  11.863  11.395  1.00  0.00    -0.014 A 
ATOM     69  C   UNL     1     -14.742  12.950  10.719  1.00  0.00     0.009 A 
ATOM     70  C   UNL     1     -13.508  12.095  12.614  1.00  0.00     0.009 A 
ATOM     71  C   UNL     1     -14.629  14.244  11.231  1.00  0.00     0.001 A 
ATOM     72  C   UNL     1     -13.425  13.385  13.140  1.00  0.00     0.001 A 
ATOM     73  C   UNL     1     -13.976  14.460  12.444  1.00  0.00     0.000 A 
ENDBRANCH  54  68
BRANCH  55  74
ATOM     74  C   UNL     1     -14.356   2.638   7.580  1.00  0.00    -0.014 A 
ATOM     75  C   UNL     1     -15.542   2.100   7.057  1.00  0.00     0.009 A 
ATOM     76  C   UNL     1     -13.199   1.843   7.591  1.00  0.00     0.009 A 
ATOM     77  C   UNL     1     -15.577   0.784   6.588  1.00  0.00     0.001 A 
ATOM     78  C   UNL     1     -13.229   0.539   7.093  1.00  0.00     0.001 A 
ATOM     79  C   UNL     1     -14.421   0.007   6.603  1.00  0.00     0.000 A 
ENDBRANCH  55  74
BRANCH  67  80
ATOM     80  C   UNL     1     -17.359   5.620  13.104  1.00  0.00    -0.014 A 
ATOM     81  C   UNL     1     -16.936   4.718  14.092  1.00  0.00     0.009 A 
ATOM     82  C   UNL     1     -18.691   6.066  13.116  1.00  0.00     0.009 A 
ATOM     83  C   UNL     1     -17.838   4.243  15.047  1.00  0.00     0.001 A 
ATOM     84  C   UNL     1     -19.581   5.615  14.091  1.00  0.00     0.001 A 
ATOM     85  C   UNL     1     -19.157   4.696  15.049  1.00  0.00     0.000 A 
ENDBRANCH  67  80
ENDBRANCH  41  42
ENDBRANCH  33  36
ENDBRANCH  31  32
ENDBRANCH  30  31
ENDBRANCH  29  30
ENDBRANCH   1  29
TORSDOF 16
