REMARK SMILES O=C(CSc1cc(-c2ccccc2)nc(-c2ccccc2F)n1)NCCCCCCNC(=O)c1ccc(-c2c3nc(c(-c4ccccc4)c4ccc([nH]4)c(-c4ccccc4)c4nc(c(-c5ccccc5)c5ccc2[nH]5)C=C4)C=C3)cc1
REMARK SMILES IDX 27 1 26 2 25 3 24 4 1 5 2 6 3 8 4 9 5 10 6 11 23 12 7 13
REMARK SMILES IDX 15 14 14 15 8 16 9 17 13 18 10 19 12 20 11 21 16 22 17 23
REMARK SMILES IDX 21 24 18 25 20 26 22 27 19 28 28 29 29 30 30 31 31 32 32 33
REMARK SMILES IDX 33 35 34 36 35 37 81 38 36 39 80 40 37 41 38 42 39 43 74 44
REMARK SMILES IDX 40 45 79 46 73 47 75 48 41 49 78 50 72 51 71 52 42 54 64 55
REMARK SMILES IDX 49 56 63 57 50 58 53 59 62 60 76 61 51 62 52 63 61 65 77 66
REMARK SMILES IDX 54 67 43 68 44 69 48 70 45 71 47 72 46 73 65 74 66 75 70 76
REMARK SMILES IDX 67 77 69 78 68 79 55 80 56 81 60 82 57 83 59 84 58 85
REMARK H PARENT 24 7 31 34 75 53 53 64
REMARK Flexibility Score: inf
ROOT
ATOM      1  C   UNL     1       4.257   3.163  -1.740  1.00  0.00     0.002 C 
ENDROOT
BRANCH   1   2
ATOM      2  C   UNL     1       2.753   3.009  -1.476  1.00  0.00     0.021 C 
BRANCH   2   3
ATOM      3  C   UNL     1       2.201   1.607  -1.731  1.00  0.00     0.116 C 
BRANCH   3   4
ATOM      4  N   UNL     1       2.832   0.621  -0.883  1.00  0.00    -0.355 N 
ATOM      5  O   UNL     1       0.961   0.096   0.334  1.00  0.00    -0.274 OA
ATOM      6  C   UNL     1       2.148  -0.093   0.075  1.00  0.00     0.230 C 
ATOM      7  H   UNL     1       3.795   0.453  -0.996  1.00  0.00     0.163 HD
BRANCH   6   8
ATOM      8  C   UNL     1       2.995  -1.038   0.913  1.00  0.00     0.176 C 
BRANCH   8   9
ATOM      9  S   UNL     1       4.300  -1.900  -0.022  1.00  0.00    -0.096 SA
BRANCH   9  10
ATOM     10  C   UNL     1       3.292  -3.050  -0.935  1.00  0.00     0.101 A 
ATOM     11  C   UNL     1       3.537  -4.400  -0.831  1.00  0.00     0.064 A 
ATOM     12  N   UNL     1       2.359  -2.531  -1.744  1.00  0.00    -0.222 NA
ATOM     13  C   UNL     1       2.756  -5.223  -1.615  1.00  0.00     0.075 A 
ATOM     14  C   UNL     1       1.620  -3.410  -2.443  1.00  0.00     0.163 A 
ATOM     15  N   UNL     1       1.799  -4.741  -2.432  1.00  0.00    -0.228 NA
BRANCH  13  16
ATOM     16  C   UNL     1       2.942  -6.678  -1.633  1.00  0.00     0.000 A 
ATOM     17  C   UNL     1       3.272  -7.341  -2.827  1.00  0.00     0.010 A 
ATOM     18  C   UNL     1       2.808  -7.446  -0.464  1.00  0.00     0.010 A 
ATOM     19  C   UNL     1       3.483  -8.722  -2.849  1.00  0.00     0.001 A 
ATOM     20  C   UNL     1       3.009  -8.829  -0.487  1.00  0.00     0.001 A 
ATOM     21  C   UNL     1       3.352  -9.465  -1.678  1.00  0.00     0.000 A 
ENDBRANCH  13  16
BRANCH  14  22
ATOM     22  C   UNL     1       0.588  -2.868  -3.320  1.00  0.00     0.055 A 
ATOM     23  C   UNL     1       0.885  -1.859  -4.255  1.00  0.00     0.015 A 
ATOM     24  C   UNL     1      -0.734  -3.324  -3.256  1.00  0.00     0.134 A 
ATOM     25  C   UNL     1      -0.103  -1.342  -5.100  1.00  0.00     0.001 A 
ATOM     26  C   UNL     1      -1.727  -2.807  -4.088  1.00  0.00     0.040 A 
ATOM     27  F   UNL     1      -1.088  -4.260  -2.361  1.00  0.00    -0.206 F 
ATOM     28  C   UNL     1      -1.411  -1.817  -5.015  1.00  0.00     0.003 A 
ENDBRANCH  14  22
ENDBRANCH   9  10
ENDBRANCH   8   9
ENDBRANCH   6   8
ENDBRANCH   3   4
ENDBRANCH   2   3
ENDBRANCH   1   2
BRANCH   1  29
ATOM     29  C   UNL     1       4.717   2.814  -3.159  1.00  0.00     0.002 C 
BRANCH  29  30
ATOM     30  C   UNL     1       4.030   3.596  -4.281  1.00  0.00     0.021 C 
BRANCH  30  31
ATOM     31  C   UNL     1       4.174   5.112  -4.191  1.00  0.00     0.116 C 
BRANCH  31  32
ATOM     32  N   UNL     1       5.555   5.552  -4.325  1.00  0.00    -0.352 N 
ATOM     33  C   UNL     1       6.107   6.453  -5.203  1.00  0.00     0.251 C 
ATOM     34  H   UNL     1       6.189   5.143  -3.692  1.00  0.00     0.163 HD
ATOM     35  O   UNL     1       7.327   6.575  -5.278  1.00  0.00    -0.269 OA
BRANCH  33  36
ATOM     36  C   UNL     1       5.234   7.257  -6.085  1.00  0.00     0.039 A 
ATOM     37  C   UNL     1       5.561   7.368  -7.439  1.00  0.00     0.014 A 
ATOM     38  C   UNL     1       4.093   7.889  -5.585  1.00  0.00     0.014 A 
ATOM     39  C   UNL     1       4.699   8.041  -8.306  1.00  0.00     0.010 A 
ATOM     40  C   UNL     1       3.198   8.497  -6.462  1.00  0.00     0.010 A 
ATOM     41  C   UNL     1       3.486   8.569  -7.833  1.00  0.00    -0.014 A 
BRANCH  41  42
ATOM     42  C   UNL     1       2.489   9.158  -8.764  1.00  0.00     0.031 A 
ATOM     43  C   UNL     1       2.103  10.605  -8.658  1.00  0.00     0.074 A 
ATOM     44  C   UNL     1       1.870   8.362  -9.658  1.00  0.00     0.049 A 
ATOM     45  N   UNL     1       1.203  11.271  -9.338  1.00  0.00    -0.248 NA
ATOM     46  C   UNL     1       2.801  11.403  -7.639  1.00  0.00     0.031 C 
ATOM     47  C   UNL     1       2.120   6.930  -9.832  1.00  0.00     0.029 A 
ATOM     48  N   UNL     1       0.890   8.643 -10.578  1.00  0.00    -0.354 N 
ATOM     49  C   UNL     1       1.221  12.562  -8.824  1.00  0.00     0.074 A 
ATOM     50  C   UNL     1       2.180  12.569  -7.740  1.00  0.00     0.031 C 
ATOM     51  C   UNL     1       1.328   6.462 -10.809  1.00  0.00     0.029 A 
ATOM     52  C   UNL     1       0.483   7.546 -11.298  1.00  0.00     0.049 A 
ATOM     53  H   UNL     1       0.516   9.544 -10.710  1.00  0.00     0.167 HD
ATOM     54  C   UNL     1       0.517  13.646  -9.229  1.00  0.00     0.031 A 
ATOM     55  C   UNL     1      -0.477   7.417 -12.233  1.00  0.00     0.031 A 
ATOM     56  C   UNL     1      -0.449  13.634 -10.296  1.00  0.00     0.049 A 
ATOM     57  C   UNL     1      -1.274   8.624 -12.641  1.00  0.00     0.074 A 
ATOM     58  C   UNL     1      -1.178  14.691 -10.812  1.00  0.00     0.029 A 
ATOM     59  N   UNL     1      -0.833  12.503 -11.001  1.00  0.00    -0.354 N 
ATOM     60  N   UNL     1      -1.190   9.856 -12.199  1.00  0.00    -0.248 NA
ATOM     61  C   UNL     1      -2.292   8.425 -13.682  1.00  0.00     0.031 C 
ATOM     62  C   UNL     1      -2.050  14.188 -11.784  1.00  0.00     0.029 A 
ATOM     63  C   UNL     1      -1.815  12.830 -11.922  1.00  0.00     0.049 A 
ATOM     64  H   UNL     1      -0.461  11.601 -10.867  1.00  0.00     0.167 HD
ATOM     65  C   UNL     1      -2.129  10.582 -12.920  1.00  0.00     0.074 A 
ATOM     66  C   UNL     1      -2.756   9.657 -13.842  1.00  0.00     0.031 C 
ATOM     67  C   UNL     1      -2.443  11.897 -12.824  1.00  0.00     0.031 A 
BRANCH  54  68
ATOM     68  C   UNL     1       0.758  14.936  -8.491  1.00  0.00    -0.014 A 
ATOM     69  C   UNL     1       1.987  15.611  -8.582  1.00  0.00     0.009 A 
ATOM     70  C   UNL     1      -0.261  15.493  -7.703  1.00  0.00     0.009 A 
ATOM     71  C   UNL     1       2.206  16.787  -7.861  1.00  0.00     0.001 A 
ATOM     72  C   UNL     1      -0.051  16.688  -7.011  1.00  0.00     0.001 A 
ATOM     73  C   UNL     1       1.186  17.326  -7.079  1.00  0.00     0.000 A 
ENDBRANCH  54  68
BRANCH  55  74
ATOM     74  C   UNL     1      -0.740   6.086 -12.840  1.00  0.00    -0.014 A 
ATOM     75  C   UNL     1      -0.397   5.825 -14.175  1.00  0.00     0.009 A 
ATOM     76  C   UNL     1      -1.318   5.059 -12.075  1.00  0.00     0.009 A 
ATOM     77  C   UNL     1      -0.645   4.570 -14.737  1.00  0.00     0.001 A 
ATOM     78  C   UNL     1      -1.536   3.797 -12.630  1.00  0.00     0.001 A 
ATOM     79  C   UNL     1      -1.207   3.556 -13.963  1.00  0.00     0.000 A 
ENDBRANCH  55  74
BRANCH  67  80
ATOM     80  C   UNL     1      -3.503  12.421 -13.754  1.00  0.00    -0.014 A 
ATOM     81  C   UNL     1      -4.855  12.083 -13.585  1.00  0.00     0.009 A 
ATOM     82  C   UNL     1      -3.148  13.303 -14.788  1.00  0.00     0.009 A 
ATOM     83  C   UNL     1      -5.825  12.592 -14.451  1.00  0.00     0.001 A 
ATOM     84  C   UNL     1      -4.124  13.835 -15.633  1.00  0.00     0.001 A 
ATOM     85  C   UNL     1      -5.460  13.472 -15.469  1.00  0.00     0.000 A 
ENDBRANCH  67  80
ENDBRANCH  41  42
ENDBRANCH  33  36
ENDBRANCH  31  32
ENDBRANCH  30  31
ENDBRANCH  29  30
ENDBRANCH   1  29
TORSDOF 17
