REMARK SMILES CC(C)(C)SCC(=O)N1CC(n2cc(C(=O)NCCCCCCNC(=O)c3ccc(-c4c5nc(c(-c6ccccc6)c6ccc([nH]6)c(-c6ccccc6)c6nc(c(-c7ccccc7)c7ccc4[nH]7)C=C6)C=C5)cc3)nn2)C1
REMARK SMILES IDX 19 1 18 2 17 3 15 4 16 5 14 7 12 8 13 9 76 10 75 11 11 12
REMARK SMILES IDX 7 13 8 14 9 15 10 16 77 17 6 18 5 19 2 20 1 21 3 22 4 23
REMARK SMILES IDX 20 24 21 25 22 26 23 27 24 28 25 29 26 31 27 32 28 33 74 34
REMARK SMILES IDX 29 35 73 36 30 37 31 38 32 39 67 40 33 41 72 42 66 43 68 44
REMARK SMILES IDX 34 45 71 46 65 47 64 48 35 50 57 51 42 52 56 53 43 54 46 55
REMARK SMILES IDX 55 56 69 57 44 58 45 59 54 61 70 62 47 63 36 64 37 65 41 66
REMARK SMILES IDX 38 67 40 68 39 69 58 70 59 71 63 72 60 73 62 74 61 75 48 76
REMARK SMILES IDX 49 77 53 78 50 79 52 80 51 81
REMARK H PARENT 17 6 24 30 68 49 46 60
REMARK Flexibility Score: inf
ROOT
ATOM      1  C   UNL     1       8.236   2.913   1.229  1.00  0.00     0.021 C 
ENDROOT
BRANCH   1   2
ATOM      2  C   UNL     1       8.254   1.521   1.860  1.00  0.00     0.116 C 
BRANCH   2   3
ATOM      3  N   UNL     1       9.165   1.475   2.986  1.00  0.00    -0.351 N 
ATOM      4  C   UNL     1       8.975   1.226   4.325  1.00  0.00     0.273 C 
ATOM      5  O   UNL     1       9.990   1.164   5.019  1.00  0.00    -0.267 OA
ATOM      6  H   UNL     1      10.101   1.659   2.745  1.00  0.00     0.163 HD
BRANCH   4   7
ATOM      7  C   UNL     1       7.645   1.011   4.887  1.00  0.00     0.170 A 
ATOM      8  N   UNL     1       5.526   0.823   5.324  1.00  0.00    -0.245 N 
ATOM      9  C   UNL     1       6.399   1.412   4.453  1.00  0.00     0.145 A 
ATOM     10  N   UNL     1       6.172   0.183   6.303  1.00  0.00    -0.066 NA
ATOM     11  N   UNL     1       7.471   0.313   6.068  1.00  0.00    -0.125 NA
BRANCH   8  12
ATOM     12  C   UNL     1       4.116   0.836   5.121  1.00  0.00     0.148 C 
ATOM     13  C   UNL     1       1.157  -0.483   4.970  1.00  0.00     0.232 C 
ATOM     14  O   UNL     1       0.362   0.131   5.688  1.00  0.00    -0.274 OA
ATOM     15  N   UNL     1       2.502  -0.388   5.185  1.00  0.00    -0.338 N 
ATOM     16  C   UNL     1       3.227   0.308   6.250  1.00  0.00     0.148 C 
ATOM     17  C   UNL     1       3.668  -0.416   4.323  1.00  0.00     0.148 C 
BRANCH  13  18
ATOM     18  C   UNL     1       0.637  -1.486   3.954  1.00  0.00     0.170 C 
BRANCH  18  19
ATOM     19  S   UNL     1       1.290  -1.398   2.264  1.00  0.00    -0.146 SA
BRANCH  19  20
ATOM     20  C   UNL     1       0.450   0.073   1.524  1.00  0.00     0.008 C 
ATOM     21  C   UNL     1       0.915   0.100   0.055  1.00  0.00     0.022 C 
ATOM     22  C   UNL     1       0.892   1.371   2.204  1.00  0.00     0.022 C 
ATOM     23  C   UNL     1      -1.075  -0.063   1.556  1.00  0.00     0.022 C 
ENDBRANCH  19  20
ENDBRANCH  18  19
ENDBRANCH  13  18
ENDBRANCH   8  12
ENDBRANCH   4   7
ENDBRANCH   2   3
ENDBRANCH   1   2
BRANCH   1  24
ATOM     24  C   UNL     1       9.437   3.190   0.315  1.00  0.00     0.002 C 
BRANCH  24  25
ATOM     25  C   UNL     1       9.662   2.170  -0.816  1.00  0.00     0.002 C 
BRANCH  25  26
ATOM     26  C   UNL     1       8.443   1.844  -1.692  1.00  0.00     0.021 C 
BRANCH  26  27
ATOM     27  C   UNL     1       7.984   3.015  -2.543  1.00  0.00     0.116 C 
BRANCH  27  28
ATOM     28  N   UNL     1       8.968   3.380  -3.564  1.00  0.00    -0.352 N 
ATOM     29  C   UNL     1       8.899   4.384  -4.515  1.00  0.00     0.251 C 
ATOM     30  H   UNL     1       9.790   2.838  -3.576  1.00  0.00     0.163 HD
ATOM     31  O   UNL     1       9.593   4.358  -5.516  1.00  0.00    -0.269 OA
BRANCH  29  32
ATOM     32  C   UNL     1       7.979   5.508  -4.272  1.00  0.00     0.039 A 
ATOM     33  C   UNL     1       7.260   6.125  -5.300  1.00  0.00     0.014 A 
ATOM     34  C   UNL     1       7.843   5.931  -2.955  1.00  0.00     0.014 A 
ATOM     35  C   UNL     1       6.367   7.142  -4.970  1.00  0.00     0.010 A 
ATOM     36  C   UNL     1       6.812   6.752  -2.611  1.00  0.00     0.010 A 
ATOM     37  C   UNL     1       6.154   7.442  -3.616  1.00  0.00    -0.014 A 
BRANCH  37  38
ATOM     38  C   UNL     1       5.176   8.420  -3.172  1.00  0.00     0.031 A 
ATOM     39  C   UNL     1       3.779   8.054  -3.510  1.00  0.00     0.074 A 
ATOM     40  C   UNL     1       5.501   9.389  -2.287  1.00  0.00     0.049 A 
ATOM     41  N   UNL     1       3.002   8.630  -4.362  1.00  0.00    -0.248 NA
ATOM     42  C   UNL     1       3.238   6.795  -2.965  1.00  0.00     0.031 C 
ATOM     43  C   UNL     1       6.787   9.611  -1.607  1.00  0.00     0.029 A 
ATOM     44  N   UNL     1       4.702  10.313  -1.695  1.00  0.00    -0.354 N 
ATOM     45  C   UNL     1       1.793   7.948  -4.290  1.00  0.00     0.074 A 
ATOM     46  C   UNL     1       2.069   6.713  -3.604  1.00  0.00     0.031 C 
ATOM     47  C   UNL     1       6.605  10.423  -0.540  1.00  0.00     0.029 A 
ATOM     48  C   UNL     1       5.238  10.910  -0.558  1.00  0.00     0.049 A 
ATOM     49  H   UNL     1       3.811  10.544  -2.044  1.00  0.00     0.167 HD
ATOM     50  C   UNL     1       0.613   8.586  -4.528  1.00  0.00     0.031 A 
ATOM     51  C   UNL     1       4.589  11.716   0.321  1.00  0.00     0.031 A 
ATOM     52  C   UNL     1       0.834   9.877  -5.133  1.00  0.00     0.049 A 
ATOM     53  C   UNL     1       3.357  12.192  -0.354  1.00  0.00     0.074 A 
ATOM     54  C   UNL     1       1.436  10.317  -6.295  1.00  0.00     0.029 A 
ATOM     55  N   UNL     1       0.782  10.964  -4.292  1.00  0.00    -0.354 N 
ATOM     56  N   UNL     1       3.372  12.984  -1.388  1.00  0.00    -0.248 NA
ATOM     57  C   UNL     1       2.151  11.394  -0.194  1.00  0.00     0.031 C 
ATOM     58  C   UNL     1       2.141  11.496  -5.913  1.00  0.00     0.029 A 
ATOM     59  C   UNL     1       1.855  11.767  -4.573  1.00  0.00     0.049 A 
ATOM     60  H   UNL     1       0.095  11.135  -3.608  1.00  0.00     0.167 HD
ATOM     61  C   UNL     1       2.408  12.465  -2.241  1.00  0.00     0.074 A 
ATOM     62  C   UNL     1       1.628  11.542  -1.415  1.00  0.00     0.031 C 
ATOM     63  C   UNL     1       2.522  12.598  -3.595  1.00  0.00     0.031 A 
BRANCH  50  64
ATOM     64  C   UNL     1      -0.675   8.270  -3.806  1.00  0.00    -0.014 A 
ATOM     65  C   UNL     1      -1.820   9.019  -4.134  1.00  0.00     0.009 A 
ATOM     66  C   UNL     1      -0.747   7.489  -2.637  1.00  0.00     0.009 A 
ATOM     67  C   UNL     1      -2.934   9.058  -3.287  1.00  0.00     0.001 A 
ATOM     68  C   UNL     1      -1.873   7.493  -1.811  1.00  0.00     0.001 A 
ATOM     69  C   UNL     1      -2.954   8.303  -2.119  1.00  0.00     0.000 A 
ENDBRANCH  50  64
BRANCH  51  70
ATOM     70  C   UNL     1       4.797  11.877   1.780  1.00  0.00    -0.014 A 
ATOM     71  C   UNL     1       4.311  13.003   2.465  1.00  0.00     0.009 A 
ATOM     72  C   UNL     1       5.236  10.786   2.553  1.00  0.00     0.009 A 
ATOM     73  C   UNL     1       4.240  13.023   3.867  1.00  0.00     0.001 A 
ATOM     74  C   UNL     1       5.163  10.805   3.951  1.00  0.00     0.001 A 
ATOM     75  C   UNL     1       4.653  11.919   4.609  1.00  0.00     0.000 A 
ENDBRANCH  51  70
BRANCH  63  76
ATOM     76  C   UNL     1       3.589  13.519  -4.136  1.00  0.00    -0.014 A 
ATOM     77  C   UNL     1       4.968  13.297  -3.967  1.00  0.00     0.009 A 
ATOM     78  C   UNL     1       3.182  14.539  -5.008  1.00  0.00     0.009 A 
ATOM     79  C   UNL     1       5.907  14.084  -4.646  1.00  0.00     0.001 A 
ATOM     80  C   UNL     1       4.117  15.309  -5.700  1.00  0.00     0.001 A 
ATOM     81  C   UNL     1       5.479  15.084  -5.518  1.00  0.00     0.000 A 
ENDBRANCH  63  76
ENDBRANCH  37  38
ENDBRANCH  29  32
ENDBRANCH  27  28
ENDBRANCH  26  27
ENDBRANCH  25  26
ENDBRANCH  24  25
ENDBRANCH   1  24
TORSDOF 17
