REMARK SMILES C[C@@H]([NH3+])CCC(=O)N1CC(n2cc(C(=O)NCCCCCCNC(=O)c3ccc(-c4c5nc(c(-c6ccccc6)c6ccc([nH]6)c(-c6ccccc6)c6nc(c(-c7ccccc7)c7ccc4[nH]7)C=C6)C=C5)cc3)nn2)C1
REMARK SMILES IDX 18 1 17 2 16 3 14 4 15 5 13 7 11 8 12 9 75 10 74 11 10 12
REMARK SMILES IDX 6 13 7 14 8 15 9 16 76 17 5 18 4 19 2 20 1 21 3 22 19 26
REMARK SMILES IDX 20 27 21 28 22 29 23 30 24 31 25 33 26 34 27 35 73 36 28 37
REMARK SMILES IDX 72 38 29 39 30 40 31 41 66 42 32 43 71 44 65 45 67 46 33 47
REMARK SMILES IDX 70 48 64 49 63 50 34 52 56 53 41 54 55 55 42 56 45 57 54 58
REMARK SMILES IDX 68 59 43 60 44 61 53 63 69 64 46 65 35 66 36 67 40 68 37 69
REMARK SMILES IDX 39 70 38 71 57 72 58 73 62 74 59 75 61 76 60 77 47 78 48 79
REMARK SMILES IDX 52 80 49 81 51 82 50 83
REMARK H PARENT 16 6 3 23 3 24 3 25 23 32 67 51 45 62
REMARK Flexibility Score: inf
ROOT
ATOM      1  C   UNL     1       6.164  -4.606   3.800  1.00  0.00     0.021 C 
ENDROOT
BRANCH   1   2
ATOM      2  C   UNL     1       6.163  -3.552   2.691  1.00  0.00     0.116 C 
BRANCH   2   3
ATOM      3  N   UNL     1       7.097  -3.896   1.637  1.00  0.00    -0.351 N 
ATOM      4  C   UNL     1       6.934  -4.149   0.294  1.00  0.00     0.273 C 
ATOM      5  O   UNL     1       7.966  -4.274  -0.366  1.00  0.00    -0.267 OA
ATOM      6  H   UNL     1       8.031  -3.962   1.941  1.00  0.00     0.163 HD
BRANCH   4   7
ATOM      7  C   UNL     1       5.615  -4.232  -0.327  1.00  0.00     0.170 A 
ATOM      8  N   UNL     1       3.510  -4.395  -0.857  1.00  0.00    -0.245 N 
ATOM      9  C   UNL     1       4.382  -4.588   0.184  1.00  0.00     0.145 A 
ATOM     10  N   UNL     1       4.155  -4.018  -1.965  1.00  0.00    -0.066 NA
ATOM     11  N   UNL     1       5.446  -3.952  -1.670  1.00  0.00    -0.125 NA
BRANCH   8  12
ATOM     12  C   UNL     1       2.088  -4.385  -0.693  1.00  0.00     0.148 C 
ATOM     13  C   UNL     1      -0.738  -2.949  -0.600  1.00  0.00     0.222 C 
ATOM     14  O   UNL     1      -1.414  -3.973  -0.543  1.00  0.00    -0.275 OA
ATOM     15  N   UNL     1       0.591  -2.954  -0.977  1.00  0.00    -0.338 N 
ATOM     16  C   UNL     1       1.221  -3.955  -1.872  1.00  0.00     0.148 C 
ATOM     17  C   UNL     1       1.681  -3.085  -0.007  1.00  0.00     0.148 C 
BRANCH  13  18
ATOM     18  C   UNL     1      -1.329  -1.568  -0.344  1.00  0.00     0.106 C 
BRANCH  18  19
ATOM     19  C   UNL     1      -1.066  -0.932   1.026  1.00  0.00     0.074 C 
BRANCH  19  20
ATOM     20  C   UNL     1       0.358  -0.424   1.307  1.00  0.00     0.178 C 
ATOM     21  C   UNL     1       0.925   0.502   0.237  1.00  0.00     0.075 C 
BRANCH  20  22
ATOM     22  N   UNL     1       0.404   0.252   2.605  1.00  0.00    -0.355 N 
ATOM     23  H   UNL     1      -0.192   1.079   2.579  1.00  0.00     0.344 HD
ATOM     24  H   UNL     1       1.364   0.530   2.809  1.00  0.00     0.344 HD
ATOM     25  H   UNL     1       0.072  -0.383   3.331  1.00  0.00     0.344 HD
ENDBRANCH  20  22
ENDBRANCH  19  20
ENDBRANCH  18  19
ENDBRANCH  13  18
ENDBRANCH   8  12
ENDBRANCH   4   7
ENDBRANCH   2   3
ENDBRANCH   1   2
BRANCH   1  26
ATOM     26  C   UNL     1       7.383  -4.550   4.733  1.00  0.00     0.002 C 
BRANCH  26  27
ATOM     27  C   UNL     1       7.634  -3.212   5.449  1.00  0.00     0.002 C 
BRANCH  27  28
ATOM     28  C   UNL     1       6.439  -2.589   6.185  1.00  0.00     0.021 C 
BRANCH  28  29
ATOM     29  C   UNL     1       5.934  -3.410   7.362  1.00  0.00     0.116 C 
BRANCH  29  30
ATOM     30  N   UNL     1       6.894  -3.472   8.461  1.00  0.00    -0.352 N 
ATOM     31  C   UNL     1       6.800  -4.178   9.647  1.00  0.00     0.251 C 
ATOM     32  H   UNL     1       7.715  -2.942   8.343  1.00  0.00     0.163 HD
ATOM     33  O   UNL     1       7.462  -3.866  10.621  1.00  0.00    -0.269 OA
BRANCH  31  34
ATOM     34  C   UNL     1       5.874  -5.324   9.712  1.00  0.00     0.039 A 
ATOM     35  C   UNL     1       5.090  -5.557  10.844  1.00  0.00     0.014 A 
ATOM     36  C   UNL     1       5.784  -6.157   8.601  1.00  0.00     0.014 A 
ATOM     37  C   UNL     1       4.149  -6.584  10.809  1.00  0.00     0.010 A 
ATOM     38  C   UNL     1       4.756  -7.061   8.509  1.00  0.00     0.010 A 
ATOM     39  C   UNL     1       3.968  -7.318   9.626  1.00  0.00    -0.014 A 
BRANCH  39  40
ATOM     40  C   UNL     1       2.877  -8.280   9.504  1.00  0.00     0.031 A 
ATOM     41  C   UNL     1       1.533  -7.752   9.859  1.00  0.00     0.074 A 
ATOM     42  C   UNL     1       3.010  -9.489   8.916  1.00  0.00     0.049 A 
ATOM     43  N   UNL     1       0.798  -8.106  10.859  1.00  0.00    -0.248 NA
ATOM     44  C   UNL     1       0.989  -6.624   9.085  1.00  0.00     0.031 C 
ATOM     45  C   UNL     1       4.186 -10.052   8.244  1.00  0.00     0.029 A 
ATOM     46  N   UNL     1       2.055 -10.431   8.682  1.00  0.00    -0.354 N 
ATOM     47  C   UNL     1      -0.392  -7.397  10.733  1.00  0.00     0.074 A 
ATOM     48  C   UNL     1      -0.153  -6.385   9.735  1.00  0.00     0.031 C 
ATOM     49  C   UNL     1       3.808 -11.093   7.469  1.00  0.00     0.029 A 
ATOM     50  C   UNL     1       2.409 -11.378   7.728  1.00  0.00     0.049 A 
ATOM     51  H   UNL     1       1.188 -10.441   9.148  1.00  0.00     0.167 HD
ATOM     52  C   UNL     1      -1.551  -7.867  11.273  1.00  0.00     0.031 A 
ATOM     53  C   UNL     1       1.604 -12.314   7.169  1.00  0.00     0.031 A 
ATOM     54  C   UNL     1      -1.307  -8.921  12.228  1.00  0.00     0.049 A 
ATOM     55  C   UNL     1       0.444 -12.496   8.070  1.00  0.00     0.074 A 
ATOM     56  C   UNL     1      -0.553  -9.036  13.380  1.00  0.00     0.029 A 
ATOM     57  N   UNL     1      -1.565 -10.210  11.823  1.00  0.00    -0.354 N 
ATOM     58  N   UNL     1       0.538 -13.040   9.248  1.00  0.00    -0.248 NA
ATOM     59  C   UNL     1      -0.733 -11.670   7.857  1.00  0.00     0.031 C 
ATOM     60  C   UNL     1       0.025 -10.340  13.307  1.00  0.00     0.029 A 
ATOM     61  C   UNL     1      -0.477 -10.969  12.167  1.00  0.00     0.049 A 
ATOM     62  H   UNL     1      -2.380 -10.529  11.372  1.00  0.00     0.167 HD
ATOM     63  C   UNL     1      -0.279 -12.263  10.055  1.00  0.00     0.074 A 
ATOM     64  C   UNL     1      -1.124 -11.514   9.126  1.00  0.00     0.031 C 
ATOM     65  C   UNL     1       0.007 -12.080  11.380  1.00  0.00     0.031 A 
BRANCH  52  66
ATOM     66  C   UNL     1      -2.901  -7.691  10.621  1.00  0.00    -0.014 A 
ATOM     67  C   UNL     1      -4.038  -8.193  11.282  1.00  0.00     0.009 A 
ATOM     68  C   UNL     1      -3.062  -7.335   9.269  1.00  0.00     0.009 A 
ATOM     69  C   UNL     1      -5.239  -8.414  10.597  1.00  0.00     0.001 A 
ATOM     70  C   UNL     1      -4.272  -7.513   8.594  1.00  0.00     0.001 A 
ATOM     71  C   UNL     1      -5.351  -8.085   9.251  1.00  0.00     0.000 A 
ENDBRANCH  52  66
BRANCH  53  72
ATOM     72  C   UNL     1       1.655 -12.905   5.816  1.00  0.00    -0.014 A 
ATOM     73  C   UNL     1       0.938 -14.074   5.518  1.00  0.00     0.009 A 
ATOM     74  C   UNL     1       2.185 -12.169   4.740  1.00  0.00     0.009 A 
ATOM     75  C   UNL     1       0.718 -14.465   4.190  1.00  0.00     0.001 A 
ATOM     76  C   UNL     1       1.969 -12.562   3.415  1.00  0.00     0.001 A 
ATOM     77  C   UNL     1       1.219 -13.700   3.140  1.00  0.00     0.000 A 
ENDBRANCH  53  72
BRANCH  65  78
ATOM     78  C   UNL     1       1.092 -12.932  11.997  1.00  0.00    -0.014 A 
ATOM     79  C   UNL     1       2.413 -12.975  11.514  1.00  0.00     0.009 A 
ATOM     80  C   UNL     1       0.802 -13.619  13.185  1.00  0.00     0.009 A 
ATOM     81  C   UNL     1       3.396 -13.723  12.170  1.00  0.00     0.001 A 
ATOM     82  C   UNL     1       1.790 -14.345  13.855  1.00  0.00     0.001 A 
ATOM     83  C   UNL     1       3.083 -14.407  13.342  1.00  0.00     0.000 A 
ENDBRANCH  65  78
ENDBRANCH  39  40
ENDBRANCH  31  34
ENDBRANCH  29  30
ENDBRANCH  28  29
ENDBRANCH  27  28
ENDBRANCH  26  27
ENDBRANCH   1  26
TORSDOF 18
