REMARK SMILES CCN(C)C(=O)Cn1ccc2c(C(=O)NCCCCCCNC(=O)c3ccc(-c4c5nc(c(-c6ccccc6)c6ccc([nH]6)c(-c6ccccc6)c6nc(c(-c7ccccc7)c7ccc4[nH]7)C=C6)C=C5)cc3)cccc21
REMARK SMILES IDX 17 1 16 2 15 3 13 4 14 5 12 7 8 8 9 9 76 10 10 11 11 12
REMARK SMILES IDX 75 13 74 14 73 15 7 16 5 17 6 18 3 19 4 20 2 21 1 22 18 23
REMARK SMILES IDX 19 24 20 25 21 26 22 27 23 28 24 30 25 31 26 32 72 33 27 34
REMARK SMILES IDX 71 35 28 36 29 37 30 38 65 39 31 40 70 41 64 42 66 43 32 44
REMARK SMILES IDX 69 45 63 46 62 47 33 49 55 50 40 51 54 52 41 53 44 54 53 55
REMARK SMILES IDX 67 56 42 57 43 58 52 60 68 61 45 62 34 63 35 64 39 65 36 66
REMARK SMILES IDX 38 67 37 68 56 69 57 70 61 71 58 72 60 73 59 74 46 75 47 76
REMARK SMILES IDX 51 77 48 78 50 79 49 80
REMARK H PARENT 15 6 22 29 66 48 44 59
REMARK Flexibility Score: inf
ROOT
ATOM      1  C   UNL     1      -2.381  -7.521   1.145  1.00  0.00     0.021 C 
ENDROOT
BRANCH   1   2
ATOM      2  C   UNL     1      -0.891  -7.323   1.439  1.00  0.00     0.116 C 
BRANCH   2   3
ATOM      3  N   UNL     1      -0.115  -7.799   0.307  1.00  0.00    -0.352 N 
ATOM      4  C   UNL     1       0.448  -7.175  -0.777  1.00  0.00     0.251 C 
ATOM      5  O   UNL     1       0.936  -7.908  -1.642  1.00  0.00    -0.269 OA
ATOM      6  H   UNL     1       0.039  -8.771   0.321  1.00  0.00     0.163 HD
BRANCH   4   7
ATOM      7  C   UNL     1       0.558  -5.695  -0.892  1.00  0.00     0.049 A 
ATOM      8  N   UNL     1       2.675  -3.404  -2.651  1.00  0.00    -0.338 N 
ATOM      9  C   UNL     1       3.184  -4.559  -3.202  1.00  0.00     0.087 A 
ATOM     10  C   UNL     1       1.795  -3.740  -1.640  1.00  0.00     0.049 A 
ATOM     11  C   UNL     1       2.542  -5.628  -2.624  1.00  0.00     0.029 A 
ATOM     12  C   UNL     1       1.578  -5.124  -1.702  1.00  0.00     0.012 A 
ATOM     13  C   UNL     1       1.132  -2.956  -0.692  1.00  0.00     0.027 A 
ATOM     14  C   UNL     1       0.004  -3.476  -0.078  1.00  0.00     0.003 A 
ATOM     15  C   UNL     1      -0.320  -4.811  -0.246  1.00  0.00     0.014 A 
BRANCH   8  16
ATOM     16  C   UNL     1       2.868  -2.100  -3.300  1.00  0.00     0.222 C 
BRANCH  16  17
ATOM     17  C   UNL     1       2.434  -0.859  -2.540  1.00  0.00     0.242 C 
ATOM     18  O   UNL     1       3.284  -0.183  -1.950  1.00  0.00    -0.273 OA
BRANCH  17  19
ATOM     19  N   UNL     1       1.084  -0.491  -2.537  1.00  0.00    -0.344 N 
ATOM     20  C   UNL     1       0.072  -1.143  -3.363  1.00  0.00     0.146 C 
BRANCH  19  21
ATOM     21  C   UNL     1       0.679   0.713  -1.799  1.00  0.00     0.115 C 
ATOM     22  C   UNL     1       0.853   0.614  -0.284  1.00  0.00     0.027 C 
ENDBRANCH  19  21
ENDBRANCH  17  19
ENDBRANCH  16  17
ENDBRANCH   8  16
ENDBRANCH   4   7
ENDBRANCH   2   3
ENDBRANCH   1   2
BRANCH   1  23
ATOM     23  C   UNL     1      -2.845  -8.948   1.459  1.00  0.00     0.002 C 
BRANCH  23  24
ATOM     24  C   UNL     1      -2.804  -9.305   2.950  1.00  0.00     0.002 C 
BRANCH  24  25
ATOM     25  C   UNL     1      -3.607  -8.367   3.858  1.00  0.00     0.021 C 
BRANCH  25  26
ATOM     26  C   UNL     1      -5.084  -8.261   3.478  1.00  0.00     0.116 C 
BRANCH  26  27
ATOM     27  N   UNL     1      -5.758  -9.541   3.449  1.00  0.00    -0.352 N 
ATOM     28  C   UNL     1      -6.279 -10.375   4.395  1.00  0.00     0.251 C 
ATOM     29  H   UNL     1      -5.865  -9.891   2.536  1.00  0.00     0.163 HD
ATOM     30  O   UNL     1      -6.813 -11.406   3.978  1.00  0.00    -0.269 OA
BRANCH  28  31
ATOM     31  C   UNL     1      -6.191 -10.164   5.865  1.00  0.00     0.039 A 
ATOM     32  C   UNL     1      -5.748  -9.005   6.504  1.00  0.00     0.014 A 
ATOM     33  C   UNL     1      -6.566 -11.266   6.658  1.00  0.00     0.014 A 
ATOM     34  C   UNL     1      -5.577  -8.984   7.885  1.00  0.00     0.010 A 
ATOM     35  C   UNL     1      -6.424 -11.243   8.038  1.00  0.00     0.010 A 
ATOM     36  C   UNL     1      -5.880 -10.117   8.644  1.00  0.00    -0.014 A 
BRANCH  36  37
ATOM     37  C   UNL     1      -5.738 -10.037  10.094  1.00  0.00     0.031 A 
ATOM     38  C   UNL     1      -6.620  -9.027  10.740  1.00  0.00     0.074 A 
ATOM     39  C   UNL     1      -4.965 -10.876  10.812  1.00  0.00     0.049 A 
ATOM     40  N   UNL     1      -6.264  -7.992  11.425  1.00  0.00    -0.248 NA
ATOM     41  C   UNL     1      -8.069  -9.114  10.494  1.00  0.00     0.031 C 
ATOM     42  C   UNL     1      -4.264 -12.071  10.331  1.00  0.00     0.029 A 
ATOM     43  N   UNL     1      -4.728 -10.902  12.157  1.00  0.00    -0.354 N 
ATOM     44  C   UNL     1      -7.445  -7.384  11.845  1.00  0.00     0.074 A 
ATOM     45  C   UNL     1      -8.515  -8.033  11.134  1.00  0.00     0.031 C 
ATOM     46  C   UNL     1      -3.892 -12.829  11.388  1.00  0.00     0.029 A 
ATOM     47  C   UNL     1      -4.179 -12.097  12.609  1.00  0.00     0.049 A 
ATOM     48  H   UNL     1      -4.926 -10.143  12.752  1.00  0.00     0.167 HD
ATOM     49  C   UNL     1      -7.467  -6.544  12.916  1.00  0.00     0.031 A 
ATOM     50  C   UNL     1      -4.006 -12.473  13.899  1.00  0.00     0.031 A 
ATOM     51  C   UNL     1      -6.142  -6.125  13.282  1.00  0.00     0.049 A 
ATOM     52  C   UNL     1      -3.981 -11.252  14.728  1.00  0.00     0.074 A 
ATOM     53  C   UNL     1      -5.208  -5.245  12.785  1.00  0.00     0.029 A 
ATOM     54  N   UNL     1      -5.495  -6.977  14.139  1.00  0.00    -0.354 N 
ATOM     55  N   UNL     1      -3.031 -10.367  14.665  1.00  0.00    -0.248 NA
ATOM     56  C   UNL     1      -5.188 -10.829  15.424  1.00  0.00     0.031 C 
ATOM     57  C   UNL     1      -3.941  -5.769  13.172  1.00  0.00     0.029 A 
ATOM     58  C   UNL     1      -4.142  -6.920  13.935  1.00  0.00     0.049 A 
ATOM     59  H   UNL     1      -5.941  -7.548  14.805  1.00  0.00     0.167 HD
ATOM     60  C   UNL     1      -3.672  -9.166  14.896  1.00  0.00     0.074 A 
ATOM     61  C   UNL     1      -4.930  -9.523  15.540  1.00  0.00     0.031 C 
ATOM     62  C   UNL     1      -3.268  -8.028  14.263  1.00  0.00     0.031 A 
BRANCH  49  63
ATOM     63  C   UNL     1      -8.610  -6.458  13.901  1.00  0.00    -0.014 A 
ATOM     64  C   UNL     1      -9.649  -7.405  13.966  1.00  0.00     0.009 A 
ATOM     65  C   UNL     1      -8.502  -5.571  14.990  1.00  0.00     0.009 A 
ATOM     66  C   UNL     1     -10.524  -7.478  15.055  1.00  0.00     0.001 A 
ATOM     67  C   UNL     1      -9.355  -5.662  16.099  1.00  0.00     0.001 A 
ATOM     68  C   UNL     1     -10.363  -6.619  16.132  1.00  0.00     0.000 A 
ENDBRANCH  49  63
BRANCH  50  69
ATOM     69  C   UNL     1      -4.125 -13.811  14.512  1.00  0.00    -0.014 A 
ATOM     70  C   UNL     1      -5.075 -14.720  14.014  1.00  0.00     0.009 A 
ATOM     71  C   UNL     1      -3.557 -14.075  15.770  1.00  0.00     0.009 A 
ATOM     72  C   UNL     1      -5.495 -15.815  14.775  1.00  0.00     0.001 A 
ATOM     73  C   UNL     1      -3.977 -15.174  16.531  1.00  0.00     0.001 A 
ATOM     74  C   UNL     1      -4.962 -16.030  16.042  1.00  0.00     0.000 A 
ENDBRANCH  50  69
BRANCH  62  75
ATOM     75  C   UNL     1      -1.883  -8.008  13.670  1.00  0.00    -0.014 A 
ATOM     76  C   UNL     1      -1.006  -6.999  14.097  1.00  0.00     0.009 A 
ATOM     77  C   UNL     1      -1.467  -8.859  12.632  1.00  0.00     0.009 A 
ATOM     78  C   UNL     1       0.240  -6.829  13.494  1.00  0.00     0.001 A 
ATOM     79  C   UNL     1      -0.205  -8.707  12.048  1.00  0.00     0.001 A 
ATOM     80  C   UNL     1       0.642  -7.685  12.471  1.00  0.00     0.000 A 
ENDBRANCH  62  75
ENDBRANCH  36  37
ENDBRANCH  28  31
ENDBRANCH  26  27
ENDBRANCH  25  26
ENDBRANCH  24  25
ENDBRANCH  23  24
ENDBRANCH   1  23
TORSDOF 17
