REMARK SMILES Cn1cc(/C=C/C(=O)N(CC(=O)NCCCCCCNC(=O)c2ccc(-c3c4nc(c(-c5ccccc5)c5ccc([nH]5)c(-c5ccccc5)c5nc(c(-c6ccccc6)c6ccc3[nH]6)C=C5)C=C4)cc2)C(C)(C)C)cn1
REMARK SMILES IDX 15 1 14 2 13 3 11 4 12 5 10 7 9 8 7 9 8 10 6 11 5 12 4 13
REMARK SMILES IDX 1 14 2 15 3 16 76 17 75 18 71 19 72 20 73 21 74 22 16 23
REMARK SMILES IDX 17 24 18 25 19 26 20 27 21 28 22 30 23 31 24 32 70 33 25 34
REMARK SMILES IDX 69 35 26 36 27 37 28 38 63 39 29 40 68 41 62 42 64 43 30 44
REMARK SMILES IDX 67 45 61 46 60 47 31 49 53 50 38 51 52 52 39 53 42 54 51 55
REMARK SMILES IDX 65 56 40 57 41 58 50 60 66 61 43 62 32 63 33 64 37 65 34 66
REMARK SMILES IDX 36 67 35 68 54 69 55 70 59 71 56 72 58 73 57 74 44 75 45 76
REMARK SMILES IDX 49 77 46 78 48 79 47 80
REMARK H PARENT 13 6 20 29 64 48 42 59
REMARK Flexibility Score: inf
ROOT
ATOM      1  C   UNL     1       4.909  -2.623  -3.891  1.00  0.00     0.021 C 
ENDROOT
BRANCH   1   2
ATOM      2  C   UNL     1       3.742  -2.823  -2.936  1.00  0.00     0.116 C 
BRANCH   2   3
ATOM      3  N   UNL     1       3.512  -4.205  -2.570  1.00  0.00    -0.355 N 
ATOM      4  C   UNL     1       3.529  -4.856  -1.375  1.00  0.00     0.239 C 
ATOM      5  O   UNL     1       3.044  -5.995  -1.374  1.00  0.00    -0.273 OA
ATOM      6  H   UNL     1       3.303  -4.788  -3.335  1.00  0.00     0.163 HD
BRANCH   4   7
ATOM      7  C   UNL     1       3.949  -4.217  -0.033  1.00  0.00     0.220 C 
BRANCH   7   8
ATOM      8  N   UNL     1       5.124  -3.338  -0.013  1.00  0.00    -0.325 N 
BRANCH   8   9
ATOM      9  C   UNL     1       5.057  -1.944   0.090  1.00  0.00     0.247 C 
ATOM     10  O   UNL     1       6.070  -1.239   0.049  1.00  0.00    -0.270 OA
BRANCH   9  11
ATOM     11  C   UNL     1       3.782  -1.154   0.276  1.00  0.00     0.072 C 
ATOM     12  C   UNL     1       2.512  -1.401  -0.084  1.00  0.00     0.017 C 
BRANCH  12  13
ATOM     13  C   UNL     1       1.394  -0.527   0.024  1.00  0.00     0.013 A 
ATOM     14  C   UNL     1      -2.128   0.202  -0.019  1.00  0.00     0.173 C 
ATOM     15  N   UNL     1      -0.687   0.154   0.039  1.00  0.00    -0.275 N 
ATOM     16  C   UNL     1       0.089  -0.966   0.010  1.00  0.00     0.116 A 
ATOM     17  N   UNL     1       0.026   1.295   0.085  1.00  0.00    -0.181 NA
ATOM     18  C   UNL     1       1.297   0.877   0.081  1.00  0.00     0.143 A 
ENDBRANCH  12  13
ENDBRANCH   9  11
ENDBRANCH   8   9
BRANCH   8  19
ATOM     19  C   UNL     1       6.494  -4.015  -0.028  1.00  0.00     0.035 C 
ATOM     20  C   UNL     1       7.301  -3.663  -1.293  1.00  0.00     0.034 C 
ATOM     21  C   UNL     1       7.307  -3.617   1.227  1.00  0.00     0.034 C 
ATOM     22  C   UNL     1       6.440  -5.571  -0.005  1.00  0.00     0.034 C 
ENDBRANCH   8  19
ENDBRANCH   7   8
ENDBRANCH   4   7
ENDBRANCH   2   3
ENDBRANCH   1   2
BRANCH   1  23
ATOM     23  C   UNL     1       4.712  -3.236  -5.274  1.00  0.00     0.002 C 
BRANCH  23  24
ATOM     24  C   UNL     1       3.550  -2.641  -6.069  1.00  0.00     0.002 C 
BRANCH  24  25
ATOM     25  C   UNL     1       3.596  -1.120  -6.237  1.00  0.00     0.021 C 
BRANCH  25  26
ATOM     26  C   UNL     1       4.888  -0.589  -6.849  1.00  0.00     0.116 C 
BRANCH  26  27
ATOM     27  N   UNL     1       5.098  -1.095  -8.196  1.00  0.00    -0.352 N 
ATOM     28  C   UNL     1       5.279  -0.398  -9.363  1.00  0.00     0.251 C 
ATOM     29  H   UNL     1       5.110  -2.076  -8.282  1.00  0.00     0.163 HD
ATOM     30  O   UNL     1       5.223  -0.969 -10.445  1.00  0.00    -0.269 OA
BRANCH  28  31
ATOM     31  C   UNL     1       5.529   1.057  -9.306  1.00  0.00     0.039 A 
ATOM     32  C   UNL     1       4.832   1.899 -10.174  1.00  0.00     0.014 A 
ATOM     33  C   UNL     1       6.451   1.585  -8.396  1.00  0.00     0.014 A 
ATOM     34  C   UNL     1       5.022   3.280 -10.095  1.00  0.00     0.010 A 
ATOM     35  C   UNL     1       6.580   2.964  -8.266  1.00  0.00     0.010 A 
ATOM     36  C   UNL     1       5.875   3.825  -9.120  1.00  0.00    -0.014 A 
BRANCH  36  37
ATOM     37  C   UNL     1       6.050   5.293  -8.990  1.00  0.00     0.031 A 
ATOM     38  C   UNL     1       7.395   5.918  -9.243  1.00  0.00     0.074 A 
ATOM     39  C   UNL     1       5.013   6.057  -8.595  1.00  0.00     0.049 A 
ATOM     40  N   UNL     1       7.753   7.173  -9.144  1.00  0.00    -0.248 NA
ATOM     41  C   UNL     1       8.486   5.012  -9.637  1.00  0.00     0.031 C 
ATOM     42  C   UNL     1       3.669   5.567  -8.283  1.00  0.00     0.029 A 
ATOM     43  N   UNL     1       4.931   7.411  -8.386  1.00  0.00    -0.354 N 
ATOM     44  C   UNL     1       9.108   7.203  -9.447  1.00  0.00     0.074 A 
ATOM     45  C   UNL     1       9.521   5.837  -9.678  1.00  0.00     0.031 C 
ATOM     46  C   UNL     1       2.888   6.609  -7.954  1.00  0.00     0.029 A 
ATOM     47  C   UNL     1       3.685   7.831  -7.988  1.00  0.00     0.049 A 
ATOM     48  H   UNL     1       5.692   8.023  -8.510  1.00  0.00     0.167 HD
ATOM     49  C   UNL     1       9.933   8.273  -9.544  1.00  0.00     0.031 A 
ATOM     50  C   UNL     1       3.236   9.062  -7.677  1.00  0.00     0.031 A 
ATOM     51  C   UNL     1       9.521   9.633  -9.318  1.00  0.00     0.049 A 
ATOM     52  C   UNL     1       4.179  10.230  -7.765  1.00  0.00     0.074 A 
ATOM     53  C   UNL     1      10.267  10.791  -9.445  1.00  0.00     0.029 A 
ATOM     54  N   UNL     1       8.252  10.015  -8.911  1.00  0.00    -0.354 N 
ATOM     55  N   UNL     1       5.439  10.251  -8.127  1.00  0.00    -0.248 NA
ATOM     56  C   UNL     1       3.632  11.548  -7.412  1.00  0.00     0.031 C 
ATOM     57  C   UNL     1       9.467  11.870  -9.055  1.00  0.00     0.029 A 
ATOM     58  C   UNL     1       8.203  11.389  -8.751  1.00  0.00     0.049 A 
ATOM     59  H   UNL     1       7.498   9.400  -8.757  1.00  0.00     0.167 HD
ATOM     60  C   UNL     1       5.827  11.584  -8.073  1.00  0.00     0.074 A 
ATOM     61  C   UNL     1       4.664  12.342  -7.662  1.00  0.00     0.031 C 
ATOM     62  C   UNL     1       7.038  12.130  -8.340  1.00  0.00     0.031 A 
BRANCH  49  63
ATOM     63  C   UNL     1      11.370   8.011  -9.904  1.00  0.00    -0.014 A 
ATOM     64  C   UNL     1      11.731   7.556 -11.183  1.00  0.00     0.009 A 
ATOM     65  C   UNL     1      12.381   8.254  -8.961  1.00  0.00     0.009 A 
ATOM     66  C   UNL     1      13.070   7.312 -11.496  1.00  0.00     0.001 A 
ATOM     67  C   UNL     1      13.722   8.040  -9.288  1.00  0.00     0.001 A 
ATOM     68  C   UNL     1      14.064   7.559 -10.551  1.00  0.00     0.000 A 
ENDBRANCH  49  63
BRANCH  50  69
ATOM     69  C   UNL     1       1.821   9.259  -7.262  1.00  0.00    -0.014 A 
ATOM     70  C   UNL     1       0.924   9.949  -8.092  1.00  0.00     0.009 A 
ATOM     71  C   UNL     1       1.363   8.769  -6.029  1.00  0.00     0.009 A 
ATOM     72  C   UNL     1      -0.393  10.172  -7.681  1.00  0.00     0.001 A 
ATOM     73  C   UNL     1       0.038   8.965  -5.636  1.00  0.00     0.001 A 
ATOM     74  C   UNL     1      -0.836   9.676  -6.456  1.00  0.00     0.000 A 
ENDBRANCH  50  69
BRANCH  62  75
ATOM     75  C   UNL     1       7.159  13.625  -8.232  1.00  0.00    -0.014 A 
ATOM     76  C   UNL     1       7.137  14.273  -6.988  1.00  0.00     0.009 A 
ATOM     77  C   UNL     1       7.344  14.391  -9.395  1.00  0.00     0.009 A 
ATOM     78  C   UNL     1       7.264  15.662  -6.913  1.00  0.00     0.001 A 
ATOM     79  C   UNL     1       7.504  15.775  -9.314  1.00  0.00     0.001 A 
ATOM     80  C   UNL     1       7.454  16.410  -8.075  1.00  0.00     0.000 A 
ENDBRANCH  62  75
ENDBRANCH  36  37
ENDBRANCH  28  31
ENDBRANCH  26  27
ENDBRANCH  25  26
ENDBRANCH  24  25
ENDBRANCH  23  24
ENDBRANCH   1  23
TORSDOF 18
