REMARK SMILES C#CCN(CC(=O)NCCCCCCNC(=O)c1ccc(-c2c3nc(c(-c4ccccc4)c4ccc([nH]4)c(-c4ccccc4)c4nc(c(-c5ccccc5)c5ccc2[nH]5)C=C4)C=C3)cc1)C(=O)N(C)[C@H](C)c1cccs1
REMARK SMILES IDX 10 1 9 2 8 3 6 4 7 5 5 7 4 8 3 9 2 10 1 11 66 12 67 13 68 14
REMARK SMILES IDX 69 15 70 16 71 17 72 18 73 19 76 20 74 21 75 22 11 23 12 24
REMARK SMILES IDX 13 25 14 26 15 27 16 28 17 30 18 31 19 32 65 33 20 34 64 35
REMARK SMILES IDX 21 36 22 37 23 38 58 39 24 40 63 41 57 42 59 43 25 44 62 45
REMARK SMILES IDX 56 46 55 47 26 49 48 50 33 51 47 52 34 53 37 54 46 55 60 56
REMARK SMILES IDX 35 57 36 58 45 60 61 61 38 62 27 63 28 64 32 65 29 66 31 67
REMARK SMILES IDX 30 68 49 69 50 70 54 71 51 72 53 73 52 74 39 75 40 76 44 77
REMARK SMILES IDX 41 78 43 79 42 80
REMARK H PARENT 8 6 15 29 59 48 37 59
REMARK Flexibility Score: inf
ROOT
ATOM      1  C   UNL     1       0.175   5.837   0.694  1.00  0.00     0.021 C 
ENDROOT
BRANCH   1   2
ATOM      2  C   UNL     1      -0.853   6.963   0.751  1.00  0.00     0.116 C 
BRANCH   2   3
ATOM      3  N   UNL     1      -1.143   7.504  -0.558  1.00  0.00    -0.355 N 
ATOM      4  C   UNL     1      -2.308   7.455  -1.266  1.00  0.00     0.239 C 
ATOM      5  O   UNL     1      -2.395   8.146  -2.284  1.00  0.00    -0.273 OA
ATOM      6  H   UNL     1      -0.398   7.972  -0.998  1.00  0.00     0.163 HD
BRANCH   4   7
ATOM      7  C   UNL     1      -3.509   6.663  -0.735  1.00  0.00     0.222 C 
BRANCH   7   8
ATOM      8  N   UNL     1      -3.234   5.243  -0.496  1.00  0.00    -0.304 N 
BRANCH   8   9
ATOM      9  C   UNL     1      -3.458   4.769   0.876  1.00  0.00     0.211 C 
BRANCH   9  10
ATOM     10  C   UNL     1      -4.591   3.843   0.991  1.00  0.00    -0.085 C 
ATOM     11  C   UNL     1      -5.478   3.046   1.154  1.00  0.00     0.006 C 
ENDBRANCH   9  10
ENDBRANCH   8   9
BRANCH   8  12
ATOM     12  C   UNL     1      -2.715   4.311  -1.373  1.00  0.00     0.321 C 
ATOM     13  O   UNL     1      -2.197   3.297  -0.885  1.00  0.00    -0.248 OA
BRANCH  12  14
ATOM     14  N   UNL     1      -2.757   4.459  -2.747  1.00  0.00    -0.320 N 
ATOM     15  C   UNL     1      -3.371   5.504  -3.559  1.00  0.00     0.149 C 
BRANCH  14  16
ATOM     16  C   UNL     1      -2.164   3.368  -3.568  1.00  0.00     0.124 C 
ATOM     17  C   UNL     1      -2.749   1.985  -3.236  1.00  0.00     0.037 C 
BRANCH  16  18
ATOM     18  C   UNL     1      -0.646   3.475  -3.635  1.00  0.00     0.027 A 
ATOM     19  C   UNL     1       0.134   4.622  -3.625  1.00  0.00     0.017 A 
ATOM     20  S   UNL     1       0.340   2.088  -3.899  1.00  0.00    -0.147 S 
ATOM     21  C   UNL     1       1.520   4.359  -3.822  1.00  0.00     0.012 A 
ATOM     22  C   UNL     1       1.770   3.016  -3.970  1.00  0.00     0.065 A 
ENDBRANCH  16  18
ENDBRANCH  14  16
ENDBRANCH  12  14
ENDBRANCH   8  12
ENDBRANCH   7   8
ENDBRANCH   4   7
ENDBRANCH   2   3
ENDBRANCH   1   2
BRANCH   1  23
ATOM     23  C   UNL     1       1.575   6.310   0.291  1.00  0.00     0.002 C 
BRANCH  23  24
ATOM     24  C   UNL     1       2.122   7.470   1.131  1.00  0.00     0.002 C 
BRANCH  24  25
ATOM     25  C   UNL     1       2.128   7.219   2.641  1.00  0.00     0.021 C 
BRANCH  25  26
ATOM     26  C   UNL     1       2.969   6.023   3.066  1.00  0.00     0.116 C 
BRANCH  26  27
ATOM     27  N   UNL     1       4.372   6.211   2.732  1.00  0.00    -0.352 N 
ATOM     28  C   UNL     1       5.472   6.186   3.548  1.00  0.00     0.251 C 
ATOM     29  H   UNL     1       4.558   6.381   1.780  1.00  0.00     0.163 HD
ATOM     30  O   UNL     1       6.551   6.607   3.141  1.00  0.00    -0.269 OA
BRANCH  28  31
ATOM     31  C   UNL     1       5.354   5.665   4.925  1.00  0.00     0.039 A 
ATOM     32  C   UNL     1       6.019   6.331   5.956  1.00  0.00     0.014 A 
ATOM     33  C   UNL     1       4.604   4.517   5.197  1.00  0.00     0.014 A 
ATOM     34  C   UNL     1       5.892   5.871   7.266  1.00  0.00     0.010 A 
ATOM     35  C   UNL     1       4.405   4.115   6.514  1.00  0.00     0.010 A 
ATOM     36  C   UNL     1       5.057   4.779   7.561  1.00  0.00    -0.014 A 
BRANCH  36  37
ATOM     37  C   UNL     1       4.862   4.329   8.962  1.00  0.00     0.031 A 
ATOM     38  C   UNL     1       5.288   2.951   9.387  1.00  0.00     0.074 A 
ATOM     39  C   UNL     1       4.269   5.155   9.846  1.00  0.00     0.049 A 
ATOM     40  N   UNL     1       5.198   2.388  10.567  1.00  0.00    -0.248 NA
ATOM     41  C   UNL     1       5.871   2.082   8.352  1.00  0.00     0.031 C 
ATOM     42  C   UNL     1       3.776   6.503   9.548  1.00  0.00     0.029 A 
ATOM     43  N   UNL     1       3.986   4.986  11.178  1.00  0.00    -0.354 N 
ATOM     44  C   UNL     1       5.704   1.103  10.411  1.00  0.00     0.074 A 
ATOM     45  C   UNL     1       6.041   0.948   9.014  1.00  0.00     0.031 C 
ATOM     46  C   UNL     1       3.293   7.052  10.673  1.00  0.00     0.029 A 
ATOM     47  C   UNL     1       3.392   6.081  11.757  1.00  0.00     0.049 A 
ATOM     48  H   UNL     1       4.188   4.158  11.671  1.00  0.00     0.167 HD
ATOM     49  C   UNL     1       5.891   0.145  11.351  1.00  0.00     0.031 A 
ATOM     50  C   UNL     1       2.968   6.281  13.019  1.00  0.00     0.031 A 
ATOM     51  C   UNL     1       5.546   0.299  12.740  1.00  0.00     0.049 A 
ATOM     52  C   UNL     1       3.150   5.185  14.033  1.00  0.00     0.074 A 
ATOM     53  C   UNL     1       5.737  -0.595  13.778  1.00  0.00     0.029 A 
ATOM     54  N   UNL     1       4.926   1.415  13.282  1.00  0.00    -0.354 N 
ATOM     55  N   UNL     1       3.699   4.004  13.886  1.00  0.00    -0.248 NA
ATOM     56  C   UNL     1       2.664   5.459  15.392  1.00  0.00     0.031 C 
ATOM     57  C   UNL     1       5.166  -0.052  14.933  1.00  0.00     0.029 A 
ATOM     58  C   UNL     1       4.695   1.216  14.633  1.00  0.00     0.049 A 
ATOM     59  H   UNL     1       4.686   2.227  12.781  1.00  0.00     0.167 HD
ATOM     60  C   UNL     1       3.655   3.407  15.140  1.00  0.00     0.074 A 
ATOM     61  C   UNL     1       3.046   4.367  16.038  1.00  0.00     0.031 C 
ATOM     62  C   UNL     1       4.081   2.176  15.515  1.00  0.00     0.031 A 
BRANCH  49  63
ATOM     63  C   UNL     1       6.480  -1.165  10.900  1.00  0.00    -0.014 A 
ATOM     64  C   UNL     1       7.807  -1.256  10.446  1.00  0.00     0.009 A 
ATOM     65  C   UNL     1       5.708  -2.336  10.966  1.00  0.00     0.009 A 
ATOM     66  C   UNL     1       8.332  -2.481  10.029  1.00  0.00     0.001 A 
ATOM     67  C   UNL     1       6.248  -3.566  10.583  1.00  0.00     0.001 A 
ATOM     68  C   UNL     1       7.555  -3.635  10.105  1.00  0.00     0.000 A 
ENDBRANCH  49  63
BRANCH  50  69
ATOM     69  C   UNL     1       2.332   7.571  13.399  1.00  0.00    -0.014 A 
ATOM     70  C   UNL     1       2.961   8.443  14.302  1.00  0.00     0.009 A 
ATOM     71  C   UNL     1       1.081   7.930  12.874  1.00  0.00     0.009 A 
ATOM     72  C   UNL     1       2.334   9.627  14.697  1.00  0.00     0.001 A 
ATOM     73  C   UNL     1       0.473   9.132  13.242  1.00  0.00     0.001 A 
ATOM     74  C   UNL     1       1.094   9.973  14.164  1.00  0.00     0.000 A 
ENDBRANCH  50  69
BRANCH  62  75
ATOM     75  C   UNL     1       3.943   1.814  16.971  1.00  0.00    -0.014 A 
ATOM     76  C   UNL     1       2.688   1.621  17.568  1.00  0.00     0.009 A 
ATOM     77  C   UNL     1       5.098   1.641  17.751  1.00  0.00     0.009 A 
ATOM     78  C   UNL     1       2.591   1.312  18.926  1.00  0.00     0.001 A 
ATOM     79  C   UNL     1       5.000   1.292  19.099  1.00  0.00     0.001 A 
ATOM     80  C   UNL     1       3.746   1.143  19.689  1.00  0.00     0.000 A 
ENDBRANCH  62  75
ENDBRANCH  36  37
ENDBRANCH  28  31
ENDBRANCH  26  27
ENDBRANCH  25  26
ENDBRANCH  24  25
ENDBRANCH  23  24
ENDBRANCH   1  23
TORSDOF 20
