REMARK SMILES CCCCCCCNC(=O)Oc1cccc(-c2ccc([C@@H](C)C(=O)NCCCCCCNC(=O)c3ccc(-c4c5nc(c(-c6ccccc6)c6ccc([nH]6)c(-c6ccccc6)c6nc(c(-c7ccccc7)c7ccc4[nH]7)C=C6)C=C5)cc3)cc2F)c1
REMARK SMILES IDX 21 1 22 2 20 3 17 4 18 5 84 6 19 7 83 8 85 9 16 10 12 11
REMARK SMILES IDX 13 12 86 13 14 14 15 15 11 16 9 17 8 18 10 20 7 21 6 22 5 23
REMARK SMILES IDX 4 24 3 25 2 26 1 27 23 28 24 29 25 30 26 32 27 33 28 34
REMARK SMILES IDX 29 35 30 36 31 37 32 38 33 39 34 41 35 42 36 43 82 44 37 45
REMARK SMILES IDX 81 46 38 47 39 48 40 49 75 50 41 51 80 52 74 53 76 54 42 55
REMARK SMILES IDX 79 56 73 57 72 58 43 60 65 61 50 62 64 63 51 64 54 65 63 66
REMARK SMILES IDX 77 67 52 68 53 69 62 71 78 72 55 73 44 74 45 75 49 76 46 77
REMARK SMILES IDX 48 78 47 79 66 80 67 81 71 82 68 83 70 84 69 85 56 86 57 87
REMARK SMILES IDX 61 88 58 89 60 90 59 91
REMARK H PARENT 8 19 25 31 32 40 76 59 54 70
REMARK Flexibility Score: inf
ROOT
ATOM      1  C   UNL     1     -10.638  -6.454   7.364  1.00  0.00     0.105 C 
ATOM      2  C   UNL     1     -11.743  -7.485   7.594  1.00  0.00     0.023 C 
ENDROOT
BRANCH   1   3
ATOM      3  C   UNL     1      -9.381  -6.969   6.682  1.00  0.00    -0.033 A 
ATOM      4  C   UNL     1      -6.931  -7.791   5.439  1.00  0.00     0.018 A 
ATOM      5  C   UNL     1      -7.556  -8.565   6.430  1.00  0.00     0.012 A 
ATOM      6  C   UNL     1      -7.593  -6.611   5.064  1.00  0.00     0.131 A 
ATOM      7  C   UNL     1      -8.770  -8.181   7.013  1.00  0.00     0.005 A 
ATOM      8  C   UNL     1      -8.776  -6.194   5.683  1.00  0.00     0.044 A 
ATOM      9  F   UNL     1      -7.108  -5.836   4.081  1.00  0.00    -0.206 F 
BRANCH   4  10
ATOM     10  C   UNL     1      -5.637  -8.211   4.853  1.00  0.00    -0.012 A 
ATOM     11  C   UNL     1      -3.442  -7.686   3.939  1.00  0.00     0.133 A 
ATOM     12  C   UNL     1      -3.143  -9.033   3.776  1.00  0.00     0.047 A 
ATOM     13  C   UNL     1      -4.666  -7.271   4.467  1.00  0.00     0.056 A 
ATOM     14  C   UNL     1      -4.084  -9.982   4.154  1.00  0.00     0.004 A 
ATOM     15  C   UNL     1      -5.317  -9.574   4.675  1.00  0.00     0.009 A 
BRANCH  11  16
ATOM     16  O   UNL     1      -2.525  -6.763   3.413  1.00  0.00    -0.410 OA
BRANCH  16  17
ATOM     17  C   UNL     1      -2.118  -5.702   4.207  1.00  0.00     0.412 C 
ATOM     18  N   UNL     1      -1.376  -4.784   3.518  1.00  0.00    -0.321 N 
ATOM     19  H   UNL     1      -1.026  -4.021   4.033  1.00  0.00     0.167 HD
ATOM     20  O   UNL     1      -2.358  -5.559   5.399  1.00  0.00    -0.224 OA
BRANCH  18  21
ATOM     21  C   UNL     1      -1.053  -4.820   2.105  1.00  0.00     0.119 C 
BRANCH  21  22
ATOM     22  C   UNL     1      -1.592  -3.597   1.363  1.00  0.00     0.021 C 
BRANCH  22  23
ATOM     23  C   UNL     1      -1.006  -2.257   1.825  1.00  0.00     0.002 C 
BRANCH  23  24
ATOM     24  C   UNL     1       0.521  -2.149   1.748  1.00  0.00     0.000 C 
BRANCH  24  25
ATOM     25  C   UNL     1       1.119  -2.329   0.349  1.00  0.00    -0.000 C 
BRANCH  25  26
ATOM     26  C   UNL     1       0.659  -1.307  -0.693  1.00  0.00    -0.003 C 
ATOM     27  C   UNL     1       1.016   0.126  -0.330  1.00  0.00     0.004 C 
ENDBRANCH  25  26
ENDBRANCH  24  25
ENDBRANCH  23  24
ENDBRANCH  22  23
ENDBRANCH  21  22
ENDBRANCH  18  21
ENDBRANCH  16  17
ENDBRANCH  11  16
ENDBRANCH   4  10
ENDBRANCH   1   3
BRANCH   1  28
ATOM     28  C   UNL     1     -10.357  -5.557   8.579  1.00  0.00     0.227 C 
ATOM     29  O   UNL     1     -10.521  -4.334   8.492  1.00  0.00    -0.274 OA
ATOM     30  N   UNL     1      -9.941  -6.027   9.787  1.00  0.00    -0.356 N 
ATOM     31  H   UNL     1      -9.884  -5.338  10.489  1.00  0.00     0.163 HD
BRANCH  30  32
ATOM     32  C   UNL     1      -9.566  -7.354  10.227  1.00  0.00     0.116 C 
BRANCH  32  33
ATOM     33  C   UNL     1      -8.047  -7.518  10.306  1.00  0.00     0.021 C 
BRANCH  33  34
ATOM     34  C   UNL     1      -7.452  -7.133  11.665  1.00  0.00     0.002 C 
BRANCH  34  35
ATOM     35  C   UNL     1      -7.897  -8.008  12.844  1.00  0.00     0.002 C 
BRANCH  35  36
ATOM     36  C   UNL     1      -7.658  -9.513  12.680  1.00  0.00     0.021 C 
BRANCH  36  37
ATOM     37  C   UNL     1      -6.197  -9.911  12.478  1.00  0.00     0.116 C 
BRANCH  37  38
ATOM     38  N   UNL     1      -5.378  -9.570  13.630  1.00  0.00    -0.352 N 
ATOM     39  C   UNL     1      -4.681 -10.384  14.488  1.00  0.00     0.251 C 
ATOM     40  H   UNL     1      -5.313  -8.607  13.825  1.00  0.00     0.163 HD
ATOM     41  O   UNL     1      -4.238  -9.934  15.540  1.00  0.00    -0.269 OA
BRANCH  39  42
ATOM     42  C   UNL     1      -4.470 -11.809  14.156  1.00  0.00     0.039 A 
ATOM     43  C   UNL     1      -4.652 -12.770  15.154  1.00  0.00     0.014 A 
ATOM     44  C   UNL     1      -4.061 -12.194  12.876  1.00  0.00     0.014 A 
ATOM     45  C   UNL     1      -4.489 -14.124  14.851  1.00  0.00     0.010 A 
ATOM     46  C   UNL     1      -3.956 -13.547  12.560  1.00  0.00     0.010 A 
ATOM     47  C   UNL     1      -4.173 -14.525  13.543  1.00  0.00    -0.014 A 
BRANCH  47  48
ATOM     48  C   UNL     1      -4.090 -15.960  13.176  1.00  0.00     0.031 A 
ATOM     49  C   UNL     1      -2.783 -16.562  12.743  1.00  0.00     0.074 A 
ATOM     50  C   UNL     1      -5.213 -16.705  13.161  1.00  0.00     0.049 A 
ATOM     51  N   UNL     1      -2.535 -17.772  12.310  1.00  0.00    -0.248 NA
ATOM     52  C   UNL     1      -1.603 -15.683  12.783  1.00  0.00     0.031 C 
ATOM     53  C   UNL     1      -6.550 -16.232  13.527  1.00  0.00     0.029 A 
ATOM     54  N   UNL     1      -5.409 -18.017  12.810  1.00  0.00    -0.354 N 
ATOM     55  C   UNL     1      -1.179 -17.796  12.011  1.00  0.00     0.074 A 
ATOM     56  C   UNL     1      -0.665 -16.469  12.273  1.00  0.00     0.031 C 
ATOM     57  C   UNL     1      -7.423 -17.243  13.400  1.00  0.00     0.029 A 
ATOM     58  C   UNL     1      -6.719 -18.421  12.905  1.00  0.00     0.049 A 
ATOM     59  H   UNL     1      -4.681 -18.612  12.519  1.00  0.00     0.167 HD
ATOM     60  C   UNL     1      -0.426 -18.833  11.570  1.00  0.00     0.031 A 
ATOM     61  C   UNL     1      -7.292 -19.603  12.613  1.00  0.00     0.031 A 
ATOM     62  C   UNL     1      -0.935 -20.154  11.314  1.00  0.00     0.049 A 
ATOM     63  C   UNL     1      -6.440 -20.729  12.101  1.00  0.00     0.074 A 
ATOM     64  C   UNL     1      -0.239 -21.285  10.921  1.00  0.00     0.029 A 
ATOM     65  N   UNL     1      -2.267 -20.521  11.421  1.00  0.00    -0.354 N 
ATOM     66  N   UNL     1      -5.148 -20.752  11.882  1.00  0.00    -0.248 NA
ATOM     67  C   UNL     1      -7.126 -21.994  11.801  1.00  0.00     0.031 C 
ATOM     68  C   UNL     1      -1.159 -22.323  10.741  1.00  0.00     0.029 A 
ATOM     69  C   UNL     1      -2.419 -21.853  11.073  1.00  0.00     0.049 A 
ATOM     70  H   UNL     1      -2.997 -19.924  11.702  1.00  0.00     0.167 HD
ATOM     71  C   UNL     1      -4.863 -22.037  11.439  1.00  0.00     0.074 A 
ATOM     72  C   UNL     1      -6.113 -22.768  11.438  1.00  0.00     0.031 C 
ATOM     73  C   UNL     1      -3.671 -22.564  11.066  1.00  0.00     0.031 A 
BRANCH  60  74
ATOM     74  C   UNL     1       1.034 -18.572  11.326  1.00  0.00    -0.014 A 
ATOM     75  C   UNL     1       1.925 -18.368  12.392  1.00  0.00     0.009 A 
ATOM     76  C   UNL     1       1.533 -18.568  10.014  1.00  0.00     0.009 A 
ATOM     77  C   UNL     1       3.279 -18.129  12.146  1.00  0.00     0.001 A 
ATOM     78  C   UNL     1       2.892 -18.357   9.773  1.00  0.00     0.001 A 
ATOM     79  C   UNL     1       3.761 -18.128  10.838  1.00  0.00     0.000 A 
ENDBRANCH  60  74
BRANCH  61  80
ATOM     80  C   UNL     1      -8.755 -19.786  12.801  1.00  0.00    -0.014 A 
ATOM     81  C   UNL     1      -9.242 -20.593  13.840  1.00  0.00     0.009 A 
ATOM     82  C   UNL     1      -9.670 -19.156  11.943  1.00  0.00     0.009 A 
ATOM     83  C   UNL     1     -10.616 -20.785  14.002  1.00  0.00     0.001 A 
ATOM     84  C   UNL     1     -11.044 -19.329  12.124  1.00  0.00     0.001 A 
ATOM     85  C   UNL     1     -11.515 -20.150  13.147  1.00  0.00     0.000 A 
ENDBRANCH  61  80
BRANCH  73  86
ATOM     86  C   UNL     1      -3.663 -24.006  10.646  1.00  0.00    -0.014 A 
ATOM     87  C   UNL     1      -4.198 -24.405   9.412  1.00  0.00     0.009 A 
ATOM     88  C   UNL     1      -3.082 -24.972  11.482  1.00  0.00     0.009 A 
ATOM     89  C   UNL     1      -4.180 -25.750   9.037  1.00  0.00     0.001 A 
ATOM     90  C   UNL     1      -3.041 -26.311  11.093  1.00  0.00     0.001 A 
ATOM     91  C   UNL     1      -3.598 -26.700   9.876  1.00  0.00     0.000 A 
ENDBRANCH  73  86
ENDBRANCH  47  48
ENDBRANCH  39  42
ENDBRANCH  37  38
ENDBRANCH  36  37
ENDBRANCH  35  36
ENDBRANCH  34  35
ENDBRANCH  33  34
ENDBRANCH  32  33
ENDBRANCH  30  32
ENDBRANCH   1  28
TORSDOF 23
