REMARK SMILES C[C@@H]1CCC[C@@]1(C[NH3+])C(=O)NCCCCCCNC(=O)c1ccc(-c2c3nc(c(-c4ccccc4)c4ccc([nH]4)c(-c4ccccc4)c4nc(c(-c5ccccc5)c5ccc2[nH]5)C=C4)C=C3)cc1
REMARK SMILES IDX 14 1 13 2 12 3 11 4 9 5 10 6 6 8 1 9 2 10 3 11 4 12 5 13
REMARK SMILES IDX 7 14 8 15 15 19 16 20 17 21 18 22 19 23 20 25 21 26 22 27
REMARK SMILES IDX 68 28 23 29 67 30 24 31 25 32 26 33 61 34 27 35 66 36 60 37
REMARK SMILES IDX 62 38 28 39 65 40 59 41 58 42 29 44 51 45 36 46 50 47 37 48
REMARK SMILES IDX 40 49 49 50 63 51 38 52 39 53 48 55 64 56 41 57 30 58 31 59
REMARK SMILES IDX 35 60 32 61 34 62 33 63 52 64 53 65 57 66 54 67 56 68 55 69
REMARK SMILES IDX 42 70 43 71 47 72 44 73 46 74 45 75
REMARK H PARENT 11 7 8 16 8 17 8 18 18 24 62 43 40 54
REMARK Flexibility Score: inf
ROOT
ATOM      1  C   UNL     1       0.923   4.635   4.057  1.00  0.00     0.002 C 
ENDROOT
BRANCH   1   2
ATOM      2  C   UNL     1       1.331   4.053   2.696  1.00  0.00     0.021 C 
BRANCH   2   3
ATOM      3  C   UNL     1       1.423   2.525   2.686  1.00  0.00     0.116 C 
BRANCH   3   4
ATOM      4  N   UNL     1       0.097   1.940   2.680  1.00  0.00    -0.355 N 
ATOM      5  C   UNL     1      -0.678   1.430   1.685  1.00  0.00     0.232 C 
ATOM      6  O   UNL     1      -1.836   1.151   2.013  1.00  0.00    -0.274 OA
ATOM      7  H   UNL     1      -0.325   1.906   3.569  1.00  0.00     0.163 HD
BRANCH   5   8
ATOM      8  C   UNL     1      -0.131   1.133   0.255  1.00  0.00     0.100 C 
ATOM      9  C   UNL     1       1.832  -0.257  -0.795  1.00  0.00     0.009 C 
ATOM     10  C   UNL     1       0.869  -0.054   0.372  1.00  0.00     0.007 C 
ATOM     11  C   UNL     1      -0.057  -1.271   0.523  1.00  0.00     0.005 C 
ATOM     12  C   UNL     1      -1.254  -0.987  -0.374  1.00  0.00     0.002 C 
ATOM     13  C   UNL     1      -1.285   0.525  -0.596  1.00  0.00     0.023 C 
BRANCH   8  14
ATOM     14  C   UNL     1       0.382   2.454  -0.380  1.00  0.00     0.276 C 
BRANCH  14  15
ATOM     15  N   UNL     1       0.515   2.501  -1.839  1.00  0.00    -0.357 N 
ATOM     16  H   UNL     1       1.226   1.833  -2.137  1.00  0.00     0.344 HD
ATOM     17  H   UNL     1       0.789   3.440  -2.125  1.00  0.00     0.344 HD
ATOM     18  H   UNL     1      -0.378   2.261  -2.269  1.00  0.00     0.344 HD
ENDBRANCH  14  15
ENDBRANCH   8  14
ENDBRANCH   5   8
ENDBRANCH   3   4
ENDBRANCH   2   3
ENDBRANCH   1   2
BRANCH   1  19
ATOM     19  C   UNL     1       1.932   4.407   5.189  1.00  0.00     0.002 C 
BRANCH  19  20
ATOM     20  C   UNL     1       3.351   4.914   4.911  1.00  0.00     0.021 C 
BRANCH  20  21
ATOM     21  C   UNL     1       3.456   6.412   4.636  1.00  0.00     0.116 C 
BRANCH  21  22
ATOM     22  N   UNL     1       3.088   7.206   5.796  1.00  0.00    -0.352 N 
ATOM     23  C   UNL     1       3.749   8.252   6.383  1.00  0.00     0.251 C 
ATOM     24  H   UNL     1       2.237   6.954   6.223  1.00  0.00     0.163 HD
ATOM     25  O   UNL     1       3.374   8.673   7.477  1.00  0.00    -0.269 OA
BRANCH  23  26
ATOM     26  C   UNL     1       4.918   8.875   5.725  1.00  0.00     0.039 A 
ATOM     27  C   UNL     1       6.018   9.227   6.513  1.00  0.00     0.014 A 
ATOM     28  C   UNL     1       4.918   9.164   4.356  1.00  0.00     0.014 A 
ATOM     29  C   UNL     1       7.128   9.834   5.925  1.00  0.00     0.010 A 
ATOM     30  C   UNL     1       6.051   9.718   3.760  1.00  0.00     0.010 A 
ATOM     31  C   UNL     1       7.162  10.070   4.540  1.00  0.00    -0.014 A 
BRANCH  31  32
ATOM     32  C   UNL     1       8.354  10.694   3.915  1.00  0.00     0.031 A 
ATOM     33  C   UNL     1       8.278  12.081   3.338  1.00  0.00     0.074 A 
ATOM     34  C   UNL     1       9.510  10.005   3.858  1.00  0.00     0.049 A 
ATOM     35  N   UNL     1       9.229  12.802   2.798  1.00  0.00    -0.248 NA
ATOM     36  C   UNL     1       6.962  12.738   3.353  1.00  0.00     0.031 C 
ATOM     37  C   UNL     1       9.705   8.636   4.341  1.00  0.00     0.029 A 
ATOM     38  N   UNL     1      10.743  10.368   3.378  1.00  0.00    -0.354 N 
ATOM     39  C   UNL     1       8.626  13.990   2.405  1.00  0.00     0.074 A 
ATOM     40  C   UNL     1       7.219  13.875   2.723  1.00  0.00     0.031 C 
ATOM     41  C   UNL     1      10.992   8.290   4.170  1.00  0.00     0.029 A 
ATOM     42  C   UNL     1      11.704   9.402   3.547  1.00  0.00     0.049 A 
ATOM     43  H   UNL     1      10.921  11.238   2.952  1.00  0.00     0.167 HD
ATOM     44  C   UNL     1       9.193  15.088   1.849  1.00  0.00     0.031 A 
ATOM     45  C   UNL     1      13.017   9.416   3.251  1.00  0.00     0.031 A 
ATOM     46  C   UNL     1      10.592  15.212   1.539  1.00  0.00     0.049 A 
ATOM     47  C   UNL     1      13.624  10.652   2.653  1.00  0.00     0.074 A 
ATOM     48  C   UNL     1      11.267  16.299   1.010  1.00  0.00     0.029 A 
ATOM     49  N   UNL     1      11.533  14.214   1.734  1.00  0.00    -0.354 N 
ATOM     50  N   UNL     1      13.050  11.790   2.345  1.00  0.00    -0.248 NA
ATOM     51  C   UNL     1      15.068  10.610   2.381  1.00  0.00     0.031 C 
ATOM     52  C   UNL     1      12.613  15.946   0.856  1.00  0.00     0.029 A 
ATOM     53  C   UNL     1      12.781  14.655   1.328  1.00  0.00     0.049 A 
ATOM     54  H   UNL     1      11.342  13.323   2.107  1.00  0.00     0.167 HD
ATOM     55  C   UNL     1      14.066  12.607   1.869  1.00  0.00     0.074 A 
ATOM     56  C   UNL     1      15.293  11.842   1.945  1.00  0.00     0.031 C 
ATOM     57  C   UNL     1      13.990  13.880   1.408  1.00  0.00     0.031 A 
BRANCH  44  58
ATOM     58  C   UNL     1       8.289  16.249   1.545  1.00  0.00    -0.014 A 
ATOM     59  C   UNL     1       7.767  17.047   2.575  1.00  0.00     0.009 A 
ATOM     60  C   UNL     1       7.981  16.571   0.214  1.00  0.00     0.009 A 
ATOM     61  C   UNL     1       6.928  18.124   2.280  1.00  0.00     0.001 A 
ATOM     62  C   UNL     1       7.162  17.663  -0.079  1.00  0.00     0.001 A 
ATOM     63  C   UNL     1       6.629  18.433   0.954  1.00  0.00     0.000 A 
ENDBRANCH  44  58
BRANCH  45  64
ATOM     64  C   UNL     1      13.862   8.235   3.559  1.00  0.00    -0.014 A 
ATOM     65  C   UNL     1      14.780   8.277   4.620  1.00  0.00     0.009 A 
ATOM     66  C   UNL     1      13.767   7.066   2.788  1.00  0.00     0.009 A 
ATOM     67  C   UNL     1      15.607   7.184   4.884  1.00  0.00     0.001 A 
ATOM     68  C   UNL     1      14.577   5.965   3.071  1.00  0.00     0.001 A 
ATOM     69  C   UNL     1      15.503   6.028   4.112  1.00  0.00     0.000 A 
ENDBRANCH  45  64
BRANCH  57  70
ATOM     70  C   UNL     1      15.277  14.525   0.982  1.00  0.00    -0.014 A 
ATOM     71  C   UNL     1      15.915  14.154  -0.212  1.00  0.00     0.009 A 
ATOM     72  C   UNL     1      15.852  15.523   1.782  1.00  0.00     0.009 A 
ATOM     73  C   UNL     1      17.127  14.743  -0.575  1.00  0.00     0.001 A 
ATOM     74  C   UNL     1      17.051  16.128   1.403  1.00  0.00     0.001 A 
ATOM     75  C   UNL     1      17.693  15.730   0.231  1.00  0.00     0.000 A 
ENDBRANCH  57  70
ENDBRANCH  31  32
ENDBRANCH  23  26
ENDBRANCH  21  22
ENDBRANCH  20  21
ENDBRANCH  19  20
ENDBRANCH   1  19
TORSDOF 15
