REMARK SMILES O=C(CC[N@H+]1CCC[C@H](c2nccn2Cc2cscn2)C1)NCCCCCCNC(=O)c1ccc(-c2c3nc(c(-c4ccccc4)c4ccc([nH]4)c(-c4ccccc4)c4nc(c(-c5ccccc5)c5ccc2[nH]5)C=C4)C=C3)cc1
REMARK SMILES IDX 24 1 23 2 22 3 1 4 2 5 3 7 4 8 5 9 6 10 21 11 7 13 9 14 8 15
REMARK SMILES IDX 10 16 11 17 14 18 12 19 13 20 15 21 16 22 17 23 20 24 18 25
REMARK SMILES IDX 19 26 25 27 26 28 27 29 28 30 29 31 30 32 31 34 32 35 33 36
REMARK SMILES IDX 79 37 34 38 78 39 35 40 36 41 37 42 72 43 38 44 77 45 71 46
REMARK SMILES IDX 73 47 39 48 76 49 70 50 69 51 40 53 62 54 47 55 61 56 48 57
REMARK SMILES IDX 51 58 60 59 74 60 49 61 50 62 59 64 75 65 52 66 41 67 42 68
REMARK SMILES IDX 46 69 43 70 45 71 44 72 63 73 64 74 68 75 65 76 67 77 66 78
REMARK SMILES IDX 53 79 54 80 58 81 55 82 57 83 56 84
REMARK H PARENT 22 6 5 12 29 33 73 52 51 63
REMARK Flexibility Score: inf
ROOT
ATOM      1  C   UNL     1       2.275   3.607   0.929  1.00  0.00     0.021 C 
ENDROOT
BRANCH   1   2
ATOM      2  C   UNL     1       1.645   2.468   0.119  1.00  0.00     0.116 C 
BRANCH   2   3
ATOM      3  N   UNL     1       2.162   1.143   0.420  1.00  0.00    -0.356 N 
ATOM      4  O   UNL     1       0.812   0.101  -1.113  1.00  0.00    -0.275 OA
ATOM      5  C   UNL     1       1.768   0.057  -0.344  1.00  0.00     0.225 C 
ATOM      6  H   UNL     1       2.792   1.018   1.166  1.00  0.00     0.163 HD
BRANCH   5   7
ATOM      7  C   UNL     1       2.643  -1.177  -0.236  1.00  0.00     0.161 C 
BRANCH   7   8
ATOM      8  C   UNL     1       3.534  -1.383  -1.484  1.00  0.00     0.272 C 
BRANCH   8   9
ATOM      9  N   UNL     1       4.807  -0.628  -1.545  1.00  0.00    -0.334 N 
ATOM     10  C   UNL     1       5.692  -1.156  -2.600  1.00  0.00     0.262 C 
ATOM     11  C   UNL     1       4.641   0.817  -1.696  1.00  0.00     0.273 C 
ATOM     12  H   UNL     1       5.244  -0.769  -0.634  1.00  0.00     0.348 HD
ATOM     13  C   UNL     1       7.045  -0.432  -2.668  1.00  0.00     0.062 C 
ATOM     14  C   UNL     1       5.961   1.585  -1.657  1.00  0.00     0.111 C 
ATOM     15  C   UNL     1       6.886   1.076  -2.757  1.00  0.00     0.023 C 
BRANCH  14  16
ATOM     16  C   UNL     1       6.679   1.786  -0.324  1.00  0.00     0.117 A 
ATOM     17  N   UNL     1       7.502   2.820  -0.189  1.00  0.00    -0.241 NA
ATOM     18  N   UNL     1       6.614   1.101   0.885  1.00  0.00    -0.328 N 
ATOM     19  C   UNL     1       7.962   2.818   1.092  1.00  0.00     0.131 A 
ATOM     20  C   UNL     1       7.418   1.774   1.784  1.00  0.00     0.108 A 
BRANCH  18  21
ATOM     21  C   UNL     1       5.723   0.051   1.354  1.00  0.00     0.180 C 
BRANCH  21  22
ATOM     22  C   UNL     1       6.375  -1.282   1.532  1.00  0.00     0.071 A 
ATOM     23  C   UNL     1       7.159  -1.680   2.603  1.00  0.00     0.092 A 
ATOM     24  N   UNL     1       6.101  -2.304   0.631  1.00  0.00    -0.248 NA
ATOM     25  S   UNL     1       7.621  -3.323   2.436  1.00  0.00    -0.130 S 
ATOM     26  C   UNL     1       6.725  -3.405   0.981  1.00  0.00     0.175 A 
ENDBRANCH  21  22
ENDBRANCH  18  21
ENDBRANCH  14  16
ENDBRANCH   8   9
ENDBRANCH   7   8
ENDBRANCH   5   7
ENDBRANCH   2   3
ENDBRANCH   1   2
BRANCH   1  27
ATOM     27  C   UNL     1       3.758   3.902   0.663  1.00  0.00     0.002 C 
BRANCH  27  28
ATOM     28  C   UNL     1       4.140   4.389  -0.744  1.00  0.00     0.002 C 
BRANCH  28  29
ATOM     29  C   UNL     1       3.600   5.733  -1.240  1.00  0.00     0.021 C 
BRANCH  29  30
ATOM     30  C   UNL     1       4.031   6.937  -0.419  1.00  0.00     0.116 C 
BRANCH  30  31
ATOM     31  N   UNL     1       5.453   7.279  -0.527  1.00  0.00    -0.352 N 
ATOM     32  C   UNL     1       6.105   8.335   0.102  1.00  0.00     0.251 C 
ATOM     33  H   UNL     1       6.003   6.701  -1.104  1.00  0.00     0.163 HD
ATOM     34  O   UNL     1       7.159   8.787  -0.298  1.00  0.00    -0.269 OA
BRANCH  32  35
ATOM     35  C   UNL     1       5.467   8.882   1.315  1.00  0.00     0.039 A 
ATOM     36  C   UNL     1       5.282  10.251   1.520  1.00  0.00     0.014 A 
ATOM     37  C   UNL     1       4.954   7.945   2.205  1.00  0.00     0.014 A 
ATOM     38  C   UNL     1       4.472  10.660   2.579  1.00  0.00     0.010 A 
ATOM     39  C   UNL     1       4.011   8.337   3.114  1.00  0.00     0.010 A 
ATOM     40  C   UNL     1       3.811   9.691   3.353  1.00  0.00    -0.014 A 
BRANCH  40  41
ATOM     41  C   UNL     1       2.797  10.051   4.339  1.00  0.00     0.031 A 
ATOM     42  C   UNL     1       1.696  10.900   3.812  1.00  0.00     0.074 A 
ATOM     43  C   UNL     1       2.730   9.468   5.558  1.00  0.00     0.049 A 
ATOM     44  N   UNL     1       1.458  12.135   4.104  1.00  0.00    -0.248 NA
ATOM     45  C   UNL     1       0.841  10.368   2.738  1.00  0.00     0.031 C 
ATOM     46  C   UNL     1       3.569   8.387   6.098  1.00  0.00     0.029 A 
ATOM     47  N   UNL     1       1.806   9.636   6.542  1.00  0.00    -0.354 N 
ATOM     48  C   UNL     1       0.296  12.476   3.419  1.00  0.00     0.074 A 
ATOM     49  C   UNL     1       0.073  11.425   2.460  1.00  0.00     0.031 C 
ATOM     50  C   UNL     1       2.975   7.843   7.183  1.00  0.00     0.029 A 
ATOM     51  C   UNL     1       1.822   8.651   7.526  1.00  0.00     0.049 A 
ATOM     52  H   UNL     1       1.177  10.393   6.557  1.00  0.00     0.167 HD
ATOM     53  C   UNL     1      -0.529  13.455   3.887  1.00  0.00     0.031 A 
ATOM     54  C   UNL     1       0.949   8.510   8.554  1.00  0.00     0.031 A 
ATOM     55  C   UNL     1       0.114  14.228   4.921  1.00  0.00     0.049 A 
ATOM     56  C   UNL     1       0.285   9.816   8.739  1.00  0.00     0.074 A 
ATOM     57  C   UNL     1       1.234  15.030   4.997  1.00  0.00     0.029 A 
ATOM     58  N   UNL     1      -0.201  13.884   6.214  1.00  0.00    -0.354 N 
ATOM     59  N   UNL     1       0.907  10.876   9.167  1.00  0.00    -0.248 NA
ATOM     60  C   UNL     1      -0.963  10.062   8.038  1.00  0.00     0.031 C 
ATOM     61  C   UNL     1       1.797  14.755   6.279  1.00  0.00     0.029 A 
ATOM     62  C   UNL     1       0.953  13.867   6.950  1.00  0.00     0.049 A 
ATOM     63  H   UNL     1      -1.103  13.684   6.553  1.00  0.00     0.167 HD
ATOM     64  C   UNL     1       0.397  11.909   8.396  1.00  0.00     0.074 A 
ATOM     65  C   UNL     1      -0.836  11.374   7.820  1.00  0.00     0.031 C 
ATOM     66  C   UNL     1       1.176  12.984   8.074  1.00  0.00     0.031 A 
BRANCH  53  67
ATOM     67  C   UNL     1      -2.036  13.422   3.763  1.00  0.00    -0.014 A 
ATOM     68  C   UNL     1      -2.775  14.483   4.322  1.00  0.00     0.009 A 
ATOM     69  C   UNL     1      -2.763  12.274   3.399  1.00  0.00     0.009 A 
ATOM     70  C   UNL     1      -4.144  14.360   4.590  1.00  0.00     0.001 A 
ATOM     71  C   UNL     1      -4.138  12.163   3.628  1.00  0.00     0.001 A 
ATOM     72  C   UNL     1      -4.822  13.195   4.254  1.00  0.00     0.000 A 
ENDBRANCH  53  67
BRANCH  54  73
ATOM     73  C   UNL     1       0.485   7.303   9.267  1.00  0.00    -0.014 A 
ATOM     74  C   UNL     1      -0.105   7.406  10.537  1.00  0.00     0.009 A 
ATOM     75  C   UNL     1       0.337   6.090   8.570  1.00  0.00     0.009 A 
ATOM     76  C   UNL     1      -0.865   6.355  11.067  1.00  0.00     0.001 A 
ATOM     77  C   UNL     1      -0.423   5.040   9.100  1.00  0.00     0.001 A 
ATOM     78  C   UNL     1      -1.040   5.180  10.340  1.00  0.00     0.000 A 
ENDBRANCH  54  73
BRANCH  66  79
ATOM     79  C   UNL     1       2.490  13.136   8.803  1.00  0.00    -0.014 A 
ATOM     80  C   UNL     1       3.536  12.197   8.730  1.00  0.00     0.009 A 
ATOM     81  C   UNL     1       2.723  14.334   9.492  1.00  0.00     0.009 A 
ATOM     82  C   UNL     1       4.763  12.439   9.359  1.00  0.00     0.001 A 
ATOM     83  C   UNL     1       3.954  14.586  10.101  1.00  0.00     0.001 A 
ATOM     84  C   UNL     1       4.971  13.636  10.042  1.00  0.00     0.000 A 
ENDBRANCH  66  79
ENDBRANCH  40  41
ENDBRANCH  32  35
ENDBRANCH  30  31
ENDBRANCH  29  30
ENDBRANCH  28  29
ENDBRANCH  27  28
ENDBRANCH   1  27
TORSDOF 18
