REMARK SMILES C[C@@H](C(=O)NCCCCCCNC(=O)c1ccc(-c2c3nc(c(-c4ccccc4)c4ccc([nH]4)c(-c4ccccc4)c4nc(c(-c5ccccc5)c5ccc2[nH]5)C=C4)C=C3)cc1)c1ccc(C[C@@H]2CCC[C@@H]2O)cc1
REMARK SMILES IDX 7 1 6 2 5 3 3 4 4 5 2 7 1 8 63 9 64 10 75 11 65 12 74 13
REMARK SMILES IDX 66 14 67 15 68 16 69 17 72 18 70 19 71 20 73 21 8 23 9 24
REMARK SMILES IDX 10 25 11 26 12 27 13 28 14 30 15 31 16 32 62 33 17 34 61 35
REMARK SMILES IDX 18 36 19 37 20 38 55 39 21 40 60 41 54 42 56 43 22 44 59 45
REMARK SMILES IDX 53 46 52 47 23 49 45 50 30 51 44 52 31 53 34 54 43 55 57 56
REMARK SMILES IDX 32 57 33 58 42 60 58 61 35 62 24 63 25 64 29 65 26 66 28 67
REMARK SMILES IDX 27 68 46 69 47 70 51 71 48 72 50 73 49 74 36 75 37 76 41 77
REMARK SMILES IDX 38 78 40 79 39 80
REMARK H PARENT 5 6 73 22 12 29 56 48 34 59
REMARK Flexibility Score: inf
ROOT
ATOM      1  C   UNL     1     -11.156   5.593   7.314  1.00  0.00     0.021 C 
ENDROOT
BRANCH   1   2
ATOM      2  C   UNL     1     -11.289   4.087   7.071  1.00  0.00     0.116 C 
BRANCH   2   3
ATOM      3  N   UNL     1     -11.760   3.826   5.729  1.00  0.00    -0.356 N 
ATOM      4  C   UNL     1     -11.098   3.376   4.627  1.00  0.00     0.227 C 
ATOM      5  O   UNL     1     -11.746   3.360   3.579  1.00  0.00    -0.274 OA
ATOM      6  H   UNL     1     -12.719   4.002   5.589  1.00  0.00     0.163 HD
BRANCH   4   7
ATOM      7  C   UNL     1      -9.646   2.882   4.751  1.00  0.00     0.105 C 
ATOM      8  C   UNL     1      -8.648   4.010   5.040  1.00  0.00     0.023 C 
BRANCH   7   9
ATOM      9  C   UNL     1      -9.150   2.134   3.519  1.00  0.00    -0.036 A 
ATOM     10  C   UNL     1      -8.535   0.882   3.651  1.00  0.00     0.005 A 
ATOM     11  C   UNL     1      -9.194   2.730   2.251  1.00  0.00     0.005 A 
ATOM     12  C   UNL     1      -7.937   0.267   2.548  1.00  0.00     0.004 A 
ATOM     13  C   UNL     1      -8.600   2.115   1.154  1.00  0.00     0.004 A 
ATOM     14  C   UNL     1      -7.925   0.899   1.299  1.00  0.00    -0.048 A 
BRANCH  14  15
ATOM     15  C   UNL     1      -7.161   0.329   0.133  1.00  0.00     0.041 C 
BRANCH  15  16
ATOM     16  C   UNL     1      -5.642   0.613   0.071  1.00  0.00     0.022 C 
ATOM     17  C   UNL     1      -4.825  -0.050   1.186  1.00  0.00     0.007 C 
ATOM     18  C   UNL     1      -5.175   2.073   0.141  1.00  0.00     0.117 C 
ATOM     19  C   UNL     1      -4.529   1.034   2.225  1.00  0.00     0.003 C 
ATOM     20  C   UNL     1      -4.991   2.358   1.625  1.00  0.00     0.032 C 
BRANCH  18  21
ATOM     21  O   UNL     1      -6.045   2.999  -0.474  1.00  0.00    -0.393 OA
ATOM     22  H   UNL     1      -6.910   2.970  -0.036  1.00  0.00     0.210 HD
ENDBRANCH  18  21
ENDBRANCH  15  16
ENDBRANCH  14  15
ENDBRANCH   7   9
ENDBRANCH   4   7
ENDBRANCH   2   3
ENDBRANCH   1   2
BRANCH   1  23
ATOM     23  C   UNL     1     -12.466   6.378   7.156  1.00  0.00     0.002 C 
BRANCH  23  24
ATOM     24  C   UNL     1     -13.637   5.869   8.002  1.00  0.00     0.002 C 
BRANCH  24  25
ATOM     25  C   UNL     1     -13.347   5.752   9.499  1.00  0.00     0.021 C 
BRANCH  25  26
ATOM     26  C   UNL     1     -12.918   7.053  10.164  1.00  0.00     0.116 C 
BRANCH  26  27
ATOM     27  N   UNL     1     -13.975   8.050  10.153  1.00  0.00    -0.352 N 
ATOM     28  C   UNL     1     -14.437   8.825  11.184  1.00  0.00     0.251 C 
ATOM     29  H   UNL     1     -14.419   8.188   9.285  1.00  0.00     0.163 HD
ATOM     30  O   UNL     1     -15.461   9.491  11.048  1.00  0.00    -0.269 OA
BRANCH  28  31
ATOM     31  C   UNL     1     -13.711   8.848  12.472  1.00  0.00     0.039 A 
ATOM     32  C   UNL     1     -14.443   8.791  13.661  1.00  0.00     0.014 A 
ATOM     33  C   UNL     1     -12.318   8.951  12.508  1.00  0.00     0.014 A 
ATOM     34  C   UNL     1     -13.775   8.808  14.886  1.00  0.00     0.010 A 
ATOM     35  C   UNL     1     -11.649   8.892  13.727  1.00  0.00     0.010 A 
ATOM     36  C   UNL     1     -12.372   8.846  14.928  1.00  0.00    -0.014 A 
BRANCH  36  37
ATOM     37  C   UNL     1     -11.645   8.895  16.220  1.00  0.00     0.031 A 
ATOM     38  C   UNL     1     -10.849  10.119  16.584  1.00  0.00     0.074 A 
ATOM     39  C   UNL     1     -11.660   7.829  17.043  1.00  0.00     0.049 A 
ATOM     40  N   UNL     1     -10.119  10.345  17.647  1.00  0.00    -0.248 NA
ATOM     41  C   UNL     1     -10.850  11.224  15.611  1.00  0.00     0.031 C 
ATOM     42  C   UNL     1     -12.364   6.571  16.792  1.00  0.00     0.029 A 
ATOM     43  N   UNL     1     -11.061   7.639  18.263  1.00  0.00    -0.354 N 
ATOM     44  C   UNL     1      -9.555  11.601  17.456  1.00  0.00     0.074 A 
ATOM     45  C   UNL     1      -9.986  12.066  16.157  1.00  0.00     0.031 C 
ATOM     46  C   UNL     1     -12.187   5.753  17.843  1.00  0.00     0.029 A 
ATOM     47  C   UNL     1     -11.332   6.414  18.823  1.00  0.00     0.049 A 
ATOM     48  H   UNL     1     -10.492   8.316  18.696  1.00  0.00     0.167 HD
ATOM     49  C   UNL     1      -8.765  12.314  18.293  1.00  0.00     0.031 A 
ATOM     50  C   UNL     1     -10.939   5.888  19.998  1.00  0.00     0.031 A 
ATOM     51  C   UNL     1      -8.358  11.864  19.597  1.00  0.00     0.049 A 
ATOM     52  C   UNL     1     -10.071   6.703  20.916  1.00  0.00     0.074 A 
ATOM     53  C   UNL     1      -7.615  12.538  20.550  1.00  0.00     0.029 A 
ATOM     54  N   UNL     1      -8.664  10.622  20.131  1.00  0.00    -0.354 N 
ATOM     55  N   UNL     1      -9.602   7.915  20.751  1.00  0.00    -0.248 NA
ATOM     56  C   UNL     1      -9.694   6.078  22.192  1.00  0.00     0.031 C 
ATOM     57  C   UNL     1      -7.434  11.686  21.645  1.00  0.00     0.029 A 
ATOM     58  C   UNL     1      -8.110  10.503  21.394  1.00  0.00     0.049 A 
ATOM     59  H   UNL     1      -9.197   9.928  19.680  1.00  0.00     0.167 HD
ATOM     60  C   UNL     1      -8.908   8.215  21.916  1.00  0.00     0.074 A 
ATOM     61  C   UNL     1      -9.024   7.058  22.781  1.00  0.00     0.031 C 
ATOM     62  C   UNL     1      -8.241   9.348  22.244  1.00  0.00     0.031 A 
BRANCH  49  63
ATOM     63  C   UNL     1      -8.281  13.653  17.810  1.00  0.00    -0.014 A 
ATOM     64  C   UNL     1      -9.160  14.738  17.658  1.00  0.00     0.009 A 
ATOM     65  C   UNL     1      -6.921  13.836  17.513  1.00  0.00     0.009 A 
ATOM     66  C   UNL     1      -8.696  15.963  17.173  1.00  0.00     0.001 A 
ATOM     67  C   UNL     1      -6.454  15.071  17.059  1.00  0.00     0.001 A 
ATOM     68  C   UNL     1      -7.344  16.129  16.878  1.00  0.00     0.000 A 
ENDBRANCH  49  63
BRANCH  50  69
ATOM     69  C   UNL     1     -11.402   4.535  20.398  1.00  0.00    -0.014 A 
ATOM     70  C   UNL     1     -12.353   4.388  21.421  1.00  0.00     0.009 A 
ATOM     71  C   UNL     1     -10.898   3.386  19.770  1.00  0.00     0.009 A 
ATOM     72  C   UNL     1     -12.770   3.117  21.823  1.00  0.00     0.001 A 
ATOM     73  C   UNL     1     -11.337   2.118  20.157  1.00  0.00     0.001 A 
ATOM     74  C   UNL     1     -12.264   1.984  21.189  1.00  0.00     0.000 A 
ENDBRANCH  50  69
BRANCH  62  75
ATOM     75  C   UNL     1      -7.632   9.414  23.616  1.00  0.00    -0.014 A 
ATOM     76  C   UNL     1      -6.489   8.670  23.947  1.00  0.00     0.009 A 
ATOM     77  C   UNL     1      -8.195  10.264  24.581  1.00  0.00     0.009 A 
ATOM     78  C   UNL     1      -5.944   8.750  25.231  1.00  0.00     0.001 A 
ATOM     79  C   UNL     1      -7.632  10.363  25.853  1.00  0.00     0.001 A 
ATOM     80  C   UNL     1      -6.513   9.599  26.180  1.00  0.00     0.000 A 
ENDBRANCH  62  75
ENDBRANCH  36  37
ENDBRANCH  28  31
ENDBRANCH  26  27
ENDBRANCH  25  26
ENDBRANCH  24  25
ENDBRANCH  23  24
ENDBRANCH   1  23
TORSDOF 17
