REMARK SMILES O=C(COc1ccc2c(c1)O/C(=C\c1cccs1)C2=O)NCCCCCCNC(=O)c1ccc(-c2c3nc(c(-c4ccccc4)c4ccc([nH]4)c(-c4ccccc4)c4nc(c(-c5ccccc5)c5ccc2[nH]5)C=C4)C=C3)cc1
REMARK SMILES IDX 24 1 23 2 22 3 21 4 1 5 2 6 3 8 4 9 5 10 6 11 10 12 7 13
REMARK SMILES IDX 9 14 8 15 11 16 19 17 12 18 20 19 13 20 14 21 15 22 18 23
REMARK SMILES IDX 16 24 17 25 25 26 26 27 27 28 28 29 29 30 30 32 31 33 32 34
REMARK SMILES IDX 78 35 33 36 77 37 34 38 35 39 36 40 71 41 37 42 76 43 70 44
REMARK SMILES IDX 72 45 38 46 75 47 69 48 68 49 39 51 61 52 46 53 60 54 47 55
REMARK SMILES IDX 50 56 59 57 73 58 48 59 49 60 58 62 74 63 51 64 40 65 41 66
REMARK SMILES IDX 45 67 42 68 44 69 43 70 62 71 63 72 67 73 64 74 66 75 65 76
REMARK SMILES IDX 52 77 53 78 57 79 54 80 56 81 55 82
REMARK H PARENT 21 7 28 31 72 50 50 61
REMARK Flexibility Score: inf
ROOT
ATOM      1  C   UNL     1       4.281   3.671   0.659  1.00  0.00     0.002 C 
ENDROOT
BRANCH   1   2
ATOM      2  C   UNL     1       2.781   3.391   0.819  1.00  0.00     0.021 C 
BRANCH   2   3
ATOM      3  C   UNL     1       2.210   2.433  -0.218  1.00  0.00     0.116 C 
BRANCH   3   4
ATOM      4  N   UNL     1       2.845   1.135  -0.171  1.00  0.00    -0.353 N 
ATOM      5  O   UNL     1       1.056  -0.011   0.710  1.00  0.00    -0.271 OA
ATOM      6  C   UNL     1       2.180  -0.008   0.220  1.00  0.00     0.257 C 
ATOM      7  H   UNL     1       3.793   1.065  -0.429  1.00  0.00     0.163 HD
BRANCH   6   8
ATOM      8  C   UNL     1       2.972  -1.294  -0.030  1.00  0.00     0.329 C 
BRANCH   8   9
ATOM      9  O   UNL     1       3.834  -1.261  -1.169  1.00  0.00    -0.484 OA
BRANCH   9  10
ATOM     10  C   UNL     1       3.196  -1.512  -2.358  1.00  0.00     0.123 A 
ATOM     11  C   UNL     1       2.210  -0.643  -2.876  1.00  0.00     0.047 A 
ATOM     12  C   UNL     1       3.664  -2.593  -3.111  1.00  0.00     0.094 A 
ATOM     13  C   UNL     1       1.670  -0.840  -4.148  1.00  0.00     0.020 A 
ATOM     14  C   UNL     1       3.113  -2.780  -4.362  1.00  0.00     0.142 A 
ATOM     15  C   UNL     1       2.149  -1.911  -4.866  1.00  0.00     0.069 A 
ATOM     16  O   UNL     1       3.450  -3.776  -5.248  1.00  0.00    -0.452 OA
ATOM     17  C   UNL     1       1.838  -2.337  -6.221  1.00  0.00     0.232 C 
ATOM     18  C   UNL     1       2.704  -3.527  -6.399  1.00  0.00     0.176 C 
ATOM     19  O   UNL     1       1.062  -1.825  -7.000  1.00  0.00    -0.285 OA
ATOM     20  C   UNL     1       2.764  -4.217  -7.544  1.00  0.00     0.070 C 
BRANCH  20  21
ATOM     21  C   UNL     1       3.591  -5.364  -7.666  1.00  0.00     0.031 A 
ATOM     22  C   UNL     1       3.637  -6.497  -6.872  1.00  0.00     0.020 A 
ATOM     23  S   UNL     1       4.722  -5.475  -8.954  1.00  0.00    -0.144 S 
ATOM     24  C   UNL     1       4.624  -7.431  -7.297  1.00  0.00     0.012 A 
ATOM     25  C   UNL     1       5.302  -6.987  -8.409  1.00  0.00     0.065 A 
ENDBRANCH  20  21
ENDBRANCH   9  10
ENDBRANCH   8   9
ENDBRANCH   6   8
ENDBRANCH   3   4
ENDBRANCH   2   3
ENDBRANCH   1   2
BRANCH   1  26
ATOM     26  C   UNL     1       4.697   4.270  -0.689  1.00  0.00     0.002 C 
BRANCH  26  27
ATOM     27  C   UNL     1       4.001   5.579  -1.064  1.00  0.00     0.021 C 
BRANCH  27  28
ATOM     28  C   UNL     1       4.155   6.702  -0.043  1.00  0.00     0.116 C 
BRANCH  28  29
ATOM     29  N   UNL     1       5.540   7.113   0.126  1.00  0.00    -0.352 N 
ATOM     30  C   UNL     1       6.090   8.370   0.061  1.00  0.00     0.251 C 
ATOM     31  H   UNL     1       6.176   6.385   0.314  1.00  0.00     0.163 HD
ATOM     32  O   UNL     1       7.309   8.512   0.058  1.00  0.00    -0.269 OA
BRANCH  30  33
ATOM     33  C   UNL     1       5.210   9.555  -0.031  1.00  0.00     0.039 A 
ATOM     34  C   UNL     1       5.527  10.561  -0.947  1.00  0.00     0.014 A 
ATOM     35  C   UNL     1       4.077   9.672   0.778  1.00  0.00     0.014 A 
ATOM     36  C   UNL     1       4.670  11.653  -1.097  1.00  0.00     0.010 A 
ATOM     37  C   UNL     1       3.183  10.718   0.568  1.00  0.00     0.010 A 
ATOM     38  C   UNL     1       3.470  11.721  -0.370  1.00  0.00    -0.014 A 
BRANCH  38  39
ATOM     39  C   UNL     1       2.501  12.825  -0.588  1.00  0.00     0.031 A 
ATOM     40  C   UNL     1       2.164  13.775   0.527  1.00  0.00     0.074 A 
ATOM     41  C   UNL     1       1.874  12.934  -1.775  1.00  0.00     0.049 A 
ATOM     42  N   UNL     1       1.315  14.771   0.535  1.00  0.00    -0.248 NA
ATOM     43  C   UNL     1       2.853  13.563   1.810  1.00  0.00     0.031 C 
ATOM     44  C   UNL     1       2.078  12.050  -2.925  1.00  0.00     0.029 A 
ATOM     45  N   UNL     1       0.932  13.833  -2.209  1.00  0.00    -0.354 N 
ATOM     46  C   UNL     1       1.358  15.294   1.821  1.00  0.00     0.074 A 
ATOM     47  C   UNL     1       2.271  14.468   2.581  1.00  0.00     0.031 C 
ATOM     48  C   UNL     1       1.308  12.469  -3.941  1.00  0.00     0.029 A 
ATOM     49  C   UNL     1       0.523  13.618  -3.502  1.00  0.00     0.049 A 
ATOM     50  H   UNL     1       0.583  14.561  -1.647  1.00  0.00     0.167 HD
ATOM     51  C   UNL     1       0.712  16.375   2.322  1.00  0.00     0.031 A 
ATOM     52  C   UNL     1      -0.389  14.266  -4.252  1.00  0.00     0.031 A 
ATOM     53  C   UNL     1      -0.206  17.189   1.568  1.00  0.00     0.049 A 
ATOM     54  C   UNL     1      -1.119  15.442  -3.668  1.00  0.00     0.074 A 
ATOM     55  C   UNL     1      -0.872  18.334   1.968  1.00  0.00     0.029 A 
ATOM     56  N   UNL     1      -0.598  16.934   0.262  1.00  0.00    -0.354 N 
ATOM     57  N   UNL     1      -1.010  15.972  -2.473  1.00  0.00    -0.248 NA
ATOM     58  C   UNL     1      -2.088  16.118  -4.541  1.00  0.00     0.031 C 
ATOM     59  C   UNL     1      -1.719  18.733   0.929  1.00  0.00     0.029 A 
ATOM     60  C   UNL     1      -1.524  17.881  -0.147  1.00  0.00     0.049 A 
ATOM     61  H   UNL     1      -0.267  16.192  -0.293  1.00  0.00     0.167 HD
ATOM     62  C   UNL     1      -1.877  17.058  -2.459  1.00  0.00     0.074 A 
ATOM     63  C   UNL     1      -2.489  17.120  -3.771  1.00  0.00     0.031 C 
ATOM     64  C   UNL     1      -2.137  17.926  -1.451  1.00  0.00     0.031 A 
BRANCH  51  65
ATOM     65  C   UNL     1       0.962  16.717   3.767  1.00  0.00    -0.014 A 
ATOM     66  C   UNL     1       2.221  17.159   4.208  1.00  0.00     0.009 A 
ATOM     67  C   UNL     1      -0.079  16.604   4.702  1.00  0.00     0.009 A 
ATOM     68  C   UNL     1       2.446  17.425   5.561  1.00  0.00     0.001 A 
ATOM     69  C   UNL     1       0.138  16.907   6.047  1.00  0.00     0.001 A 
ATOM     70  C   UNL     1       1.403  17.303   6.478  1.00  0.00     0.000 A 
ENDBRANCH  51  65
BRANCH  52  71
ATOM     71  C   UNL     1      -0.652  13.815  -5.644  1.00  0.00    -0.014 A 
ATOM     72  C   UNL     1      -0.245  14.595  -6.737  1.00  0.00     0.009 A 
ATOM     73  C   UNL     1      -1.293  12.590  -5.888  1.00  0.00     0.009 A 
ATOM     74  C   UNL     1      -0.491  14.167  -8.044  1.00  0.00     0.001 A 
ATOM     75  C   UNL     1      -1.509  12.149  -7.195  1.00  0.00     0.001 A 
ATOM     76  C   UNL     1      -1.116  12.941  -8.271  1.00  0.00     0.000 A 
ENDBRANCH  52  71
BRANCH  64  77
ATOM     77  C   UNL     1      -3.107  19.041  -1.735  1.00  0.00    -0.014 A 
ATOM     78  C   UNL     1      -4.479  18.796  -1.906  1.00  0.00     0.009 A 
ATOM     79  C   UNL     1      -2.643  20.365  -1.792  1.00  0.00     0.009 A 
ATOM     80  C   UNL     1      -5.358  19.850  -2.165  1.00  0.00     0.001 A 
ATOM     81  C   UNL     1      -3.529  21.420  -2.016  1.00  0.00     0.001 A 
ATOM     82  C   UNL     1      -4.884  21.161  -2.214  1.00  0.00     0.000 A 
ENDBRANCH  64  77
ENDBRANCH  38  39
ENDBRANCH  30  33
ENDBRANCH  28  29
ENDBRANCH  27  28
ENDBRANCH  26  27
ENDBRANCH   1  26
TORSDOF 16
