REMARK SMILES O=C(NCCCCCCNC(=O)c1ccc(CNC(=O)c2cccnc2)o1)c1ccc(-c2c3nc(c(-c4ccccc4)c4ccc([nH]4)c(-c4ccccc4)c4nc(c(-c5ccccc5)c5ccc2[nH]5)C=C4)C=C3)cc1
REMARK SMILES IDX 7 1 6 2 5 3 4 4 3 5 1 6 2 7 28 9 29 10 75 11 30 12 74 13
REMARK SMILES IDX 31 14 32 15 33 16 68 17 34 18 73 19 67 20 69 21 35 22 72 23
REMARK SMILES IDX 66 24 65 25 36 27 58 28 43 29 57 30 44 31 47 32 56 33 70 34
REMARK SMILES IDX 45 35 46 36 55 38 71 39 48 40 37 41 38 42 42 43 39 44 41 45
REMARK SMILES IDX 40 46 59 47 60 48 64 49 61 50 63 51 62 52 49 53 50 54 54 55
REMARK SMILES IDX 51 56 53 57 52 58 8 59 9 60 10 61 11 62 12 64 13 65 14 66
REMARK SMILES IDX 27 67 15 68 16 69 17 70 18 71 19 72 20 74 21 75 22 76 26 77
REMARK SMILES IDX 23 78 25 79 24 80
REMARK H PARENT 3 8 69 26 47 37 10 63 18 73
REMARK Flexibility Score: inf
ROOT
ATOM      1  C   UNL     1       4.825  -3.064  -3.291  1.00  0.00     0.002 C 
ENDROOT
BRANCH   1   2
ATOM      2  C   UNL     1       4.207  -3.483  -1.954  1.00  0.00     0.002 C 
BRANCH   2   3
ATOM      3  C   UNL     1       4.650  -2.673  -0.736  1.00  0.00     0.021 C 
BRANCH   3   4
ATOM      4  C   UNL     1       4.449  -1.166  -0.846  1.00  0.00     0.116 C 
BRANCH   4   5
ATOM      5  N   UNL     1       3.050  -0.780  -0.913  1.00  0.00    -0.352 N 
ATOM      6  O   UNL     1       1.139   0.236  -0.268  1.00  0.00    -0.269 OA
ATOM      7  C   UNL     1       2.356   0.131  -0.150  1.00  0.00     0.251 C 
ATOM      8  H   UNL     1       2.521  -1.236  -1.607  1.00  0.00     0.163 HD
BRANCH   7   9
ATOM      9  C   UNL     1       3.073   0.961   0.844  1.00  0.00     0.039 A 
ATOM     10  C   UNL     1       4.281   1.582   0.523  1.00  0.00     0.014 A 
ATOM     11  C   UNL     1       2.528   1.111   2.123  1.00  0.00     0.014 A 
ATOM     12  C   UNL     1       5.021   2.208   1.521  1.00  0.00     0.010 A 
ATOM     13  C   UNL     1       3.234   1.817   3.103  1.00  0.00     0.010 A 
ATOM     14  C   UNL     1       4.509   2.331   2.823  1.00  0.00    -0.014 A 
BRANCH  14  15
ATOM     15  C   UNL     1       5.322   3.016   3.862  1.00  0.00     0.031 A 
ATOM     16  C   UNL     1       5.847   2.270   5.059  1.00  0.00     0.074 A 
ATOM     17  C   UNL     1       5.634   4.316   3.693  1.00  0.00     0.049 A 
ATOM     18  N   UNL     1       6.636   2.698   6.014  1.00  0.00    -0.248 NA
ATOM     19  C   UNL     1       5.431   0.867   5.213  1.00  0.00     0.031 C 
ATOM     20  C   UNL     1       5.181   5.155   2.580  1.00  0.00     0.029 A 
ATOM     21  N   UNL     1       6.429   5.150   4.437  1.00  0.00    -0.354 N 
ATOM     22  C   UNL     1       6.788   1.631   6.891  1.00  0.00     0.074 A 
ATOM     23  C   UNL     1       5.995   0.540   6.367  1.00  0.00     0.031 C 
ATOM     24  C   UNL     1       5.756   6.362   2.680  1.00  0.00     0.029 A 
ATOM     25  C   UNL     1       6.572   6.401   3.888  1.00  0.00     0.049 A 
ATOM     26  H   UNL     1       6.856   4.879   5.281  1.00  0.00     0.167 HD
ATOM     27  C   UNL     1       7.525   1.563   8.027  1.00  0.00     0.031 A 
ATOM     28  C   UNL     1       7.280   7.465   4.308  1.00  0.00     0.031 A 
ATOM     29  C   UNL     1       8.325   2.641   8.546  1.00  0.00     0.049 A 
ATOM     30  C   UNL     1       8.083   7.363   5.570  1.00  0.00     0.074 A 
ATOM     31  C   UNL     1       9.137   2.651   9.668  1.00  0.00     0.029 A 
ATOM     32  N   UNL     1       8.413   3.903   7.979  1.00  0.00    -0.354 N 
ATOM     33  N   UNL     1       8.248   6.332   6.362  1.00  0.00    -0.248 NA
ATOM     34  C   UNL     1       8.800   8.573   5.994  1.00  0.00     0.031 C 
ATOM     35  C   UNL     1       9.683   3.932   9.804  1.00  0.00     0.029 A 
ATOM     36  C   UNL     1       9.249   4.705   8.739  1.00  0.00     0.049 A 
ATOM     37  H   UNL     1       7.950   4.187   7.158  1.00  0.00     0.167 HD
ATOM     38  C   UNL     1       9.104   6.762   7.366  1.00  0.00     0.074 A 
ATOM     39  C   UNL     1       9.438   8.141   7.072  1.00  0.00     0.031 C 
ATOM     40  C   UNL     1       9.570   6.075   8.437  1.00  0.00     0.031 A 
BRANCH  27  41
ATOM     41  C   UNL     1       7.479   0.279   8.808  1.00  0.00    -0.014 A 
ATOM     42  C   UNL     1       8.137  -0.876   8.356  1.00  0.00     0.009 A 
ATOM     43  C   UNL     1       6.804   0.238  10.038  1.00  0.00     0.009 A 
ATOM     44  C   UNL     1       8.092  -2.054   9.105  1.00  0.00     0.001 A 
ATOM     45  C   UNL     1       6.782  -0.934  10.797  1.00  0.00     0.001 A 
ATOM     46  C   UNL     1       7.419  -2.081  10.326  1.00  0.00     0.000 A 
ENDBRANCH  27  41
BRANCH  28  47
ATOM     47  C   UNL     1       7.268   8.720   3.513  1.00  0.00    -0.014 A 
ATOM     48  C   UNL     1       8.408   9.122   2.801  1.00  0.00     0.009 A 
ATOM     49  C   UNL     1       6.113   9.514   3.454  1.00  0.00     0.009 A 
ATOM     50  C   UNL     1       8.397  10.306   2.061  1.00  0.00     0.001 A 
ATOM     51  C   UNL     1       6.096  10.683   2.691  1.00  0.00     0.001 A 
ATOM     52  C   UNL     1       7.240  11.082   2.002  1.00  0.00     0.000 A 
ENDBRANCH  28  47
BRANCH  40  53
ATOM     53  C   UNL     1      10.518   6.800   9.349  1.00  0.00    -0.014 A 
ATOM     54  C   UNL     1      10.066   7.803  10.220  1.00  0.00     0.009 A 
ATOM     55  C   UNL     1      11.880   6.462   9.345  1.00  0.00     0.009 A 
ATOM     56  C   UNL     1      10.968   8.480  11.043  1.00  0.00     0.001 A 
ATOM     57  C   UNL     1      12.774   7.122  10.188  1.00  0.00     0.001 A 
ATOM     58  C   UNL     1      12.320   8.138  11.028  1.00  0.00     0.000 A 
ENDBRANCH  40  53
ENDBRANCH  14  15
ENDBRANCH   7   9
ENDBRANCH   4   5
ENDBRANCH   3   4
ENDBRANCH   2   3
ENDBRANCH   1   2
BRANCH   1  59
ATOM     59  C   UNL     1       6.356  -2.978  -3.322  1.00  0.00     0.021 C 
BRANCH  59  60
ATOM     60  C   UNL     1       7.090  -4.258  -2.922  1.00  0.00     0.116 C 
BRANCH  60  61
ATOM     61  N   UNL     1       6.838  -5.339  -3.855  1.00  0.00    -0.349 N 
ATOM     62  C   UNL     1       7.748  -6.102  -4.551  1.00  0.00     0.286 C 
ATOM     63  H   UNL     1       5.891  -5.555  -4.012  1.00  0.00     0.163 HD
ATOM     64  O   UNL     1       7.319  -6.834  -5.443  1.00  0.00    -0.266 OA
BRANCH  62  65
ATOM     65  C   UNL     1       9.143  -6.005  -4.193  1.00  0.00     0.191 A 
ATOM     66  C   UNL     1       9.809  -6.167  -2.991  1.00  0.00     0.056 A 
ATOM     67  O   UNL     1      10.043  -5.687  -5.170  1.00  0.00    -0.454 OA
ATOM     68  C   UNL     1      11.179  -5.919  -3.246  1.00  0.00     0.048 A 
ATOM     69  C   UNL     1      11.273  -5.614  -4.587  1.00  0.00     0.124 A 
BRANCH  69  70
ATOM     70  C   UNL     1      12.390  -5.182  -5.460  1.00  0.00     0.191 C 
BRANCH  70  71
ATOM     71  N   UNL     1      12.688  -6.215  -6.429  1.00  0.00    -0.345 N 
ATOM     72  C   UNL     1      12.779  -6.112  -7.793  1.00  0.00     0.253 C 
ATOM     73  H   UNL     1      12.847  -7.113  -6.059  1.00  0.00     0.164 HD
ATOM     74  O   UNL     1      12.917  -7.116  -8.484  1.00  0.00    -0.269 OA
BRANCH  72  75
ATOM     75  C   UNL     1      12.695  -4.796  -8.446  1.00  0.00     0.058 A 
ATOM     76  C   UNL     1      13.495  -3.714  -8.074  1.00  0.00     0.017 A 
ATOM     77  C   UNL     1      11.807  -4.630  -9.498  1.00  0.00     0.124 A 
ATOM     78  C   UNL     1      13.328  -2.494  -8.724  1.00  0.00     0.021 A 
ATOM     79  N   UNL     1      11.629  -3.452 -10.149  1.00  0.00    -0.264 NA
ATOM     80  C   UNL     1      12.388  -2.412  -9.741  1.00  0.00     0.111 A 
ENDBRANCH  72  75
ENDBRANCH  70  71
ENDBRANCH  69  70
ENDBRANCH  62  65
ENDBRANCH  60  61
ENDBRANCH  59  60
ENDBRANCH   1  59
TORSDOF 16
