REMARK SMILES Cc1ccccc1NC(=O)CSc1nc(C(=O)NCCCCCCNC(=O)c2ccc(-c3c4nc(c(-c5ccccc5)c5ccc([nH]5)c(-c5ccccc5)c5nc(c(-c6ccccc6)c6ccc3[nH]6)C=C5)C=C4)cc2)c2ccccc2n1
REMARK SMILES IDX 20 1 19 2 18 3 16 4 17 5 15 7 13 8 14 9 82 10 81 11 76 12
REMARK SMILES IDX 80 13 77 14 79 15 78 16 12 17 11 18 9 19 8 20 10 22 7 23
REMARK SMILES IDX 1 24 2 25 3 26 4 27 6 28 5 29 21 30 22 31 23 32 24 33 25 34
REMARK SMILES IDX 26 35 27 37 28 38 29 39 75 40 30 41 74 42 31 43 32 44 33 45
REMARK SMILES IDX 68 46 34 47 73 48 67 49 69 50 35 51 72 52 66 53 65 54 36 56
REMARK SMILES IDX 58 57 43 58 57 59 44 60 47 61 56 62 70 63 45 64 46 65 55 67
REMARK SMILES IDX 71 68 48 69 37 70 38 71 42 72 39 73 41 74 40 75 59 76 60 77
REMARK SMILES IDX 64 78 61 79 63 80 62 81 49 82 50 83 54 84 51 85 53 86 52 87
REMARK H PARENT 18 6 8 21 25 36 69 55 47 66
REMARK Flexibility Score: inf
ROOT
ATOM      1  C   UNL     1      -2.261   8.124  -7.808  1.00  0.00     0.021 C 
ENDROOT
BRANCH   1   2
ATOM      2  C   UNL     1      -1.477   7.287  -6.801  1.00  0.00     0.116 C 
BRANCH   2   3
ATOM      3  N   UNL     1      -1.286   7.863  -5.487  1.00  0.00    -0.351 N 
ATOM      4  C   UNL     1      -0.880   7.259  -4.307  1.00  0.00     0.270 C 
ATOM      5  O   UNL     1      -0.686   7.982  -3.330  1.00  0.00    -0.267 OA
ATOM      6  H   UNL     1      -1.473   8.827  -5.421  1.00  0.00     0.163 HD
BRANCH   4   7
ATOM      7  C   UNL     1      -0.760   5.765  -4.163  1.00  0.00     0.140 A 
ATOM      8  C   UNL     1      -1.520   3.962  -2.998  1.00  0.00     0.189 A 
ATOM      9  N   UNL     1      -1.474   5.286  -3.115  1.00  0.00    -0.217 NA
ATOM     10  N   UNL     1      -1.025   3.096  -3.889  1.00  0.00    -0.222 NA
ATOM     11  C   UNL     1      -0.309   3.587  -4.901  1.00  0.00     0.076 A 
ATOM     12  C   UNL     1      -0.047   4.950  -5.054  1.00  0.00     0.032 A 
ATOM     13  C   UNL     1       0.187   2.699  -5.847  1.00  0.00     0.029 A 
ATOM     14  C   UNL     1       0.870   5.362  -6.056  1.00  0.00     0.013 A 
ATOM     15  C   UNL     1       0.987   3.124  -6.910  1.00  0.00     0.002 A 
ATOM     16  C   UNL     1       1.358   4.457  -6.996  1.00  0.00     0.001 A 
BRANCH   8  17
ATOM     17  S   UNL     1      -2.397   3.267  -1.631  1.00  0.00    -0.076 SA
BRANCH  17  18
ATOM     18  C   UNL     1      -1.419   3.935  -0.254  1.00  0.00     0.178 C 
BRANCH  18  19
ATOM     19  C   UNL     1       0.050   3.578  -0.307  1.00  0.00     0.234 C 
ATOM     20  N   UNL     1       0.573   2.338  -0.100  1.00  0.00    -0.325 N 
ATOM     21  H   UNL     1       1.557   2.348  -0.116  1.00  0.00     0.169 HD
ATOM     22  O   UNL     1       0.881   4.472  -0.528  1.00  0.00    -0.274 OA
BRANCH  20  23
ATOM     23  C   UNL     1       0.066   1.043   0.130  1.00  0.00     0.044 A 
ATOM     24  C   UNL     1       2.440   0.030  -0.165  1.00  0.00     0.046 C 
ATOM     25  C   UNL     1       0.948  -0.062   0.034  1.00  0.00    -0.027 A 
ATOM     26  C   UNL     1       0.427  -1.373   0.092  1.00  0.00     0.005 A 
ATOM     27  C   UNL     1      -0.928  -1.601   0.298  1.00  0.00     0.000 A 
ATOM     28  C   UNL     1      -1.276   0.784   0.422  1.00  0.00     0.026 A 
ATOM     29  C   UNL     1      -1.774  -0.521   0.491  1.00  0.00     0.002 A 
ENDBRANCH  20  23
ENDBRANCH  18  19
ENDBRANCH  17  18
ENDBRANCH   8  17
ENDBRANCH   4   7
ENDBRANCH   2   3
ENDBRANCH   1   2
BRANCH   1  30
ATOM     30  C   UNL     1      -1.878   9.595  -8.029  1.00  0.00     0.002 C 
BRANCH  30  31
ATOM     31  C   UNL     1      -0.404  10.026  -8.023  1.00  0.00     0.002 C 
BRANCH  31  32
ATOM     32  C   UNL     1       0.586   9.255  -8.894  1.00  0.00     0.021 C 
BRANCH  32  33
ATOM     33  C   UNL     1       0.335   9.308 -10.394  1.00  0.00     0.116 C 
BRANCH  33  34
ATOM     34  N   UNL     1       1.127  10.309 -11.105  1.00  0.00    -0.352 N 
ATOM     35  C   UNL     1       1.172  10.551 -12.471  1.00  0.00     0.251 C 
ATOM     36  H   UNL     1       1.700  10.882 -10.546  1.00  0.00     0.163 HD
ATOM     37  O   UNL     1       1.829  11.466 -12.935  1.00  0.00    -0.269 OA
BRANCH  35  38
ATOM     38  C   UNL     1       0.300   9.735 -13.347  1.00  0.00     0.039 A 
ATOM     39  C   UNL     1      -0.689  10.397 -14.076  1.00  0.00     0.014 A 
ATOM     40  C   UNL     1       0.288   8.348 -13.216  1.00  0.00     0.014 A 
ATOM     41  C   UNL     1      -1.833   9.697 -14.444  1.00  0.00     0.010 A 
ATOM     42  C   UNL     1      -0.884   7.673 -13.500  1.00  0.00     0.010 A 
ATOM     43  C   UNL     1      -1.973   8.370 -14.036  1.00  0.00    -0.014 A 
BRANCH  43  44
ATOM     44  C   UNL     1      -3.271   7.707 -13.967  1.00  0.00     0.031 A 
ATOM     45  C   UNL     1      -3.648   6.663 -14.934  1.00  0.00     0.074 A 
ATOM     46  C   UNL     1      -4.138   8.036 -12.984  1.00  0.00     0.049 A 
ATOM     47  N   UNL     1      -4.868   6.347 -15.214  1.00  0.00    -0.248 NA
ATOM     48  C   UNL     1      -2.665   5.930 -15.718  1.00  0.00     0.031 C 
ATOM     49  C   UNL     1      -5.356   7.333 -12.591  1.00  0.00     0.029 A 
ATOM     50  N   UNL     1      -4.202   9.249 -12.299  1.00  0.00    -0.354 N 
ATOM     51  C   UNL     1      -4.833   5.190 -15.952  1.00  0.00     0.074 A 
ATOM     52  C   UNL     1      -3.446   5.035 -16.330  1.00  0.00     0.031 C 
ATOM     53  C   UNL     1      -6.167   8.196 -11.960  1.00  0.00     0.029 A 
ATOM     54  C   UNL     1      -5.563   9.514 -12.057  1.00  0.00     0.049 A 
ATOM     55  H   UNL     1      -3.440   9.813 -12.036  1.00  0.00     0.167 HD
ATOM     56  C   UNL     1      -5.954   4.418 -16.037  1.00  0.00     0.031 A 
ATOM     57  C   UNL     1      -6.161  10.616 -12.596  1.00  0.00     0.031 A 
ATOM     58  C   UNL     1      -7.125   5.061 -15.432  1.00  0.00     0.049 A 
ATOM     59  C   UNL     1      -7.296  10.317 -13.560  1.00  0.00     0.074 A 
ATOM     60  C   UNL     1      -7.868   4.854 -14.280  1.00  0.00     0.029 A 
ATOM     61  N   UNL     1      -7.545   6.283 -15.936  1.00  0.00    -0.354 N 
ATOM     62  N   UNL     1      -7.683   9.122 -13.911  1.00  0.00    -0.248 NA
ATOM     63  C   UNL     1      -8.007  11.364 -14.294  1.00  0.00     0.031 C 
ATOM     64  C   UNL     1      -8.748   5.963 -14.107  1.00  0.00     0.029 A 
ATOM     65  C   UNL     1      -8.544   6.836 -15.158  1.00  0.00     0.049 A 
ATOM     66  H   UNL     1      -7.178   6.704 -16.747  1.00  0.00     0.167 HD
ATOM     67  C   UNL     1      -8.603   9.216 -14.924  1.00  0.00     0.074 A 
ATOM     68  C   UNL     1      -8.777  10.642 -15.125  1.00  0.00     0.031 C 
ATOM     69  C   UNL     1      -9.107   8.116 -15.559  1.00  0.00     0.031 A 
BRANCH  56  70
ATOM     70  C   UNL     1      -5.925   2.963 -16.453  1.00  0.00    -0.014 A 
ATOM     71  C   UNL     1      -6.933   2.089 -16.005  1.00  0.00     0.009 A 
ATOM     72  C   UNL     1      -4.910   2.373 -17.225  1.00  0.00     0.009 A 
ATOM     73  C   UNL     1      -6.870   0.705 -16.221  1.00  0.00     0.001 A 
ATOM     74  C   UNL     1      -4.819   0.987 -17.415  1.00  0.00     0.001 A 
ATOM     75  C   UNL     1      -5.795   0.149 -16.899  1.00  0.00     0.000 A 
ENDBRANCH  56  70
BRANCH  57  76
ATOM     76  C   UNL     1      -5.244  11.786 -12.709  1.00  0.00    -0.014 A 
ATOM     77  C   UNL     1      -4.726  12.348 -11.523  1.00  0.00     0.009 A 
ATOM     78  C   UNL     1      -4.631  12.112 -13.926  1.00  0.00     0.009 A 
ATOM     79  C   UNL     1      -3.561  13.119 -11.546  1.00  0.00     0.001 A 
ATOM     80  C   UNL     1      -3.475  12.901 -13.945  1.00  0.00     0.001 A 
ATOM     81  C   UNL     1      -2.921  13.373 -12.755  1.00  0.00     0.000 A 
ENDBRANCH  57  76
BRANCH  69  82
ATOM     82  C   UNL     1     -10.131   8.139 -16.671  1.00  0.00    -0.014 A 
ATOM     83  C   UNL     1     -11.117   9.126 -16.808  1.00  0.00     0.009 A 
ATOM     84  C   UNL     1     -10.191   7.064 -17.586  1.00  0.00     0.009 A 
ATOM     85  C   UNL     1     -12.052   9.086 -17.854  1.00  0.00     0.001 A 
ATOM     86  C   UNL     1     -11.135   7.005 -18.615  1.00  0.00     0.001 A 
ATOM     87  C   UNL     1     -12.057   8.030 -18.760  1.00  0.00     0.000 A 
ENDBRANCH  69  82
ENDBRANCH  43  44
ENDBRANCH  35  38
ENDBRANCH  33  34
ENDBRANCH  32  33
ENDBRANCH  31  32
ENDBRANCH  30  31
ENDBRANCH   1  30
TORSDOF 17
