REMARK SMILES CC(C)[C@H]([NH2+]C[C@H]1CC[C@@H](C(=O)NCCCCCCNC(=O)c2ccc(-c3c4nc(c(-c5ccccc5)c5ccc([nH]5)c(-c5ccccc5)c5nc(c(-c6ccccc6)c6ccc3[nH]6)C=C5)C=C4)cc2)CC1)c1ccccc1
REMARK SMILES IDX 15 1 14 2 13 3 11 4 12 5 10 7 7 8 8 9 72 10 9 11 71 12 6 13
REMARK SMILES IDX 5 14 4 17 2 18 1 19 3 20 73 21 74 22 78 23 75 24 77 25 76 26
REMARK SMILES IDX 16 27 17 28 18 29 19 30 20 31 21 32 22 34 23 35 24 36 70 37
REMARK SMILES IDX 25 38 69 39 26 40 27 41 28 42 63 43 29 44 68 45 62 46 64 47
REMARK SMILES IDX 30 48 67 49 61 50 60 51 31 53 53 54 38 55 52 56 39 57 42 58
REMARK SMILES IDX 51 59 65 60 40 61 41 62 50 64 66 65 43 66 32 67 33 68 37 69
REMARK SMILES IDX 34 70 36 71 35 72 54 73 55 74 59 75 56 76 58 77 57 78 44 79
REMARK SMILES IDX 45 80 49 81 46 82 48 83 47 84
REMARK H PARENT 13 6 5 15 5 16 20 33 64 52 42 63
REMARK Flexibility Score: inf
ROOT
ATOM      1  C   UNL     1       1.481  -1.190   2.768  1.00  0.00     0.021 C 
ENDROOT
BRANCH   1   2
ATOM      2  C   UNL     1       2.241   0.033   2.255  1.00  0.00     0.116 C 
BRANCH   2   3
ATOM      3  N   UNL     1       3.622   0.068   2.668  1.00  0.00    -0.356 N 
ATOM      4  C   UNL     1       4.790  -0.030   1.988  1.00  0.00     0.223 C 
ATOM      5  O   UNL     1       5.812   0.163   2.661  1.00  0.00    -0.275 OA
ATOM      6  H   UNL     1       3.740   0.187   3.638  1.00  0.00     0.163 HD
BRANCH   4   7
ATOM      7  C   UNL     1       4.935  -0.322   0.485  1.00  0.00     0.078 C 
ATOM      8  C   UNL     1       2.617  -0.184  -1.465  1.00  0.00     0.044 C 
ATOM      9  C   UNL     1       3.297   1.076  -0.897  1.00  0.00     0.010 C 
ATOM     10  C   UNL     1       2.954  -1.499  -0.725  1.00  0.00     0.010 C 
ATOM     11  C   UNL     1       4.728   0.873  -0.437  1.00  0.00     0.014 C 
ATOM     12  C   UNL     1       4.322  -1.607  -0.059  1.00  0.00     0.014 C 
BRANCH   8  13
ATOM     13  C   UNL     1       1.066  -0.039  -1.508  1.00  0.00     0.264 C 
BRANCH  13  14
ATOM     14  N   UNL     1       0.599   1.215  -2.090  1.00  0.00    -0.340 N 
ATOM     15  H   UNL     1       1.074   1.985  -1.620  1.00  0.00     0.346 HD
ATOM     16  H   UNL     1       0.811   1.178  -3.087  1.00  0.00     0.346 HD
BRANCH  14  17
ATOM     17  C   UNL     1      -0.857   1.419  -1.966  1.00  0.00     0.216 C 
BRANCH  17  18
ATOM     18  C   UNL     1      -1.368   1.733  -0.518  1.00  0.00     0.046 C 
ATOM     19  C   UNL     1      -0.556   2.774   0.262  1.00  0.00     0.014 C 
ATOM     20  C   UNL     1      -2.857   2.110  -0.464  1.00  0.00     0.014 C 
ENDBRANCH  17  18
BRANCH  17  21
ATOM     21  C   UNL     1      -1.330   2.443  -2.986  1.00  0.00     0.009 A 
ATOM     22  C   UNL     1      -0.790   3.735  -3.065  1.00  0.00     0.010 A 
ATOM     23  C   UNL     1      -2.389   2.106  -3.845  1.00  0.00     0.010 A 
ATOM     24  C   UNL     1      -1.319   4.675  -3.950  1.00  0.00     0.001 A 
ATOM     25  C   UNL     1      -2.911   3.045  -4.731  1.00  0.00     0.001 A 
ATOM     26  C   UNL     1      -2.384   4.331  -4.779  1.00  0.00     0.000 A 
ENDBRANCH  17  21
ENDBRANCH  14  17
ENDBRANCH  13  14
ENDBRANCH   8  13
ENDBRANCH   4   7
ENDBRANCH   2   3
ENDBRANCH   1   2
BRANCH   1  27
ATOM     27  C   UNL     1       0.684  -0.972   4.061  1.00  0.00     0.002 C 
BRANCH  27  28
ATOM     28  C   UNL     1      -0.348   0.169   4.056  1.00  0.00     0.002 C 
BRANCH  28  29
ATOM     29  C   UNL     1      -1.217   0.290   2.803  1.00  0.00     0.021 C 
BRANCH  29  30
ATOM     30  C   UNL     1      -2.238  -0.824   2.575  1.00  0.00     0.116 C 
BRANCH  30  31
ATOM     31  N   UNL     1      -3.418  -0.639   3.401  1.00  0.00    -0.352 N 
ATOM     32  C   UNL     1      -4.727  -0.406   3.070  1.00  0.00     0.251 C 
ATOM     33  H   UNL     1      -3.248  -0.691   4.370  1.00  0.00     0.163 HD
ATOM     34  O   UNL     1      -5.499  -0.039   3.965  1.00  0.00    -0.269 OA
BRANCH  32  35
ATOM     35  C   UNL     1      -5.266  -0.580   1.695  1.00  0.00     0.039 A 
ATOM     36  C   UNL     1      -6.333   0.239   1.295  1.00  0.00     0.014 A 
ATOM     37  C   UNL     1      -4.847  -1.603   0.840  1.00  0.00     0.014 A 
ATOM     38  C   UNL     1      -6.961   0.048   0.057  1.00  0.00     0.010 A 
ATOM     39  C   UNL     1      -5.439  -1.760  -0.422  1.00  0.00     0.010 A 
ATOM     40  C   UNL     1      -6.515  -0.951  -0.820  1.00  0.00    -0.014 A 
BRANCH  40  41
ATOM     41  C   UNL     1      -7.193  -1.189  -2.126  1.00  0.00     0.031 A 
ATOM     42  C   UNL     1      -7.947  -2.472  -2.374  1.00  0.00     0.074 A 
ATOM     43  C   UNL     1      -7.121  -0.272  -3.110  1.00  0.00     0.049 A 
ATOM     44  N   UNL     1      -8.529  -2.893  -3.471  1.00  0.00    -0.248 NA
ATOM     45  C   UNL     1      -8.050  -3.409  -1.245  1.00  0.00     0.031 C 
ATOM     46  C   UNL     1      -6.440   1.020  -3.022  1.00  0.00     0.029 A 
ATOM     47  N   UNL     1      -7.630  -0.293  -4.387  1.00  0.00    -0.354 N 
ATOM     48  C   UNL     1      -9.044  -4.149  -3.172  1.00  0.00     0.074 A 
ATOM     49  C   UNL     1      -8.682  -4.434  -1.800  1.00  0.00     0.031 C 
ATOM     50  C   UNL     1      -6.590   1.675  -4.185  1.00  0.00     0.029 A 
ATOM     51  C   UNL     1      -7.339   0.835  -5.115  1.00  0.00     0.049 A 
ATOM     52  H   UNL     1      -8.153  -1.045  -4.746  1.00  0.00     0.167 HD
ATOM     53  C   UNL     1      -9.762  -4.989  -3.958  1.00  0.00     0.031 A 
ATOM     54  C   UNL     1      -7.627   1.155  -6.391  1.00  0.00     0.031 A 
ATOM     55  C   UNL     1     -10.148  -4.714  -5.318  1.00  0.00     0.049 A 
ATOM     56  C   UNL     1      -8.392   0.194  -7.255  1.00  0.00     0.074 A 
ATOM     57  C   UNL     1     -10.908  -5.495  -6.174  1.00  0.00     0.029 A 
ATOM     58  N   UNL     1      -9.809  -3.569  -6.019  1.00  0.00    -0.354 N 
ATOM     59  N   UNL     1      -8.874  -0.985  -6.951  1.00  0.00    -0.248 NA
ATOM     60  C   UNL     1      -8.651   0.616  -8.640  1.00  0.00     0.031 C 
ATOM     61  C   UNL     1     -10.995  -4.839  -7.407  1.00  0.00     0.029 A 
ATOM     62  C   UNL     1     -10.327  -3.631  -7.303  1.00  0.00     0.049 A 
ATOM     63  H   UNL     1      -9.277  -2.822  -5.659  1.00  0.00     0.167 HD
ATOM     64  C   UNL     1      -9.512  -1.437  -8.099  1.00  0.00     0.074 A 
ATOM     65  C   UNL     1      -9.363  -0.403  -9.101  1.00  0.00     0.031 C 
ATOM     66  C   UNL     1     -10.169  -2.604  -8.298  1.00  0.00     0.031 A 
BRANCH  53  67
ATOM     67  C   UNL     1     -10.169  -6.309  -3.366  1.00  0.00    -0.014 A 
ATOM     68  C   UNL     1     -11.186  -6.392  -2.402  1.00  0.00     0.009 A 
ATOM     69  C   UNL     1      -9.555  -7.491  -3.810  1.00  0.00     0.009 A 
ATOM     70  C   UNL     1     -11.555  -7.629  -1.869  1.00  0.00     0.001 A 
ATOM     71  C   UNL     1      -9.943  -8.729  -3.294  1.00  0.00     0.001 A 
ATOM     72  C   UNL     1     -10.935  -8.796  -2.317  1.00  0.00     0.000 A 
ENDBRANCH  53  67
BRANCH  54  73
ATOM     73  C   UNL     1      -7.181   2.457  -6.946  1.00  0.00    -0.014 A 
ATOM     74  C   UNL     1      -8.094   3.507  -7.117  1.00  0.00     0.009 A 
ATOM     75  C   UNL     1      -5.843   2.647  -7.319  1.00  0.00     0.009 A 
ATOM     76  C   UNL     1      -7.674   4.725  -7.656  1.00  0.00     0.001 A 
ATOM     77  C   UNL     1      -5.420   3.875  -7.832  1.00  0.00     0.001 A 
ATOM     78  C   UNL     1      -6.336   4.911  -8.005  1.00  0.00     0.000 A 
ENDBRANCH  54  73
BRANCH  66  79
ATOM     79  C   UNL     1     -10.801  -2.815  -9.643  1.00  0.00    -0.014 A 
ATOM     80  C   UNL     1     -10.027  -3.129 -10.770  1.00  0.00     0.009 A 
ATOM     81  C   UNL     1     -12.195  -2.724  -9.778  1.00  0.00     0.009 A 
ATOM     82  C   UNL     1     -10.635  -3.321 -12.013  1.00  0.00     0.001 A 
ATOM     83  C   UNL     1     -12.803  -2.938 -11.016  1.00  0.00     0.001 A 
ATOM     84  C   UNL     1     -12.021  -3.228 -12.134  1.00  0.00     0.000 A 
ENDBRANCH  66  79
ENDBRANCH  40  41
ENDBRANCH  32  35
ENDBRANCH  30  31
ENDBRANCH  29  30
ENDBRANCH  28  29
ENDBRANCH  27  28
ENDBRANCH   1  27
TORSDOF 18
