REMARK SMILES Cc1cc(F)cc(/C=C/C(=O)NCCCCCCNC(=O)c2ccc(-c3c4nc(c(-c5ccccc5)c5ccc([nH]5)c(-c5ccccc5)c5nc(c(-c6ccccc6)c6ccc3[nH]6)C=C5)C=C4)cc2)c1
REMARK SMILES IDX 16 1 15 2 14 3 13 4 12 5 10 6 11 7 9 9 8 10 7 11 1 12 2 13
REMARK SMILES IDX 3 14 70 15 4 16 5 17 6 18 17 19 18 20 19 21 20 22 21 24
REMARK SMILES IDX 22 25 23 26 69 27 24 28 68 29 25 30 26 31 27 32 62 33 28 34
REMARK SMILES IDX 67 35 61 36 63 37 29 38 66 39 60 40 59 41 30 43 52 44 37 45
REMARK SMILES IDX 51 46 38 47 41 48 50 49 64 50 39 51 40 52 49 54 65 55 42 56
REMARK SMILES IDX 31 57 32 58 36 59 33 60 35 61 34 62 53 63 54 64 58 65 55 66
REMARK SMILES IDX 57 67 56 68 43 69 44 70 48 71 45 72 47 73 46 74
REMARK H PARENT 12 8 19 23 63 42 41 53
REMARK Flexibility Score: inf
ROOT
ATOM      1  C   UNL     1       3.818  -7.954  -0.115  1.00  0.00     0.002 C 
ENDROOT
BRANCH   1   2
ATOM      2  C   UNL     1       2.972  -7.406   1.041  1.00  0.00     0.002 C 
BRANCH   2   3
ATOM      3  C   UNL     1       2.580  -5.927   0.914  1.00  0.00     0.021 C 
BRANCH   3   4
ATOM      4  C   UNL     1       1.712  -5.627  -0.308  1.00  0.00     0.116 C 
BRANCH   4   5
ATOM      5  N   UNL     1       0.345  -6.053  -0.073  1.00  0.00    -0.353 N 
ATOM      6  C   UNL     1      -0.809  -5.343   0.019  1.00  0.00     0.243 C 
ATOM      7  O   UNL     1      -1.876  -5.937   0.159  1.00  0.00    -0.270 OA
ATOM      8  H   UNL     1       0.235  -7.025   0.040  1.00  0.00     0.163 HD
BRANCH   6   9
ATOM      9  C   UNL     1      -0.819  -3.874  -0.148  1.00  0.00     0.072 C 
ATOM     10  C   UNL     1       0.013  -3.022   0.471  1.00  0.00     0.014 C 
BRANCH  10  11
ATOM     11  C   UNL     1      -0.030  -1.566   0.276  1.00  0.00    -0.022 A 
ATOM     12  C   UNL     1       2.480   1.308   0.001  1.00  0.00     0.044 C 
ATOM     13  C   UNL     1       1.190   0.544   0.052  1.00  0.00    -0.048 A 
ATOM     14  C   UNL     1      -0.028   1.226  -0.027  1.00  0.00     0.042 A 
ATOM     15  C   UNL     1       1.178  -0.851   0.214  1.00  0.00     0.011 A 
ATOM     16  C   UNL     1      -1.223   0.519   0.044  1.00  0.00     0.124 A 
ATOM     17  F   UNL     1      -2.384   1.183  -0.028  1.00  0.00    -0.207 F 
ATOM     18  C   UNL     1      -1.236  -0.863   0.197  1.00  0.00     0.047 A 
ENDBRANCH  10  11
ENDBRANCH   6   9
ENDBRANCH   4   5
ENDBRANCH   3   4
ENDBRANCH   2   3
ENDBRANCH   1   2
BRANCH   1  19
ATOM     19  C   UNL     1       5.093  -7.163  -0.418  1.00  0.00     0.021 C 
BRANCH  19  20
ATOM     20  C   UNL     1       6.079  -7.087   0.743  1.00  0.00     0.116 C 
BRANCH  20  21
ATOM     21  N   UNL     1       6.614  -8.396   1.085  1.00  0.00    -0.352 N 
ATOM     22  C   UNL     1       7.920  -8.812   1.150  1.00  0.00     0.251 C 
ATOM     23  H   UNL     1       5.942  -9.082   1.300  1.00  0.00     0.163 HD
ATOM     24  O   UNL     1       8.185 -10.006   1.239  1.00  0.00    -0.269 OA
BRANCH  22  25
ATOM     25  C   UNL     1       9.011  -7.817   1.101  1.00  0.00     0.039 A 
ATOM     26  C   UNL     1      10.125  -8.073   0.297  1.00  0.00     0.014 A 
ATOM     27  C   UNL     1       8.947  -6.646   1.862  1.00  0.00     0.014 A 
ATOM     28  C   UNL     1      11.151  -7.130   0.216  1.00  0.00     0.010 A 
ATOM     29  C   UNL     1       9.936  -5.677   1.726  1.00  0.00     0.010 A 
ATOM     30  C   UNL     1      11.051  -5.912   0.908  1.00  0.00    -0.014 A 
BRANCH  30  31
ATOM     31  C   UNL     1      12.105  -4.875   0.793  1.00  0.00     0.031 A 
ATOM     32  C   UNL     1      12.922  -4.489   1.995  1.00  0.00     0.074 A 
ATOM     33  C   UNL     1      12.285  -4.235  -0.378  1.00  0.00     0.049 A 
ATOM     34  N   UNL     1      13.848  -3.570   2.104  1.00  0.00    -0.248 NA
ATOM     35  C   UNL     1      12.645  -5.215   3.245  1.00  0.00     0.031 C 
ATOM     36  C   UNL     1      11.532  -4.491  -1.608  1.00  0.00     0.029 A 
ATOM     37  N   UNL     1      13.155  -3.233  -0.723  1.00  0.00    -0.354 N 
ATOM     38  C   UNL     1      14.250  -3.595   3.433  1.00  0.00     0.074 A 
ATOM     39  C   UNL     1      13.433  -4.584   4.103  1.00  0.00     0.031 C 
ATOM     40  C   UNL     1      11.993  -3.686  -2.579  1.00  0.00     0.029 A 
ATOM     41  C   UNL     1      13.043  -2.833  -2.033  1.00  0.00     0.049 A 
ATOM     42  H   UNL     1      13.800  -2.837  -0.092  1.00  0.00     0.167 HD
ATOM     43  C   UNL     1      15.223  -2.874   4.040  1.00  0.00     0.031 A 
ATOM     44  C   UNL     1      13.707  -1.882  -2.716  1.00  0.00     0.031 A 
ATOM     45  C   UNL     1      16.040  -1.897   3.372  1.00  0.00     0.049 A 
ATOM     46  C   UNL     1      14.772  -1.084  -2.017  1.00  0.00     0.074 A 
ATOM     47  C   UNL     1      17.090  -1.155   3.884  1.00  0.00     0.029 A 
ATOM     48  N   UNL     1      15.895  -1.522   2.045  1.00  0.00    -0.354 N 
ATOM     49  N   UNL     1      15.185  -1.166  -0.776  1.00  0.00    -0.248 NA
ATOM     50  C   UNL     1      15.467  -0.068  -2.819  1.00  0.00     0.031 C 
ATOM     51  C   UNL     1      17.546  -0.293   2.881  1.00  0.00     0.029 A 
ATOM     52  C   UNL     1      16.818  -0.540   1.728  1.00  0.00     0.049 A 
ATOM     53  H   UNL     1      15.233  -1.899   1.421  1.00  0.00     0.167 HD
ATOM     54  C   UNL     1      16.207  -0.234  -0.655  1.00  0.00     0.074 A 
ATOM     55  C   UNL     1      16.360   0.392  -1.953  1.00  0.00     0.031 C 
ATOM     56  C   UNL     1      16.953   0.076   0.433  1.00  0.00     0.031 A 
BRANCH  43  57
ATOM     57  C   UNL     1      15.445  -3.113   5.508  1.00  0.00    -0.014 A 
ATOM     58  C   UNL     1      15.995  -4.318   5.976  1.00  0.00     0.009 A 
ATOM     59  C   UNL     1      15.123  -2.111   6.436  1.00  0.00     0.009 A 
ATOM     60  C   UNL     1      16.176  -4.530   7.344  1.00  0.00     0.001 A 
ATOM     61  C   UNL     1      15.334  -2.313   7.801  1.00  0.00     0.001 A 
ATOM     62  C   UNL     1      15.849  -3.526   8.255  1.00  0.00     0.000 A 
ENDBRANCH  43  57
BRANCH  44  63
ATOM     63  C   UNL     1      13.398  -1.646  -4.150  1.00  0.00    -0.014 A 
ATOM     64  C   UNL     1      14.314  -2.022  -5.145  1.00  0.00     0.009 A 
ATOM     65  C   UNL     1      12.187  -1.049  -4.532  1.00  0.00     0.009 A 
ATOM     66  C   UNL     1      14.033  -1.782  -6.492  1.00  0.00     0.001 A 
ATOM     67  C   UNL     1      11.897  -0.837  -5.882  1.00  0.00     0.001 A 
ATOM     68  C   UNL     1      12.823  -1.195  -6.859  1.00  0.00     0.000 A 
ENDBRANCH  44  63
BRANCH  56  69
ATOM     69  C   UNL     1      18.023   1.116   0.258  1.00  0.00    -0.014 A 
ATOM     70  C   UNL     1      17.703   2.474   0.109  1.00  0.00     0.009 A 
ATOM     71  C   UNL     1      19.374   0.734   0.280  1.00  0.00     0.009 A 
ATOM     72  C   UNL     1      18.714   3.425  -0.046  1.00  0.00     0.001 A 
ATOM     73  C   UNL     1      20.383   1.689   0.154  1.00  0.00     0.001 A 
ATOM     74  C   UNL     1      20.052   3.032  -0.019  1.00  0.00     0.000 A 
ENDBRANCH  56  69
ENDBRANCH  30  31
ENDBRANCH  22  25
ENDBRANCH  20  21
ENDBRANCH  19  20
ENDBRANCH   1  19
TORSDOF 14
