REMARK SMILES CC[C@H]1CC[C@](C[C@H](O)COC)(C(=O)NCCCCCCNC(=O)c2ccc(-c3c4nc(c(-c5ccccc5)c5ccc([nH]5)c(-c5ccccc5)c5nc(c(-c6ccccc6)c6ccc3[nH]6)C=C5)C=C4)cc2)CC1
REMARK SMILES IDX 17 1 16 2 15 3 13 4 14 5 6 7 3 8 74 9 4 10 73 11 5 12 2 13
REMARK SMILES IDX 1 14 7 15 8 16 10 17 11 18 12 19 9 20 18 22 19 23 20 24
REMARK SMILES IDX 21 25 22 26 23 27 24 29 25 30 26 31 72 32 27 33 71 34 28 35
REMARK SMILES IDX 29 36 30 37 65 38 31 39 70 40 64 41 66 42 32 43 69 44 63 45
REMARK SMILES IDX 62 46 33 48 55 49 40 50 54 51 41 52 44 53 53 54 67 55 42 56
REMARK SMILES IDX 43 57 52 59 68 60 45 61 34 62 35 63 39 64 36 65 38 66 37 67
REMARK SMILES IDX 56 68 57 69 61 70 58 71 60 72 59 73 46 74 47 75 51 76 48 77
REMARK SMILES IDX 50 78 49 79
REMARK H PARENT 15 6 9 21 22 28 66 47 44 58
REMARK Flexibility Score: inf
ROOT
ATOM      1  C   UNL     1       1.043   4.805   0.577  1.00  0.00     0.021 C 
ENDROOT
BRANCH   1   2
ATOM      2  C   UNL     1       2.261   4.763  -0.338  1.00  0.00     0.116 C 
BRANCH   2   3
ATOM      3  N   UNL     1       2.000   5.173  -1.701  1.00  0.00    -0.356 N 
ATOM      4  C   UNL     1       2.773   5.824  -2.612  1.00  0.00     0.226 C 
ATOM      5  O   UNL     1       2.454   5.623  -3.792  1.00  0.00    -0.274 OA
ATOM      6  H   UNL     1       1.101   4.939  -2.028  1.00  0.00     0.163 HD
BRANCH   4   7
ATOM      7  C   UNL     1       3.976   6.763  -2.269  1.00  0.00     0.052 C 
ATOM      8  C   UNL     1       4.885   9.706  -2.095  1.00  0.00    -0.011 C 
ATOM      9  C   UNL     1       5.095   8.878  -3.369  1.00  0.00     0.005 C 
ATOM     10  C   UNL     1       4.704   8.802  -0.873  1.00  0.00     0.005 C 
ATOM     11  C   UNL     1       4.091   7.729  -3.519  1.00  0.00     0.017 C 
ATOM     12  C   UNL     1       3.654   7.714  -1.099  1.00  0.00     0.017 C 
BRANCH   8  13
ATOM     13  C   UNL     1       6.059  10.690  -1.916  1.00  0.00    -0.000 C 
ATOM     14  C   UNL     1       5.955  11.563  -0.672  1.00  0.00     0.004 C 
ENDBRANCH   8  13
BRANCH   7  15
ATOM     15  C   UNL     1       5.337   5.978  -2.219  1.00  0.00     0.051 C 
BRANCH  15  16
ATOM     16  C   UNL     1       5.743   5.021  -1.085  1.00  0.00     0.141 C 
BRANCH  16  17
ATOM     17  C   UNL     1       6.000   5.710   0.267  1.00  0.00     0.191 C 
BRANCH  17  18
ATOM     18  O   UNL     1       6.351   4.787   1.303  1.00  0.00    -0.382 OA
ATOM     19  C   UNL     1       5.235   4.464   2.124  1.00  0.00     0.195 C 
ENDBRANCH  17  18
ENDBRANCH  16  17
BRANCH  16  20
ATOM     20  O   UNL     1       4.824   3.946  -0.992  1.00  0.00    -0.391 OA
ATOM     21  H   UNL     1       3.949   4.289  -0.751  1.00  0.00     0.211 HD
ENDBRANCH  16  20
ENDBRANCH  15  16
ENDBRANCH   7  15
ENDBRANCH   4   7
ENDBRANCH   2   3
ENDBRANCH   1   2
BRANCH   1  22
ATOM     22  C   UNL     1       0.119   3.583   0.486  1.00  0.00     0.002 C 
BRANCH  22  23
ATOM     23  C   UNL     1       0.769   2.201   0.645  1.00  0.00     0.002 C 
BRANCH  23  24
ATOM     24  C   UNL     1       1.715   2.005   1.835  1.00  0.00     0.021 C 
BRANCH  24  25
ATOM     25  C   UNL     1       1.147   2.324   3.215  1.00  0.00     0.116 C 
BRANCH  25  26
ATOM     26  N   UNL     1      -0.014   1.520   3.543  1.00  0.00    -0.352 N 
ATOM     27  C   UNL     1      -0.312   0.804   4.674  1.00  0.00     0.251 C 
ATOM     28  H   UNL     1      -0.700   1.481   2.838  1.00  0.00     0.163 HD
ATOM     29  O   UNL     1      -1.306   0.082   4.681  1.00  0.00    -0.269 OA
BRANCH  27  30
ATOM     30  C   UNL     1       0.546   0.865   5.882  1.00  0.00     0.039 A 
ATOM     31  C   UNL     1       0.753  -0.319   6.598  1.00  0.00     0.014 A 
ATOM     32  C   UNL     1       1.084   2.063   6.361  1.00  0.00     0.014 A 
ATOM     33  C   UNL     1       1.522  -0.311   7.765  1.00  0.00     0.010 A 
ATOM     34  C   UNL     1       1.899   2.063   7.498  1.00  0.00     0.010 A 
ATOM     35  C   UNL     1       2.118   0.878   8.216  1.00  0.00    -0.014 A 
BRANCH  35  36
ATOM     36  C   UNL     1       2.966   0.875   9.435  1.00  0.00     0.031 A 
ATOM     37  C   UNL     1       2.512   1.565  10.692  1.00  0.00     0.074 A 
ATOM     38  C   UNL     1       4.162   0.255   9.410  1.00  0.00     0.049 A 
ATOM     39  N   UNL     1       3.107   1.633  11.857  1.00  0.00    -0.248 NA
ATOM     40  C   UNL     1       1.232   2.287  10.629  1.00  0.00     0.031 C 
ATOM     41  C   UNL     1       4.740  -0.421   8.247  1.00  0.00     0.029 A 
ATOM     42  N   UNL     1       5.103   0.089  10.395  1.00  0.00    -0.354 N 
ATOM     43  C   UNL     1       2.281   2.407  12.662  1.00  0.00     0.074 A 
ATOM     44  C   UNL     1       1.164   2.823  11.840  1.00  0.00     0.031 C 
ATOM     45  C   UNL     1       5.922  -0.955   8.593  1.00  0.00     0.029 A 
ATOM     46  C   UNL     1       6.196  -0.639   9.992  1.00  0.00     0.049 A 
ATOM     47  H   UNL     1       5.005   0.456  11.303  1.00  0.00     0.167 HD
ATOM     48  C   UNL     1       2.427   2.730  13.969  1.00  0.00     0.031 A 
ATOM     49  C   UNL     1       7.293  -1.019  10.673  1.00  0.00     0.031 A 
ATOM     50  C   UNL     1       3.531   2.315  14.794  1.00  0.00     0.049 A 
ATOM     51  C   UNL     1       7.430  -0.651  12.122  1.00  0.00     0.074 A 
ATOM     52  C   UNL     1       3.736   2.551  16.144  1.00  0.00     0.029 A 
ATOM     53  N   UNL     1       4.617   1.581  14.348  1.00  0.00    -0.354 N 
ATOM     54  N   UNL     1       6.605   0.024  12.884  1.00  0.00    -0.248 NA
ATOM     55  C   UNL     1       8.646  -1.113  12.808  1.00  0.00     0.031 C 
ATOM     56  C   UNL     1       4.968   1.993  16.503  1.00  0.00     0.029 A 
ATOM     57  C   UNL     1       5.507   1.372  15.389  1.00  0.00     0.049 A 
ATOM     58  H   UNL     1       4.739   1.255  13.427  1.00  0.00     0.167 HD
ATOM     59  C   UNL     1       7.192   0.053  14.143  1.00  0.00     0.074 A 
ATOM     60  C   UNL     1       8.432  -0.690  14.046  1.00  0.00     0.031 C 
ATOM     61  C   UNL     1       6.742   0.643  15.277  1.00  0.00     0.031 A 
BRANCH  48  62
ATOM     62  C   UNL     1       1.358   3.584  14.591  1.00  0.00    -0.014 A 
ATOM     63  C   UNL     1       0.086   3.061  14.874  1.00  0.00     0.009 A 
ATOM     64  C   UNL     1       1.636   4.917  14.932  1.00  0.00     0.009 A 
ATOM     65  C   UNL     1      -0.897   3.865  15.455  1.00  0.00     0.001 A 
ATOM     66  C   UNL     1       0.659   5.712  15.536  1.00  0.00     0.001 A 
ATOM     67  C   UNL     1      -0.608   5.188  15.788  1.00  0.00     0.000 A 
ENDBRANCH  48  62
BRANCH  49  68
ATOM     68  C   UNL     1       8.344  -1.819   9.994  1.00  0.00    -0.014 A 
ATOM     69  C   UNL     1       8.496  -3.183  10.284  1.00  0.00     0.009 A 
ATOM     70  C   UNL     1       9.198  -1.223   9.054  1.00  0.00     0.009 A 
ATOM     71  C   UNL     1       9.497  -3.930   9.661  1.00  0.00     0.001 A 
ATOM     72  C   UNL     1      10.182  -1.979   8.415  1.00  0.00     0.001 A 
ATOM     73  C   UNL     1      10.336  -3.329   8.725  1.00  0.00     0.000 A 
ENDBRANCH  49  68
BRANCH  61  74
ATOM     74  C   UNL     1       7.593   0.493  16.505  1.00  0.00    -0.014 A 
ATOM     75  C   UNL     1       8.794   1.205  16.646  1.00  0.00     0.009 A 
ATOM     76  C   UNL     1       7.178  -0.357  17.542  1.00  0.00     0.009 A 
ATOM     77  C   UNL     1       9.581   1.042  17.788  1.00  0.00     0.001 A 
ATOM     78  C   UNL     1       7.955  -0.499  18.693  1.00  0.00     0.001 A 
ATOM     79  C   UNL     1       9.159   0.193  18.811  1.00  0.00     0.000 A 
ENDBRANCH  61  74
ENDBRANCH  35  36
ENDBRANCH  27  30
ENDBRANCH  25  26
ENDBRANCH  24  25
ENDBRANCH  23  24
ENDBRANCH  22  23
ENDBRANCH   1  22
TORSDOF 19
