REMARK SMILES NC(=O)C[NH+]1CCC(C(=O)N[C@H](C(=O)NCCCCCCNC(=O)c2ccc(-c3c4nc(c(-c5ccccc5)c5ccc([nH]5)c(-c5ccccc5)c5nc(c(-c6ccccc6)c6ccc3[nH]6)C=C5)C=C4)cc2)c2ccc(Cl)cc2)CC1
REMARK SMILES IDX 17 1 16 2 15 3 13 4 14 5 12 7 11 8 9 9 10 10 8 12 5 13 6 14
REMARK SMILES IDX 81 15 7 17 80 18 4 19 2 20 1 21 3 24 73 25 74 26 79 27 75 28
REMARK SMILES IDX 78 29 76 30 77 31 18 32 19 33 20 34 21 35 22 36 23 37 24 39
REMARK SMILES IDX 25 40 26 41 72 42 27 43 71 44 28 45 29 46 30 47 65 48 31 49
REMARK SMILES IDX 70 50 64 51 66 52 32 53 69 54 63 55 62 56 33 58 55 59 40 60
REMARK SMILES IDX 54 61 41 62 44 63 53 64 67 65 42 66 43 67 52 69 68 70 45 71
REMARK SMILES IDX 34 72 35 73 39 74 36 75 38 76 37 77 56 78 57 79 61 80 58 81
REMARK SMILES IDX 60 82 59 83 46 84 47 85 51 86 48 87 50 88 49 89
REMARK H PARENT 15 6 11 11 5 16 1 22 1 23 22 38 66 57 44 68
REMARK Flexibility Score: inf
ROOT
ATOM      1  C   UNL     1       3.186   8.085   3.110  1.00  0.00     0.021 C 
ENDROOT
BRANCH   1   2
ATOM      2  C   UNL     1       2.796   6.737   2.501  1.00  0.00     0.116 C 
BRANCH   2   3
ATOM      3  N   UNL     1       3.808   5.718   2.686  1.00  0.00    -0.354 N 
ATOM      4  C   UNL     1       3.673   4.397   2.961  1.00  0.00     0.247 C 
ATOM      5  O   UNL     1       4.381   3.667   2.254  1.00  0.00    -0.272 OA
ATOM      6  H   UNL     1       4.737   6.032   2.599  1.00  0.00     0.163 HD
BRANCH   4   7
ATOM      7  C   UNL     1       2.669   3.783   3.971  1.00  0.00     0.202 C 
BRANCH   7   8
ATOM      8  N   UNL     1       3.072   2.511   4.613  1.00  0.00    -0.340 N 
ATOM      9  C   UNL     1       4.120   2.060   5.342  1.00  0.00     0.224 C 
ATOM     10  O   UNL     1       3.902   1.034   6.002  1.00  0.00    -0.275 OA
ATOM     11  H   UNL     1       2.400   1.806   4.472  1.00  0.00     0.164 HD
BRANCH   9  12
ATOM     12  C   UNL     1       5.544   2.612   5.306  1.00  0.00     0.089 C 
ATOM     13  N   UNL     1       7.132   4.523   3.794  1.00  0.00    -0.327 N 
ATOM     14  C   UNL     1       7.399   3.094   3.562  1.00  0.00     0.263 C 
ATOM     15  C   UNL     1       6.950   4.731   5.236  1.00  0.00     0.263 C 
ATOM     16  H   UNL     1       6.288   4.795   3.288  1.00  0.00     0.348 HD
ATOM     17  C   UNL     1       6.253   2.187   4.012  1.00  0.00     0.075 C 
ATOM     18  C   UNL     1       5.652   4.080   5.689  1.00  0.00     0.075 C 
BRANCH  13  19
ATOM     19  C   UNL     1       8.244   5.365   3.289  1.00  0.00     0.363 C 
BRANCH  19  20
ATOM     20  C   UNL     1       7.853   6.096   2.000  1.00  0.00     0.272 C 
ATOM     21  N   UNL     1       7.262   5.355   1.020  1.00  0.00    -0.365 N 
ATOM     22  H   UNL     1       6.993   5.781   0.175  1.00  0.00     0.159 HD
ATOM     23  H   UNL     1       7.104   4.393   1.158  1.00  0.00     0.159 HD
ATOM     24  O   UNL     1       8.109   7.281   1.803  1.00  0.00    -0.269 OA
ENDBRANCH  19  20
ENDBRANCH  13  19
ENDBRANCH   9  12
ENDBRANCH   7   8
BRANCH   7  25
ATOM     25  C   UNL     1       1.829   4.627   4.931  1.00  0.00    -0.016 A 
ATOM     26  C   UNL     1       2.253   5.816   5.533  1.00  0.00     0.008 A 
ATOM     27  C   UNL     1       0.518   4.185   5.226  1.00  0.00     0.008 A 
ATOM     28  C   UNL     1       1.361   6.610   6.270  1.00  0.00     0.021 A 
ATOM     29  C   UNL     1      -0.362   4.953   5.995  1.00  0.00     0.021 A 
ATOM     30  C   UNL     1       0.053   6.184   6.484  1.00  0.00     0.041 A 
ATOM     31  Cl  UNL     1      -1.054   7.185   7.338  1.00  0.00    -0.084 Cl
ENDBRANCH   7  25
ENDBRANCH   4   7
ENDBRANCH   2   3
ENDBRANCH   1   2
BRANCH   1  32
ATOM     32  C   UNL     1       4.642   8.526   2.903  1.00  0.00     0.002 C 
BRANCH  32  33
ATOM     33  C   UNL     1       5.098   8.703   1.454  1.00  0.00     0.002 C 
BRANCH  33  34
ATOM     34  C   UNL     1       4.200   9.573   0.581  1.00  0.00     0.021 C 
BRANCH  34  35
ATOM     35  C   UNL     1       3.864  10.939   1.162  1.00  0.00     0.116 C 
BRANCH  35  36
ATOM     36  N   UNL     1       5.005  11.837   1.218  1.00  0.00    -0.352 N 
ATOM     37  C   UNL     1       5.077  13.140   0.786  1.00  0.00     0.251 C 
ATOM     38  H   UNL     1       5.827  11.467   1.613  1.00  0.00     0.163 HD
ATOM     39  O   UNL     1       6.135  13.760   0.802  1.00  0.00    -0.269 OA
BRANCH  37  40
ATOM     40  C   UNL     1       3.855  13.780   0.256  1.00  0.00     0.039 A 
ATOM     41  C   UNL     1       3.889  14.349  -1.019  1.00  0.00     0.014 A 
ATOM     42  C   UNL     1       2.665  13.750   0.990  1.00  0.00     0.014 A 
ATOM     43  C   UNL     1       2.708  14.828  -1.590  1.00  0.00     0.010 A 
ATOM     44  C   UNL     1       1.479  14.158   0.390  1.00  0.00     0.010 A 
ATOM     45  C   UNL     1       1.488  14.703  -0.905  1.00  0.00    -0.014 A 
BRANCH  45  46
ATOM     46  C   UNL     1       0.210  15.150  -1.511  1.00  0.00     0.031 A 
ATOM     47  C   UNL     1      -0.562  16.274  -0.878  1.00  0.00     0.074 A 
ATOM     48  C   UNL     1      -0.294  14.504  -2.580  1.00  0.00     0.049 A 
ATOM     49  N   UNL     1      -1.740  16.749  -1.194  1.00  0.00    -0.248 NA
ATOM     50  C   UNL     1       0.061  16.932   0.282  1.00  0.00     0.031 C 
ATOM     51  C   UNL     1       0.338  13.377  -3.270  1.00  0.00     0.029 A 
ATOM     52  N   UNL     1      -1.466  14.698  -3.269  1.00  0.00    -0.354 N 
ATOM     53  C   UNL     1      -2.007  17.741  -0.259  1.00  0.00     0.074 A 
ATOM     54  C   UNL     1      -0.893  17.768   0.662  1.00  0.00     0.031 C 
ATOM     55  C   UNL     1      -0.442  12.995  -4.295  1.00  0.00     0.029 A 
ATOM     56  C   UNL     1      -1.645  13.821  -4.311  1.00  0.00     0.049 A 
ATOM     57  H   UNL     1      -2.116  15.400  -3.038  1.00  0.00     0.167 HD
ATOM     58  C   UNL     1      -3.075  18.569  -0.183  1.00  0.00     0.031 A 
ATOM     59  C   UNL     1      -2.669  13.690  -5.177  1.00  0.00     0.031 A 
ATOM     60  C   UNL     1      -4.173  18.558  -1.111  1.00  0.00     0.049 A 
ATOM     61  C   UNL     1      -3.849  14.615  -5.067  1.00  0.00     0.074 A 
ATOM     62  C   UNL     1      -5.273  19.397  -1.154  1.00  0.00     0.029 A 
ATOM     63  N   UNL     1      -4.308  17.663  -2.160  1.00  0.00    -0.354 N 
ATOM     64  N   UNL     1      -4.059  15.586  -4.213  1.00  0.00    -0.248 NA
ATOM     65  C   UNL     1      -4.930  14.429  -6.047  1.00  0.00     0.031 C 
ATOM     66  C   UNL     1      -6.097  18.980  -2.204  1.00  0.00     0.029 A 
ATOM     67  C   UNL     1      -5.484  17.915  -2.845  1.00  0.00     0.049 A 
ATOM     68  H   UNL     1      -3.664  16.953  -2.385  1.00  0.00     0.167 HD
ATOM     69  C   UNL     1      -5.280  16.146  -4.569  1.00  0.00     0.074 A 
ATOM     70  C   UNL     1      -5.759  15.412  -5.722  1.00  0.00     0.031 C 
ATOM     71  C   UNL     1      -5.942  17.178  -3.993  1.00  0.00     0.031 A 
BRANCH  58  72
ATOM     72  C   UNL     1      -3.106  19.553   0.952  1.00  0.00    -0.014 A 
ATOM     73  C   UNL     1      -2.229  20.649   0.988  1.00  0.00     0.009 A 
ATOM     74  C   UNL     1      -4.042  19.396   1.986  1.00  0.00     0.009 A 
ATOM     75  C   UNL     1      -2.262  21.545   2.058  1.00  0.00     0.001 A 
ATOM     76  C   UNL     1      -4.092  20.311   3.039  1.00  0.00     0.001 A 
ATOM     77  C   UNL     1      -3.196  21.378   3.080  1.00  0.00     0.000 A 
ENDBRANCH  58  72
BRANCH  59  78
ATOM     78  C   UNL     1      -2.619  12.648  -6.236  1.00  0.00    -0.014 A 
ATOM     79  C   UNL     1      -2.433  13.009  -7.579  1.00  0.00     0.009 A 
ATOM     80  C   UNL     1      -2.762  11.290  -5.912  1.00  0.00     0.009 A 
ATOM     81  C   UNL     1      -2.414  12.034  -8.579  1.00  0.00     0.001 A 
ATOM     82  C   UNL     1      -2.716  10.315  -6.910  1.00  0.00     0.001 A 
ATOM     83  C   UNL     1      -2.551  10.688  -8.243  1.00  0.00     0.000 A 
ENDBRANCH  59  78
BRANCH  71  84
ATOM     84  C   UNL     1      -7.238  17.604  -4.622  1.00  0.00    -0.014 A 
ATOM     85  C   UNL     1      -8.406  16.843  -4.468  1.00  0.00     0.009 A 
ATOM     86  C   UNL     1      -7.301  18.817  -5.325  1.00  0.00     0.009 A 
ATOM     87  C   UNL     1      -9.609  17.279  -5.027  1.00  0.00     0.001 A 
ATOM     88  C   UNL     1      -8.509  19.263  -5.861  1.00  0.00     0.001 A 
ATOM     89  C   UNL     1      -9.661  18.490  -5.717  1.00  0.00     0.000 A 
ENDBRANCH  71  84
ENDBRANCH  45  46
ENDBRANCH  37  40
ENDBRANCH  35  36
ENDBRANCH  34  35
ENDBRANCH  33  34
ENDBRANCH  32  33
ENDBRANCH   1  32
TORSDOF 18
