REMARK SMILES CCNC(=O)c1ccc(N2C[C@@H](C)[C@H](C(=O)NCCCCCCNC(=O)c3ccc(-c4c5nc(c(-c6ccccc6)c6ccc([nH]6)c(-c6ccccc6)c6nc(c(-c7ccccc7)c7ccc4[nH]7)C=C6)C=C5)cc3)C2)nn1
REMARK SMILES IDX 20 1 19 2 18 3 17 4 15 5 16 6 14 8 10 9 11 10 75 11 12 12
REMARK SMILES IDX 13 13 9 14 6 15 7 16 77 17 8 18 76 19 4 20 3 21 5 23 2 24
REMARK SMILES IDX 1 25 21 26 22 27 23 28 24 29 25 30 26 32 27 33 28 34 74 35
REMARK SMILES IDX 29 36 73 37 30 38 31 39 32 40 67 41 33 42 72 43 66 44 68 45
REMARK SMILES IDX 34 46 71 47 65 48 64 49 35 51 57 52 42 53 56 54 43 55 46 56
REMARK SMILES IDX 55 57 69 58 44 59 45 60 54 62 70 63 47 64 36 65 37 66 41 67
REMARK SMILES IDX 38 68 40 69 39 70 58 71 59 72 63 73 60 74 62 75 61 76 48 77
REMARK SMILES IDX 49 78 53 79 50 80 52 81 51 82
REMARK H PARENT 17 7 3 22 24 31 68 50 46 61
REMARK Flexibility Score: inf
ROOT
ATOM      1  C   UNL     1      -3.194   3.781  -1.228  1.00  0.00     0.002 C 
ENDROOT
BRANCH   1   2
ATOM      2  C   UNL     1      -4.386   3.024  -1.814  1.00  0.00     0.021 C 
BRANCH   2   3
ATOM      3  C   UNL     1      -4.606   1.628  -1.237  1.00  0.00     0.116 C 
BRANCH   3   4
ATOM      4  N   UNL     1      -5.524   1.607  -0.117  1.00  0.00    -0.356 N 
ATOM      5  C   UNL     1      -6.583   0.792   0.148  1.00  0.00     0.225 C 
ATOM      6  O   UNL     1      -7.142   0.947   1.240  1.00  0.00    -0.275 OA
ATOM      7  H   UNL     1      -5.355   2.296   0.565  1.00  0.00     0.163 HD
BRANCH   5   8
ATOM      8  C   UNL     1      -7.093  -0.287  -0.809  1.00  0.00     0.102 C 
ATOM      9  N   UNL     1      -5.570  -1.264  -2.314  1.00  0.00    -0.354 N 
ATOM     10  C   UNL     1      -6.556  -0.639  -3.182  1.00  0.00     0.122 C 
ATOM     11  C   UNL     1      -6.097  -1.433  -0.965  1.00  0.00     0.132 C 
ATOM     12  C   UNL     1      -7.429   0.205  -2.228  1.00  0.00     0.019 C 
ATOM     13  C   UNL     1      -8.917   0.088  -2.546  1.00  0.00     0.010 C 
BRANCH   9  14
ATOM     14  C   UNL     1      -4.245  -1.523  -2.554  1.00  0.00     0.151 A 
ATOM     15  C   UNL     1      -1.516  -1.852  -2.773  1.00  0.00     0.150 A 
ATOM     16  C   UNL     1      -2.175  -1.150  -3.760  1.00  0.00     0.040 A 
ATOM     17  N   UNL     1      -2.163  -2.384  -1.723  1.00  0.00    -0.143 NA
ATOM     18  C   UNL     1      -3.561  -0.996  -3.646  1.00  0.00     0.051 A 
ATOM     19  N   UNL     1      -3.532  -2.213  -1.630  1.00  0.00    -0.132 NA
BRANCH  15  20
ATOM     20  C   UNL     1      -0.054  -2.040  -2.836  1.00  0.00     0.271 C 
ATOM     21  N   UNL     1       0.773  -1.254  -2.067  1.00  0.00    -0.351 N 
ATOM     22  H   UNL     1       1.732  -1.469  -2.114  1.00  0.00     0.163 HD
ATOM     23  O   UNL     1       0.421  -2.855  -3.623  1.00  0.00    -0.267 OA
BRANCH  21  24
ATOM     24  C   UNL     1       0.419  -0.149  -1.196  1.00  0.00     0.113 C 
ATOM     25  C   UNL     1       0.992  -0.325   0.195  1.00  0.00     0.027 C 
ENDBRANCH  21  24
ENDBRANCH  15  20
ENDBRANCH   9  14
ENDBRANCH   5   8
ENDBRANCH   3   4
ENDBRANCH   2   3
ENDBRANCH   1   2
BRANCH   1  26
ATOM     26  C   UNL     1      -1.832   3.087  -1.368  1.00  0.00     0.002 C 
BRANCH  26  27
ATOM     27  C   UNL     1      -1.462   2.631  -2.783  1.00  0.00     0.021 C 
BRANCH  27  28
ATOM     28  C   UNL     1      -1.313   3.751  -3.806  1.00  0.00     0.116 C 
BRANCH  28  29
ATOM     29  N   UNL     1      -0.201   4.634  -3.488  1.00  0.00    -0.352 N 
ATOM     30  C   UNL     1       1.036   4.774  -4.068  1.00  0.00     0.251 C 
ATOM     31  H   UNL     1      -0.364   5.235  -2.725  1.00  0.00     0.163 HD
ATOM     32  O   UNL     1       1.903   5.421  -3.485  1.00  0.00    -0.269 OA
BRANCH  30  33
ATOM     33  C   UNL     1       1.352   4.146  -5.372  1.00  0.00     0.039 A 
ATOM     34  C   UNL     1       2.628   3.604  -5.568  1.00  0.00     0.014 A 
ATOM     35  C   UNL     1       0.428   4.128  -6.418  1.00  0.00     0.014 A 
ATOM     36  C   UNL     1       2.946   2.978  -6.778  1.00  0.00     0.010 A 
ATOM     37  C   UNL     1       0.717   3.434  -7.593  1.00  0.00     0.010 A 
ATOM     38  C   UNL     1       1.977   2.848  -7.784  1.00  0.00    -0.014 A 
BRANCH  38  39
ATOM     39  C   UNL     1       2.247   2.095  -9.037  1.00  0.00     0.031 A 
ATOM     40  C   UNL     1       2.189   2.791 -10.370  1.00  0.00     0.074 A 
ATOM     41  C   UNL     1       2.458   0.764  -8.985  1.00  0.00     0.049 A 
ATOM     42  N   UNL     1       2.252   2.279 -11.574  1.00  0.00    -0.248 NA
ATOM     43  C   UNL     1       2.011   4.252 -10.348  1.00  0.00     0.031 C 
ATOM     44  C   UNL     1       2.513  -0.040  -7.762  1.00  0.00     0.029 A 
ATOM     45  N   UNL     1       2.646  -0.151  -9.991  1.00  0.00    -0.354 N 
ATOM     46  C   UNL     1       2.108   3.349 -12.448  1.00  0.00     0.074 A 
ATOM     47  C   UNL     1       1.906   4.532 -11.639  1.00  0.00     0.031 C 
ATOM     48  C   UNL     1       2.728  -1.324  -8.088  1.00  0.00     0.029 A 
ATOM     49  C   UNL     1       2.778  -1.444  -9.541  1.00  0.00     0.049 A 
ATOM     50  H   UNL     1       2.683   0.095 -10.944  1.00  0.00     0.167 HD
ATOM     51  C   UNL     1       2.158   3.353 -13.802  1.00  0.00     0.031 A 
ATOM     52  C   UNL     1       2.898  -2.600 -10.221  1.00  0.00     0.031 A 
ATOM     53  C   UNL     1       2.365   2.181 -14.610  1.00  0.00     0.049 A 
ATOM     54  C   UNL     1       2.909  -2.574 -11.724  1.00  0.00     0.074 A 
ATOM     55  C   UNL     1       2.466   2.090 -15.988  1.00  0.00     0.029 A 
ATOM     56  N   UNL     1       2.504   0.894 -14.113  1.00  0.00    -0.354 N 
ATOM     57  N   UNL     1       2.817  -1.546 -12.533  1.00  0.00    -0.248 NA
ATOM     58  C   UNL     1       3.044  -3.868 -12.408  1.00  0.00     0.031 C 
ATOM     59  C   UNL     1       2.619   0.743 -16.328  1.00  0.00     0.029 A 
ATOM     60  C   UNL     1       2.666   0.001 -15.159  1.00  0.00     0.049 A 
ATOM     61  H   UNL     1       2.489   0.652 -13.159  1.00  0.00     0.167 HD
ATOM     62  C   UNL     1       2.903  -2.068 -13.818  1.00  0.00     0.074 A 
ATOM     63  C   UNL     1       3.077  -3.499 -13.681  1.00  0.00     0.031 C 
ATOM     64  C   UNL     1       2.838  -1.420 -15.006  1.00  0.00     0.031 A 
BRANCH  51  65
ATOM     65  C   UNL     1       1.984   4.674 -14.499  1.00  0.00    -0.014 A 
ATOM     66  C   UNL     1       2.986   5.656 -14.447  1.00  0.00     0.009 A 
ATOM     67  C   UNL     1       0.828   4.923 -15.255  1.00  0.00     0.009 A 
ATOM     68  C   UNL     1       2.819   6.873 -15.111  1.00  0.00     0.001 A 
ATOM     69  C   UNL     1       0.676   6.129 -15.941  1.00  0.00     0.001 A 
ATOM     70  C   UNL     1       1.667   7.107 -15.861  1.00  0.00     0.000 A 
ENDBRANCH  51  65
BRANCH  52  71
ATOM     71  C   UNL     1       2.995  -3.890  -9.488  1.00  0.00    -0.014 A 
ATOM     72  C   UNL     1       4.189  -4.628  -9.494  1.00  0.00     0.009 A 
ATOM     73  C   UNL     1       1.888  -4.400  -8.792  1.00  0.00     0.009 A 
ATOM     74  C   UNL     1       4.261  -5.864  -8.845  1.00  0.00     0.001 A 
ATOM     75  C   UNL     1       1.973  -5.619  -8.117  1.00  0.00     0.001 A 
ATOM     76  C   UNL     1       3.155  -6.356  -8.154  1.00  0.00     0.000 A 
ENDBRANCH  52  71
BRANCH  64  77
ATOM     77  C   UNL     1       2.982  -2.249 -16.250  1.00  0.00    -0.014 A 
ATOM     78  C   UNL     1       1.947  -3.091 -16.685  1.00  0.00     0.009 A 
ATOM     79  C   UNL     1       4.151  -2.151 -17.021  1.00  0.00     0.009 A 
ATOM     80  C   UNL     1       2.092  -3.840 -17.854  1.00  0.00     0.001 A 
ATOM     81  C   UNL     1       4.281  -2.880 -18.204  1.00  0.00     0.001 A 
ATOM     82  C   UNL     1       3.255  -3.730 -18.615  1.00  0.00     0.000 A 
ENDBRANCH  64  77
ENDBRANCH  38  39
ENDBRANCH  30  33
ENDBRANCH  28  29
ENDBRANCH  27  28
ENDBRANCH  26  27
ENDBRANCH   1  26
TORSDOF 16
