REMARK SMILES O=C(NCCCCCCNC(=O)[C@@H]1CC2(CCN(C(=O)C3(c4ccccc4F)CC3)CC2)C[NH2+]1)c1ccc(-c2c3nc(c(-c4ccccc4)c4ccc([nH]4)c(-c4ccccc4)c4nc(c(-c5ccccc5)c5ccc2[nH]5)C=C4)C=C3)cc1
REMARK SMILES IDX 6 1 5 2 4 3 3 4 1 5 2 6 35 8 36 9 82 10 37 11 81 12 38 13
REMARK SMILES IDX 39 14 40 15 75 16 41 17 80 18 74 19 76 20 42 21 79 22 73 23
REMARK SMILES IDX 72 24 43 26 65 27 50 28 64 29 51 30 54 31 63 32 77 33 52 34
REMARK SMILES IDX 53 35 62 37 78 38 55 39 44 40 45 41 49 42 46 43 48 44 47 45
REMARK SMILES IDX 66 46 67 47 71 48 68 49 70 50 69 51 56 52 57 53 61 54 58 55
REMARK SMILES IDX 60 56 59 57 7 58 8 59 9 60 10 61 11 62 12 64 13 65 14 66
REMARK SMILES IDX 34 67 15 68 33 69 16 72 32 73 17 74 31 75 18 76 19 77 20 78
REMARK SMILES IDX 21 79 29 80 30 81 22 82 23 83 27 84 24 85 26 86 28 87 25 88
REMARK H PARENT 3 7 76 25 54 36 10 63 34 70 34 71
REMARK Flexibility Score: inf
ROOT
ATOM      1  C   UNL     1       3.458   2.697  -2.740  1.00  0.00     0.002 C 
ENDROOT
BRANCH   1   2
ATOM      2  C   UNL     1       4.212   1.480  -2.199  1.00  0.00     0.021 C 
BRANCH   2   3
ATOM      3  C   UNL     1       4.145   1.262  -0.692  1.00  0.00     0.116 C 
BRANCH   3   4
ATOM      4  N   UNL     1       2.789   1.010  -0.233  1.00  0.00    -0.352 N 
ATOM      5  O   UNL     1       0.989  -0.195   0.366  1.00  0.00    -0.269 OA
ATOM      6  C   UNL     1       2.209  -0.139   0.249  1.00  0.00     0.251 C 
ATOM      7  H   UNL     1       2.188   1.789  -0.274  1.00  0.00     0.163 HD
BRANCH   6   8
ATOM      8  C   UNL     1       3.032  -1.311   0.634  1.00  0.00     0.039 A 
ATOM      9  C   UNL     1       4.243  -1.157   1.308  1.00  0.00     0.014 A 
ATOM     10  C   UNL     1       2.535  -2.598   0.395  1.00  0.00     0.014 A 
ATOM     11  C   UNL     1       5.010  -2.274   1.629  1.00  0.00     0.010 A 
ATOM     12  C   UNL     1       3.260  -3.723   0.809  1.00  0.00     0.010 A 
ATOM     13  C   UNL     1       4.515  -3.572   1.415  1.00  0.00    -0.014 A 
BRANCH  13  14
ATOM     14  C   UNL     1       5.285  -4.728   1.948  1.00  0.00     0.031 A 
ATOM     15  C   UNL     1       5.892  -5.769   1.052  1.00  0.00     0.074 A 
ATOM     16  C   UNL     1       5.479  -4.806   3.279  1.00  0.00     0.049 A 
ATOM     17  N   UNL     1       6.761  -6.706   1.348  1.00  0.00    -0.248 NA
ATOM     18  C   UNL     1       5.479  -5.765  -0.356  1.00  0.00     0.031 C 
ATOM     19  C   UNL     1       4.910  -3.890   4.271  1.00  0.00     0.029 A 
ATOM     20  N   UNL     1       6.223  -5.684   4.025  1.00  0.00    -0.354 N 
ATOM     21  C   UNL     1       7.051  -7.348   0.150  1.00  0.00     0.074 A 
ATOM     22  C   UNL     1       6.209  -6.752  -0.860  1.00  0.00     0.031 C 
ATOM     23  C   UNL     1       5.358  -4.228   5.489  1.00  0.00     0.029 A 
ATOM     24  C   UNL     1       6.202  -5.411   5.370  1.00  0.00     0.049 A 
ATOM     25  H   UNL     1       6.723  -6.436   3.635  1.00  0.00     0.167 HD
ATOM     26  C   UNL     1       7.948  -8.332  -0.092  1.00  0.00     0.031 A 
ATOM     27  C   UNL     1       6.784  -6.049   6.401  1.00  0.00     0.031 A 
ATOM     28  C   UNL     1       8.694  -9.017   0.930  1.00  0.00     0.049 A 
ATOM     29  C   UNL     1       7.651  -7.242   6.124  1.00  0.00     0.074 A 
ATOM     30  C   UNL     1       9.600 -10.054   0.792  1.00  0.00     0.029 A 
ATOM     31  N   UNL     1       8.578  -8.763   2.287  1.00  0.00    -0.354 N 
ATOM     32  N   UNL     1       8.006  -7.756   4.972  1.00  0.00    -0.248 NA
ATOM     33  C   UNL     1       8.200  -7.939   7.294  1.00  0.00     0.031 C 
ATOM     34  C   UNL     1       9.971 -10.480   2.072  1.00  0.00     0.029 A 
ATOM     35  C   UNL     1       9.350  -9.662   3.002  1.00  0.00     0.049 A 
ATOM     36  H   UNL     1       8.028  -8.049   2.684  1.00  0.00     0.167 HD
ATOM     37  C   UNL     1       8.833  -8.828   5.277  1.00  0.00     0.074 A 
ATOM     38  C   UNL     1       8.950  -8.869   6.721  1.00  0.00     0.031 C 
ATOM     39  C   UNL     1       9.440  -9.703   4.438  1.00  0.00     0.031 A 
BRANCH  26  40
ATOM     40  C   UNL     1       8.158  -8.749  -1.521  1.00  0.00    -0.014 A 
ATOM     41  C   UNL     1       8.905  -7.944  -2.397  1.00  0.00     0.009 A 
ATOM     42  C   UNL     1       7.673  -9.982  -1.979  1.00  0.00     0.009 A 
ATOM     43  C   UNL     1       9.152  -8.363  -3.707  1.00  0.00     0.001 A 
ATOM     44  C   UNL     1       7.935 -10.406  -3.284  1.00  0.00     0.001 A 
ATOM     45  C   UNL     1       8.671  -9.595  -4.148  1.00  0.00     0.000 A 
ENDBRANCH  26  40
BRANCH  27  46
ATOM     46  C   UNL     1       6.531  -5.593   7.793  1.00  0.00    -0.014 A 
ATOM     47  C   UNL     1       7.560  -5.051   8.576  1.00  0.00     0.009 A 
ATOM     48  C   UNL     1       5.246  -5.713   8.348  1.00  0.00     0.009 A 
ATOM     49  C   UNL     1       7.313  -4.668   9.897  1.00  0.00     0.001 A 
ATOM     50  C   UNL     1       4.995  -5.297   9.655  1.00  0.00     0.001 A 
ATOM     51  C   UNL     1       6.032  -4.787  10.433  1.00  0.00     0.000 A 
ENDBRANCH  27  46
BRANCH  39  52
ATOM     52  C   UNL     1      10.290 -10.768   5.069  1.00  0.00    -0.014 A 
ATOM     53  C   UNL     1       9.714 -11.823   5.794  1.00  0.00     0.009 A 
ATOM     54  C   UNL     1      11.686 -10.720   4.928  1.00  0.00     0.009 A 
ATOM     55  C   UNL     1      10.523 -12.783   6.404  1.00  0.00     0.001 A 
ATOM     56  C   UNL     1      12.489 -11.699   5.511  1.00  0.00     0.001 A 
ATOM     57  C   UNL     1      11.909 -12.722   6.259  1.00  0.00     0.000 A 
ENDBRANCH  39  52
ENDBRANCH  13  14
ENDBRANCH   6   8
ENDBRANCH   3   4
ENDBRANCH   2   3
ENDBRANCH   1   2
BRANCH   1  58
ATOM     58  C   UNL     1       3.793   4.050  -2.100  1.00  0.00     0.002 C 
BRANCH  58  59
ATOM     59  C   UNL     1       5.270   4.451  -2.134  1.00  0.00     0.021 C 
BRANCH  59  60
ATOM     60  C   UNL     1       5.854   4.707  -3.539  1.00  0.00     0.116 C 
BRANCH  60  61
ATOM     61  N   UNL     1       6.370   6.063  -3.660  1.00  0.00    -0.351 N 
ATOM     62  C   UNL     1       7.560   6.692  -3.736  1.00  0.00     0.278 C 
ATOM     63  H   UNL     1       5.631   6.712  -3.697  1.00  0.00     0.163 HD
ATOM     64  O   UNL     1       7.445   7.931  -3.803  1.00  0.00    -0.268 OA
BRANCH  62  65
ATOM     65  C   UNL     1       9.007   6.119  -3.694  1.00  0.00     0.273 C 
ATOM     66  C   UNL     1       9.421   4.691  -3.979  1.00  0.00     0.088 C 
ATOM     67  N   UNL     1       9.678   6.454  -2.426  1.00  0.00    -0.336 N 
ATOM     68  C   UNL     1       9.736   4.043  -2.612  1.00  0.00     0.029 C 
ATOM     69  C   UNL     1       9.935   5.240  -1.665  1.00  0.00     0.268 C 
ATOM     70  H   UNL     1       9.081   7.076  -1.881  1.00  0.00     0.346 HD
ATOM     71  H   UNL     1      10.565   6.918  -2.628  1.00  0.00     0.346 HD
ATOM     72  C   UNL     1      10.945   3.072  -2.635  1.00  0.00     0.034 C 
ATOM     73  C   UNL     1       8.566   3.220  -2.098  1.00  0.00     0.034 C 
ATOM     74  C   UNL     1      10.675   1.736  -3.370  1.00  0.00     0.120 C 
ATOM     75  C   UNL     1       8.276   2.063  -3.028  1.00  0.00     0.120 C 
ATOM     76  N   UNL     1       9.390   1.133  -3.006  1.00  0.00    -0.342 N 
ATOM     77  C   UNL     1       9.012  -0.194  -2.802  1.00  0.00     0.233 C 
ATOM     78  O   UNL     1       7.803  -0.438  -2.717  1.00  0.00    -0.274 OA
BRANCH  77  79
ATOM     79  C   UNL     1       9.937  -1.390  -2.624  1.00  0.00     0.077 C 
ATOM     80  C   UNL     1      11.451  -1.463  -2.502  1.00  0.00     0.023 C 
ATOM     81  C   UNL     1      10.639  -1.398  -1.256  1.00  0.00     0.023 C 
BRANCH  79  82
ATOM     82  C   UNL     1       9.259  -2.700  -3.101  1.00  0.00     0.003 A 
ATOM     83  C   UNL     1       9.614  -3.319  -4.313  1.00  0.00     0.008 A 
ATOM     84  C   UNL     1       8.138  -3.219  -2.429  1.00  0.00     0.127 A 
ATOM     85  C   UNL     1       8.854  -4.367  -4.846  1.00  0.00     0.001 A 
ATOM     86  C   UNL     1       7.342  -4.209  -2.991  1.00  0.00     0.039 A 
ATOM     87  F   UNL     1       7.763  -2.701  -1.248  1.00  0.00    -0.207 F 
ATOM     88  C   UNL     1       7.700  -4.795  -4.197  1.00  0.00     0.003 A 
ENDBRANCH  79  82
ENDBRANCH  77  79
ENDBRANCH  62  65
ENDBRANCH  60  61
ENDBRANCH  59  60
ENDBRANCH  58  59
ENDBRANCH   1  58
TORSDOF 15
