REMARK SMILES O=C(NCCCCCCNC(=O)c1cc2c(c(S(=O)(=O)Nc3cc(C(F)(F)F)ccc3-n3cccn3)c1)CCC2)c1ccc(-c2c3nc(c(-c4ccccc4)c4ccc([nH]4)c(-c4ccccc4)c4nc(c(-c5ccccc5)c5ccc2[nH]5)C=C4)C=C3)cc1
REMARK SMILES IDX 7 1 6 2 5 3 4 4 3 5 1 6 2 7 41 9 42 10 88 11 43 12 87 13
REMARK SMILES IDX 44 14 45 15 46 16 81 17 47 18 86 19 80 20 82 21 48 22 85 23
REMARK SMILES IDX 79 24 78 25 49 27 71 28 56 29 70 30 57 31 60 32 69 33 83 34
REMARK SMILES IDX 58 35 59 36 68 38 84 39 61 40 50 41 51 42 55 43 52 44 54 45
REMARK SMILES IDX 53 46 72 47 73 48 77 49 74 50 76 51 75 52 62 53 63 54 67 55
REMARK SMILES IDX 64 56 66 57 65 58 8 59 9 60 10 61 11 62 12 64 13 65 14 66
REMARK SMILES IDX 37 67 15 68 17 69 16 70 40 71 38 72 39 73 18 74 19 75 20 76
REMARK SMILES IDX 21 77 22 79 23 80 31 81 24 82 30 83 29 84 32 85 33 86 36 87
REMARK SMILES IDX 34 88 35 89 25 90 26 91 27 92 28 93
REMARK H PARENT 3 8 82 26 60 37 10 63 21 78
REMARK Flexibility Score: inf
ROOT
ATOM      1  C   UNL     1       4.626   3.064  -2.875  1.00  0.00     0.002 C 
ENDROOT
BRANCH   1   2
ATOM      2  C   UNL     1       4.163   1.636  -3.184  1.00  0.00     0.002 C 
BRANCH   2   3
ATOM      3  C   UNL     1       4.726   0.531  -2.281  1.00  0.00     0.021 C 
BRANCH   3   4
ATOM      4  C   UNL     1       4.543   0.762  -0.780  1.00  0.00     0.116 C 
BRANCH   4   5
ATOM      5  N   UNL     1       3.166   0.944  -0.377  1.00  0.00    -0.352 N 
ATOM      6  O   UNL     1       1.111   0.653   0.369  1.00  0.00    -0.269 OA
ATOM      7  C   UNL     1       2.134   0.109  -0.054  1.00  0.00     0.251 C 
ATOM      8  H   UNL     1       2.913   1.893  -0.322  1.00  0.00     0.163 HD
BRANCH   7   9
ATOM      9  C   UNL     1       2.133  -1.371  -0.223  1.00  0.00     0.039 A 
ATOM     10  C   UNL     1       3.226  -2.158  -0.589  1.00  0.00     0.014 A 
ATOM     11  C   UNL     1       0.892  -2.005  -0.016  1.00  0.00     0.014 A 
ATOM     12  C   UNL     1       3.071  -3.525  -0.810  1.00  0.00     0.010 A 
ATOM     13  C   UNL     1       0.733  -3.370  -0.225  1.00  0.00     0.010 A 
ATOM     14  C   UNL     1       1.820  -4.125  -0.653  1.00  0.00    -0.014 A 
BRANCH  14  15
ATOM     15  C   UNL     1       1.725  -5.575  -0.802  1.00  0.00     0.031 A 
ATOM     16  C   UNL     1       2.466  -6.365   0.223  1.00  0.00     0.074 A 
ATOM     17  C   UNL     1       0.909  -6.185  -1.684  1.00  0.00     0.049 A 
ATOM     18  N   UNL     1       3.399  -7.243   0.041  1.00  0.00    -0.248 NA
ATOM     19  C   UNL     1       2.179  -6.081   1.639  1.00  0.00     0.031 C 
ATOM     20  C   UNL     1      -0.104  -5.569  -2.544  1.00  0.00     0.029 A 
ATOM     21  N   UNL     1       0.735  -7.521  -1.908  1.00  0.00    -0.354 N 
ATOM     22  C   UNL     1       3.706  -7.749   1.304  1.00  0.00     0.074 A 
ATOM     23  C   UNL     1       3.018  -6.914   2.255  1.00  0.00     0.031 C 
ATOM     24  C   UNL     1      -0.933  -6.530  -3.012  1.00  0.00     0.029 A 
ATOM     25  C   UNL     1      -0.431  -7.830  -2.596  1.00  0.00     0.049 A 
ATOM     26  H   UNL     1       1.378  -8.203  -1.608  1.00  0.00     0.167 HD
ATOM     27  C   UNL     1       4.330  -8.948   1.470  1.00  0.00     0.031 A 
ATOM     28  C   UNL     1      -0.982  -9.058  -2.757  1.00  0.00     0.031 A 
ATOM     29  C   UNL     1       5.002  -9.379   0.274  1.00  0.00     0.049 A 
ATOM     30  C   UNL     1       0.062 -10.069  -2.488  1.00  0.00     0.074 A 
ATOM     31  C   UNL     1       6.011  -8.873  -0.522  1.00  0.00     0.029 A 
ATOM     32  N   UNL     1       4.405 -10.368  -0.467  1.00  0.00    -0.354 N 
ATOM     33  N   UNL     1       1.084 -10.277  -3.265  1.00  0.00    -0.248 NA
ATOM     34  C   UNL     1       0.187 -10.590  -1.137  1.00  0.00     0.031 C 
ATOM     35  C   UNL     1       5.648  -9.239  -1.852  1.00  0.00     0.029 A 
ATOM     36  C   UNL     1       4.470  -9.985  -1.778  1.00  0.00     0.049 A 
ATOM     37  H   UNL     1       4.005 -11.198  -0.120  1.00  0.00     0.167 HD
ATOM     38  C   UNL     1       2.132 -10.547  -2.400  1.00  0.00     0.074 A 
ATOM     39  C   UNL     1       1.498 -10.842  -1.118  1.00  0.00     0.031 C 
ATOM     40  C   UNL     1       3.418 -10.231  -2.736  1.00  0.00     0.031 A 
BRANCH  27  41
ATOM     41  C   UNL     1       3.966  -9.924   2.570  1.00  0.00    -0.014 A 
ATOM     42  C   UNL     1       4.623 -11.170   2.608  1.00  0.00     0.009 A 
ATOM     43  C   UNL     1       2.808  -9.802   3.360  1.00  0.00     0.009 A 
ATOM     44  C   UNL     1       4.082 -12.261   3.300  1.00  0.00     0.001 A 
ATOM     45  C   UNL     1       2.291 -10.876   4.089  1.00  0.00     0.001 A 
ATOM     46  C   UNL     1       2.907 -12.117   4.027  1.00  0.00     0.000 A 
ENDBRANCH  27  41
BRANCH  28  47
ATOM     47  C   UNL     1      -2.409  -9.426  -2.875  1.00  0.00    -0.014 A 
ATOM     48  C   UNL     1      -2.792 -10.679  -3.380  1.00  0.00     0.009 A 
ATOM     49  C   UNL     1      -3.392  -8.649  -2.235  1.00  0.00     0.009 A 
ATOM     50  C   UNL     1      -4.103 -11.150  -3.217  1.00  0.00     0.001 A 
ATOM     51  C   UNL     1      -4.700  -9.117  -2.077  1.00  0.00     0.001 A 
ATOM     52  C   UNL     1      -5.051 -10.375  -2.554  1.00  0.00     0.000 A 
ENDBRANCH  28  47
BRANCH  40  53
ATOM     53  C   UNL     1       3.700  -9.828  -4.161  1.00  0.00    -0.014 A 
ATOM     54  C   UNL     1       3.099  -8.713  -4.773  1.00  0.00     0.009 A 
ATOM     55  C   UNL     1       4.714 -10.503  -4.855  1.00  0.00     0.009 A 
ATOM     56  C   UNL     1       3.479  -8.311  -6.057  1.00  0.00     0.001 A 
ATOM     57  C   UNL     1       5.110 -10.087  -6.128  1.00  0.00     0.001 A 
ATOM     58  C   UNL     1       4.488  -8.996  -6.731  1.00  0.00     0.000 A 
ENDBRANCH  40  53
ENDBRANCH  14  15
ENDBRANCH   7   9
ENDBRANCH   4   5
ENDBRANCH   3   4
ENDBRANCH   2   3
ENDBRANCH   1   2
BRANCH   1  59
ATOM     59  C   UNL     1       6.140   3.277  -2.834  1.00  0.00     0.021 C 
BRANCH  59  60
ATOM     60  C   UNL     1       6.875   2.985  -4.139  1.00  0.00     0.116 C 
BRANCH  60  61
ATOM     61  N   UNL     1       6.615   3.972  -5.183  1.00  0.00    -0.352 N 
ATOM     62  C   UNL     1       7.518   4.657  -5.976  1.00  0.00     0.251 C 
ATOM     63  H   UNL     1       5.666   4.179  -5.345  1.00  0.00     0.163 HD
ATOM     64  O   UNL     1       7.148   5.547  -6.732  1.00  0.00    -0.269 OA
BRANCH  62  65
ATOM     65  C   UNL     1       8.957   4.315  -5.880  1.00  0.00     0.041 A 
ATOM     66  C   UNL     1       9.324   2.974  -5.961  1.00  0.00     0.018 A 
ATOM     67  C   UNL     1       9.903   5.312  -5.559  1.00  0.00     0.036 A 
ATOM     68  C   UNL     1      10.559   2.627  -5.462  1.00  0.00    -0.043 A 
ATOM     69  C   UNL     1      11.199   4.954  -5.130  1.00  0.00     0.092 A 
ATOM     70  C   UNL     1      11.456   3.595  -4.968  1.00  0.00    -0.024 A 
ATOM     71  C   UNL     1      11.044   1.232  -5.210  1.00  0.00     0.036 C 
ATOM     72  C   UNL     1      12.502   2.873  -4.177  1.00  0.00     0.037 C 
ATOM     73  C   UNL     1      12.507   1.510  -4.877  1.00  0.00     0.010 C 
BRANCH  69  74
ATOM     74  S   UNL     1      12.302   6.232  -4.558  1.00  0.00     0.262 S 
ATOM     75  O   UNL     1      11.671   7.506  -4.861  1.00  0.00    -0.201 OA
ATOM     76  O   UNL     1      12.659   5.921  -3.193  1.00  0.00    -0.201 OA
BRANCH  74  77
ATOM     77  N   UNL     1      13.766   6.291  -5.443  1.00  0.00    -0.277 N 
ATOM     78  H   UNL     1      14.116   7.166  -5.726  1.00  0.00     0.180 HD
BRANCH  77  79
ATOM     79  C   UNL     1      14.501   5.107  -5.786  1.00  0.00     0.075 A 
ATOM     80  C   UNL     1      15.447   4.606  -4.874  1.00  0.00     0.042 A 
ATOM     81  C   UNL     1      14.203   4.366  -6.941  1.00  0.00     0.089 A 
ATOM     82  C   UNL     1      16.045   3.342  -5.072  1.00  0.00     0.058 A 
ATOM     83  C   UNL     1      14.823   3.127  -7.161  1.00  0.00     0.031 A 
ATOM     84  C   UNL     1      15.741   2.622  -6.237  1.00  0.00     0.015 A 
BRANCH  81  85
ATOM     85  N   UNL     1      13.231   4.810  -7.869  1.00  0.00    -0.239 N 
ATOM     86  C   UNL     1      12.908   6.104  -8.209  1.00  0.00     0.115 A 
ATOM     87  N   UNL     1      12.393   3.921  -8.462  1.00  0.00    -0.177 NA
ATOM     88  C   UNL     1      11.705   6.055  -8.867  1.00  0.00     0.042 A 
ATOM     89  C   UNL     1      11.416   4.685  -8.960  1.00  0.00     0.135 A 
ENDBRANCH  81  85
BRANCH  82  90
ATOM     90  C   UNL     1      16.925   2.736  -4.001  1.00  0.00     0.416 C 
ATOM     91  F   UNL     1      18.141   3.335  -3.917  1.00  0.00    -0.166 F 
ATOM     92  F   UNL     1      16.367   2.835  -2.761  1.00  0.00    -0.166 F 
ATOM     93  F   UNL     1      17.167   1.408  -4.187  1.00  0.00    -0.166 F 
ENDBRANCH  82  90
ENDBRANCH  77  79
ENDBRANCH  74  77
ENDBRANCH  69  74
ENDBRANCH  62  65
ENDBRANCH  60  61
ENDBRANCH  59  60
ENDBRANCH   1  59
TORSDOF 18
