REMARK SMILES O=C(Cn1cc(NC(=O)N2CC[N@@H+]3CCC[C@@H]3C2)cn1)NCCCCCCNC(=O)c1ccc(-c2c3nc(c(-c4ccccc4)c4ccc([nH]4)c(-c4ccccc4)c4nc(c(-c5ccccc5)c5ccc2[nH]5)C=C4)C=C3)cc1
REMARK SMILES IDX 24 1 23 2 22 3 21 4 1 5 2 6 3 8 4 9 5 10 20 11 6 12 19 13
REMARK SMILES IDX 7 14 8 15 9 17 10 18 11 19 18 20 12 21 17 22 13 23 16 24
REMARK SMILES IDX 14 25 15 27 25 28 26 29 27 30 28 31 29 32 30 34 31 35 32 36
REMARK SMILES IDX 78 37 33 38 77 39 34 40 35 41 36 42 71 43 37 44 76 45 70 46
REMARK SMILES IDX 72 47 38 48 75 49 69 50 68 51 39 53 61 54 46 55 60 56 47 57
REMARK SMILES IDX 50 58 59 59 73 60 48 61 49 62 58 64 74 65 51 66 40 67 41 68
REMARK SMILES IDX 45 69 42 70 44 71 43 72 62 73 63 74 67 75 64 76 66 77 65 78
REMARK SMILES IDX 52 79 53 80 57 81 54 82 56 83 55 84
REMARK H PARENT 21 7 7 16 13 26 28 33 72 52 50 63
REMARK Flexibility Score: inf
ROOT
ATOM      1  C   UNL     1       4.117  -2.876  -2.304  1.00  0.00     0.002 C 
ENDROOT
BRANCH   1   2
ATOM      2  C   UNL     1       2.618  -2.548  -2.333  1.00  0.00     0.021 C 
BRANCH   2   3
ATOM      3  C   UNL     1       2.019  -2.110  -0.999  1.00  0.00     0.116 C 
BRANCH   3   4
ATOM      4  N   UNL     1       2.669  -0.934  -0.461  1.00  0.00    -0.354 N 
ATOM      5  O   UNL     1       0.883   0.493  -0.678  1.00  0.00    -0.273 OA
ATOM      6  C   UNL     1       2.021   0.270  -0.264  1.00  0.00     0.241 C 
ATOM      7  H   UNL     1       3.623  -0.996  -0.223  1.00  0.00     0.163 HD
BRANCH   6   8
ATOM      8  C   UNL     1       2.854   1.360   0.390  1.00  0.00     0.244 C 
BRANCH   8   9
ATOM      9  N   UNL     1       3.485   0.968   1.643  1.00  0.00    -0.261 N 
ATOM     10  C   UNL     1       4.505   1.627   2.283  1.00  0.00     0.135 A 
ATOM     11  N   UNL     1       3.125  -0.169   2.265  1.00  0.00    -0.179 NA
ATOM     12  C   UNL     1       4.851   0.845   3.361  1.00  0.00     0.081 A 
ATOM     13  C   UNL     1       3.928  -0.221   3.325  1.00  0.00     0.161 A 
BRANCH  12  14
ATOM     14  N   UNL     1       5.852   1.137   4.270  1.00  0.00    -0.305 N 
ATOM     15  C   UNL     1       6.215   0.365   5.342  1.00  0.00     0.322 C 
ATOM     16  H   UNL     1       6.348   1.977   4.135  1.00  0.00     0.171 HD
ATOM     17  O   UNL     1       6.618   0.904   6.372  1.00  0.00    -0.248 OA
BRANCH  15  18
ATOM     18  N   UNL     1       6.089  -0.999   5.218  1.00  0.00    -0.313 N 
ATOM     19  C   UNL     1       6.751  -1.731   4.131  1.00  0.00     0.183 C 
ATOM     20  C   UNL     1       5.575  -1.777   6.339  1.00  0.00     0.186 C 
ATOM     21  C   UNL     1       6.316  -3.203   4.057  1.00  0.00     0.284 C 
ATOM     22  C   UNL     1       6.246  -3.149   6.529  1.00  0.00     0.204 C 
ATOM     23  N   UNL     1       6.586  -3.915   5.309  1.00  0.00    -0.330 N 
ATOM     24  C   UNL     1       5.374  -4.088   7.366  1.00  0.00     0.073 C 
ATOM     25  C   UNL     1       5.947  -5.230   5.375  1.00  0.00     0.262 C 
ATOM     26  H   UNL     1       7.598  -4.040   5.290  1.00  0.00     0.348 HD
ATOM     27  C   UNL     1       5.747  -5.467   6.861  1.00  0.00     0.068 C 
ENDBRANCH  15  18
ENDBRANCH  12  14
ENDBRANCH   8   9
ENDBRANCH   6   8
ENDBRANCH   3   4
ENDBRANCH   2   3
ENDBRANCH   1   2
BRANCH   1  28
ATOM     28  C   UNL     1       4.572  -3.954  -1.308  1.00  0.00     0.002 C 
BRANCH  28  29
ATOM     29  C   UNL     1       3.893  -5.328  -1.405  1.00  0.00     0.021 C 
BRANCH  29  30
ATOM     30  C   UNL     1       4.104  -6.052  -2.727  1.00  0.00     0.116 C 
BRANCH  30  31
ATOM     31  N   UNL     1       5.490  -6.470  -2.952  1.00  0.00    -0.352 N 
ATOM     32  C   UNL     1       6.022  -7.095  -4.071  1.00  0.00     0.251 C 
ATOM     33  H   UNL     1       6.121  -6.286  -2.219  1.00  0.00     0.163 HD
ATOM     34  O   UNL     1       7.064  -7.723  -4.017  1.00  0.00    -0.269 OA
BRANCH  32  35
ATOM     35  C   UNL     1       5.295  -6.963  -5.347  1.00  0.00     0.039 A 
ATOM     36  C   UNL     1       5.139  -8.030  -6.238  1.00  0.00     0.014 A 
ATOM     37  C   UNL     1       4.722  -5.726  -5.612  1.00  0.00     0.014 A 
ATOM     38  C   UNL     1       4.327  -7.853  -7.358  1.00  0.00     0.010 A 
ATOM     39  C   UNL     1       3.773  -5.619  -6.587  1.00  0.00     0.010 A 
ATOM     40  C   UNL     1       3.633  -6.644  -7.514  1.00  0.00    -0.014 A 
BRANCH  40  41
ATOM     41  C   UNL     1       2.692  -6.425  -8.604  1.00  0.00     0.031 A 
ATOM     42  C   UNL     1       1.562  -7.387  -8.673  1.00  0.00     0.074 A 
ATOM     43  C   UNL     1       2.692  -5.284  -9.329  1.00  0.00     0.049 A 
ATOM     44  N   UNL     1       1.312  -8.245  -9.605  1.00  0.00    -0.248 NA
ATOM     45  C   UNL     1       0.656  -7.481  -7.516  1.00  0.00     0.031 C 
ATOM     46  C   UNL     1       3.523  -4.083  -9.149  1.00  0.00     0.029 A 
ATOM     47  N   UNL     1       1.834  -4.900 -10.309  1.00  0.00    -0.354 N 
ATOM     48  C   UNL     1       0.113  -8.860  -9.253  1.00  0.00     0.074 A 
ATOM     49  C   UNL     1      -0.150  -8.477  -7.888  1.00  0.00     0.031 C 
ATOM     50  C   UNL     1       2.965  -3.042  -9.803  1.00  0.00     0.029 A 
ATOM     51  C   UNL     1       1.861  -3.541 -10.598  1.00  0.00     0.049 A 
ATOM     52  H   UNL     1       1.242  -5.532 -10.776  1.00  0.00     0.167 HD
ATOM     53  C   UNL     1      -0.691  -9.438 -10.190  1.00  0.00     0.031 A 
ATOM     54  C   UNL     1       1.018  -2.870 -11.419  1.00  0.00     0.031 A 
ATOM     55  C   UNL     1      -0.005  -9.606 -11.446  1.00  0.00     0.049 A 
ATOM     56  C   UNL     1       0.373  -3.872 -12.297  1.00  0.00     0.074 A 
ATOM     57  C   UNL     1       1.123 -10.287 -11.858  1.00  0.00     0.029 A 
ATOM     58  N   UNL     1      -0.258  -8.673 -12.424  1.00  0.00    -0.354 N 
ATOM     59  N   UNL     1       1.020  -4.561 -13.191  1.00  0.00    -0.248 NA
ATOM     60  C   UNL     1      -0.895  -4.439 -11.867  1.00  0.00     0.031 C 
ATOM     61  C   UNL     1       1.760  -9.409 -12.784  1.00  0.00     0.029 A 
ATOM     62  C   UNL     1       0.950  -8.282 -12.941  1.00  0.00     0.049 A 
ATOM     63  H   UNL     1      -1.144  -8.345 -12.701  1.00  0.00     0.167 HD
ATOM     64  C   UNL     1       0.485  -5.838 -13.107  1.00  0.00     0.074 A 
ATOM     65  C   UNL     1      -0.759  -5.676 -12.355  1.00  0.00     0.031 C 
ATOM     66  C   UNL     1       1.237  -6.940 -13.401  1.00  0.00     0.031 A 
BRANCH  53  67
ATOM     67  C   UNL     1      -2.198  -9.468 -10.106  1.00  0.00    -0.014 A 
ATOM     68  C   UNL     1      -2.916 -10.115 -11.130  1.00  0.00     0.009 A 
ATOM     69  C   UNL     1      -2.944  -8.655  -9.232  1.00  0.00     0.009 A 
ATOM     70  C   UNL     1      -4.286  -9.891 -11.316  1.00  0.00     0.001 A 
ATOM     71  C   UNL     1      -4.319  -8.463  -9.388  1.00  0.00     0.001 A 
ATOM     72  C   UNL     1      -4.985  -9.057 -10.450  1.00  0.00     0.000 A 
ENDBRANCH  53  67
BRANCH  54  73
ATOM     73  C   UNL     1       0.540  -1.476 -11.322  1.00  0.00    -0.014 A 
ATOM     74  C   UNL     1       0.002  -0.821 -12.440  1.00  0.00     0.009 A 
ATOM     75  C   UNL     1       0.356  -0.882 -10.060  1.00  0.00     0.009 A 
ATOM     76  C   UNL     1      -0.731   0.365 -12.294  1.00  0.00     0.001 A 
ATOM     77  C   UNL     1      -0.376   0.302  -9.915  1.00  0.00     0.001 A 
ATOM     78  C   UNL     1      -0.933   0.917 -11.031  1.00  0.00     0.000 A 
ENDBRANCH  54  73
BRANCH  66  79
ATOM     79  C   UNL     1       2.595  -6.724 -14.028  1.00  0.00    -0.014 A 
ATOM     80  C   UNL     1       3.635  -6.019 -13.394  1.00  0.00     0.009 A 
ATOM     81  C   UNL     1       2.883  -7.386 -15.230  1.00  0.00     0.009 A 
ATOM     82  C   UNL     1       4.913  -5.957 -13.962  1.00  0.00     0.001 A 
ATOM     83  C   UNL     1       4.163  -7.343 -15.786  1.00  0.00     0.001 A 
ATOM     84  C   UNL     1       5.177  -6.624 -15.156  1.00  0.00     0.000 A 
ENDBRANCH  66  79
ENDBRANCH  40  41
ENDBRANCH  32  35
ENDBRANCH  30  31
ENDBRANCH  29  30
ENDBRANCH  28  29
ENDBRANCH   1  28
TORSDOF 16
