REMARK SMILES COCC[NH2+]CC(=O)N1C[C@H](OC)C[C@@H]1C(=O)NCCCCCCNC(=O)c1ccc(-c2c3nc(c(-c4ccccc4)c4ccc([nH]4)c(-c4ccccc4)c4nc(c(-c5ccccc5)c5ccc2[nH]5)C=C4)C=C3)cc1
REMARK SMILES IDX 19 1 18 2 16 3 17 4 15 6 9 7 10 8 11 9 14 10 7 11 8 12 6 13
REMARK SMILES IDX 5 14 4 17 3 18 2 19 1 20 12 21 13 22 20 23 21 24 22 25 23 26
REMARK SMILES IDX 24 27 25 28 26 29 27 31 28 32 29 33 75 34 30 35 74 36 31 37
REMARK SMILES IDX 32 38 33 39 68 40 34 41 73 42 67 43 69 44 35 45 72 46 66 47
REMARK SMILES IDX 65 48 36 50 58 51 43 52 57 53 44 54 47 55 56 56 70 57 45 58
REMARK SMILES IDX 46 59 55 61 71 62 48 63 37 64 38 65 42 66 39 67 41 68 40 69
REMARK SMILES IDX 59 70 60 71 64 72 61 73 63 74 62 75 49 76 50 77 54 78 51 79
REMARK SMILES IDX 53 80 52 81
REMARK H PARENT 18 5 5 15 5 16 25 30 69 49 47 60
REMARK Flexibility Score: inf
ROOT
ATOM      1  C   UNL     1      -1.128  -1.500   6.914  1.00  0.00     0.116 C 
ENDROOT
BRANCH   1   2
ATOM      2  N   UNL     1      -2.200  -2.426   6.673  1.00  0.00    -0.354 N 
ATOM      3  C   UNL     1      -3.053  -2.459   5.607  1.00  0.00     0.242 C 
ATOM      4  O   UNL     1      -3.893  -3.365   5.595  1.00  0.00    -0.273 OA
ATOM      5  H   UNL     1      -2.336  -3.119   7.359  1.00  0.00     0.163 HD
BRANCH   3   6
ATOM      6  C   UNL     1      -3.078  -1.357   4.514  1.00  0.00     0.177 C 
ATOM      7  N   UNL     1      -1.860  -1.079   3.738  1.00  0.00    -0.323 N 
ATOM      8  C   UNL     1      -2.021   0.280   3.241  1.00  0.00     0.152 C 
ATOM      9  C   UNL     1      -2.519   1.046   4.456  1.00  0.00     0.139 C 
ATOM     10  C   UNL     1      -3.507   0.030   5.071  1.00  0.00     0.069 C 
BRANCH   7  11
ATOM     11  C   UNL     1      -1.384  -2.014   2.827  1.00  0.00     0.278 C 
ATOM     12  O   UNL     1      -2.112  -2.555   1.998  1.00  0.00    -0.268 OA
BRANCH  11  13
ATOM     13  C   UNL     1       0.134  -2.288   2.902  1.00  0.00     0.362 C 
BRANCH  13  14
ATOM     14  N   UNL     1       0.890  -1.602   1.831  1.00  0.00    -0.337 N 
ATOM     15  H   UNL     1       1.667  -2.198   1.545  1.00  0.00     0.346 HD
ATOM     16  H   UNL     1       0.247  -1.429   1.058  1.00  0.00     0.346 HD
BRANCH  14  17
ATOM     17  C   UNL     1       1.424  -0.311   2.263  1.00  0.00     0.289 C 
BRANCH  17  18
ATOM     18  C   UNL     1       1.831   0.669   1.151  1.00  0.00     0.221 C 
BRANCH  18  19
ATOM     19  O   UNL     1       0.801   0.864   0.180  1.00  0.00    -0.379 OA
ATOM     20  C   UNL     1       0.955   0.051  -0.979  1.00  0.00     0.195 C 
ENDBRANCH  18  19
ENDBRANCH  17  18
ENDBRANCH  14  17
ENDBRANCH  13  14
ENDBRANCH  11  13
ENDBRANCH   7  11
BRANCH   9  21
ATOM     21  O   UNL     1      -1.560   1.429   5.455  1.00  0.00    -0.380 OA
ATOM     22  C   UNL     1      -0.179   1.312   5.140  1.00  0.00     0.195 C 
ENDBRANCH   9  21
ENDBRANCH   3   6
ENDBRANCH   1   2
BRANCH   1  23
ATOM     23  C   UNL     1      -1.040  -0.991   8.348  1.00  0.00     0.021 C 
BRANCH  23  24
ATOM     24  C   UNL     1      -0.237  -1.879   9.298  1.00  0.00     0.002 C 
BRANCH  24  25
ATOM     25  C   UNL     1       1.179  -2.233   8.830  1.00  0.00     0.002 C 
BRANCH  25  26
ATOM     26  C   UNL     1       2.075  -1.050   8.450  1.00  0.00     0.021 C 
BRANCH  26  27
ATOM     27  C   UNL     1       2.269  -0.000   9.540  1.00  0.00     0.116 C 
BRANCH  27  28
ATOM     28  N   UNL     1       2.766  -0.570  10.781  1.00  0.00    -0.352 N 
ATOM     29  C   UNL     1       3.865  -0.237  11.533  1.00  0.00     0.251 C 
ATOM     30  H   UNL     1       2.229  -1.313  11.140  1.00  0.00     0.163 HD
ATOM     31  O   UNL     1       4.207  -0.953  12.467  1.00  0.00    -0.269 OA
BRANCH  29  32
ATOM     32  C   UNL     1       4.648   0.975  11.212  1.00  0.00     0.039 A 
ATOM     33  C   UNL     1       6.044   0.905  11.257  1.00  0.00     0.014 A 
ATOM     34  C   UNL     1       4.016   2.181  10.902  1.00  0.00     0.014 A 
ATOM     35  C   UNL     1       6.806   2.032  10.940  1.00  0.00     0.010 A 
ATOM     36  C   UNL     1       4.774   3.280  10.513  1.00  0.00     0.010 A 
ATOM     37  C   UNL     1       6.176   3.221  10.539  1.00  0.00    -0.014 A 
BRANCH  37  38
ATOM     38  C   UNL     1       6.960   4.424  10.165  1.00  0.00     0.031 A 
ATOM     39  C   UNL     1       6.847   5.678  10.987  1.00  0.00     0.074 A 
ATOM     40  C   UNL     1       7.717   4.413   9.052  1.00  0.00     0.049 A 
ATOM     41  N   UNL     1       7.386   6.854  10.781  1.00  0.00    -0.248 NA
ATOM     42  C   UNL     1       5.993   5.609  12.183  1.00  0.00     0.031 C 
ATOM     43  C   UNL     1       7.896   3.267   8.159  1.00  0.00     0.029 A 
ATOM     44  N   UNL     1       8.475   5.403   8.481  1.00  0.00    -0.354 N 
ATOM     45  C   UNL     1       6.918   7.666  11.806  1.00  0.00     0.074 A 
ATOM     46  C   UNL     1       6.009   6.865  12.598  1.00  0.00     0.031 C 
ATOM     47  C   UNL     1       8.738   3.610   7.171  1.00  0.00     0.029 A 
ATOM     48  C   UNL     1       9.119   5.009   7.334  1.00  0.00     0.049 A 
ATOM     49  H   UNL     1       8.550   6.310   8.857  1.00  0.00     0.167 HD
ATOM     50  C   UNL     1       7.229   8.956  12.079  1.00  0.00     0.031 A 
ATOM     51  C   UNL     1       9.924   5.699   6.504  1.00  0.00     0.031 A 
ATOM     52  C   UNL     1       8.133   9.751  11.290  1.00  0.00     0.049 A 
ATOM     53  C   UNL     1      10.225   7.141   6.800  1.00  0.00     0.074 A 
ATOM     54  C   UNL     1       8.552  11.052  11.506  1.00  0.00     0.029 A 
ATOM     55  N   UNL     1       8.753   9.318  10.127  1.00  0.00    -0.354 N 
ATOM     56  N   UNL     1       9.818   7.881   7.803  1.00  0.00    -0.248 NA
ATOM     57  C   UNL     1      11.104   7.840   5.852  1.00  0.00     0.031 C 
ATOM     58  C   UNL     1       9.380  11.426  10.442  1.00  0.00     0.029 A 
ATOM     59  C   UNL     1       9.529  10.336   9.599  1.00  0.00     0.049 A 
ATOM     60  H   UNL     1       8.656   8.420   9.736  1.00  0.00     0.167 HD
ATOM     61  C   UNL     1      10.419   9.121   7.628  1.00  0.00     0.074 A 
ATOM     62  C   UNL     1      11.222   9.030   6.425  1.00  0.00     0.031 C 
ATOM     63  C   UNL     1      10.321  10.232   8.399  1.00  0.00     0.031 A 
BRANCH  50  64
ATOM     64  C   UNL     1       6.558   9.585  13.270  1.00  0.00    -0.014 A 
ATOM     65  C   UNL     1       6.840   9.158  14.579  1.00  0.00     0.009 A 
ATOM     66  C   UNL     1       5.623  10.615  13.082  1.00  0.00     0.009 A 
ATOM     67  C   UNL     1       6.156   9.706  15.667  1.00  0.00     0.001 A 
ATOM     68  C   UNL     1       4.968  11.187  14.175  1.00  0.00     0.001 A 
ATOM     69  C   UNL     1       5.222  10.721  15.464  1.00  0.00     0.000 A 
ENDBRANCH  50  64
BRANCH  51  70
ATOM     70  C   UNL     1      10.530   5.019   5.330  1.00  0.00    -0.014 A 
ATOM     71  C   UNL     1      11.902   4.723   5.317  1.00  0.00     0.009 A 
ATOM     72  C   UNL     1       9.745   4.647   4.228  1.00  0.00     0.009 A 
ATOM     73  C   UNL     1      12.478   4.082   4.218  1.00  0.00     0.001 A 
ATOM     74  C   UNL     1      10.319   3.981   3.142  1.00  0.00     0.001 A 
ATOM     75  C   UNL     1      11.685   3.706   3.135  1.00  0.00     0.000 A 
ENDBRANCH  51  70
BRANCH  63  76
ATOM     76  C   UNL     1      11.136  11.428   7.992  1.00  0.00    -0.014 A 
ATOM     77  C   UNL     1      10.803  12.196   6.866  1.00  0.00     0.009 A 
ATOM     78  C   UNL     1      12.230  11.819   8.781  1.00  0.00     0.009 A 
ATOM     79  C   UNL     1      11.568  13.313   6.522  1.00  0.00     0.001 A 
ATOM     80  C   UNL     1      12.974  12.953   8.453  1.00  0.00     0.001 A 
ATOM     81  C   UNL     1      12.648  13.694   7.319  1.00  0.00     0.000 A 
ENDBRANCH  63  76
ENDBRANCH  37  38
ENDBRANCH  29  32
ENDBRANCH  27  28
ENDBRANCH  26  27
ENDBRANCH  25  26
ENDBRANCH  24  25
ENDBRANCH  23  24
ENDBRANCH   1  23
TORSDOF 20
