REMARK SMILES CC1=NN(c2ccc(C(=O)NCCCCCCNC(=O)c3ccc(-c4c5nc(c(-c6ccccc6)c6ccc([nH]6)c(-c6ccccc6)c6nc(c(-c7ccccc7)c7ccc4[nH]7)C=C6)C=C5)cc3)cc2)C(=O)/C1=C\c1ccc(N2CCCC2)cc1
REMARK SMILES IDX 14 1 13 2 12 3 11 4 9 5 10 6 8 8 5 9 6 10 70 11 7 12 69 13
REMARK SMILES IDX 4 14 1 15 2 16 3 17 73 18 71 19 74 20 72 21 75 22 76 23
REMARK SMILES IDX 85 24 77 25 84 26 78 27 79 28 80 29 83 30 81 31 82 32 15 33
REMARK SMILES IDX 16 34 17 35 18 36 19 37 20 39 21 40 22 41 68 42 23 43 67 44
REMARK SMILES IDX 24 45 25 46 26 47 61 48 27 49 66 50 60 51 62 52 28 53 65 54
REMARK SMILES IDX 59 55 58 56 29 58 51 59 36 60 50 61 37 62 40 63 49 64 63 65
REMARK SMILES IDX 38 66 39 67 48 69 64 70 41 71 30 72 31 73 35 74 32 75 34 76
REMARK SMILES IDX 33 77 52 78 53 79 57 80 54 81 56 82 55 83 42 84 43 85 47 86
REMARK SMILES IDX 44 87 46 88 45 89
REMARK H PARENT 11 7 18 38 62 57 40 68
REMARK Flexibility Score: inf
ROOT
ATOM      1  C   UNL     1       5.090   7.719  -3.643  1.00  0.00     0.002 C 
ENDROOT
BRANCH   1   2
ATOM      2  C   UNL     1       4.322   6.445  -3.267  1.00  0.00     0.021 C 
BRANCH   2   3
ATOM      3  C   UNL     1       4.731   5.901  -1.895  1.00  0.00     0.116 C 
BRANCH   3   4
ATOM      4  N   UNL     1       4.063   6.657  -0.854  1.00  0.00    -0.352 N 
ATOM      5  C   UNL     1       2.933   6.431  -0.111  1.00  0.00     0.251 C 
ATOM      6  O   UNL     1       2.583   7.316   0.670  1.00  0.00    -0.269 OA
ATOM      7  H   UNL     1       4.511   7.506  -0.637  1.00  0.00     0.163 HD
BRANCH   5   8
ATOM      8  C   UNL     1       2.167   5.152  -0.149  1.00  0.00     0.039 A 
ATOM      9  C   UNL     1       0.915   2.650   0.069  1.00  0.00     0.069 A 
ATOM     10  C   UNL     1       0.745   3.594   1.080  1.00  0.00     0.029 A 
ATOM     11  C   UNL     1       1.619   2.992  -1.085  1.00  0.00     0.029 A 
ATOM     12  C   UNL     1       1.405   4.825   0.986  1.00  0.00     0.016 A 
ATOM     13  C   UNL     1       2.175   4.261  -1.221  1.00  0.00     0.016 A 
BRANCH   9  14
ATOM     14  N   UNL     1       0.409   1.353   0.201  1.00  0.00    -0.196 N 
ATOM     15  C   UNL     1      -2.532  -0.698   0.156  1.00  0.00     0.069 C 
ATOM     16  C   UNL     1      -1.171  -0.091   0.188  1.00  0.00     0.071 C 
ATOM     17  N   UNL     1      -0.954   1.185   0.374  1.00  0.00    -0.169 NA
ATOM     18  C   UNL     1       0.078  -0.853  -0.007  1.00  0.00     0.065 C 
ATOM     19  C   UNL     1       1.125   0.191  -0.109  1.00  0.00     0.280 C 
ATOM     20  C   UNL     1       0.230  -2.184  -0.004  1.00  0.00     0.024 C 
ATOM     21  O   UNL     1       2.291   0.048  -0.411  1.00  0.00    -0.267 OA
BRANCH  20  22
ATOM     22  C   UNL     1       1.543  -2.839   0.039  1.00  0.00    -0.025 A 
ATOM     23  C   UNL     1       2.002  -3.621  -1.020  1.00  0.00     0.010 A 
ATOM     24  C   UNL     1       2.361  -2.681   1.162  1.00  0.00     0.010 A 
ATOM     25  C   UNL     1       3.276  -4.208  -0.960  1.00  0.00     0.026 A 
ATOM     26  C   UNL     1       3.623  -3.281   1.216  1.00  0.00     0.026 A 
ATOM     27  C   UNL     1       4.109  -4.057   0.159  1.00  0.00     0.037 A 
BRANCH  27  28
ATOM     28  N   UNL     1       5.361  -4.630   0.189  1.00  0.00    -0.372 N 
ATOM     29  C   UNL     1       5.995  -5.151   1.395  1.00  0.00     0.116 C 
ATOM     30  C   UNL     1       6.348  -4.257  -0.825  1.00  0.00     0.116 C 
ATOM     31  C   UNL     1       7.447  -4.708   1.258  1.00  0.00     0.023 C 
ATOM     32  C   UNL     1       7.677  -4.745  -0.245  1.00  0.00     0.023 C 
ENDBRANCH  27  28
ENDBRANCH  20  22
ENDBRANCH   9  14
ENDBRANCH   5   8
ENDBRANCH   3   4
ENDBRANCH   2   3
ENDBRANCH   1   2
BRANCH   1  33
ATOM     33  C   UNL     1       6.605   7.522  -3.787  1.00  0.00     0.002 C 
BRANCH  33  34
ATOM     34  C   UNL     1       7.012   6.441  -4.790  1.00  0.00     0.021 C 
BRANCH  34  35
ATOM     35  C   UNL     1       6.566   6.732  -6.218  1.00  0.00     0.116 C 
BRANCH  35  36
ATOM     36  N   UNL     1       7.205   7.931  -6.739  1.00  0.00    -0.352 N 
ATOM     37  C   UNL     1       8.030   8.072  -7.824  1.00  0.00     0.251 C 
ATOM     38  H   UNL     1       7.019   8.759  -6.240  1.00  0.00     0.163 HD
ATOM     39  O   UNL     1       8.697   9.091  -7.971  1.00  0.00    -0.269 OA
BRANCH  37  40
ATOM     40  C   UNL     1       8.117   6.982  -8.816  1.00  0.00     0.039 A 
ATOM     41  C   UNL     1       9.370   6.606  -9.305  1.00  0.00     0.014 A 
ATOM     42  C   UNL     1       6.960   6.340  -9.266  1.00  0.00     0.014 A 
ATOM     43  C   UNL     1       9.466   5.543 -10.204  1.00  0.00     0.010 A 
ATOM     44  C   UNL     1       7.065   5.233 -10.101  1.00  0.00     0.010 A 
ATOM     45  C   UNL     1       8.318   4.826 -10.581  1.00  0.00    -0.014 A 
BRANCH  45  46
ATOM     46  C   UNL     1       8.407   3.644 -11.473  1.00  0.00     0.031 A 
ATOM     47  C   UNL     1       7.742   3.664 -12.822  1.00  0.00     0.074 A 
ATOM     48  C   UNL     1       9.038   2.533 -11.044  1.00  0.00     0.049 A 
ATOM     49  N   UNL     1       7.645   2.706 -13.708  1.00  0.00    -0.248 NA
ATOM     50  C   UNL     1       7.083   4.920 -13.220  1.00  0.00     0.031 C 
ATOM     51  C   UNL     1       9.704   2.380  -9.748  1.00  0.00     0.029 A 
ATOM     52  N   UNL     1       9.219   1.317 -11.654  1.00  0.00    -0.354 N 
ATOM     53  C   UNL     1       6.915   3.240 -14.762  1.00  0.00     0.074 A 
ATOM     54  C   UNL     1       6.543   4.585 -14.383  1.00  0.00     0.031 C 
ATOM     55  C   UNL     1      10.244   1.153  -9.673  1.00  0.00     0.029 A 
ATOM     56  C   UNL     1       9.919   0.415 -10.889  1.00  0.00     0.049 A 
ATOM     57  H   UNL     1       8.880   1.110 -12.555  1.00  0.00     0.167 HD
ATOM     58  C   UNL     1       6.601   2.670 -15.950  1.00  0.00     0.031 A 
ATOM     59  C   UNL     1      10.250  -0.866 -11.134  1.00  0.00     0.031 A 
ATOM     60  C   UNL     1       6.968   1.331 -16.326  1.00  0.00     0.049 A 
ATOM     61  C   UNL     1       9.831  -1.492 -12.437  1.00  0.00     0.074 A 
ATOM     62  C   UNL     1       6.720   0.672 -17.518  1.00  0.00     0.029 A 
ATOM     63  N   UNL     1       7.662   0.446 -15.516  1.00  0.00    -0.354 N 
ATOM     64  N   UNL     1       9.187  -0.956 -13.445  1.00  0.00    -0.248 NA
ATOM     65  C   UNL     1      10.194  -2.902 -12.638  1.00  0.00     0.031 C 
ATOM     66  C   UNL     1       7.213  -0.631 -17.407  1.00  0.00     0.029 A 
ATOM     67  C   UNL     1       7.829  -0.762 -16.173  1.00  0.00     0.049 A 
ATOM     68  H   UNL     1       7.988   0.646 -14.609  1.00  0.00     0.167 HD
ATOM     69  C   UNL     1       9.101  -1.950 -14.411  1.00  0.00     0.074 A 
ATOM     70  C   UNL     1       9.777  -3.113 -13.877  1.00  0.00     0.031 C 
ATOM     71  C   UNL     1       8.512  -1.907 -15.631  1.00  0.00     0.031 A 
BRANCH  58  72
ATOM     72  C   UNL     1       5.822   3.496 -16.935  1.00  0.00    -0.014 A 
ATOM     73  C   UNL     1       6.410   4.593 -17.585  1.00  0.00     0.009 A 
ATOM     74  C   UNL     1       4.505   3.139 -17.265  1.00  0.00     0.009 A 
ATOM     75  C   UNL     1       5.686   5.331 -18.524  1.00  0.00     0.001 A 
ATOM     76  C   UNL     1       3.794   3.860 -18.226  1.00  0.00     0.001 A 
ATOM     77  C   UNL     1       4.383   4.959 -18.850  1.00  0.00     0.000 A 
ENDBRANCH  58  72
BRANCH  59  78
ATOM     78  C   UNL     1      11.010  -1.659 -10.130  1.00  0.00    -0.014 A 
ATOM     79  C   UNL     1      12.310  -2.108 -10.412  1.00  0.00     0.009 A 
ATOM     80  C   UNL     1      10.422  -2.015  -8.906  1.00  0.00     0.009 A 
ATOM     81  C   UNL     1      12.985  -2.935  -9.511  1.00  0.00     0.001 A 
ATOM     82  C   UNL     1      11.114  -2.811  -7.991  1.00  0.00     0.001 A 
ATOM     83  C   UNL     1      12.388  -3.284  -8.301  1.00  0.00     0.000 A 
ENDBRANCH  59  78
BRANCH  71  84
ATOM     84  C   UNL     1       8.618  -3.136 -16.491  1.00  0.00    -0.014 A 
ATOM     85  C   UNL     1       7.921  -4.313 -16.175  1.00  0.00     0.009 A 
ATOM     86  C   UNL     1       9.403  -3.102 -17.654  1.00  0.00     0.009 A 
ATOM     87  C   UNL     1       8.041  -5.443 -16.987  1.00  0.00     0.001 A 
ATOM     88  C   UNL     1       9.493  -4.221 -18.482  1.00  0.00     0.001 A 
ATOM     89  C   UNL     1       8.822  -5.394 -18.142  1.00  0.00     0.000 A 
ENDBRANCH  71  84
ENDBRANCH  45  46
ENDBRANCH  37  40
ENDBRANCH  35  36
ENDBRANCH  34  35
ENDBRANCH  33  34
ENDBRANCH   1  33
TORSDOF 16
