REMARK SMILES C[C@@H](CO)CCCC[C@@H](C)C(=O)NCCCCCCNC(=O)c1ccc(-c2c3nc(c(-c4ccccc4)c4ccc([nH]4)c(-c4ccccc4)c4nc(c(-c5ccccc5)c5ccc2[nH]5)C=C4)C=C3)cc1
REMARK SMILES IDX 14 1 13 2 11 3 12 4 9 6 10 7 8 8 7 9 6 10 5 11 2 12 1 13
REMARK SMILES IDX 3 14 4 15 15 17 16 18 17 19 18 20 19 21 20 22 21 23 22 25
REMARK SMILES IDX 23 26 24 27 70 28 25 29 69 30 26 31 27 32 28 33 63 34 29 35
REMARK SMILES IDX 68 36 62 37 64 38 30 39 67 40 61 41 60 42 31 44 53 45 38 46
REMARK SMILES IDX 52 47 39 48 42 49 51 50 65 51 40 52 41 53 50 55 66 56 43 57
REMARK SMILES IDX 32 58 33 59 37 60 34 61 36 62 35 63 54 64 55 65 59 66 56 67
REMARK SMILES IDX 58 68 57 69 44 70 45 71 49 72 46 73 48 74 47 75
REMARK H PARENT 13 5 4 16 20 24 64 43 42 54
REMARK Flexibility Score: inf
ROOT
ATOM      1  C   UNL     1      -2.596   3.867   5.684  1.00  0.00     0.116 C 
ENDROOT
BRANCH   1   2
ATOM      2  N   UNL     1      -3.398   4.263   4.545  1.00  0.00    -0.356 N 
ATOM      3  C   UNL     1      -3.643   3.650   3.359  1.00  0.00     0.222 C 
ATOM      4  O   UNL     1      -4.309   4.274   2.528  1.00  0.00    -0.275 OA
ATOM      5  H   UNL     1      -3.848   5.133   4.651  1.00  0.00     0.163 HD
BRANCH   3   6
ATOM      6  C   UNL     1      -3.165   2.232   3.054  1.00  0.00     0.075 C 
ATOM      7  C   UNL     1      -3.864   1.218   3.960  1.00  0.00     0.018 C 
BRANCH   6   8
ATOM      8  C   UNL     1      -1.633   2.107   2.999  1.00  0.00     0.013 C 
BRANCH   8   9
ATOM      9  C   UNL     1      -1.113   0.711   2.634  1.00  0.00     0.001 C 
BRANCH   9  10
ATOM     10  C   UNL     1      -1.475   0.231   1.226  1.00  0.00     0.000 C 
BRANCH  10  11
ATOM     11  C   UNL     1      -0.942   1.104   0.083  1.00  0.00     0.005 C 
BRANCH  11  12
ATOM     12  C   UNL     1       0.589   1.298   0.059  1.00  0.00     0.011 C 
ATOM     13  C   UNL     1       1.323  -0.036  -0.102  1.00  0.00     0.010 C 
BRANCH  12  14
ATOM     14  C   UNL     1       0.995   2.285  -1.047  1.00  0.00     0.159 C 
BRANCH  14  15
ATOM     15  O   UNL     1       0.568   1.856  -2.332  1.00  0.00    -0.396 OA
ATOM     16  H   UNL     1       0.984   1.006  -2.543  1.00  0.00     0.210 HD
ENDBRANCH  14  15
ENDBRANCH  12  14
ENDBRANCH  11  12
ENDBRANCH  10  11
ENDBRANCH   9  10
ENDBRANCH   8   9
ENDBRANCH   6   8
ENDBRANCH   3   6
ENDBRANCH   1   2
BRANCH   1  17
ATOM     17  C   UNL     1      -1.359   4.755   5.817  1.00  0.00     0.021 C 
BRANCH  17  18
ATOM     18  C   UNL     1      -1.663   6.193   6.256  1.00  0.00     0.002 C 
BRANCH  18  19
ATOM     19  C   UNL     1      -2.411   6.324   7.587  1.00  0.00     0.002 C 
BRANCH  19  20
ATOM     20  C   UNL     1      -1.767   5.602   8.775  1.00  0.00     0.021 C 
BRANCH  20  21
ATOM     21  C   UNL     1      -0.336   6.028   9.091  1.00  0.00     0.116 C 
BRANCH  21  22
ATOM     22  N   UNL     1      -0.248   7.431   9.454  1.00  0.00    -0.352 N 
ATOM     23  C   UNL     1       0.354   8.021  10.534  1.00  0.00     0.251 C 
ATOM     24  H   UNL     1      -0.688   8.053   8.830  1.00  0.00     0.163 HD
ATOM     25  O   UNL     1       0.168   9.216  10.761  1.00  0.00    -0.269 OA
BRANCH  23  26
ATOM     26  C   UNL     1       1.213   7.232  11.443  1.00  0.00     0.039 A 
ATOM     27  C   UNL     1       1.093   7.439  12.820  1.00  0.00     0.014 A 
ATOM     28  C   UNL     1       2.162   6.329  10.952  1.00  0.00     0.014 A 
ATOM     29  C   UNL     1       1.888   6.709  13.706  1.00  0.00     0.010 A 
ATOM     30  C   UNL     1       2.915   5.559  11.838  1.00  0.00     0.010 A 
ATOM     31  C   UNL     1       2.790   5.747  13.223  1.00  0.00    -0.014 A 
BRANCH  31  32
ATOM     32  C   UNL     1       3.595   4.931  14.165  1.00  0.00     0.031 A 
ATOM     33  C   UNL     1       5.087   5.100  14.243  1.00  0.00     0.074 A 
ATOM     34  C   UNL     1       2.982   4.010  14.931  1.00  0.00     0.049 A 
ATOM     35  N   UNL     1       5.945   4.489  15.021  1.00  0.00    -0.248 NA
ATOM     36  C   UNL     1       5.698   6.065  13.315  1.00  0.00     0.031 C 
ATOM     37  C   UNL     1       1.548   3.712  14.914  1.00  0.00     0.029 A 
ATOM     38  N   UNL     1       3.489   3.155  15.877  1.00  0.00    -0.354 N 
ATOM     39  C   UNL     1       7.194   4.984  14.669  1.00  0.00     0.074 A 
ATOM     40  C   UNL     1       6.988   5.914  13.580  1.00  0.00     0.031 C 
ATOM     41  C   UNL     1       1.286   2.764  15.829  1.00  0.00     0.029 A 
ATOM     42  C   UNL     1       2.533   2.373  16.479  1.00  0.00     0.049 A 
ATOM     43  H   UNL     1       4.446   3.107  16.104  1.00  0.00     0.167 HD
ATOM     44  C   UNL     1       8.402   4.703  15.213  1.00  0.00     0.031 A 
ATOM     45  C   UNL     1       2.646   1.450  17.451  1.00  0.00     0.031 A 
ATOM     46  C   UNL     1       8.610   3.790  16.305  1.00  0.00     0.049 A 
ATOM     47  C   UNL     1       3.993   1.175  18.055  1.00  0.00     0.074 A 
ATOM     48  C   UNL     1       9.789   3.488  16.966  1.00  0.00     0.029 A 
ATOM     49  N   UNL     1       7.615   3.029  16.897  1.00  0.00    -0.354 N 
ATOM     50  N   UNL     1       5.154   1.710  17.762  1.00  0.00    -0.248 NA
ATOM     51  C   UNL     1       4.041   0.181  19.136  1.00  0.00     0.031 C 
ATOM     52  C   UNL     1       9.513   2.515  17.933  1.00  0.00     0.029 A 
ATOM     53  C   UNL     1       8.155   2.243  17.901  1.00  0.00     0.049 A 
ATOM     54  H   UNL     1       6.664   3.044  16.640  1.00  0.00     0.167 HD
ATOM     55  C   UNL     1       6.066   1.131  18.634  1.00  0.00     0.074 A 
ATOM     56  C   UNL     1       5.320   0.222  19.480  1.00  0.00     0.031 C 
ATOM     57  C   UNL     1       7.402   1.335  18.726  1.00  0.00     0.031 A 
BRANCH  44  58
ATOM     58  C   UNL     1       9.600   5.397  14.628  1.00  0.00    -0.014 A 
ATOM     59  C   UNL     1       9.828   6.764  14.853  1.00  0.00     0.009 A 
ATOM     60  C   UNL     1      10.530   4.667  13.872  1.00  0.00     0.009 A 
ATOM     61  C   UNL     1      10.947   7.393  14.304  1.00  0.00     0.001 A 
ATOM     62  C   UNL     1      11.661   5.294  13.344  1.00  0.00     0.001 A 
ATOM     63  C   UNL     1      11.864   6.658  13.553  1.00  0.00     0.000 A 
ENDBRANCH  44  58
BRANCH  45  64
ATOM     64  C   UNL     1       1.439   0.739  17.940  1.00  0.00    -0.014 A 
ATOM     65  C   UNL     1       0.892   1.046  19.195  1.00  0.00     0.009 A 
ATOM     66  C   UNL     1       0.828  -0.251  17.155  1.00  0.00     0.009 A 
ATOM     67  C   UNL     1      -0.228   0.359  19.665  1.00  0.00     0.001 A 
ATOM     68  C   UNL     1      -0.307  -0.920  17.618  1.00  0.00     0.001 A 
ATOM     69  C   UNL     1      -0.829  -0.620  18.876  1.00  0.00     0.000 A 
ENDBRANCH  45  64
BRANCH  57  70
ATOM     70  C   UNL     1       8.134   0.570  19.790  1.00  0.00    -0.014 A 
ATOM     71  C   UNL     1       8.380  -0.805  19.654  1.00  0.00     0.009 A 
ATOM     72  C   UNL     1       8.597   1.236  20.935  1.00  0.00     0.009 A 
ATOM     73  C   UNL     1       9.043  -1.506  20.663  1.00  0.00     0.001 A 
ATOM     74  C   UNL     1       9.281   0.538  21.931  1.00  0.00     0.001 A 
ATOM     75  C   UNL     1       9.495  -0.834  21.799  1.00  0.00     0.000 A 
ENDBRANCH  57  70
ENDBRANCH  31  32
ENDBRANCH  23  26
ENDBRANCH  21  22
ENDBRANCH  20  21
ENDBRANCH  19  20
ENDBRANCH  18  19
ENDBRANCH  17  18
ENDBRANCH   1  17
TORSDOF 20
