REMARK SMILES Cc1noc(C)c1[C@H](C)NC(=O)NC[C@@](C)(O)C(=O)NCCCCCCNC(=O)c1ccc(-c2c3nc(c(-c4ccccc4)c4ccc([nH]4)c(-c4ccccc4)c4nc(c(-c5ccccc5)c5ccc2[nH]5)C=C4)C=C3)cc1
REMARK SMILES IDX 22 1 21 2 20 3 18 4 19 5 15 7 16 8 14 9 13 10 10 11 11 12
REMARK SMILES IDX 12 14 8 16 9 17 7 18 1 19 2 20 3 21 4 22 5 23 6 24 17 25
REMARK SMILES IDX 23 27 24 28 25 29 26 30 27 31 28 32 29 34 30 35 31 36 77 37
REMARK SMILES IDX 32 38 76 39 33 40 34 41 35 42 70 43 36 44 75 45 69 46 71 47
REMARK SMILES IDX 37 48 74 49 68 50 67 51 38 53 60 54 45 55 59 56 46 57 49 58
REMARK SMILES IDX 58 59 72 60 47 61 48 62 57 64 73 65 50 66 39 67 40 68 44 69
REMARK SMILES IDX 41 70 43 71 42 72 61 73 62 74 66 75 63 76 65 77 64 78 51 79
REMARK SMILES IDX 52 80 56 81 53 82 55 83 54 84
REMARK H PARENT 20 6 10 13 13 15 17 26 27 33 71 52 49 63
REMARK Flexibility Score: inf
ROOT
ATOM      1  C   UNL     1       2.815   7.408  -3.197  1.00  0.00     0.021 C 
ENDROOT
BRANCH   1   2
ATOM      2  C   UNL     1       3.228   7.417  -1.725  1.00  0.00     0.116 C 
BRANCH   2   3
ATOM      3  N   UNL     1       2.115   7.185  -0.829  1.00  0.00    -0.354 N 
ATOM      4  C   UNL     1       1.917   6.241   0.141  1.00  0.00     0.253 C 
ATOM      5  O   UNL     1       0.920   6.417   0.843  1.00  0.00    -0.272 OA
ATOM      6  H   UNL     1       1.369   7.818  -0.937  1.00  0.00     0.163 HD
BRANCH   4   7
ATOM      7  C   UNL     1       2.956   5.108   0.397  1.00  0.00     0.157 C 
ATOM      8  C   UNL     1       4.115   5.757   1.175  1.00  0.00     0.055 C 
BRANCH   7   9
ATOM      9  C   UNL     1       2.442   3.861   1.188  1.00  0.00     0.162 C 
BRANCH   9  10
ATOM     10  N   UNL     1       1.296   3.997   2.062  1.00  0.00    -0.335 N 
ATOM     11  N   UNL     1      -0.616   3.302   0.841  1.00  0.00    -0.331 N 
ATOM     12  C   UNL     1      -0.023   3.794   1.936  1.00  0.00     0.315 C 
ATOM     13  H   UNL     1      -1.598   3.359   0.873  1.00  0.00     0.165 HD
ATOM     14  O   UNL     1      -0.737   4.066   2.904  1.00  0.00    -0.249 OA
ATOM     15  H   UNL     1       1.544   4.313   2.960  1.00  0.00     0.165 HD
BRANCH  11  16
ATOM     16  C   UNL     1      -0.119   2.701  -0.385  1.00  0.00     0.116 C 
ATOM     17  C   UNL     1       0.212   1.235  -0.113  1.00  0.00     0.036 C 
BRANCH  16  18
ATOM     18  C   UNL     1      -1.118   2.939  -1.486  1.00  0.00     0.040 A 
ATOM     19  C   UNL     1      -1.018   5.557  -1.599  1.00  0.00     0.071 C 
ATOM     20  C   UNL     1      -1.495   4.218  -2.010  1.00  0.00     0.086 A 
ATOM     21  N   UNL     1      -2.362   4.108  -3.020  1.00  0.00    -0.085 NA
ATOM     22  O   UNL     1      -2.568   2.761  -3.188  1.00  0.00    -0.361 OA
ATOM     23  C   UNL     1      -1.823   2.062  -2.292  1.00  0.00     0.139 A 
ATOM     24  C   UNL     1      -1.933   0.595  -2.420  1.00  0.00     0.091 C 
ENDBRANCH  16  18
ENDBRANCH  11  16
ENDBRANCH   9  10
ENDBRANCH   7   9
BRANCH   7  25
ATOM     25  O   UNL     1       3.467   4.596  -0.848  1.00  0.00    -0.378 OA
ATOM     26  H   UNL     1       4.111   3.893  -0.668  1.00  0.00     0.212 HD
ENDBRANCH   7  25
ENDBRANCH   4   7
ENDBRANCH   2   3
ENDBRANCH   1   2
BRANCH   1  27
ATOM     27  C   UNL     1       1.767   8.453  -3.602  1.00  0.00     0.002 C 
BRANCH  27  28
ATOM     28  C   UNL     1       2.046   9.896  -3.167  1.00  0.00     0.002 C 
BRANCH  28  29
ATOM     29  C   UNL     1       3.416  10.455  -3.551  1.00  0.00     0.021 C 
BRANCH  29  30
ATOM     30  C   UNL     1       3.723  10.455  -5.043  1.00  0.00     0.116 C 
BRANCH  30  31
ATOM     31  N   UNL     1       2.862  11.358  -5.788  1.00  0.00    -0.352 N 
ATOM     32  C   UNL     1       3.198  12.396  -6.622  1.00  0.00     0.251 C 
ATOM     33  H   UNL     1       1.896  11.204  -5.679  1.00  0.00     0.163 HD
ATOM     34  O   UNL     1       2.330  13.164  -7.030  1.00  0.00    -0.269 OA
BRANCH  32  35
ATOM     35  C   UNL     1       4.609  12.612  -7.014  1.00  0.00     0.039 A 
ATOM     36  C   UNL     1       5.118  13.913  -7.009  1.00  0.00     0.014 A 
ATOM     37  C   UNL     1       5.426  11.544  -7.394  1.00  0.00     0.014 A 
ATOM     38  C   UNL     1       6.462  14.135  -7.321  1.00  0.00     0.010 A 
ATOM     39  C   UNL     1       6.784  11.757  -7.628  1.00  0.00     0.010 A 
ATOM     40  C   UNL     1       7.316  13.054  -7.596  1.00  0.00    -0.014 A 
BRANCH  40  41
ATOM     41  C   UNL     1       8.767  13.264  -7.845  1.00  0.00     0.031 A 
ATOM     42  C   UNL     1       9.370  12.904  -9.177  1.00  0.00     0.074 A 
ATOM     43  C   UNL     1       9.555  13.725  -6.853  1.00  0.00     0.049 A 
ATOM     44  N   UNL     1      10.621  12.966  -9.559  1.00  0.00    -0.248 NA
ATOM     45  C   UNL     1       8.454  12.388 -10.207  1.00  0.00     0.031 C 
ATOM     46  C   UNL     1       9.104  14.081  -5.505  1.00  0.00     0.029 A 
ATOM     47  N   UNL     1      10.906  13.970  -6.823  1.00  0.00    -0.354 N 
ATOM     48  C   UNL     1      10.643  12.483 -10.862  1.00  0.00     0.074 A 
ATOM     49  C   UNL     1       9.291  12.088 -11.190  1.00  0.00     0.031 C 
ATOM     50  C   UNL     1      10.152  14.526  -4.793  1.00  0.00     0.029 A 
ATOM     51  C   UNL     1      11.355  14.443  -5.613  1.00  0.00     0.049 A 
ATOM     52  H   UNL     1      11.497  13.821  -7.596  1.00  0.00     0.167 HD
ATOM     53  C   UNL     1      11.691  12.391 -11.715  1.00  0.00     0.031 A 
ATOM     54  C   UNL     1      12.598  14.763  -5.204  1.00  0.00     0.031 A 
ATOM     55  C   UNL     1      13.034  12.796 -11.396  1.00  0.00     0.049 A 
ATOM     56  C   UNL     1      13.747  14.622  -6.167  1.00  0.00     0.074 A 
ATOM     57  C   UNL     1      14.149  12.798 -12.217  1.00  0.00     0.029 A 
ATOM     58  N   UNL     1      13.445  13.267 -10.160  1.00  0.00    -0.354 N 
ATOM     59  N   UNL     1      13.735  14.235  -7.418  1.00  0.00    -0.248 NA
ATOM     60  C   UNL     1      15.081  14.974  -5.659  1.00  0.00     0.031 C 
ATOM     61  C   UNL     1      15.248  13.209 -11.458  1.00  0.00     0.029 A 
ATOM     62  C   UNL     1      14.805  13.530 -10.186  1.00  0.00     0.049 A 
ATOM     63  H   UNL     1      12.859  13.395  -9.380  1.00  0.00     0.167 HD
ATOM     64  C   UNL     1      15.050  14.332  -7.857  1.00  0.00     0.074 A 
ATOM     65  C   UNL     1      15.828  14.832  -6.744  1.00  0.00     0.031 C 
ATOM     66  C   UNL     1      15.566  14.035  -9.074  1.00  0.00     0.031 A 
BRANCH  53  67
ATOM     67  C   UNL     1      11.434  11.822 -13.084  1.00  0.00    -0.014 A 
ATOM     68  C   UNL     1      10.700  12.534 -14.045  1.00  0.00     0.009 A 
ATOM     69  C   UNL     1      11.995  10.585 -13.439  1.00  0.00     0.009 A 
ATOM     70  C   UNL     1      10.511  12.006 -15.325  1.00  0.00     0.001 A 
ATOM     71  C   UNL     1      11.830  10.074 -14.728  1.00  0.00     0.001 A 
ATOM     72  C   UNL     1      11.082  10.782 -15.667  1.00  0.00     0.000 A 
ENDBRANCH  53  67
BRANCH  54  73
ATOM     73  C   UNL     1      12.837  15.248  -3.818  1.00  0.00    -0.014 A 
ATOM     74  C   UNL     1      13.266  16.565  -3.586  1.00  0.00     0.009 A 
ATOM     75  C   UNL     1      12.680  14.386  -2.721  1.00  0.00     0.009 A 
ATOM     76  C   UNL     1      13.574  16.993  -2.292  1.00  0.00     0.001 A 
ATOM     77  C   UNL     1      12.954  14.828  -1.425  1.00  0.00     0.001 A 
ATOM     78  C   UNL     1      13.416  16.126  -1.213  1.00  0.00     0.000 A 
ENDBRANCH  54  73
BRANCH  66  79
ATOM     79  C   UNL     1      17.034  14.289  -9.283  1.00  0.00    -0.014 A 
ATOM     80  C   UNL     1      18.011  13.495  -8.662  1.00  0.00     0.009 A 
ATOM     81  C   UNL     1      17.441  15.316 -10.148  1.00  0.00     0.009 A 
ATOM     82  C   UNL     1      19.367  13.751  -8.876  1.00  0.00     0.001 A 
ATOM     83  C   UNL     1      18.796  15.547 -10.387  1.00  0.00     0.001 A 
ATOM     84  C   UNL     1      19.758  14.772  -9.742  1.00  0.00     0.000 A 
ENDBRANCH  66  79
ENDBRANCH  40  41
ENDBRANCH  32  35
ENDBRANCH  30  31
ENDBRANCH  29  30
ENDBRANCH  28  29
ENDBRANCH  27  28
ENDBRANCH   1  27
TORSDOF 18
