REMARK SMILES C[C@@H](C(=O)NCCCCCCNC(=O)c1ccc(-c2c3nc(c(-c4ccccc4)c4ccc([nH]4)c(-c4ccccc4)c4nc(c(-c5ccccc5)c5ccc2[nH]5)C=C4)C=C3)cc1)c1ccc(-c2cccc(OC(=O)Nc3ccccc3)c2)c(F)c1
REMARK SMILES IDX 7 1 6 2 5 3 3 4 4 5 2 7 1 8 63 9 64 10 85 11 65 12 83 13
REMARK SMILES IDX 66 14 84 15 67 16 68 17 82 18 69 19 71 20 70 21 72 22 73 23
REMARK SMILES IDX 74 24 75 25 76 27 77 28 81 29 78 30 80 31 79 32 8 33 9 34
REMARK SMILES IDX 10 35 11 36 12 37 13 38 14 40 15 41 16 42 62 43 17 44 61 45
REMARK SMILES IDX 18 46 19 47 20 48 55 49 21 50 60 51 54 52 56 53 22 54 59 55
REMARK SMILES IDX 53 56 52 57 23 59 45 60 30 61 44 62 31 63 34 64 43 65 57 66
REMARK SMILES IDX 32 67 33 68 42 70 58 71 35 72 24 73 25 74 29 75 26 76 28 77
REMARK SMILES IDX 27 78 46 79 47 80 51 81 48 82 50 83 49 84 36 85 37 86 41 87
REMARK SMILES IDX 38 88 40 89 39 90
REMARK H PARENT 5 6 75 26 12 39 56 58 34 69
REMARK Flexibility Score: inf
ROOT
ATOM      1  C   UNL     1       4.302  -0.860  -1.126  1.00  0.00     0.021 C 
ENDROOT
BRANCH   1   2
ATOM      2  C   UNL     1       3.513   0.269  -1.793  1.00  0.00     0.116 C 
BRANCH   2   3
ATOM      3  N   UNL     1       2.457  -0.275  -2.614  1.00  0.00    -0.356 N 
ATOM      4  C   UNL     1       1.121  -0.374  -2.376  1.00  0.00     0.227 C 
ATOM      5  O   UNL     1       0.473  -1.035  -3.189  1.00  0.00    -0.274 OA
ATOM      6  H   UNL     1       2.750  -0.631  -3.484  1.00  0.00     0.163 HD
BRANCH   4   7
ATOM      7  C   UNL     1       0.494   0.362  -1.179  1.00  0.00     0.105 C 
ATOM      8  C   UNL     1       0.878  -0.241   0.178  1.00  0.00     0.023 C 
BRANCH   7   9
ATOM      9  C   UNL     1      -1.026   0.410  -1.272  1.00  0.00    -0.033 A 
ATOM     10  C   UNL     1      -1.710   1.633  -1.296  1.00  0.00     0.005 A 
ATOM     11  C   UNL     1      -1.769  -0.778  -1.289  1.00  0.00     0.044 A 
ATOM     12  C   UNL     1      -3.110   1.663  -1.298  1.00  0.00     0.012 A 
ATOM     13  C   UNL     1      -3.155  -0.739  -1.300  1.00  0.00     0.131 A 
ATOM     14  C   UNL     1      -3.855   0.473  -1.275  1.00  0.00     0.018 A 
ATOM     15  F   UNL     1      -3.816  -1.908  -1.297  1.00  0.00    -0.206 F 
BRANCH  14  16
ATOM     16  C   UNL     1      -5.313   0.484  -1.118  1.00  0.00    -0.012 A 
ATOM     17  C   UNL     1      -6.164   1.164  -2.000  1.00  0.00     0.009 A 
ATOM     18  C   UNL     1      -5.882  -0.206  -0.033  1.00  0.00     0.056 A 
ATOM     19  C   UNL     1      -7.548   1.144  -1.806  1.00  0.00     0.004 A 
ATOM     20  C   UNL     1      -7.255  -0.214   0.167  1.00  0.00     0.133 A 
ATOM     21  C   UNL     1      -8.095   0.454  -0.722  1.00  0.00     0.047 A 
BRANCH  20  22
ATOM     22  O   UNL     1      -7.890  -0.862   1.254  1.00  0.00    -0.410 OA
BRANCH  22  23
ATOM     23  C   UNL     1      -7.256  -1.415   2.368  1.00  0.00     0.417 C 
ATOM     24  O   UNL     1      -6.043  -1.503   2.539  1.00  0.00    -0.224 OA
ATOM     25  N   UNL     1      -8.098  -1.780   3.386  1.00  0.00    -0.291 N 
ATOM     26  H   UNL     1      -7.648  -2.032   4.223  1.00  0.00     0.173 HD
BRANCH  25  27
ATOM     27  C   UNL     1      -9.497  -1.850   3.427  1.00  0.00     0.044 A 
ATOM     28  C   UNL     1     -10.095  -1.804   4.691  1.00  0.00     0.026 A 
ATOM     29  C   UNL     1     -10.302  -1.995   2.296  1.00  0.00     0.026 A 
ATOM     30  C   UNL     1     -11.484  -1.849   4.819  1.00  0.00     0.002 A 
ATOM     31  C   UNL     1     -11.692  -2.061   2.426  1.00  0.00     0.002 A 
ATOM     32  C   UNL     1     -12.282  -1.976   3.685  1.00  0.00     0.000 A 
ENDBRANCH  25  27
ENDBRANCH  22  23
ENDBRANCH  20  22
ENDBRANCH  14  16
ENDBRANCH   7   9
ENDBRANCH   4   7
ENDBRANCH   2   3
ENDBRANCH   1   2
BRANCH   1  33
ATOM     33  C   UNL     1       5.013  -1.793  -2.115  1.00  0.00     0.002 C 
BRANCH  33  34
ATOM     34  C   UNL     1       5.945  -1.094  -3.109  1.00  0.00     0.002 C 
BRANCH  34  35
ATOM     35  C   UNL     1       7.000  -0.189  -2.471  1.00  0.00     0.021 C 
BRANCH  35  36
ATOM     36  C   UNL     1       7.930  -0.898  -1.495  1.00  0.00     0.116 C 
BRANCH  36  37
ATOM     37  N   UNL     1       8.747  -1.902  -2.153  1.00  0.00    -0.352 N 
ATOM     38  C   UNL     1      10.100  -2.106  -2.071  1.00  0.00     0.251 C 
ATOM     39  H   UNL     1       8.261  -2.523  -2.742  1.00  0.00     0.163 HD
ATOM     40  O   UNL     1      10.655  -2.880  -2.845  1.00  0.00    -0.269 OA
BRANCH  38  41
ATOM     41  C   UNL     1      10.896  -1.384  -1.055  1.00  0.00     0.039 A 
ATOM     42  C   UNL     1      12.142  -0.868  -1.420  1.00  0.00     0.014 A 
ATOM     43  C   UNL     1      10.438  -1.248   0.259  1.00  0.00     0.014 A 
ATOM     44  C   UNL     1      12.916  -0.194  -0.475  1.00  0.00     0.010 A 
ATOM     45  C   UNL     1      11.176  -0.510   1.180  1.00  0.00     0.010 A 
ATOM     46  C   UNL     1      12.434   0.002   0.829  1.00  0.00    -0.014 A 
BRANCH  46  47
ATOM     47  C   UNL     1      13.257   0.695   1.850  1.00  0.00     0.031 A 
ATOM     48  C   UNL     1      13.754  -0.059   3.054  1.00  0.00     0.074 A 
ATOM     49  C   UNL     1      13.529   2.007   1.716  1.00  0.00     0.049 A 
ATOM     50  N   UNL     1      14.475   0.370   4.059  1.00  0.00    -0.248 NA
ATOM     51  C   UNL     1      13.368  -1.477   3.156  1.00  0.00     0.031 C 
ATOM     52  C   UNL     1      13.076   2.860   0.616  1.00  0.00     0.029 A 
ATOM     53  N   UNL     1      14.258   2.852   2.514  1.00  0.00    -0.354 N 
ATOM     54  C   UNL     1      14.608  -0.714   4.918  1.00  0.00     0.074 A 
ATOM     55  C   UNL     1      13.852  -1.804   4.345  1.00  0.00     0.031 C 
ATOM     56  C   UNL     1      13.569   4.097   0.788  1.00  0.00     0.029 A 
ATOM     57  C   UNL     1      14.343   4.133   2.025  1.00  0.00     0.049 A 
ATOM     58  H   UNL     1      14.681   2.567   3.356  1.00  0.00     0.167 HD
ATOM     59  C   UNL     1      15.313  -0.802   6.071  1.00  0.00     0.031 A 
ATOM     60  C   UNL     1      14.980   5.212   2.516  1.00  0.00     0.031 A 
ATOM     61  C   UNL     1      16.084   0.274   6.630  1.00  0.00     0.049 A 
ATOM     62  C   UNL     1      15.761   5.087   3.794  1.00  0.00     0.074 A 
ATOM     63  C   UNL     1      16.887   0.266   7.758  1.00  0.00     0.029 A 
ATOM     64  N   UNL     1      16.150   1.553   6.100  1.00  0.00    -0.354 N 
ATOM     65  N   UNL     1      15.937   4.035   4.557  1.00  0.00    -0.248 NA
ATOM     66  C   UNL     1      16.447   6.297   4.269  1.00  0.00     0.031 C 
ATOM     67  C   UNL     1      17.400   1.555   7.937  1.00  0.00     0.029 A 
ATOM     68  C   UNL     1      16.962   2.349   6.890  1.00  0.00     0.049 A 
ATOM     69  H   UNL     1      15.688   1.851   5.284  1.00  0.00     0.167 HD
ATOM     70  C   UNL     1      16.782   4.446   5.580  1.00  0.00     0.074 A 
ATOM     71  C   UNL     1      17.092   5.839   5.333  1.00  0.00     0.031 C 
ATOM     72  C   UNL     1      17.263   3.733   6.627  1.00  0.00     0.031 A 
BRANCH  59  73
ATOM     73  C   UNL     1      15.270  -2.113   6.809  1.00  0.00    -0.014 A 
ATOM     74  C   UNL     1      15.897  -3.260   6.298  1.00  0.00     0.009 A 
ATOM     75  C   UNL     1      14.611  -2.195   8.045  1.00  0.00     0.009 A 
ATOM     76  C   UNL     1      15.829  -4.472   6.988  1.00  0.00     0.001 A 
ATOM     77  C   UNL     1      14.570  -3.400   8.749  1.00  0.00     0.001 A 
ATOM     78  C   UNL     1      15.169  -4.540   8.215  1.00  0.00     0.000 A 
ENDBRANCH  59  73
BRANCH  60  79
ATOM     79  C   UNL     1      14.942   6.501   1.777  1.00  0.00    -0.014 A 
ATOM     80  C   UNL     1      16.091   6.982   1.132  1.00  0.00     0.009 A 
ATOM     81  C   UNL     1      13.764   7.261   1.721  1.00  0.00     0.009 A 
ATOM     82  C   UNL     1      16.070   8.212   0.471  1.00  0.00     0.001 A 
ATOM     83  C   UNL     1      13.738   8.477   1.035  1.00  0.00     0.001 A 
ATOM     84  C   UNL     1      14.893   8.957   0.420  1.00  0.00     0.000 A 
ENDBRANCH  60  79
BRANCH  72  85
ATOM     85  C   UNL     1      18.212   4.435   7.557  1.00  0.00    -0.014 A 
ATOM     86  C   UNL     1      17.770   5.427   8.445  1.00  0.00     0.009 A 
ATOM     87  C   UNL     1      19.569   4.072   7.563  1.00  0.00     0.009 A 
ATOM     88  C   UNL     1      18.675   6.069   9.293  1.00  0.00     0.001 A 
ATOM     89  C   UNL     1      20.465   4.693   8.432  1.00  0.00     0.001 A 
ATOM     90  C   UNL     1      20.019   5.699   9.289  1.00  0.00     0.000 A 
ENDBRANCH  72  85
ENDBRANCH  46  47
ENDBRANCH  38  41
ENDBRANCH  36  37
ENDBRANCH  35  36
ENDBRANCH  34  35
ENDBRANCH  33  34
ENDBRANCH   1  33
TORSDOF 18
