REMARK SMILES CC1(C)[C@H](C(=O)NCCCCCCNC(=O)c2ccc(-c3c4nc(c(-c5ccccc5)c5ccc([nH]5)c(-c5ccccc5)c5nc(c(-c6ccccc6)c6ccc3[nH]6)C=C5)C=C4)cc2)[C@@H]1C(=O)Nc1ccc(NC(=O)C2CCC2)cc1
REMARK SMILES IDX 9 1 8 2 7 3 5 4 6 5 4 7 1 8 2 9 3 10 65 11 66 12 67 13 68 14
REMARK SMILES IDX 69 16 70 17 81 18 71 19 80 20 72 21 73 22 74 23 75 25 76 26
REMARK SMILES IDX 77 27 79 28 78 29 10 30 11 31 12 32 13 33 14 34 15 35 16 37
REMARK SMILES IDX 17 38 18 39 64 40 19 41 63 42 20 43 21 44 22 45 57 46 23 47
REMARK SMILES IDX 62 48 56 49 58 50 24 51 61 52 55 53 54 54 25 56 47 57 32 58
REMARK SMILES IDX 46 59 33 60 36 61 45 62 59 63 34 64 35 65 44 67 60 68 37 69
REMARK SMILES IDX 26 70 27 71 31 72 28 73 30 74 29 75 48 76 49 77 53 78 50 79
REMARK SMILES IDX 52 80 51 81 38 82 39 83 43 84 40 85 42 86 41 87
REMARK H PARENT 7 6 68 15 73 24 14 36 58 55 36 66
REMARK Flexibility Score: inf
ROOT
ATOM      1  C   UNL     1       0.200   4.197  -1.044  1.00  0.00     0.021 C 
ENDROOT
BRANCH   1   2
ATOM      2  C   UNL     1      -0.663   3.051  -0.533  1.00  0.00     0.116 C 
BRANCH   2   3
ATOM      3  N   UNL     1      -0.970   2.137  -1.608  1.00  0.00    -0.356 N 
ATOM      4  C   UNL     1      -1.001   0.786  -1.756  1.00  0.00     0.224 C 
ATOM      5  O   UNL     1      -1.283   0.392  -2.891  1.00  0.00    -0.275 OA
ATOM      6  H   UNL     1      -1.216   2.608  -2.437  1.00  0.00     0.163 HD
BRANCH   4   7
ATOM      7  C   UNL     1      -0.749  -0.261  -0.738  1.00  0.00     0.098 C 
ATOM      8  C   UNL     1       1.170  -1.706   0.130  1.00  0.00     0.013 C 
ATOM      9  C   UNL     1       0.465  -0.368   0.170  1.00  0.00    -0.011 C 
ATOM     10  C   UNL     1       1.444   0.772   0.303  1.00  0.00     0.013 C 
ATOM     11  C   UNL     1      -0.973  -0.329   0.739  1.00  0.00     0.098 C 
BRANCH  11  12
ATOM     12  C   UNL     1      -1.537   0.723   1.607  1.00  0.00     0.228 C 
ATOM     13  O   UNL     1      -0.859   1.220   2.502  1.00  0.00    -0.274 OA
ATOM     14  N   UNL     1      -2.857   1.105   1.474  1.00  0.00    -0.326 N 
ATOM     15  H   UNL     1      -3.285   1.529   2.252  1.00  0.00     0.169 HD
BRANCH  14  16
ATOM     16  C   UNL     1      -3.638   0.939   0.326  1.00  0.00     0.041 A 
ATOM     17  C   UNL     1      -3.872   2.093  -0.400  1.00  0.00     0.028 A 
ATOM     18  C   UNL     1      -4.054  -0.289  -0.181  1.00  0.00     0.028 A 
ATOM     19  C   UNL     1      -4.282   1.986  -1.716  1.00  0.00     0.028 A 
ATOM     20  C   UNL     1      -4.705  -0.335  -1.428  1.00  0.00     0.028 A 
ATOM     21  C   UNL     1      -4.830   0.824  -2.205  1.00  0.00     0.041 A 
BRANCH  21  22
ATOM     22  N   UNL     1      -5.491   0.778  -3.436  1.00  0.00    -0.326 N 
ATOM     23  C   UNL     1      -5.938   1.755  -4.309  1.00  0.00     0.227 C 
ATOM     24  H   UNL     1      -5.677  -0.138  -3.745  1.00  0.00     0.169 HD
ATOM     25  O   UNL     1      -6.471   1.304  -5.343  1.00  0.00    -0.274 OA
BRANCH  23  26
ATOM     26  C   UNL     1      -5.836   3.295  -4.110  1.00  0.00     0.079 C 
ATOM     27  C   UNL     1      -7.146   4.067  -4.513  1.00  0.00     0.013 C 
ATOM     28  C   UNL     1      -5.972   4.094  -2.772  1.00  0.00     0.013 C 
ATOM     29  C   UNL     1      -6.726   5.177  -3.544  1.00  0.00     0.002 C 
ENDBRANCH  23  26
ENDBRANCH  21  22
ENDBRANCH  14  16
ENDBRANCH  11  12
ENDBRANCH   4   7
ENDBRANCH   2   3
ENDBRANCH   1   2
BRANCH   1  30
ATOM     30  C   UNL     1      -0.598   5.255  -1.822  1.00  0.00     0.002 C 
BRANCH  30  31
ATOM     31  C   UNL     1      -1.697   5.967  -1.022  1.00  0.00     0.002 C 
BRANCH  31  32
ATOM     32  C   UNL     1      -1.251   6.537   0.326  1.00  0.00     0.021 C 
BRANCH  32  33
ATOM     33  C   UNL     1      -0.040   7.458   0.249  1.00  0.00     0.116 C 
BRANCH  33  34
ATOM     34  N   UNL     1      -0.288   8.620  -0.586  1.00  0.00    -0.352 N 
ATOM     35  C   UNL     1      -0.044   9.940  -0.315  1.00  0.00     0.251 C 
ATOM     36  H   UNL     1      -0.685   8.434  -1.467  1.00  0.00     0.163 HD
ATOM     37  O   UNL     1      -0.484  10.818  -1.054  1.00  0.00    -0.269 OA
BRANCH  35  38
ATOM     38  C   UNL     1       0.734  10.305   0.885  1.00  0.00     0.039 A 
ATOM     39  C   UNL     1       0.273  11.343   1.697  1.00  0.00     0.014 A 
ATOM     40  C   UNL     1       1.910   9.621   1.211  1.00  0.00     0.014 A 
ATOM     41  C   UNL     1       0.969  11.667   2.861  1.00  0.00     0.010 A 
ATOM     42  C   UNL     1       2.556   9.890   2.412  1.00  0.00     0.010 A 
ATOM     43  C   UNL     1       2.100  10.925   3.243  1.00  0.00    -0.014 A 
BRANCH  43  44
ATOM     44  C   UNL     1       2.822  11.230   4.502  1.00  0.00     0.031 A 
ATOM     45  C   UNL     1       4.247  11.708   4.459  1.00  0.00     0.074 A 
ATOM     46  C   UNL     1       2.208  11.034   5.685  1.00  0.00     0.049 A 
ATOM     47  N   UNL     1       5.048  12.003   5.452  1.00  0.00    -0.248 NA
ATOM     48  C   UNL     1       4.863  11.852   3.130  1.00  0.00     0.031 C 
ATOM     49  C   UNL     1       0.842  10.536   5.860  1.00  0.00     0.029 A 
ATOM     50  N   UNL     1       2.656  11.233   6.967  1.00  0.00    -0.354 N 
ATOM     51  C   UNL     1       6.260  12.352   4.868  1.00  0.00     0.074 A 
ATOM     52  C   UNL     1       6.108  12.179   3.441  1.00  0.00     0.031 C 
ATOM     53  C   UNL     1       0.552  10.501   7.171  1.00  0.00     0.029 A 
ATOM     54  C   UNL     1       1.722  10.931   7.928  1.00  0.00     0.049 A 
ATOM     55  H   UNL     1       3.560  11.561   7.177  1.00  0.00     0.167 HD
ATOM     56  C   UNL     1       7.391  12.798   5.464  1.00  0.00     0.031 A 
ATOM     57  C   UNL     1       1.801  10.990   9.271  1.00  0.00     0.031 A 
ATOM     58  C   UNL     1       7.539  12.975   6.884  1.00  0.00     0.049 A 
ATOM     59  C   UNL     1       3.076  11.471   9.908  1.00  0.00     0.074 A 
ATOM     60  C   UNL     1       8.627  13.470   7.582  1.00  0.00     0.029 A 
ATOM     61  N   UNL     1       6.571  12.657   7.824  1.00  0.00    -0.354 N 
ATOM     62  N   UNL     1       4.188  11.867   9.338  1.00  0.00    -0.248 NA
ATOM     63  C   UNL     1       3.099  11.526  11.376  1.00  0.00     0.031 C 
ATOM     64  C   UNL     1       8.339  13.395   8.948  1.00  0.00     0.029 A 
ATOM     65  C   UNL     1       7.046  12.920   9.097  1.00  0.00     0.049 A 
ATOM     66  H   UNL     1       5.678  12.298   7.616  1.00  0.00     0.167 HD
ATOM     67  C   UNL     1       5.030  12.249  10.374  1.00  0.00     0.074 A 
ATOM     68  C   UNL     1       4.292  12.055  11.605  1.00  0.00     0.031 C 
ATOM     69  C   UNL     1       6.299  12.721  10.313  1.00  0.00     0.031 A 
BRANCH  56  70
ATOM     70  C   UNL     1       8.564  13.117   4.577  1.00  0.00    -0.014 A 
ATOM     71  C   UNL     1       8.540  14.213   3.700  1.00  0.00     0.009 A 
ATOM     72  C   UNL     1       9.726  12.332   4.648  1.00  0.00     0.009 A 
ATOM     73  C   UNL     1       9.640  14.495   2.886  1.00  0.00     0.001 A 
ATOM     74  C   UNL     1      10.836  12.635   3.857  1.00  0.00     0.001 A 
ATOM     75  C   UNL     1      10.789  13.709   2.970  1.00  0.00     0.000 A 
ENDBRANCH  56  70
BRANCH  57  76
ATOM     76  C   UNL     1       0.636  10.596  10.107  1.00  0.00    -0.014 A 
ATOM     77  C   UNL     1      -0.064  11.556  10.855  1.00  0.00     0.009 A 
ATOM     78  C   UNL     1       0.229   9.255  10.176  1.00  0.00     0.009 A 
ATOM     79  C   UNL     1      -1.125  11.175  11.680  1.00  0.00     0.001 A 
ATOM     80  C   UNL     1      -0.854   8.882  10.976  1.00  0.00     0.001 A 
ATOM     81  C   UNL     1      -1.521   9.840  11.737  1.00  0.00     0.000 A 
ENDBRANCH  57  76
BRANCH  69  82
ATOM     82  C   UNL     1       6.954  13.102  11.612  1.00  0.00    -0.014 A 
ATOM     83  C   UNL     1       7.335  12.135  12.555  1.00  0.00     0.009 A 
ATOM     84  C   UNL     1       7.220  14.455  11.880  1.00  0.00     0.009 A 
ATOM     85  C   UNL     1       7.931  12.520  13.759  1.00  0.00     0.001 A 
ATOM     86  C   UNL     1       7.848  14.833  13.068  1.00  0.00     0.001 A 
ATOM     87  C   UNL     1       8.191  13.866  14.011  1.00  0.00     0.000 A 
ENDBRANCH  69  82
ENDBRANCH  43  44
ENDBRANCH  35  38
ENDBRANCH  33  34
ENDBRANCH  32  33
ENDBRANCH  31  32
ENDBRANCH  30  31
ENDBRANCH   1  30
TORSDOF 17
