REMARK SMILES O=C(NCCCCCCNC(=O)[C@H]1CC=CC[C@@H]1C(=O)N[C@@H]1CCCN(c2ccccc2F)C1=O)c1ccc(-c2c3nc(c(-c4ccccc4)c4ccc([nH]4)c(-c4ccccc4)c4nc(c(-c5ccccc5)c5ccc2[nH]5)C=C4)C=C3)cc1
REMARK SMILES IDX 7 1 6 2 5 3 4 4 3 5 1 6 2 7 36 9 37 10 83 11 38 12 82 13
REMARK SMILES IDX 39 14 40 15 41 16 76 17 42 18 81 19 75 20 77 21 43 22 80 23
REMARK SMILES IDX 74 24 73 25 44 27 66 28 51 29 65 30 52 31 55 32 64 33 78 34
REMARK SMILES IDX 53 35 54 36 63 38 79 39 56 40 45 41 46 42 50 43 47 44 49 45
REMARK SMILES IDX 48 46 67 47 68 48 72 49 69 50 71 51 70 52 57 53 58 54 62 55
REMARK SMILES IDX 59 56 61 57 60 58 8 59 9 60 10 61 11 62 12 64 13 65 14 66
REMARK SMILES IDX 18 67 15 68 17 69 16 70 19 71 20 72 21 73 22 75 23 76 34 77
REMARK SMILES IDX 24 78 26 79 35 80 25 81 27 82 28 83 32 84 29 85 31 86 33 87
REMARK SMILES IDX 30 88
REMARK H PARENT 3 8 77 26 55 37 10 63 21 74
REMARK Flexibility Score: inf
ROOT
ATOM      1  C   UNL     1       9.190  14.358   6.149  1.00  0.00     0.002 C 
ENDROOT
BRANCH   1   2
ATOM      2  C   UNL     1       8.165  14.821   5.106  1.00  0.00     0.002 C 
BRANCH   2   3
ATOM      3  C   UNL     1       6.721  14.416   5.412  1.00  0.00     0.021 C 
BRANCH   3   4
ATOM      4  C   UNL     1       6.225  14.915   6.763  1.00  0.00     0.116 C 
BRANCH   4   5
ATOM      5  N   UNL     1       6.181  16.368   6.793  1.00  0.00    -0.352 N 
ATOM      6  O   UNL     1       5.159  18.371   6.564  1.00  0.00    -0.269 OA
ATOM      7  C   UNL     1       5.081  17.175   6.861  1.00  0.00     0.251 C 
ATOM      8  H   UNL     1       7.051  16.827   6.761  1.00  0.00     0.163 HD
BRANCH   7   9
ATOM      9  C   UNL     1       3.799  16.607   7.311  1.00  0.00     0.039 A 
ATOM     10  C   UNL     1       3.769  15.769   8.431  1.00  0.00     0.014 A 
ATOM     11  C   UNL     1       2.620  16.946   6.645  1.00  0.00     0.014 A 
ATOM     12  C   UNL     1       2.570  15.207   8.841  1.00  0.00     0.010 A 
ATOM     13  C   UNL     1       1.403  16.446   7.108  1.00  0.00     0.010 A 
ATOM     14  C   UNL     1       1.372  15.581   8.214  1.00  0.00    -0.014 A 
BRANCH  14  15
ATOM     15  C   UNL     1       0.085  15.185   8.828  1.00  0.00     0.031 A 
ATOM     16  C   UNL     1      -0.864  14.262   8.128  1.00  0.00     0.074 A 
ATOM     17  C   UNL     1      -0.219  15.707  10.033  1.00  0.00     0.049 A 
ATOM     18  N   UNL     1      -2.047  13.861   8.516  1.00  0.00    -0.248 NA
ATOM     19  C   UNL     1      -0.441  13.723   6.826  1.00  0.00     0.031 C 
ATOM     20  C   UNL     1       0.634  16.628  10.793  1.00  0.00     0.029 A 
ATOM     21  N   UNL     1      -1.320  15.544  10.831  1.00  0.00    -0.354 N 
ATOM     22  C   UNL     1      -2.523  13.044   7.499  1.00  0.00     0.074 A 
ATOM     23  C   UNL     1      -1.505  13.012   6.471  1.00  0.00     0.031 C 
ATOM     24  C   UNL     1       0.036  16.928  11.954  1.00  0.00     0.029 A 
ATOM     25  C   UNL     1      -1.269  16.284  11.988  1.00  0.00     0.049 A 
ATOM     26  H   UNL     1      -2.074  14.956  10.598  1.00  0.00     0.167 HD
ATOM     27  C   UNL     1      -3.706  12.390   7.437  1.00  0.00     0.031 A 
ATOM     28  C   UNL     1      -2.189  16.460  12.953  1.00  0.00     0.031 A 
ATOM     29  C   UNL     1      -4.705  12.430   8.473  1.00  0.00     0.049 A 
ATOM     30  C   UNL     1      -3.507  15.758  12.826  1.00  0.00     0.074 A 
ATOM     31  C   UNL     1      -5.907  11.745   8.534  1.00  0.00     0.029 A 
ATOM     32  N   UNL     1      -4.629  13.209   9.617  1.00  0.00    -0.354 N 
ATOM     33  N   UNL     1      -3.911  14.928  11.895  1.00  0.00    -0.248 NA
ATOM     34  C   UNL     1      -4.500  16.021  13.875  1.00  0.00     0.031 C 
ATOM     35  C   UNL     1      -6.589  12.164   9.680  1.00  0.00     0.029 A 
ATOM     36  C   UNL     1      -5.786  13.062  10.364  1.00  0.00     0.049 A 
ATOM     37  H   UNL     1      -3.867  13.782   9.861  1.00  0.00     0.167 HD
ATOM     38  C   UNL     1      -5.200  14.562  12.250  1.00  0.00     0.074 A 
ATOM     39  C   UNL     1      -5.499  15.236  13.498  1.00  0.00     0.031 C 
ATOM     40  C   UNL     1      -6.065  13.748  11.598  1.00  0.00     0.031 A 
BRANCH  27  41
ATOM     41  C   UNL     1      -4.014  11.598   6.198  1.00  0.00    -0.014 A 
ATOM     42  C   UNL     1      -3.388  10.371   5.936  1.00  0.00     0.009 A 
ATOM     43  C   UNL     1      -5.020  12.047   5.327  1.00  0.00     0.009 A 
ATOM     44  C   UNL     1      -3.753   9.617   4.816  1.00  0.00     0.001 A 
ATOM     45  C   UNL     1      -5.399  11.282   4.223  1.00  0.00     0.001 A 
ATOM     46  C   UNL     1      -4.762  10.069   3.966  1.00  0.00     0.000 A 
ENDBRANCH  27  41
BRANCH  28  47
ATOM     47  C   UNL     1      -1.916  17.387  14.082  1.00  0.00    -0.014 A 
ATOM     48  C   UNL     1      -1.784  16.906  15.393  1.00  0.00     0.009 A 
ATOM     49  C   UNL     1      -1.796  18.767  13.851  1.00  0.00     0.009 A 
ATOM     50  C   UNL     1      -1.569  17.791  16.451  1.00  0.00     0.001 A 
ATOM     51  C   UNL     1      -1.546  19.646  14.906  1.00  0.00     0.001 A 
ATOM     52  C   UNL     1      -1.446  19.159  16.207  1.00  0.00     0.000 A 
ENDBRANCH  28  47
BRANCH  40  53
ATOM     53  C   UNL     1      -7.409  13.538  12.231  1.00  0.00    -0.014 A 
ATOM     54  C   UNL     1      -8.380  14.551  12.217  1.00  0.00     0.009 A 
ATOM     55  C   UNL     1      -7.723  12.298  12.807  1.00  0.00     0.009 A 
ATOM     56  C   UNL     1      -9.632  14.334  12.793  1.00  0.00     0.001 A 
ATOM     57  C   UNL     1      -8.986  12.074  13.355  1.00  0.00     0.001 A 
ATOM     58  C   UNL     1      -9.936  13.094  13.355  1.00  0.00     0.000 A 
ENDBRANCH  40  53
ENDBRANCH  14  15
ENDBRANCH   7   9
ENDBRANCH   4   5
ENDBRANCH   3   4
ENDBRANCH   2   3
ENDBRANCH   1   2
BRANCH   1  59
ATOM     59  C   UNL     1       9.099  12.870   6.507  1.00  0.00     0.021 C 
BRANCH  59  60
ATOM     60  C   UNL     1       9.389  11.956   5.319  1.00  0.00     0.116 C 
BRANCH  60  61
ATOM     61  N   UNL     1      10.800  11.685   5.242  1.00  0.00    -0.356 N 
ATOM     62  C   UNL     1      11.583  10.784   5.862  1.00  0.00     0.224 C 
ATOM     63  H   UNL     1      11.284  12.271   4.616  1.00  0.00     0.163 HD
ATOM     64  O   UNL     1      12.800  11.008   5.767  1.00  0.00    -0.275 OA
BRANCH  62  65
ATOM     65  C   UNL     1      11.138   9.503   6.574  1.00  0.00     0.095 C 
ATOM     66  C   UNL     1      11.706   9.459   7.999  1.00  0.00     0.041 C 
ATOM     67  C   UNL     1       9.743   8.873   6.481  1.00  0.00     0.095 C 
ATOM     68  C   UNL     1      10.732   9.950   9.018  1.00  0.00    -0.030 C 
ATOM     69  C   UNL     1       8.766   9.450   7.547  1.00  0.00     0.041 C 
ATOM     70  C   UNL     1       9.411   9.960   8.805  1.00  0.00    -0.030 C 
BRANCH  67  71
ATOM     71  C   UNL     1       9.821   7.339   6.657  1.00  0.00     0.224 C 
ATOM     72  O   UNL     1       9.369   6.781   7.663  1.00  0.00    -0.275 OA
ATOM     73  N   UNL     1      10.348   6.501   5.727  1.00  0.00    -0.344 N 
ATOM     74  H   UNL     1      10.210   5.553   5.957  1.00  0.00     0.164 HD
BRANCH  73  75
ATOM     75  C   UNL     1      11.074   6.667   4.461  1.00  0.00     0.172 C 
ATOM     76  C   UNL     1      12.575   6.883   4.622  1.00  0.00     0.037 C 
ATOM     77  C   UNL     1      10.286   7.468   3.412  1.00  0.00     0.249 C 
ATOM     78  C   UNL     1      13.201   7.615   3.451  1.00  0.00     0.025 C 
ATOM     79  N   UNL     1      10.966   8.454   2.702  1.00  0.00    -0.308 N 
ATOM     80  O   UNL     1       9.113   7.148   3.187  1.00  0.00    -0.272 OA
ATOM     81  C   UNL     1      12.364   8.787   2.970  1.00  0.00     0.126 C 
BRANCH  79  82
ATOM     82  C   UNL     1      10.239   9.302   1.797  1.00  0.00     0.080 A 
ATOM     83  C   UNL     1      10.786   9.647   0.553  1.00  0.00     0.029 A 
ATOM     84  C   UNL     1       8.957   9.792   2.105  1.00  0.00     0.146 A 
ATOM     85  C   UNL     1      10.059  10.423  -0.359  1.00  0.00     0.002 A 
ATOM     86  C   UNL     1       8.232  10.567   1.200  1.00  0.00     0.041 A 
ATOM     87  F   UNL     1       8.422   9.611   3.322  1.00  0.00    -0.205 F 
ATOM     88  C   UNL     1       8.781  10.877  -0.039  1.00  0.00     0.003 A 
ENDBRANCH  79  82
ENDBRANCH  73  75
ENDBRANCH  67  71
ENDBRANCH  62  65
ENDBRANCH  60  61
ENDBRANCH  59  60
ENDBRANCH   1  59
TORSDOF 16
