REMARK SMILES COCC(=O)N[C@H]1C=C[C@@H](C(=O)NCCCCCCNC(=O)c2ccc(-c3c4nc(c(-c5ccccc5)c5ccc([nH]5)c(-c5ccccc5)c5nc(c(-c6ccccc6)c6ccc3[nH]6)C=C5)C=C4)cc2)C1
REMARK SMILES IDX 16 1 15 2 14 3 13 4 11 5 12 6 10 8 7 9 8 10 71 11 9 12 6 13
REMARK SMILES IDX 4 14 5 15 3 17 2 18 1 19 17 20 18 21 19 22 20 23 21 24 22 26
REMARK SMILES IDX 23 27 24 28 70 29 25 30 69 31 26 32 27 33 28 34 63 35 29 36
REMARK SMILES IDX 68 37 62 38 64 39 30 40 67 41 61 42 60 43 31 45 53 46 38 47
REMARK SMILES IDX 52 48 39 49 42 50 51 51 65 52 40 53 41 54 50 56 66 57 43 58
REMARK SMILES IDX 32 59 33 60 37 61 34 62 36 63 35 64 54 65 55 66 59 67 56 68
REMARK SMILES IDX 58 69 57 70 44 71 45 72 49 73 46 74 48 75 47 76
REMARK H PARENT 13 7 6 16 20 25 64 44 42 55
REMARK Flexibility Score: inf
ROOT
ATOM      1  C   UNL     1      -4.755   3.518   5.082  1.00  0.00     0.002 C 
ENDROOT
BRANCH   1   2
ATOM      2  C   UNL     1      -3.794   3.290   3.910  1.00  0.00     0.021 C 
BRANCH   2   3
ATOM      3  C   UNL     1      -4.215   2.168   2.964  1.00  0.00     0.116 C 
BRANCH   3   4
ATOM      4  N   UNL     1      -5.380   2.538   2.186  1.00  0.00    -0.356 N 
ATOM      5  C   UNL     1      -5.559   2.652   0.843  1.00  0.00     0.227 C 
ATOM      6  O   UNL     1      -6.685   2.975   0.452  1.00  0.00    -0.274 OA
ATOM      7  H   UNL     1      -6.179   2.743   2.723  1.00  0.00     0.163 HD
BRANCH   5   8
ATOM      8  C   UNL     1      -4.440   2.397  -0.172  1.00  0.00     0.103 C 
ATOM      9  C   UNL     1      -1.977   2.443  -0.184  1.00  0.00     0.106 C 
ATOM     10  C   UNL     1      -2.519   1.053  -0.091  1.00  0.00    -0.006 C 
ATOM     11  C   UNL     1      -3.229   3.330  -0.054  1.00  0.00     0.047 C 
ATOM     12  C   UNL     1      -3.855   1.022  -0.089  1.00  0.00    -0.016 C 
BRANCH   9  13
ATOM     13  N   UNL     1      -1.052   2.658   0.908  1.00  0.00    -0.348 N 
ATOM     14  C   UNL     1       0.306   2.518   0.902  1.00  0.00     0.246 C 
ATOM     15  O   UNL     1       0.926   2.708   1.950  1.00  0.00    -0.272 OA
ATOM     16  H   UNL     1      -1.452   2.942   1.762  1.00  0.00     0.164 HD
BRANCH  14  17
ATOM     17  C   UNL     1       1.017   2.140  -0.402  1.00  0.00     0.259 C 
BRANCH  17  18
ATOM     18  O   UNL     1       0.649   0.878  -0.941  1.00  0.00    -0.375 OA
ATOM     19  C   UNL     1       1.129  -0.203  -0.149  1.00  0.00     0.195 C 
ENDBRANCH  17  18
ENDBRANCH  14  17
ENDBRANCH   9  13
ENDBRANCH   5   8
ENDBRANCH   3   4
ENDBRANCH   2   3
ENDBRANCH   1   2
BRANCH   1  20
ATOM     20  C   UNL     1      -4.986   2.301   5.985  1.00  0.00     0.002 C 
BRANCH  20  21
ATOM     21  C   UNL     1      -3.718   1.651   6.544  1.00  0.00     0.021 C 
BRANCH  21  22
ATOM     22  C   UNL     1      -2.822   2.582   7.355  1.00  0.00     0.116 C 
BRANCH  22  23
ATOM     23  N   UNL     1      -3.485   3.084   8.548  1.00  0.00    -0.352 N 
ATOM     24  C   UNL     1      -3.059   3.071   9.850  1.00  0.00     0.251 C 
ATOM     25  H   UNL     1      -4.368   3.493   8.398  1.00  0.00     0.163 HD
ATOM     26  O   UNL     1      -3.833   3.383  10.756  1.00  0.00    -0.269 OA
BRANCH  24  27
ATOM     27  C   UNL     1      -1.678   2.661  10.177  1.00  0.00     0.039 A 
ATOM     28  C   UNL     1      -1.468   1.787  11.246  1.00  0.00     0.014 A 
ATOM     29  C   UNL     1      -0.591   3.147   9.443  1.00  0.00     0.014 A 
ATOM     30  C   UNL     1      -0.174   1.355  11.545  1.00  0.00     0.010 A 
ATOM     31  C   UNL     1       0.689   2.664   9.699  1.00  0.00     0.010 A 
ATOM     32  C   UNL     1       0.911   1.767  10.755  1.00  0.00    -0.014 A 
BRANCH  32  33
ATOM     33  C   UNL     1       2.283   1.266  11.016  1.00  0.00     0.031 A 
ATOM     34  C   UNL     1       3.366   2.212  11.454  1.00  0.00     0.074 A 
ATOM     35  C   UNL     1       2.572  -0.030  10.791  1.00  0.00     0.049 A 
ATOM     36  N   UNL     1       4.634   1.969  11.677  1.00  0.00    -0.248 NA
ATOM     37  C   UNL     1       2.981   3.620  11.640  1.00  0.00     0.031 C 
ATOM     38  C   UNL     1       1.623  -1.040  10.317  1.00  0.00     0.029 A 
ATOM     39  N   UNL     1       3.753  -0.716  10.919  1.00  0.00    -0.354 N 
ATOM     40  C   UNL     1       5.199   3.194  12.007  1.00  0.00     0.074 A 
ATOM     41  C   UNL     1       4.148   4.184  11.913  1.00  0.00     0.031 C 
ATOM     42  C   UNL     1       2.256  -2.220  10.211  1.00  0.00     0.029 A 
ATOM     43  C   UNL     1       3.659  -2.042  10.573  1.00  0.00     0.049 A 
ATOM     44  H   UNL     1       4.589  -0.298  11.228  1.00  0.00     0.167 HD
ATOM     45  C   UNL     1       6.475   3.469  12.371  1.00  0.00     0.031 A 
ATOM     46  C   UNL     1       4.597  -3.007  10.543  1.00  0.00     0.031 A 
ATOM     47  C   UNL     1       7.518   2.484  12.476  1.00  0.00     0.049 A 
ATOM     48  C   UNL     1       6.003  -2.680  10.957  1.00  0.00     0.074 A 
ATOM     49  C   UNL     1       8.822   2.651  12.906  1.00  0.00     0.029 A 
ATOM     50  N   UNL     1       7.375   1.147  12.139  1.00  0.00    -0.354 N 
ATOM     51  N   UNL     1       6.503  -1.533  11.348  1.00  0.00    -0.248 NA
ATOM     52  C   UNL     1       6.972  -3.786  10.938  1.00  0.00     0.031 C 
ATOM     53  C   UNL     1       9.484   1.425  12.782  1.00  0.00     0.029 A 
ATOM     54  C   UNL     1       8.576   0.483  12.326  1.00  0.00     0.049 A 
ATOM     55  H   UNL     1       6.544   0.731  11.816  1.00  0.00     0.167 HD
ATOM     56  C   UNL     1       7.837  -1.782  11.642  1.00  0.00     0.074 A 
ATOM     57  C   UNL     1       8.064  -3.193  11.401  1.00  0.00     0.031 C 
ATOM     58  C   UNL     1       8.789  -0.919  12.075  1.00  0.00     0.031 A 
BRANCH  45  59
ATOM     59  C   UNL     1       6.813   4.904  12.670  1.00  0.00    -0.014 A 
ATOM     60  C   UNL     1       6.317   5.547  13.815  1.00  0.00     0.009 A 
ATOM     61  C   UNL     1       7.658   5.616  11.804  1.00  0.00     0.009 A 
ATOM     62  C   UNL     1       6.626   6.886  14.065  1.00  0.00     0.001 A 
ATOM     63  C   UNL     1       7.989   6.946  12.071  1.00  0.00     0.001 A 
ATOM     64  C   UNL     1       7.464   7.583  13.195  1.00  0.00     0.000 A 
ENDBRANCH  45  59
BRANCH  46  65
ATOM     65  C   UNL     1       4.229  -4.381  10.115  1.00  0.00    -0.014 A 
ATOM     66  C   UNL     1       4.154  -5.424  11.050  1.00  0.00     0.009 A 
ATOM     67  C   UNL     1       3.941  -4.654   8.768  1.00  0.00     0.009 A 
ATOM     68  C   UNL     1       3.819  -6.717  10.643  1.00  0.00     0.001 A 
ATOM     69  C   UNL     1       3.580  -5.942   8.368  1.00  0.00     0.001 A 
ATOM     70  C   UNL     1       3.527  -6.974   9.304  1.00  0.00     0.000 A 
ENDBRANCH  46  65
BRANCH  58  71
ATOM     71  C   UNL     1      10.156  -1.483  12.339  1.00  0.00    -0.014 A 
ATOM     72  C   UNL     1      11.005  -1.856  11.286  1.00  0.00     0.009 A 
ATOM     73  C   UNL     1      10.614  -1.605  13.660  1.00  0.00     0.009 A 
ATOM     74  C   UNL     1      12.276  -2.370  11.553  1.00  0.00     0.001 A 
ATOM     75  C   UNL     1      11.895  -2.093  13.923  1.00  0.00     0.001 A 
ATOM     76  C   UNL     1      12.721  -2.484  12.870  1.00  0.00     0.000 A 
ENDBRANCH  58  71
ENDBRANCH  32  33
ENDBRANCH  24  27
ENDBRANCH  22  23
ENDBRANCH  21  22
ENDBRANCH  20  21
ENDBRANCH   1  20
TORSDOF 16
