REMARK SMILES Cc1ccc(-c2nc(C)cc(N3CCCC[C@H]3C(=O)NCCCCCCNC(=O)c3ccc(-c4c5nc(c(-c6ccccc6)c6ccc([nH]6)c(-c6ccccc6)c6nc(c(-c7ccccc7)c7ccc4[nH]7)C=C6)C=C5)cc3)n2)cc1
REMARK SMILES IDX 23 1 22 2 21 3 20 4 18 5 19 6 17 8 12 9 13 10 14 11 16 12
REMARK SMILES IDX 15 13 11 14 6 15 7 16 78 17 8 18 9 19 10 20 5 21 1 22 2 23
REMARK SMILES IDX 3 24 80 25 4 26 79 27 24 28 25 29 26 30 27 31 28 32 29 34
REMARK SMILES IDX 30 35 31 36 77 37 32 38 76 39 33 40 34 41 35 42 70 43 36 44
REMARK SMILES IDX 75 45 69 46 71 47 37 48 74 49 68 50 67 51 38 53 60 54 45 55
REMARK SMILES IDX 59 56 46 57 49 58 58 59 72 60 47 61 48 62 57 64 73 65 50 66
REMARK SMILES IDX 39 67 40 68 44 69 41 70 43 71 42 72 61 73 62 74 66 75 63 76
REMARK SMILES IDX 65 77 64 78 51 79 52 80 56 81 53 82 55 83 54 84
REMARK H PARENT 20 7 27 33 71 52 49 63
REMARK Flexibility Score: inf
ROOT
ATOM      1  C   UNL     1     -10.044   3.984  -6.252  1.00  0.00     0.002 C 
ENDROOT
BRANCH   1   2
ATOM      2  C   UNL     1      -8.640   3.988  -5.635  1.00  0.00     0.021 C 
BRANCH   2   3
ATOM      3  C   UNL     1      -8.578   4.119  -4.111  1.00  0.00     0.116 C 
BRANCH   3   4
ATOM      4  N   UNL     1      -8.832   2.868  -3.432  1.00  0.00    -0.354 N 
ATOM      5  C   UNL     1      -8.152   2.117  -2.532  1.00  0.00     0.242 C 
ATOM      6  O   UNL     1      -8.828   1.198  -2.035  1.00  0.00    -0.273 OA
ATOM      7  H   UNL     1      -9.698   2.471  -3.680  1.00  0.00     0.163 HD
BRANCH   5   8
ATOM      8  C   UNL     1      -6.669   2.295  -2.072  1.00  0.00     0.173 C 
ATOM      9  N   UNL     1      -5.976   0.995  -2.222  1.00  0.00    -0.344 N 
ATOM     10  C   UNL     1      -5.496   0.629  -3.549  1.00  0.00     0.119 C 
ATOM     11  C   UNL     1      -4.578   1.706  -4.116  1.00  0.00     0.022 C 
ATOM     12  C   UNL     1      -5.742   3.380  -2.632  1.00  0.00     0.035 C 
ATOM     13  C   UNL     1      -5.241   3.079  -4.047  1.00  0.00     0.004 C 
BRANCH   9  14
ATOM     14  C   UNL     1      -5.288   0.505  -1.123  1.00  0.00     0.133 A 
ATOM     15  C   UNL     1      -3.325  -0.040  -0.076  1.00  0.00     0.161 A 
ATOM     16  N   UNL     1      -3.936  -0.565   1.001  1.00  0.00    -0.233 NA
ATOM     17  N   UNL     1      -3.947   0.489  -1.145  1.00  0.00    -0.211 NA
ATOM     18  C   UNL     1      -5.281  -0.522   1.005  1.00  0.00     0.043 A 
ATOM     19  C   UNL     1      -5.971  -1.120   2.191  1.00  0.00     0.067 C 
ATOM     20  C   UNL     1      -6.000   0.020  -0.041  1.00  0.00     0.070 A 
BRANCH  15  21
ATOM     21  C   UNL     1      -1.862  -0.026  -0.074  1.00  0.00     0.019 A 
ATOM     22  C   UNL     1       2.469   0.003  -0.015  1.00  0.00     0.044 C 
ATOM     23  C   UNL     1       0.969   0.003  -0.031  1.00  0.00    -0.051 A 
ATOM     24  C   UNL     1       0.269  -1.205   0.065  1.00  0.00     0.004 A 
ATOM     25  C   UNL     1       0.250   1.196  -0.160  1.00  0.00     0.004 A 
ATOM     26  C   UNL     1      -1.129  -1.216   0.054  1.00  0.00     0.012 A 
ATOM     27  C   UNL     1      -1.149   1.179  -0.188  1.00  0.00     0.012 A 
ENDBRANCH  15  21
ENDBRANCH   9  14
ENDBRANCH   5   8
ENDBRANCH   3   4
ENDBRANCH   2   3
ENDBRANCH   1   2
BRANCH   1  28
ATOM     28  C   UNL     1     -10.992   5.129  -5.852  1.00  0.00     0.002 C 
BRANCH  28  29
ATOM     29  C   UNL     1     -10.396   6.539  -5.824  1.00  0.00     0.021 C 
BRANCH  29  30
ATOM     30  C   UNL     1     -10.014   7.090  -7.190  1.00  0.00     0.116 C 
BRANCH  30  31
ATOM     31  N   UNL     1     -10.988   8.017  -7.758  1.00  0.00    -0.352 N 
ATOM     32  C   UNL     1     -11.009   8.584  -9.024  1.00  0.00     0.251 C 
ATOM     33  H   UNL     1     -11.729   8.274  -7.162  1.00  0.00     0.163 HD
ATOM     34  O   UNL     1     -11.901   9.339  -9.358  1.00  0.00    -0.269 OA
BRANCH  32  35
ATOM     35  C   UNL     1      -9.990   8.144 -10.009  1.00  0.00     0.039 A 
ATOM     36  C   UNL     1     -10.443   7.668 -11.243  1.00  0.00     0.014 A 
ATOM     37  C   UNL     1      -8.661   7.978  -9.629  1.00  0.00     0.014 A 
ATOM     38  C   UNL     1      -9.636   6.798 -11.970  1.00  0.00     0.010 A 
ATOM     39  C   UNL     1      -7.894   7.044 -10.297  1.00  0.00     0.010 A 
ATOM     40  C   UNL     1      -8.412   6.404 -11.425  1.00  0.00    -0.014 A 
BRANCH  40  41
ATOM     41  C   UNL     1      -7.652   5.272 -11.934  1.00  0.00     0.031 A 
ATOM     42  C   UNL     1      -6.552   5.501 -12.886  1.00  0.00     0.074 A 
ATOM     43  C   UNL     1      -7.961   4.011 -11.559  1.00  0.00     0.049 A 
ATOM     44  N   UNL     1      -6.240   4.691 -13.841  1.00  0.00    -0.248 NA
ATOM     45  C   UNL     1      -5.740   6.711 -12.854  1.00  0.00     0.031 C 
ATOM     46  C   UNL     1      -7.213   2.794 -11.861  1.00  0.00     0.029 A 
ATOM     47  N   UNL     1      -9.161   3.545 -11.023  1.00  0.00    -0.354 N 
ATOM     48  C   UNL     1      -5.030   5.109 -14.341  1.00  0.00     0.074 A 
ATOM     49  C   UNL     1      -4.808   6.417 -13.765  1.00  0.00     0.031 C 
ATOM     50  C   UNL     1      -8.062   1.753 -11.825  1.00  0.00     0.029 A 
ATOM     51  C   UNL     1      -9.395   2.288 -11.606  1.00  0.00     0.049 A 
ATOM     52  H   UNL     1      -9.732   4.005 -10.366  1.00  0.00     0.167 HD
ATOM     53  C   UNL     1      -4.256   4.249 -15.059  1.00  0.00     0.031 A 
ATOM     54  C   UNL     1     -10.508   1.991 -12.338  1.00  0.00     0.031 A 
ATOM     55  C   UNL     1      -4.891   2.946 -15.224  1.00  0.00     0.049 A 
ATOM     56  C   UNL     1     -10.180   1.552 -13.749  1.00  0.00     0.074 A 
ATOM     57  C   UNL     1      -4.752   1.746 -14.545  1.00  0.00     0.029 A 
ATOM     58  N   UNL     1      -6.046   2.837 -15.988  1.00  0.00    -0.354 N 
ATOM     59  N   UNL     1      -9.011   1.719 -14.301  1.00  0.00    -0.248 NA
ATOM     60  C   UNL     1     -11.144   0.951 -14.670  1.00  0.00     0.031 C 
ATOM     61  C   UNL     1      -5.880   0.940 -14.844  1.00  0.00     0.029 A 
ATOM     62  C   UNL     1      -6.683   1.639 -15.727  1.00  0.00     0.049 A 
ATOM     63  H   UNL     1      -6.365   3.517 -16.624  1.00  0.00     0.167 HD
ATOM     64  C   UNL     1      -9.037   1.260 -15.591  1.00  0.00     0.074 A 
ATOM     65  C   UNL     1     -10.396   0.788 -15.778  1.00  0.00     0.031 C 
ATOM     66  C   UNL     1      -7.935   1.313 -16.393  1.00  0.00     0.031 A 
BRANCH  53  67
ATOM     67  C   UNL     1      -2.793   4.506 -15.314  1.00  0.00    -0.014 A 
ATOM     68  C   UNL     1      -1.888   3.430 -15.327  1.00  0.00     0.009 A 
ATOM     69  C   UNL     1      -2.242   5.786 -15.493  1.00  0.00     0.009 A 
ATOM     70  C   UNL     1      -0.503   3.628 -15.402  1.00  0.00     0.001 A 
ATOM     71  C   UNL     1      -0.856   5.995 -15.524  1.00  0.00     0.001 A 
ATOM     72  C   UNL     1       0.014   4.915 -15.466  1.00  0.00     0.000 A 
ENDBRANCH  53  67
BRANCH  54  73
ATOM     73  C   UNL     1     -11.709   2.772 -11.937  1.00  0.00    -0.014 A 
ATOM     74  C   UNL     1     -12.241   2.528 -10.653  1.00  0.00     0.009 A 
ATOM     75  C   UNL     1     -12.021   3.980 -12.575  1.00  0.00     0.009 A 
ATOM     76  C   UNL     1     -12.934   3.527  -9.966  1.00  0.00     0.001 A 
ATOM     77  C   UNL     1     -12.732   4.971 -11.886  1.00  0.00     0.001 A 
ATOM     78  C   UNL     1     -13.145   4.763 -10.569  1.00  0.00     0.000 A 
ENDBRANCH  54  73
BRANCH  66  79
ATOM     79  C   UNL     1      -7.888   0.993 -17.864  1.00  0.00    -0.014 A 
ATOM     80  C   UNL     1      -8.976   1.127 -18.734  1.00  0.00     0.009 A 
ATOM     81  C   UNL     1      -6.641   0.669 -18.445  1.00  0.00     0.009 A 
ATOM     82  C   UNL     1      -8.831   0.910 -20.112  1.00  0.00     0.001 A 
ATOM     83  C   UNL     1      -6.484   0.493 -19.821  1.00  0.00     0.001 A 
ATOM     84  C   UNL     1      -7.586   0.603 -20.655  1.00  0.00     0.000 A 
ENDBRANCH  66  79
ENDBRANCH  40  41
ENDBRANCH  32  35
ENDBRANCH  30  31
ENDBRANCH  29  30
ENDBRANCH  28  29
ENDBRANCH   1  28
TORSDOF 15
