REMARK SMILES Cn1cc2cc(C(=O)NCCCCCCNC(=O)c3ccc(-c4c5nc(c(-c6ccccc6)c6ccc([nH]6)c(-c6ccccc6)c6nc(c(-c7ccccc7)c7ccc4[nH]7)C=C6)C=C5)cc3)ccc2n1
REMARK SMILES IDX 13 1 12 2 11 3 10 4 9 5 7 6 8 7 6 9 1 10 2 11 3 12 70 13
REMARK SMILES IDX 4 14 69 15 5 16 68 17 67 18 14 19 15 20 16 21 17 22 18 24
REMARK SMILES IDX 19 25 20 26 66 27 21 28 65 29 22 30 23 31 24 32 59 33 25 34
REMARK SMILES IDX 64 35 58 36 60 37 26 38 63 39 57 40 56 41 27 43 49 44 34 45
REMARK SMILES IDX 48 46 35 47 38 48 47 49 61 50 36 51 37 52 46 54 62 55 39 56
REMARK SMILES IDX 28 57 29 58 33 59 30 60 32 61 31 62 50 63 51 64 55 65 52 66
REMARK SMILES IDX 54 67 53 68 40 69 41 70 45 71 42 72 44 73 43 74
REMARK H PARENT 9 8 16 23 60 42 38 53
REMARK Flexibility Score: inf
ROOT
ATOM      1  C   UNL     1       8.263   1.424   0.149  1.00  0.00     0.002 C 
ENDROOT
BRANCH   1   2
ATOM      2  C   UNL     1       7.294   0.895   1.215  1.00  0.00     0.002 C 
BRANCH   2   3
ATOM      3  C   UNL     1       5.825   1.293   1.004  1.00  0.00     0.021 C 
BRANCH   3   4
ATOM      4  C   UNL     1       5.231   0.728  -0.290  1.00  0.00     0.116 C 
BRANCH   4   5
ATOM      5  N   UNL     1       4.809  -0.640  -0.080  1.00  0.00    -0.352 N 
ATOM      6  C   UNL     1       3.600  -1.236   0.156  1.00  0.00     0.251 C 
ATOM      7  O   UNL     1       3.618  -2.457   0.328  1.00  0.00    -0.269 OA
ATOM      8  H   UNL     1       5.554  -1.283  -0.114  1.00  0.00     0.163 HD
BRANCH   6   9
ATOM      9  C   UNL     1       2.281  -0.526   0.168  1.00  0.00     0.040 A 
ATOM     10  C   UNL     1      -3.582  -0.239  -0.024  1.00  0.00     0.173 C 
ATOM     11  N   UNL     1      -2.140  -0.177  -0.030  1.00  0.00    -0.275 N 
ATOM     12  C   UNL     1      -1.283  -1.233  -0.150  1.00  0.00     0.117 A 
ATOM     13  N   UNL     1      -1.534   1.019   0.130  1.00  0.00    -0.173 NA
ATOM     14  C   UNL     1      -0.040  -0.678  -0.029  1.00  0.00     0.021 A 
ATOM     15  C   UNL     1      -0.223   0.732   0.172  1.00  0.00     0.092 A 
ATOM     16  C   UNL     1       1.162  -1.373  -0.057  1.00  0.00     0.025 A 
ATOM     17  C   UNL     1       0.881   1.566   0.394  1.00  0.00     0.032 A 
ATOM     18  C   UNL     1       2.123   0.877   0.427  1.00  0.00     0.016 A 
ENDBRANCH   6   9
ENDBRANCH   4   5
ENDBRANCH   3   4
ENDBRANCH   2   3
ENDBRANCH   1   2
BRANCH   1  19
ATOM     19  C   UNL     1       8.214   2.938  -0.070  1.00  0.00     0.021 C 
BRANCH  19  20
ATOM     20  C   UNL     1       8.590   3.756   1.160  1.00  0.00     0.116 C 
BRANCH  20  21
ATOM     21  N   UNL     1       9.982   3.554   1.532  1.00  0.00    -0.352 N 
ATOM     22  C   UNL     1      10.986   4.479   1.667  1.00  0.00     0.251 C 
ATOM     23  H   UNL     1      10.239   2.622   1.713  1.00  0.00     0.163 HD
ATOM     24  O   UNL     1      12.155   4.119   1.752  1.00  0.00    -0.269 OA
BRANCH  22  25
ATOM     25  C   UNL     1      10.652   5.918   1.700  1.00  0.00     0.039 A 
ATOM     26  C   UNL     1      11.428   6.812   0.958  1.00  0.00     0.014 A 
ATOM     27  C   UNL     1       9.584   6.382   2.472  1.00  0.00     0.014 A 
ATOM     28  C   UNL     1      11.098   8.168   0.950  1.00  0.00     0.010 A 
ATOM     29  C   UNL     1       9.212   7.720   2.404  1.00  0.00     0.010 A 
ATOM     30  C   UNL     1       9.970   8.628   1.649  1.00  0.00    -0.014 A 
BRANCH  30  31
ATOM     31  C   UNL     1       9.567  10.055   1.607  1.00  0.00     0.031 A 
ATOM     32  C   UNL     1       9.583  10.881   2.864  1.00  0.00     0.074 A 
ATOM     33  C   UNL     1       9.127  10.589   0.452  1.00  0.00     0.049 A 
ATOM     34  N   UNL     1       9.211  12.124   3.039  1.00  0.00    -0.248 NA
ATOM     35  C   UNL     1      10.053  10.215   4.090  1.00  0.00     0.031 C 
ATOM     36  C   UNL     1       9.028   9.882  -0.826  1.00  0.00     0.029 A 
ATOM     37  N   UNL     1       8.672  11.852   0.169  1.00  0.00    -0.354 N 
ATOM     38  C   UNL     1       9.386  12.382   4.393  1.00  0.00     0.074 A 
ATOM     39  C   UNL     1       9.846  11.153   5.002  1.00  0.00     0.031 C 
ATOM     40  C   UNL     1       8.570  10.729  -1.762  1.00  0.00     0.029 A 
ATOM     41  C   UNL     1       8.303  12.023  -1.143  1.00  0.00     0.049 A 
ATOM     42  H   UNL     1       8.615  12.569   0.842  1.00  0.00     0.167 HD
ATOM     43  C   UNL     1       9.199  13.542   5.066  1.00  0.00     0.031 A 
ATOM     44  C   UNL     1       7.799  13.099  -1.776  1.00  0.00     0.031 A 
ATOM     45  C   UNL     1       8.748  14.765   4.457  1.00  0.00     0.049 A 
ATOM     46  C   UNL     1       7.583  14.370  -1.003  1.00  0.00     0.074 A 
ATOM     47  C   UNL     1       8.580  16.008   5.042  1.00  0.00     0.029 A 
ATOM     48  N   UNL     1       8.391  14.896   3.125  1.00  0.00    -0.354 N 
ATOM     49  N   UNL     1       7.818  14.617   0.263  1.00  0.00    -0.248 NA
ATOM     50  C   UNL     1       7.044  15.514  -1.751  1.00  0.00     0.031 C 
ATOM     51  C   UNL     1       8.068  16.878   4.075  1.00  0.00     0.029 A 
ATOM     52  C   UNL     1       7.977  16.194   2.874  1.00  0.00     0.049 A 
ATOM     53  H   UNL     1       8.425  14.175   2.456  1.00  0.00     0.167 HD
ATOM     54  C   UNL     1       7.486  15.952   0.456  1.00  0.00     0.074 A 
ATOM     55  C   UNL     1       7.046  16.464  -0.826  1.00  0.00     0.031 C 
ATOM     56  C   UNL     1       7.543  16.688   1.592  1.00  0.00     0.031 A 
BRANCH  43  57
ATOM     57  C   UNL     1       9.474  13.536   6.545  1.00  0.00    -0.014 A 
ATOM     58  C   UNL     1      10.780  13.408   7.044  1.00  0.00     0.009 A 
ATOM     59  C   UNL     1       8.415  13.692   7.453  1.00  0.00     0.009 A 
ATOM     60  C   UNL     1      11.015  13.394   8.421  1.00  0.00     0.001 A 
ATOM     61  C   UNL     1       8.656  13.710   8.828  1.00  0.00     0.001 A 
ATOM     62  C   UNL     1       9.954  13.550   9.311  1.00  0.00     0.000 A 
ENDBRANCH  43  57
BRANCH  44  63
ATOM     63  C   UNL     1       7.480  13.027  -3.226  1.00  0.00    -0.014 A 
ATOM     64  C   UNL     1       8.255  13.729  -4.161  1.00  0.00     0.009 A 
ATOM     65  C   UNL     1       6.398  12.258  -3.683  1.00  0.00     0.009 A 
ATOM     66  C   UNL     1       7.938  13.684  -5.521  1.00  0.00     0.001 A 
ATOM     67  C   UNL     1       6.101  12.190  -5.046  1.00  0.00     0.001 A 
ATOM     68  C   UNL     1       6.865  12.911  -5.962  1.00  0.00     0.000 A 
ENDBRANCH  44  63
BRANCH  56  69
ATOM     69  C   UNL     1       7.161  18.138   1.493  1.00  0.00    -0.014 A 
ATOM     70  C   UNL     1       5.825  18.533   1.318  1.00  0.00     0.009 A 
ATOM     71  C   UNL     1       8.151  19.125   1.624  1.00  0.00     0.009 A 
ATOM     72  C   UNL     1       5.495  19.887   1.244  1.00  0.00     0.001 A 
ATOM     73  C   UNL     1       7.813  20.478   1.581  1.00  0.00     0.001 A 
ATOM     74  C   UNL     1       6.487  20.858   1.381  1.00  0.00     0.000 A 
ENDBRANCH  56  69
ENDBRANCH  30  31
ENDBRANCH  22  25
ENDBRANCH  20  21
ENDBRANCH  19  20
ENDBRANCH   1  19
TORSDOF 13
