REMARK SMILES Cc1c(CC(=O)NCCCCCCNC(=O)c2ccc(-c3c4nc(c(-c5ccccc5)c5ccc([nH]5)c(-c5ccccc5)c5nc(c(-c6ccccc6)c6ccc3[nH]6)C=C5)C=C4)cc2)cc(-c2ccc(S(C)(=O)=O)cc2)n1-c1cccc(F)c1
REMARK SMILES IDX 10 1 9 2 8 3 7 4 5 5 6 6 4 8 3 9 1 10 2 11 77 12 65 13 66 14
REMARK SMILES IDX 78 15 79 16 84 17 80 18 82 19 81 20 83 21 67 22 68 23 76 24
REMARK SMILES IDX 69 25 75 26 70 27 71 28 72 29 73 30 74 31 11 32 12 33 13 34
REMARK SMILES IDX 14 35 15 36 16 38 17 39 18 40 64 41 19 42 63 43 20 44 21 45
REMARK SMILES IDX 22 46 57 47 23 48 62 49 56 50 58 51 24 52 61 53 55 54 54 55
REMARK SMILES IDX 25 57 47 58 32 59 46 60 33 61 36 62 45 63 59 64 34 65 35 66
REMARK SMILES IDX 44 68 60 69 37 70 26 71 27 72 31 73 28 74 30 75 29 76 48 77
REMARK SMILES IDX 49 78 53 79 50 80 52 81 51 82 38 83 39 84 43 85 40 86 42 87
REMARK SMILES IDX 41 88
REMARK H PARENT 7 7 14 37 58 56 36 67
REMARK Flexibility Score: inf
ROOT
ATOM      1  C   UNL     1       4.494  -0.602  -3.927  1.00  0.00     0.002 C 
ENDROOT
BRANCH   1   2
ATOM      2  C   UNL     1       3.032  -0.143  -3.864  1.00  0.00     0.021 C 
BRANCH   2   3
ATOM      3  C   UNL     1       2.016  -1.224  -4.233  1.00  0.00     0.116 C 
BRANCH   3   4
ATOM      4  N   UNL     1       1.851  -2.190  -3.163  1.00  0.00    -0.356 N 
ATOM      5  C   UNL     1       0.832  -2.311  -2.261  1.00  0.00     0.224 C 
ATOM      6  O   UNL     1       0.923  -3.182  -1.392  1.00  0.00    -0.275 OA
ATOM      7  H   UNL     1       2.575  -2.851  -3.075  1.00  0.00     0.163 HD
BRANCH   5   8
ATOM      8  C   UNL     1      -0.404  -1.433  -2.369  1.00  0.00     0.137 C 
BRANCH   8   9
ATOM      9  C   UNL     1      -0.127   0.018  -2.133  1.00  0.00    -0.017 A 
ATOM     10  C   UNL     1       0.896  -0.017   0.248  1.00  0.00     0.065 C 
ATOM     11  C   UNL     1       0.471   0.622  -1.032  1.00  0.00     0.024 A 
ATOM     12  N   UNL     1       0.563   1.990  -1.275  1.00  0.00    -0.313 N 
ATOM     13  C   UNL     1      -0.464   1.051  -3.035  1.00  0.00     0.033 A 
ATOM     14  C   UNL     1       0.001   2.243  -2.524  1.00  0.00     0.053 A 
BRANCH  12  15
ATOM     15  C   UNL     1       1.152   2.970  -0.423  1.00  0.00     0.049 A 
ATOM     16  C   UNL     1       0.488   4.186  -0.187  1.00  0.00     0.027 A 
ATOM     17  C   UNL     1       2.434   2.764   0.092  1.00  0.00     0.065 A 
ATOM     18  C   UNL     1       1.113   5.197   0.545  1.00  0.00     0.005 A 
ATOM     19  C   UNL     1       3.045   3.786   0.812  1.00  0.00     0.125 A 
ATOM     20  C   UNL     1       2.400   4.998   1.040  1.00  0.00     0.039 A 
ATOM     21  F   UNL     1       4.292   3.612   1.268  1.00  0.00    -0.207 F 
ENDBRANCH  12  15
BRANCH  14  22
ATOM     22  C   UNL     1      -0.030   3.535  -3.192  1.00  0.00    -0.001 A 
ATOM     23  C   UNL     1       1.145   4.276  -3.386  1.00  0.00     0.011 A 
ATOM     24  C   UNL     1      -1.264   4.033  -3.629  1.00  0.00     0.011 A 
ATOM     25  C   UNL     1       1.069   5.545  -3.937  1.00  0.00     0.021 A 
ATOM     26  C   UNL     1      -1.346   5.294  -4.189  1.00  0.00     0.021 A 
ATOM     27  C   UNL     1      -0.184   6.045  -4.306  1.00  0.00     0.067 A 
BRANCH  27  28
ATOM     28  S   UNL     1      -0.304   7.659  -4.984  1.00  0.00     0.175 S 
ATOM     29  C   UNL     1       0.332   8.674  -3.659  1.00  0.00     0.163 C 
ATOM     30  O   UNL     1       0.614   7.610  -6.115  1.00  0.00    -0.224 OA
ATOM     31  O   UNL     1      -1.688   7.989  -5.173  1.00  0.00    -0.224 OA
ENDBRANCH  27  28
ENDBRANCH  14  22
ENDBRANCH   8   9
ENDBRANCH   5   8
ENDBRANCH   3   4
ENDBRANCH   2   3
ENDBRANCH   1   2
BRANCH   1  32
ATOM     32  C   UNL     1       5.023  -0.952  -5.324  1.00  0.00     0.002 C 
BRANCH  32  33
ATOM     33  C   UNL     1       4.716   0.045  -6.462  1.00  0.00     0.021 C 
BRANCH  33  34
ATOM     34  C   UNL     1       4.887   1.555  -6.174  1.00  0.00     0.116 C 
BRANCH  34  35
ATOM     35  N   UNL     1       6.089   2.150  -6.719  1.00  0.00    -0.352 N 
ATOM     36  C   UNL     1       6.352   3.483  -7.002  1.00  0.00     0.251 C 
ATOM     37  H   UNL     1       6.821   1.522  -6.917  1.00  0.00     0.163 HD
ATOM     38  O   UNL     1       7.478   3.766  -7.412  1.00  0.00    -0.269 OA
BRANCH  36  39
ATOM     39  C   UNL     1       5.298   4.570  -6.931  1.00  0.00     0.039 A 
ATOM     40  C   UNL     1       4.612   4.878  -8.090  1.00  0.00     0.014 A 
ATOM     41  C   UNL     1       5.126   5.482  -5.868  1.00  0.00     0.014 A 
ATOM     42  C   UNL     1       3.739   6.011  -8.147  1.00  0.00     0.010 A 
ATOM     43  C   UNL     1       4.293   6.699  -5.968  1.00  0.00     0.010 A 
ATOM     44  C   UNL     1       3.564   7.029  -7.128  1.00  0.00    -0.014 A 
BRANCH  44  45
ATOM     45  C   UNL     1       2.955   8.492  -7.656  1.00  0.00     0.031 A 
ATOM     46  C   UNL     1       3.671   8.636  -8.943  1.00  0.00     0.074 A 
ATOM     47  C   UNL     1       2.260   9.675  -7.336  1.00  0.00     0.049 A 
ATOM     48  N   UNL     1       4.970   8.643  -8.872  1.00  0.00    -0.248 NA
ATOM     49  C   UNL     1       3.125   8.345 -10.264  1.00  0.00     0.031 C 
ATOM     50  C   UNL     1       1.797  10.134  -6.021  1.00  0.00     0.029 A 
ATOM     51  N   UNL     1       1.750  10.775  -8.118  1.00  0.00    -0.354 N 
ATOM     52  C   UNL     1       5.441   8.625 -10.155  1.00  0.00     0.074 A 
ATOM     53  C   UNL     1       4.275   8.227 -10.945  1.00  0.00     0.031 C 
ATOM     54  C   UNL     1       0.903  11.165  -6.095  1.00  0.00     0.029 A 
ATOM     55  C   UNL     1       0.776  11.639  -7.468  1.00  0.00     0.049 A 
ATOM     56  H   UNL     1       2.047  10.933  -9.043  1.00  0.00     0.167 HD
ATOM     57  C   UNL     1       6.357   9.606 -10.403  1.00  0.00     0.031 A 
ATOM     58  C   UNL     1       0.028  12.729  -7.928  1.00  0.00     0.031 A 
ATOM     59  C   UNL     1       5.711  10.768 -10.958  1.00  0.00     0.049 A 
ATOM     60  C   UNL     1       0.897  13.355  -8.923  1.00  0.00     0.074 A 
ATOM     61  C   UNL     1       4.761  10.906 -11.951  1.00  0.00     0.029 A 
ATOM     62  N   UNL     1       5.620  11.888 -10.156  1.00  0.00    -0.354 N 
ATOM     63  N   UNL     1       1.901  14.097  -8.561  1.00  0.00    -0.248 NA
ATOM     64  C   UNL     1       0.648  13.278 -10.353  1.00  0.00     0.031 C 
ATOM     65  C   UNL     1       3.813  11.792 -11.403  1.00  0.00     0.029 A 
ATOM     66  C   UNL     1       4.406  12.506 -10.371  1.00  0.00     0.049 A 
ATOM     67  H   UNL     1       6.313  12.197  -9.529  1.00  0.00     0.167 HD
ATOM     68  C   UNL     1       2.705  14.016  -9.652  1.00  0.00     0.074 A 
ATOM     69  C   UNL     1       1.802  13.803 -10.772  1.00  0.00     0.031 C 
ATOM     70  C   UNL     1       3.950  13.512  -9.443  1.00  0.00     0.031 A 
BRANCH  57  71
ATOM     71  C   UNL     1       7.463   9.662  -9.370  1.00  0.00    -0.014 A 
ATOM     72  C   UNL     1       8.754   9.276  -9.738  1.00  0.00     0.009 A 
ATOM     73  C   UNL     1       7.219   9.931  -8.002  1.00  0.00     0.009 A 
ATOM     74  C   UNL     1       9.746   9.102  -8.764  1.00  0.00     0.001 A 
ATOM     75  C   UNL     1       8.192   9.711  -7.028  1.00  0.00     0.001 A 
ATOM     76  C   UNL     1       9.458   9.291  -7.411  1.00  0.00     0.000 A 
ENDBRANCH  57  71
BRANCH  58  77
ATOM     77  C   UNL     1      -1.142  13.727  -7.652  1.00  0.00    -0.014 A 
ATOM     78  C   UNL     1      -0.999  15.115  -8.007  1.00  0.00     0.009 A 
ATOM     79  C   UNL     1      -2.475  13.313  -7.515  1.00  0.00     0.009 A 
ATOM     80  C   UNL     1      -2.075  15.971  -8.329  1.00  0.00     0.001 A 
ATOM     81  C   UNL     1      -3.566  14.188  -7.805  1.00  0.00     0.001 A 
ATOM     82  C   UNL     1      -3.369  15.497  -8.248  1.00  0.00     0.000 A 
ENDBRANCH  58  77
BRANCH  70  83
ATOM     83  C   UNL     1       4.662  13.898  -8.154  1.00  0.00    -0.014 A 
ATOM     84  C   UNL     1       4.098  13.851  -6.859  1.00  0.00     0.009 A 
ATOM     85  C   UNL     1       5.966  14.399  -8.255  1.00  0.00     0.009 A 
ATOM     86  C   UNL     1       4.778  14.340  -5.735  1.00  0.00     0.001 A 
ATOM     87  C   UNL     1       6.668  14.844  -7.128  1.00  0.00     0.001 A 
ATOM     88  C   UNL     1       6.069  14.832  -5.871  1.00  0.00     0.000 A 
ENDBRANCH  70  83
ENDBRANCH  44  45
ENDBRANCH  36  39
ENDBRANCH  34  35
ENDBRANCH  33  34
ENDBRANCH  32  33
ENDBRANCH   1  32
TORSDOF 17
