REMARK SMILES CCOc1ccc(C(=O)N2CCC(C(=O)NCCCCCCNC(=O)c3ccc(-c4c5nc(c(-c6ccccc6)c6ccc([nH]6)c(-c6ccccc6)c6nc(c(-c7ccccc7)c7ccc4[nH]7)C=C6)C=C5)cc3)(c3ccccc3)CC2)cc1OC
REMARK SMILES IDX 19 1 18 2 17 3 16 4 14 5 15 6 13 8 8 9 9 10 10 11 11 12
REMARK SMILES IDX 81 13 12 14 80 15 7 16 4 17 5 18 83 19 6 20 82 21 3 22 2 23
REMARK SMILES IDX 1 24 84 25 85 26 74 27 75 28 79 29 76 30 78 31 77 32 20 33
REMARK SMILES IDX 21 34 22 35 23 36 24 37 25 39 26 40 27 41 73 42 28 43 72 44
REMARK SMILES IDX 29 45 30 46 31 47 66 48 32 49 71 50 65 51 67 52 33 53 70 54
REMARK SMILES IDX 64 55 63 56 34 58 56 59 41 60 55 61 42 62 45 63 54 64 68 65
REMARK SMILES IDX 43 66 44 67 53 69 69 70 46 71 35 72 36 73 40 74 37 75 39 76
REMARK SMILES IDX 38 77 57 78 58 79 62 80 59 81 61 82 60 83 47 84 48 85 52 86
REMARK SMILES IDX 49 87 51 88 50 89
REMARK H PARENT 16 7 23 38 67 57 45 68
REMARK Flexibility Score: inf
ROOT
ATOM      1  C   UNL     1      12.942  -3.969   3.733  1.00  0.00     0.002 C 
ENDROOT
BRANCH   1   2
ATOM      2  C   UNL     1      11.603  -3.821   3.001  1.00  0.00     0.021 C 
BRANCH   2   3
ATOM      3  C   UNL     1      10.800  -2.594   3.421  1.00  0.00     0.116 C 
BRANCH   3   4
ATOM      4  N   UNL     1      11.535  -1.373   3.132  1.00  0.00    -0.355 N 
ATOM      5  C   UNL     1      11.261  -0.272   2.374  1.00  0.00     0.230 C 
ATOM      6  O   UNL     1      12.131   0.598   2.455  1.00  0.00    -0.274 OA
ATOM      7  H   UNL     1      12.412  -1.333   3.576  1.00  0.00     0.163 HD
BRANCH   5   8
ATOM      8  C   UNL     1       9.917  -0.122   1.576  1.00  0.00     0.077 C 
ATOM      9  C   UNL     1       6.526  -2.849   1.557  1.00  0.00     0.253 C 
ATOM     10  O   UNL     1       6.854  -4.033   1.463  1.00  0.00    -0.269 OA
ATOM     11  N   UNL     1       7.505  -1.841   1.535  1.00  0.00    -0.339 N 
ATOM     12  C   UNL     1       8.370  -1.840   0.368  1.00  0.00     0.121 C 
ATOM     13  C   UNL     1       7.483  -0.643   2.362  1.00  0.00     0.121 C 
ATOM     14  C   UNL     1       9.784  -1.333   0.612  1.00  0.00     0.043 C 
ATOM     15  C   UNL     1       8.847  -0.082   2.711  1.00  0.00     0.043 C 
BRANCH   9  16
ATOM     16  C   UNL     1       5.061  -2.505   1.478  1.00  0.00     0.043 A 
ATOM     17  C   UNL     1       2.324  -1.886   1.028  1.00  0.00     0.161 A 
ATOM     18  C   UNL     1       2.775  -3.215   0.999  1.00  0.00     0.051 A 
ATOM     19  C   UNL     1       3.224  -0.876   1.348  1.00  0.00     0.161 A 
ATOM     20  C   UNL     1       4.130  -3.522   1.227  1.00  0.00     0.018 A 
ATOM     21  C   UNL     1       4.571  -1.203   1.530  1.00  0.00     0.064 A 
BRANCH  17  22
ATOM     22  O   UNL     1       0.999  -1.607   0.859  1.00  0.00    -0.490 OA
BRANCH  22  23
ATOM     23  C   UNL     1       0.498  -1.916  -0.448  1.00  0.00     0.226 C 
ATOM     24  C   UNL     1      -0.124  -0.659  -1.038  1.00  0.00     0.049 C 
ENDBRANCH  22  23
ENDBRANCH  17  22
BRANCH  19  25
ATOM     25  O   UNL     1       3.026   0.459   1.554  1.00  0.00    -0.493 OA
ATOM     26  C   UNL     1       1.809   1.059   1.165  1.00  0.00     0.278 C 
ENDBRANCH  19  25
ENDBRANCH   9  16
BRANCH   8  27
ATOM     27  C   UNL     1       9.790   1.173   0.690  1.00  0.00    -0.032 A 
ATOM     28  C   UNL     1      10.863   2.035   0.405  1.00  0.00     0.005 A 
ATOM     29  C   UNL     1       8.566   1.511   0.070  1.00  0.00     0.005 A 
ATOM     30  C   UNL     1      10.708   3.189  -0.377  1.00  0.00     0.000 A 
ATOM     31  C   UNL     1       8.406   2.655  -0.720  1.00  0.00     0.000 A 
ATOM     32  C   UNL     1       9.477   3.505  -0.934  1.00  0.00     0.000 A 
ENDBRANCH   8  27
ENDBRANCH   5   8
ENDBRANCH   3   4
ENDBRANCH   2   3
ENDBRANCH   1   2
BRANCH   1  33
ATOM     33  C   UNL     1      12.847  -3.972   5.262  1.00  0.00     0.002 C 
BRANCH  33  34
ATOM     34  C   UNL     1      11.866  -4.992   5.841  1.00  0.00     0.021 C 
BRANCH  34  35
ATOM     35  C   UNL     1      12.123  -6.428   5.402  1.00  0.00     0.116 C 
BRANCH  35  36
ATOM     36  N   UNL     1      13.413  -6.916   5.860  1.00  0.00    -0.352 N 
ATOM     37  C   UNL     1      13.702  -8.057   6.566  1.00  0.00     0.251 C 
ATOM     38  H   UNL     1      14.186  -6.350   5.633  1.00  0.00     0.163 HD
ATOM     39  O   UNL     1      14.814  -8.227   7.046  1.00  0.00    -0.269 OA
BRANCH  37  40
ATOM     40  C   UNL     1      12.645  -9.072   6.763  1.00  0.00     0.039 A 
ATOM     41  C   UNL     1      12.465  -9.621   8.034  1.00  0.00     0.014 A 
ATOM     42  C   UNL     1      11.830  -9.471   5.699  1.00  0.00     0.014 A 
ATOM     43  C   UNL     1      11.430 -10.531   8.251  1.00  0.00     0.010 A 
ATOM     44  C   UNL     1      10.750 -10.316   5.935  1.00  0.00     0.010 A 
ATOM     45  C   UNL     1      10.543 -10.860   7.212  1.00  0.00    -0.014 A 
BRANCH  45  46
ATOM     46  C   UNL     1       9.401 -11.781   7.439  1.00  0.00     0.031 A 
ATOM     47  C   UNL     1       9.336 -13.095   6.709  1.00  0.00     0.074 A 
ATOM     48  C   UNL     1       8.403 -11.418   8.269  1.00  0.00     0.049 A 
ATOM     49  N   UNL     1       8.397 -14.007   6.733  1.00  0.00    -0.248 NA
ATOM     50  C   UNL     1      10.466 -13.422   5.822  1.00  0.00     0.031 C 
ATOM     51  C   UNL     1       8.334 -10.161   9.018  1.00  0.00     0.029 A 
ATOM     52  N   UNL     1       7.251 -12.076   8.622  1.00  0.00    -0.354 N 
ATOM     53  C   UNL     1       8.822 -15.009   5.869  1.00  0.00     0.074 A 
ATOM     54  C   UNL     1      10.071 -14.568   5.288  1.00  0.00     0.031 C 
ATOM     55  C   UNL     1       7.216 -10.153   9.764  1.00  0.00     0.029 A 
ATOM     56  C   UNL     1       6.467 -11.379   9.511  1.00  0.00     0.049 A 
ATOM     57  H   UNL     1       7.010 -12.964   8.272  1.00  0.00     0.167 HD
ATOM     58  C   UNL     1       8.242 -16.203   5.603  1.00  0.00     0.031 A 
ATOM     59  C   UNL     1       5.274 -11.690  10.052  1.00  0.00     0.031 A 
ATOM     60  C   UNL     1       7.000 -16.644   6.178  1.00  0.00     0.049 A 
ATOM     61  C   UNL     1       4.624 -12.998   9.688  1.00  0.00     0.074 A 
ATOM     62  C   UNL     1       6.339 -17.845   5.984  1.00  0.00     0.029 A 
ATOM     63  N   UNL     1       6.232 -15.903   7.062  1.00  0.00    -0.354 N 
ATOM     64  N   UNL     1       5.067 -13.956   8.911  1.00  0.00    -0.248 NA
ATOM     65  C   UNL     1       3.311 -13.272  10.290  1.00  0.00     0.031 C 
ATOM     66  C   UNL     1       5.147 -17.811   6.713  1.00  0.00     0.029 A 
ATOM     67  C   UNL     1       5.097 -16.615   7.410  1.00  0.00     0.049 A 
ATOM     68  H   UNL     1       6.460 -15.004   7.393  1.00  0.00     0.167 HD
ATOM     69  C   UNL     1       4.107 -14.960   8.963  1.00  0.00     0.074 A 
ATOM     70  C   UNL     1       3.070 -14.502   9.863  1.00  0.00     0.031 C 
ATOM     71  C   UNL     1       4.084 -16.153   8.322  1.00  0.00     0.031 A 
BRANCH  58  72
ATOM     72  C   UNL     1       8.954 -17.127   4.655  1.00  0.00    -0.014 A 
ATOM     73  C   UNL     1      10.149 -17.762   5.029  1.00  0.00     0.009 A 
ATOM     74  C   UNL     1       8.396 -17.416   3.400  1.00  0.00     0.009 A 
ATOM     75  C   UNL     1      10.784 -18.647   4.156  1.00  0.00     0.001 A 
ATOM     76  C   UNL     1       9.017 -18.325   2.541  1.00  0.00     0.001 A 
ATOM     77  C   UNL     1      10.214 -18.934   2.917  1.00  0.00     0.000 A 
ENDBRANCH  58  72
BRANCH  59  78
ATOM     78  C   UNL     1       4.598 -10.755  10.993  1.00  0.00    -0.014 A 
ATOM     79  C   UNL     1       4.394 -11.116  12.334  1.00  0.00     0.009 A 
ATOM     80  C   UNL     1       4.098  -9.524  10.541  1.00  0.00     0.009 A 
ATOM     81  C   UNL     1       3.659 -10.290  13.188  1.00  0.00     0.001 A 
ATOM     82  C   UNL     1       3.396  -8.682  11.407  1.00  0.00     0.001 A 
ATOM     83  C   UNL     1       3.161  -9.073  12.724  1.00  0.00     0.000 A 
ENDBRANCH  59  78
BRANCH  71  84
ATOM     84  C   UNL     1       2.933 -17.074   8.619  1.00  0.00    -0.014 A 
ATOM     85  C   UNL     1       1.634 -16.794   8.168  1.00  0.00     0.009 A 
ATOM     86  C   UNL     1       3.164 -18.260   9.334  1.00  0.00     0.009 A 
ATOM     87  C   UNL     1       0.583 -17.666   8.461  1.00  0.00     0.001 A 
ATOM     88  C   UNL     1       2.119 -19.146   9.595  1.00  0.00     0.001 A 
ATOM     89  C   UNL     1       0.828 -18.843   9.168  1.00  0.00     0.000 A 
ENDBRANCH  71  84
ENDBRANCH  45  46
ENDBRANCH  37  40
ENDBRANCH  35  36
ENDBRANCH  34  35
ENDBRANCH  33  34
ENDBRANCH   1  33
TORSDOF 18
