REMARK SMILES Cc1cccc(NC(=O)C[C@H]([NH2+]C(C)C)C(=O)NCCCCCCNC(=O)c2ccc(-c3c4nc(c(-c5ccccc5)c5ccc([nH]5)c(-c5ccccc5)c5nc(c(-c6ccccc6)c6ccc3[nH]6)C=C5)C=C4)cc2)c1
REMARK SMILES IDX 21 1 20 2 19 3 18 4 16 5 17 6 11 8 10 9 8 10 7 11 9 13 6 14
REMARK SMILES IDX 1 15 2 16 3 17 76 18 4 19 5 20 12 21 13 24 14 25 15 26 22 27
REMARK SMILES IDX 23 28 24 29 25 30 26 31 27 33 28 34 29 35 75 36 30 37 74 38
REMARK SMILES IDX 31 39 32 40 33 41 68 42 34 43 73 44 67 45 69 46 35 47 72 48
REMARK SMILES IDX 66 49 65 50 36 52 58 53 43 54 57 55 44 56 47 57 56 58 70 59
REMARK SMILES IDX 45 60 46 61 55 63 71 64 48 65 37 66 38 67 42 68 39 69 41 70
REMARK SMILES IDX 40 71 59 72 60 73 64 74 61 75 63 76 62 77 49 78 50 79 54 80
REMARK SMILES IDX 51 81 53 82 52 83
REMARK H PARENT 18 7 7 12 12 22 12 23 25 32 69 51 47 62
REMARK Flexibility Score: inf
ROOT
ATOM      1  C   UNL     1      -4.101  -3.794   3.732  1.00  0.00     0.002 C 
ENDROOT
BRANCH   1   2
ATOM      2  C   UNL     1      -3.609  -2.419   3.279  1.00  0.00     0.021 C 
BRANCH   2   3
ATOM      3  C   UNL     1      -3.215  -2.334   1.595  1.00  0.00     0.116 C 
BRANCH   3   4
ATOM      4  N   UNL     1      -4.324  -1.692  -0.038  1.00  0.00    -0.351 N 
ATOM      5  C   UNL     1      -4.583  -0.931  -1.184  1.00  0.00     0.278 C 
ATOM      6  O   UNL     1      -5.469  -1.442  -1.899  1.00  0.00    -0.268 OA
ATOM      7  H   UNL     1      -5.139  -2.240   0.035  1.00  0.00     0.163 HD
BRANCH   5   8
ATOM      8  C   UNL     1      -4.026   0.435  -1.635  1.00  0.00     0.282 C 
BRANCH   8   9
ATOM      9  C   UNL     1      -2.520   0.521  -1.999  1.00  0.00     0.175 C 
BRANCH   9  10
ATOM     10  C   UNL     1      -1.777  -0.761  -2.390  1.00  0.00     0.230 C 
ATOM     11  N   UNL     1      -1.653  -1.828  -1.543  1.00  0.00    -0.326 N 
ATOM     12  H   UNL     1      -1.019  -2.538  -1.793  1.00  0.00     0.169 HD
ATOM     13  O   UNL     1      -1.245  -0.853  -3.502  1.00  0.00    -0.274 OA
BRANCH  11  14
ATOM     14  C   UNL     1      -2.358  -1.983  -0.348  1.00  0.00     0.041 A 
ATOM     15  C   UNL     1      -5.753  -4.710   0.813  1.00  0.00     0.044 C 
ATOM     16  C   UNL     1      -4.836  -3.524   0.807  1.00  0.00    -0.049 A 
ATOM     17  C   UNL     1      -5.344  -2.012   1.675  1.00  0.00     0.003 A 
ATOM     18  C   UNL     1      -3.370  -3.489  -0.259  1.00  0.00     0.029 A 
ATOM     19  C   UNL     1      -4.287  -0.531   1.632  1.00  0.00     0.002 A 
ATOM     20  C   UNL     1      -2.792  -0.507   0.626  1.00  0.00     0.026 A 
ENDBRANCH  11  14
ENDBRANCH   9  10
ENDBRANCH   8   9
BRANCH   8  21
ATOM     21  N   UNL     1      -4.544   1.576  -0.788  1.00  0.00    -0.334 N 
ATOM     22  H   UNL     1      -4.620   2.399  -1.385  1.00  0.00     0.347 HD
ATOM     23  H   UNL     1      -3.877   1.677  -0.022  1.00  0.00     0.347 HD
BRANCH  21  24
ATOM     24  C   UNL     1      -5.862   1.357  -0.145  1.00  0.00     0.176 C 
ATOM     25  C   UNL     1      -6.015   2.297   1.060  1.00  0.00     0.075 C 
ATOM     26  C   UNL     1      -7.095   1.405  -1.036  1.00  0.00     0.075 C 
ENDBRANCH  21  24
ENDBRANCH   8  21
ENDBRANCH   5   8
ENDBRANCH   3   4
ENDBRANCH   2   3
ENDBRANCH   1   2
BRANCH   1  27
ATOM     27  C   UNL     1      -3.170  -4.947   3.357  1.00  0.00     0.002 C 
BRANCH  27  28
ATOM     28  C   UNL     1      -1.712  -4.796   3.823  1.00  0.00     0.021 C 
BRANCH  28  29
ATOM     29  C   UNL     1      -1.511  -4.801   5.333  1.00  0.00     0.116 C 
BRANCH  29  30
ATOM     30  N   UNL     1      -2.332  -5.833   5.955  1.00  0.00    -0.352 N 
ATOM     31  C   UNL     1      -2.599  -6.073   7.277  1.00  0.00     0.251 C 
ATOM     32  H   UNL     1      -2.763  -6.455   5.326  1.00  0.00     0.163 HD
ATOM     33  O   UNL     1      -2.489  -7.202   7.743  1.00  0.00    -0.269 OA
BRANCH  31  34
ATOM     34  C   UNL     1      -3.404  -5.057   7.986  1.00  0.00     0.039 A 
ATOM     35  C   UNL     1      -4.090  -5.403   9.160  1.00  0.00     0.014 A 
ATOM     36  C   UNL     1      -3.715  -3.878   7.325  1.00  0.00     0.014 A 
ATOM     37  C   UNL     1      -5.174  -4.630   9.567  1.00  0.00     0.010 A 
ATOM     38  C   UNL     1      -4.787  -3.139   7.684  1.00  0.00     0.010 A 
ATOM     39  C   UNL     1      -5.543  -3.559   8.760  1.00  0.00    -0.014 A 
BRANCH  39  40
ATOM     40  C   UNL     1      -6.639  -2.652   8.965  1.00  0.00     0.031 A 
ATOM     41  C   UNL     1      -6.381  -1.632   9.976  1.00  0.00     0.074 A 
ATOM     42  C   UNL     1      -7.608  -2.696   8.024  1.00  0.00     0.049 A 
ATOM     43  N   UNL     1      -7.231  -1.226  10.843  1.00  0.00    -0.248 NA
ATOM     44  C   UNL     1      -5.040  -1.060  10.179  1.00  0.00     0.031 C 
ATOM     45  C   UNL     1      -8.683  -1.778   7.697  1.00  0.00     0.029 A 
ATOM     46  N   UNL     1      -7.858  -3.790   7.197  1.00  0.00    -0.354 N 
ATOM     47  C   UNL     1      -6.703  -0.047  11.321  1.00  0.00     0.074 A 
ATOM     48  C   UNL     1      -5.282  -0.141  11.117  1.00  0.00     0.031 C 
ATOM     49  C   UNL     1      -9.642  -2.462   7.034  1.00  0.00     0.029 A 
ATOM     50  C   UNL     1      -9.237  -3.863   6.977  1.00  0.00     0.049 A 
ATOM     51  H   UNL     1      -7.181  -4.404   6.831  1.00  0.00     0.167 HD
ATOM     52  C   UNL     1      -7.543   1.010  11.497  1.00  0.00     0.031 A 
ATOM     53  C   UNL     1      -9.904  -4.914   7.549  1.00  0.00     0.031 A 
ATOM     54  C   UNL     1      -8.892   0.645  11.052  1.00  0.00     0.049 A 
ATOM     55  C   UNL     1     -10.678  -4.442   8.761  1.00  0.00     0.074 A 
ATOM     56  C   UNL     1      -9.581   0.920   9.881  1.00  0.00     0.029 A 
ATOM     57  N   UNL     1      -9.528  -0.443  11.636  1.00  0.00    -0.354 N 
ATOM     58  N   UNL     1     -10.355  -3.394   9.473  1.00  0.00    -0.248 NA
ATOM     59  C   UNL     1     -11.915  -5.069   9.212  1.00  0.00     0.031 C 
ATOM     60  C   UNL     1     -10.600  -0.063   9.737  1.00  0.00     0.029 A 
ATOM     61  C   UNL     1     -10.526  -0.928  10.814  1.00  0.00     0.049 A 
ATOM     62  H   UNL     1      -9.298  -0.818  12.516  1.00  0.00     0.167 HD
ATOM     63  C   UNL     1     -11.331  -3.159  10.403  1.00  0.00     0.074 A 
ATOM     64  C   UNL     1     -12.274  -4.248  10.215  1.00  0.00     0.031 C 
ATOM     65  C   UNL     1     -11.318  -2.076  11.236  1.00  0.00     0.031 A 
BRANCH  52  66
ATOM     66  C   UNL     1      -7.117   2.437  11.725  1.00  0.00    -0.014 A 
ATOM     67  C   UNL     1      -8.065   3.460  11.539  1.00  0.00     0.009 A 
ATOM     68  C   UNL     1      -5.838   2.849  12.138  1.00  0.00     0.009 A 
ATOM     69  C   UNL     1      -7.751   4.811  11.717  1.00  0.00     0.001 A 
ATOM     70  C   UNL     1      -5.510   4.203  12.301  1.00  0.00     0.001 A 
ATOM     71  C   UNL     1      -6.469   5.185  12.092  1.00  0.00     0.000 A 
ENDBRANCH  52  66
BRANCH  53  72
ATOM     72  C   UNL     1      -9.093  -6.181   7.461  1.00  0.00    -0.014 A 
ATOM     73  C   UNL     1      -8.848  -6.691   6.164  1.00  0.00     0.009 A 
ATOM     74  C   UNL     1      -8.204  -6.538   8.487  1.00  0.00     0.009 A 
ATOM     75  C   UNL     1      -7.648  -7.346   5.862  1.00  0.00     0.001 A 
ATOM     76  C   UNL     1      -7.017  -7.222   8.181  1.00  0.00     0.001 A 
ATOM     77  C   UNL     1      -6.711  -7.569   6.865  1.00  0.00     0.000 A 
ENDBRANCH  53  72
BRANCH  65  78
ATOM     78  C   UNL     1     -12.118  -1.950  12.509  1.00  0.00    -0.014 A 
ATOM     79  C   UNL     1     -12.746  -3.024  13.149  1.00  0.00     0.009 A 
ATOM     80  C   UNL     1     -12.131  -0.714  13.198  1.00  0.00     0.009 A 
ATOM     81  C   UNL     1     -13.415  -2.856  14.366  1.00  0.00     0.001 A 
ATOM     82  C   UNL     1     -12.726  -0.560  14.448  1.00  0.00     0.001 A 
ATOM     83  C   UNL     1     -13.395  -1.628  15.021  1.00  0.00     0.000 A 
ENDBRANCH  65  78
ENDBRANCH  39  40
ENDBRANCH  31  34
ENDBRANCH  29  30
ENDBRANCH  28  29
ENDBRANCH  27  28
ENDBRANCH   1  27
TORSDOF 18
