REMARK SMILES O=C(NCCCCCCNC(=O)[C@@H]1CCCC[C@@H]1C(=O)Nc1cccc(C(F)(F)F)c1)c1ccc(-c2c3nc(c(-c4ccccc4)c4ccc([nH]4)c(-c4ccccc4)c4nc(c(-c5ccccc5)c5ccc2[nH]5)C=C4)C=C3)cc1
REMARK SMILES IDX 7 1 6 2 5 3 4 4 3 5 1 6 2 7 32 9 33 10 79 11 34 12 78 13
REMARK SMILES IDX 35 14 36 15 37 16 72 17 38 18 77 19 71 20 73 21 39 22 76 23
REMARK SMILES IDX 70 24 69 25 40 27 62 28 47 29 61 30 48 31 51 32 60 33 74 34
REMARK SMILES IDX 49 35 50 36 59 38 75 39 52 40 41 41 42 42 46 43 43 44 45 45
REMARK SMILES IDX 44 46 63 47 64 48 68 49 65 50 67 51 66 52 53 53 54 54 58 55
REMARK SMILES IDX 55 56 57 57 56 58 8 59 9 60 10 61 11 62 12 64 13 65 14 66
REMARK SMILES IDX 18 67 15 68 17 69 16 70 19 71 20 72 21 73 22 75 23 76 31 77
REMARK SMILES IDX 24 78 26 79 25 80 27 81 28 82 29 83 30 84
REMARK H PARENT 3 8 73 26 51 37 10 63 21 74
REMARK Flexibility Score: inf
ROOT
ATOM      1  C   UNL     1       4.787   4.280  -1.503  1.00  0.00     0.002 C 
ENDROOT
BRANCH   1   2
ATOM      2  C   UNL     1       4.079   3.198  -2.328  1.00  0.00     0.002 C 
BRANCH   2   3
ATOM      3  C   UNL     1       4.499   1.753  -2.054  1.00  0.00     0.021 C 
BRANCH   3   4
ATOM      4  C   UNL     1       4.337   1.298  -0.614  1.00  0.00     0.116 C 
BRANCH   4   5
ATOM      5  N   UNL     1       2.944   1.117  -0.249  1.00  0.00    -0.352 N 
ATOM      6  O   UNL     1       1.083  -0.051   0.266  1.00  0.00    -0.269 OA
ATOM      7  C   UNL     1       2.304  -0.021   0.181  1.00  0.00     0.251 C 
ATOM      8  H   UNL     1       2.379   1.920  -0.321  1.00  0.00     0.163 HD
BRANCH   7   9
ATOM      9  C   UNL     1       3.098  -1.222   0.530  1.00  0.00     0.039 A 
ATOM     10  C   UNL     1       4.266  -1.107   1.288  1.00  0.00     0.014 A 
ATOM     11  C   UNL     1       2.655  -2.481   0.113  1.00  0.00     0.014 A 
ATOM     12  C   UNL     1       5.055  -2.227   1.517  1.00  0.00     0.010 A 
ATOM     13  C   UNL     1       3.402  -3.621   0.427  1.00  0.00     0.010 A 
ATOM     14  C   UNL     1       4.617  -3.501   1.118  1.00  0.00    -0.014 A 
BRANCH  14  15
ATOM     15  C   UNL     1       5.400  -4.691   1.536  1.00  0.00     0.031 A 
ATOM     16  C   UNL     1       6.080  -5.580   0.536  1.00  0.00     0.074 A 
ATOM     17  C   UNL     1       5.521  -4.937   2.856  1.00  0.00     0.049 A 
ATOM     18  N   UNL     1       6.838  -6.627   0.753  1.00  0.00    -0.248 NA
ATOM     19  C   UNL     1       5.886  -5.265  -0.888  1.00  0.00     0.031 C 
ATOM     20  C   UNL     1       4.894  -4.148   3.922  1.00  0.00     0.029 A 
ATOM     21  N   UNL     1       6.229  -5.897   3.530  1.00  0.00    -0.354 N 
ATOM     22  C   UNL     1       7.201  -7.102  -0.501  1.00  0.00     0.074 A 
ATOM     23  C   UNL     1       6.561  -6.245  -1.477  1.00  0.00     0.031 C 
ATOM     24  C   UNL     1       5.293  -4.618   5.111  1.00  0.00     0.029 A 
ATOM     25  C   UNL     1       6.144  -5.780   4.897  1.00  0.00     0.049 A 
ATOM     26  H   UNL     1       6.748  -6.602   3.080  1.00  0.00     0.167 HD
ATOM     27  C   UNL     1       7.999  -8.154  -0.808  1.00  0.00     0.031 A 
ATOM     28  C   UNL     1       6.679  -6.533   5.875  1.00  0.00     0.031 A 
ATOM     29  C   UNL     1       8.628  -9.008   0.167  1.00  0.00     0.049 A 
ATOM     30  C   UNL     1       7.529  -7.710   5.500  1.00  0.00     0.074 A 
ATOM     31  C   UNL     1       9.469 -10.088  -0.047  1.00  0.00     0.029 A 
ATOM     32  N   UNL     1       8.482  -8.884   1.540  1.00  0.00    -0.354 N 
ATOM     33  N   UNL     1       7.887  -8.123   4.309  1.00  0.00    -0.248 NA
ATOM     34  C   UNL     1       8.047  -8.524   6.606  1.00  0.00     0.031 C 
ATOM     35  C   UNL     1       9.792 -10.646   1.194  1.00  0.00     0.029 A 
ATOM     36  C   UNL     1       9.197  -9.881   2.184  1.00  0.00     0.049 A 
ATOM     37  H   UNL     1       7.948  -8.191   1.991  1.00  0.00     0.167 HD
ATOM     38  C   UNL     1       8.682  -9.239   4.522  1.00  0.00     0.074 A 
ATOM     39  C   UNL     1       8.780  -9.417   5.957  1.00  0.00     0.031 C 
ATOM     40  C   UNL     1       9.273 -10.050   3.612  1.00  0.00     0.031 A 
BRANCH  27  41
ATOM     41  C   UNL     1       8.226  -8.460  -2.263  1.00  0.00    -0.014 A 
ATOM     42  C   UNL     1       9.050  -7.647  -3.057  1.00  0.00     0.009 A 
ATOM     43  C   UNL     1       7.665  -9.616  -2.829  1.00  0.00     0.009 A 
ATOM     44  C   UNL     1       9.290  -7.975  -4.394  1.00  0.00     0.001 A 
ATOM     45  C   UNL     1       7.925  -9.954  -4.159  1.00  0.00     0.001 A 
ATOM     46  C   UNL     1       8.732  -9.130  -4.942  1.00  0.00     0.000 A 
ENDBRANCH  27  41
BRANCH  28  47
ATOM     47  C   UNL     1       6.401  -6.210   7.298  1.00  0.00    -0.014 A 
ATOM     48  C   UNL     1       7.423  -5.750   8.142  1.00  0.00     0.009 A 
ATOM     49  C   UNL     1       5.107  -6.366   7.820  1.00  0.00     0.009 A 
ATOM     50  C   UNL     1       7.159  -5.481   9.487  1.00  0.00     0.001 A 
ATOM     51  C   UNL     1       4.839  -6.063   9.156  1.00  0.00     0.001 A 
ATOM     52  C   UNL     1       5.868  -5.632   9.991  1.00  0.00     0.000 A 
ENDBRANCH  28  47
BRANCH  40  53
ATOM     53  C   UNL     1      10.092 -11.187   4.153  1.00  0.00    -0.014 A 
ATOM     54  C   UNL     1       9.481 -12.297   4.758  1.00  0.00     0.009 A 
ATOM     55  C   UNL     1      11.490 -11.149   4.051  1.00  0.00     0.009 A 
ATOM     56  C   UNL     1      10.260 -13.327   5.289  1.00  0.00     0.001 A 
ATOM     57  C   UNL     1      12.264 -12.194   4.556  1.00  0.00     0.001 A 
ATOM     58  C   UNL     1      11.650 -13.275   5.185  1.00  0.00     0.000 A 
ENDBRANCH  40  53
ENDBRANCH  14  15
ENDBRANCH   7   9
ENDBRANCH   4   5
ENDBRANCH   3   4
ENDBRANCH   2   3
ENDBRANCH   1   2
BRANCH   1  59
ATOM     59  C   UNL     1       6.310   4.161  -1.376  1.00  0.00     0.021 C 
BRANCH  59  60
ATOM     60  C   UNL     1       7.064   3.932  -2.679  1.00  0.00     0.116 C 
BRANCH  60  61
ATOM     61  N   UNL     1       7.160   5.100  -3.521  1.00  0.00    -0.356 N 
ATOM     62  C   UNL     1       8.270   5.598  -4.122  1.00  0.00     0.223 C 
ATOM     63  H   UNL     1       6.323   5.593  -3.677  1.00  0.00     0.163 HD
ATOM     64  O   UNL     1       8.125   6.058  -5.261  1.00  0.00    -0.275 OA
BRANCH  62  65
ATOM     65  C   UNL     1       9.600   5.802  -3.407  1.00  0.00     0.091 C 
ATOM     66  C   UNL     1      10.176   4.646  -2.598  1.00  0.00     0.014 C 
ATOM     67  C   UNL     1       9.677   7.166  -2.683  1.00  0.00     0.091 C 
ATOM     68  C   UNL     1      11.635   4.912  -2.252  1.00  0.00     0.001 C 
ATOM     69  C   UNL     1      11.134   7.410  -2.203  1.00  0.00     0.014 C 
ATOM     70  C   UNL     1      11.785   6.220  -1.485  1.00  0.00     0.001 C 
BRANCH  67  71
ATOM     71  C   UNL     1       8.742   7.322  -1.478  1.00  0.00     0.228 C 
ATOM     72  O   UNL     1       8.868   6.603  -0.482  1.00  0.00    -0.274 OA
ATOM     73  N   UNL     1       7.863   8.367  -1.373  1.00  0.00    -0.326 N 
ATOM     74  H   UNL     1       7.745   8.680  -0.447  1.00  0.00     0.169 HD
BRANCH  73  75
ATOM     75  C   UNL     1       7.093   9.090  -2.303  1.00  0.00     0.041 A 
ATOM     76  C   UNL     1       6.351  10.178  -1.830  1.00  0.00     0.026 A 
ATOM     77  C   UNL     1       6.894   8.692  -3.619  1.00  0.00     0.039 A 
ATOM     78  C   UNL     1       5.431  10.836  -2.656  1.00  0.00     0.003 A 
ATOM     79  C   UNL     1       5.924   9.289  -4.443  1.00  0.00     0.058 A 
ATOM     80  C   UNL     1       5.206  10.383  -3.955  1.00  0.00     0.013 A 
BRANCH  79  81
ATOM     81  C   UNL     1       5.641   8.688  -5.800  1.00  0.00     0.416 C 
ATOM     82  F   UNL     1       4.540   9.220  -6.404  1.00  0.00    -0.166 F 
ATOM     83  F   UNL     1       6.666   8.853  -6.677  1.00  0.00    -0.166 F 
ATOM     84  F   UNL     1       5.402   7.347  -5.728  1.00  0.00    -0.166 F 
ENDBRANCH  79  81
ENDBRANCH  73  75
ENDBRANCH  67  71
ENDBRANCH  62  65
ENDBRANCH  60  61
ENDBRANCH  59  60
ENDBRANCH   1  59
TORSDOF 16
