REMARK SMILES C=C[C@@H]1[C@@H](O)C[C@@H]2[C@@]3(CC[C@@]4(C)[C@@H]([C@H](C)CCC=C(C)C)CC[C@@]24C)C[C@@]13CCC(=O)NCCCCCCNC(=O)c1ccc(-c2c3nc(c(-c4ccccc4)c4ccc([nH]4)c(-c4ccccc4)c4nc(c(-c5ccccc5)c5ccc2[nH]5)C=C4)C=C3)cc1
REMARK SMILES IDX 33 1 32 2 30 3 31 4 29 6 28 7 27 8 3 9 4 10 6 11 8 12 26 13
REMARK SMILES IDX 7 14 9 15 24 16 10 17 11 18 23 19 25 20 12 21 13 22 22 23
REMARK SMILES IDX 2 24 1 25 5 26 14 28 15 29 16 30 17 31 18 32 19 33 20 34
REMARK SMILES IDX 21 35 34 36 35 37 36 38 37 39 38 40 39 41 40 42 41 44 42 45
REMARK SMILES IDX 43 46 89 47 44 48 88 49 45 50 46 51 47 52 82 53 48 54 87 55
REMARK SMILES IDX 81 56 83 57 49 58 86 59 80 60 79 61 50 63 72 64 57 65 71 66
REMARK SMILES IDX 58 67 61 68 70 69 84 70 59 71 60 72 69 74 85 75 62 76 51 77
REMARK SMILES IDX 52 78 56 79 53 80 55 81 54 82 73 83 74 84 78 85 75 86 77 87
REMARK SMILES IDX 76 88 63 89 64 90 68 91 65 92 67 93 66 94
REMARK H PARENT 32 5 5 27 39 43 83 62 61 73
REMARK Flexibility Score: inf
ROOT
ATOM      1  C   UNL     1      -2.021  -1.738   4.780  1.00  0.00     0.116 C 
ENDROOT
BRANCH   1   2
ATOM      2  N   UNL     1      -0.893  -2.780   4.704  1.00  0.00    -0.356 N 
ATOM      3  C   UNL     1      -1.084  -4.064   5.197  1.00  0.00     0.220 C 
ATOM      4  O   UNL     1      -1.458  -4.941   4.413  1.00  0.00    -0.275 OA
ATOM      5  H   UNL     1      -0.028  -2.534   4.302  1.00  0.00     0.163 HD
BRANCH   3   6
ATOM      6  C   UNL     1      -0.845  -4.443   6.650  1.00  0.00     0.100 C 
BRANCH   6   7
ATOM      7  C   UNL     1      -0.828  -3.461   7.814  1.00  0.00     0.018 C 
BRANCH   7   8
ATOM      8  C   UNL     1      -2.063  -2.591   7.942  1.00  0.00    -0.014 C 
ATOM      9  C   UNL     1      -3.366  -3.245   8.543  1.00  0.00     0.047 C 
ATOM     10  C   UNL     1      -4.717  -2.910   7.825  1.00  0.00     0.122 C 
ATOM     11  C   UNL     1      -4.829  -1.530   7.154  1.00  0.00     0.037 C 
ATOM     12  C   UNL     1      -2.076  -1.418   6.947  1.00  0.00    -0.019 C 
ATOM     13  C   UNL     1      -1.928  -1.160   8.421  1.00  0.00     0.016 C 
ATOM     14  C   UNL     1      -3.769  -1.472   6.039  1.00  0.00     0.005 C 
ATOM     15  C   UNL     1      -0.453  -0.900   6.071  1.00  0.00     0.008 C 
ATOM     16  C   UNL     1      -3.897  -0.567   4.321  1.00  0.00    -0.023 C 
ATOM     17  C   UNL     1      -0.524  -0.334   4.223  1.00  0.00     0.008 C 
ATOM     18  C   UNL     1      -2.205  -0.212   3.274  1.00  0.00    -0.024 C 
ATOM     19  C   UNL     1      -4.673  -1.393   3.237  1.00  0.00     0.008 C 
ATOM     20  C   UNL     1      -5.024   0.318   5.000  1.00  0.00     0.012 C 
ATOM     21  C   UNL     1      -1.756   1.049   2.381  1.00  0.00     0.012 C 
ATOM     22  C   UNL     1      -2.431  -1.213   1.969  1.00  0.00    -0.002 C 
ATOM     23  C   UNL     1      -3.981  -1.269   1.871  1.00  0.00     0.005 C 
BRANCH   9  24
ATOM     24  C   UNL     1      -3.248  -4.725   8.903  1.00  0.00    -0.028 C 
ATOM     25  C   UNL     1      -3.854  -5.775   8.329  1.00  0.00     0.004 C 
ENDBRANCH   9  24
BRANCH  10  26
ATOM     26  O   UNL     1      -5.816  -3.012   8.745  1.00  0.00    -0.392 OA
ATOM     27  H   UNL     1      -5.730  -2.330   9.429  1.00  0.00     0.210 HD
ENDBRANCH  10  26
BRANCH  22  28
ATOM     28  C   UNL     1      -1.651  -2.537   1.535  1.00  0.00    -0.010 C 
ATOM     29  C   UNL     1      -2.368  -3.852   1.835  1.00  0.00     0.008 C 
BRANCH  28  30
ATOM     30  C   UNL     1      -0.075  -2.547   1.394  1.00  0.00     0.008 C 
BRANCH  30  31
ATOM     31  C   UNL     1       0.995  -3.300   2.256  1.00  0.00     0.027 C 
BRANCH  31  32
ATOM     32  C   UNL     1       0.949  -4.802   2.403  1.00  0.00    -0.028 C 
ATOM     33  C   UNL     1       1.524  -5.555   3.372  1.00  0.00    -0.080 C 
ATOM     34  C   UNL     1       1.451  -7.064   3.336  1.00  0.00     0.039 C 
ATOM     35  C   UNL     1       2.296  -5.041   4.560  1.00  0.00     0.039 C 
ENDBRANCH  31  32
ENDBRANCH  30  31
ENDBRANCH  28  30
ENDBRANCH  22  28
ENDBRANCH   7   8
ENDBRANCH   6   7
ENDBRANCH   3   6
ENDBRANCH   1   2
BRANCH   1  36
ATOM     36  C   UNL     1      -2.273   0.247   5.415  1.00  0.00     0.021 C 
BRANCH  36  37
ATOM     37  C   UNL     1      -2.857   1.874   4.792  1.00  0.00     0.002 C 
BRANCH  37  38
ATOM     38  C   UNL     1      -3.811   2.373   3.541  1.00  0.00     0.002 C 
BRANCH  38  39
ATOM     39  C   UNL     1      -5.259   2.963   3.634  1.00  0.00     0.021 C 
BRANCH  39  40
ATOM     40  C   UNL     1      -5.533   3.846   4.830  1.00  0.00     0.116 C 
BRANCH  40  41
ATOM     41  N   UNL     1      -5.591   5.223   4.388  1.00  0.00    -0.352 N 
ATOM     42  C   UNL     1      -6.577   6.109   4.705  1.00  0.00     0.251 C 
ATOM     43  H   UNL     1      -4.860   5.546   3.812  1.00  0.00     0.163 HD
ATOM     44  O   UNL     1      -6.800   7.107   4.008  1.00  0.00    -0.269 OA
BRANCH  42  45
ATOM     45  C   UNL     1      -7.358   5.851   5.925  1.00  0.00     0.039 A 
ATOM     46  C   UNL     1      -8.752   5.838   5.884  1.00  0.00     0.014 A 
ATOM     47  C   UNL     1      -6.666   5.589   7.113  1.00  0.00     0.014 A 
ATOM     48  C   UNL     1      -9.462   5.590   7.058  1.00  0.00     0.010 A 
ATOM     49  C   UNL     1      -7.374   5.275   8.262  1.00  0.00     0.010 A 
ATOM     50  C   UNL     1      -8.776   5.327   8.255  1.00  0.00    -0.014 A 
BRANCH  50  51
ATOM     51  C   UNL     1      -9.492   5.247   9.549  1.00  0.00     0.031 A 
ATOM     52  C   UNL     1      -9.246   6.322  10.575  1.00  0.00     0.074 A 
ATOM     53  C   UNL     1     -10.303   4.208   9.819  1.00  0.00     0.049 A 
ATOM     54  N   UNL     1      -9.691   6.416  11.801  1.00  0.00    -0.248 NA
ATOM     55  C   UNL     1      -8.334   7.414  10.185  1.00  0.00     0.031 C 
ATOM     56  C   UNL     1     -10.573   3.083   8.921  1.00  0.00     0.029 A 
ATOM     57  N   UNL     1     -11.045   3.930  10.937  1.00  0.00    -0.354 N 
ATOM     58  C   UNL     1      -9.079   7.545  12.334  1.00  0.00     0.074 A 
ATOM     59  C   UNL     1      -8.186   8.066  11.326  1.00  0.00     0.031 C 
ATOM     60  C   UNL     1     -11.445   2.250   9.515  1.00  0.00     0.029 A 
ATOM     61  C   UNL     1     -11.773   2.769  10.840  1.00  0.00     0.049 A 
ATOM     62  H   UNL     1     -11.056   4.507  11.734  1.00  0.00     0.167 HD
ATOM     63  C   UNL     1      -9.270   8.120  13.544  1.00  0.00     0.031 A 
ATOM     64  C   UNL     1     -12.613   2.200  11.724  1.00  0.00     0.031 A 
ATOM     65  C   UNL     1     -10.211   7.634  14.512  1.00  0.00     0.049 A 
ATOM     66  C   UNL     1     -12.857   2.890  13.039  1.00  0.00     0.074 A 
ATOM     67  C   UNL     1     -10.559   8.185  15.731  1.00  0.00     0.029 A 
ATOM     68  N   UNL     1     -10.970   6.484  14.354  1.00  0.00    -0.354 N 
ATOM     69  N   UNL     1     -12.332   4.001  13.499  1.00  0.00    -0.248 NA
ATOM     70  C   UNL     1     -13.822   2.258  13.948  1.00  0.00     0.031 C 
ATOM     71  C   UNL     1     -11.506   7.346  16.328  1.00  0.00     0.029 A 
ATOM     72  C   UNL     1     -11.777   6.299  15.460  1.00  0.00     0.049 A 
ATOM     73  H   UNL     1     -10.938   5.889  13.570  1.00  0.00     0.167 HD
ATOM     74  C   UNL     1     -12.919   4.213  14.739  1.00  0.00     0.074 A 
ATOM     75  C   UNL     1     -13.856   3.128  14.949  1.00  0.00     0.031 C 
ATOM     76  C   UNL     1     -12.704   5.211  15.631  1.00  0.00     0.031 A 
BRANCH  63  77
ATOM     77  C   UNL     1      -8.452   9.338  13.870  1.00  0.00    -0.014 A 
ATOM     78  C   UNL     1      -8.660  10.558  13.204  1.00  0.00     0.009 A 
ATOM     79  C   UNL     1      -7.460   9.268  14.860  1.00  0.00     0.009 A 
ATOM     80  C   UNL     1      -7.861  11.667  13.489  1.00  0.00     0.001 A 
ATOM     81  C   UNL     1      -6.684  10.388  15.166  1.00  0.00     0.001 A 
ATOM     82  C   UNL     1      -6.876  11.582  14.472  1.00  0.00     0.000 A 
ENDBRANCH  63  77
BRANCH  64  83
ATOM     83  C   UNL     1     -13.310   0.930  11.387  1.00  0.00    -0.014 A 
ATOM     84  C   UNL     1     -14.692   0.921  11.137  1.00  0.00     0.009 A 
ATOM     85  C   UNL     1     -12.604  -0.281  11.325  1.00  0.00     0.009 A 
ATOM     86  C   UNL     1     -15.356  -0.278  10.866  1.00  0.00     0.001 A 
ATOM     87  C   UNL     1     -13.267  -1.474  11.026  1.00  0.00     0.001 A 
ATOM     88  C   UNL     1     -14.643  -1.473  10.808  1.00  0.00     0.000 A 
ENDBRANCH  64  83
BRANCH  76  89
ATOM     89  C   UNL     1     -13.512   5.187  16.895  1.00  0.00    -0.014 A 
ATOM     90  C   UNL     1     -13.232   4.266  17.915  1.00  0.00     0.009 A 
ATOM     91  C   UNL     1     -14.524   6.140  17.090  1.00  0.00     0.009 A 
ATOM     92  C   UNL     1     -13.971   4.282  19.098  1.00  0.00     0.001 A 
ATOM     93  C   UNL     1     -15.241   6.171  18.286  1.00  0.00     0.001 A 
ATOM     94  C   UNL     1     -14.970   5.237  19.285  1.00  0.00     0.000 A 
ENDBRANCH  76  89
ENDBRANCH  50  51
ENDBRANCH  42  45
ENDBRANCH  40  41
ENDBRANCH  39  40
ENDBRANCH  38  39
ENDBRANCH  37  38
ENDBRANCH  36  37
ENDBRANCH   1  36
TORSDOF 21
