REMARK SMILES O=C(NCCCCCCNC(=O)c1ccc(N2C(=O)[C@@H]3N=NC(c4ccccc4)=C3[C@H]2c2cccc(Br)c2)cc1)c1ccc(-c2c3nc(c(-c4ccccc4)c4ccc([nH]4)c(-c4ccccc4)c4nc(c(-c5ccccc5)c5ccc2[nH]5)C=C4)C=C3)cc1
REMARK SMILES IDX 6 1 5 2 4 3 3 4 1 5 2 6 41 8 42 9 88 10 43 11 87 12 44 13
REMARK SMILES IDX 45 14 46 15 81 16 47 17 86 18 80 19 82 20 48 21 85 22 79 23
REMARK SMILES IDX 78 24 49 26 71 27 56 28 70 29 57 30 60 31 69 32 83 33 58 34
REMARK SMILES IDX 59 35 68 37 84 38 61 39 50 40 51 41 55 42 52 43 54 44 53 45
REMARK SMILES IDX 72 46 73 47 77 48 74 49 76 50 75 51 62 52 63 53 67 54 64 55
REMARK SMILES IDX 66 56 65 57 7 58 8 59 9 60 10 61 11 62 12 64 13 65 14 66
REMARK SMILES IDX 40 67 15 68 39 69 16 70 17 71 18 72 31 73 20 74 19 75 30 76
REMARK SMILES IDX 21 77 23 78 22 79 32 80 33 81 38 82 34 83 36 84 35 85 37 86
REMARK SMILES IDX 24 87 25 88 29 89 26 90 28 91 27 92
REMARK H PARENT 3 7 82 25 60 36 10 63
REMARK Flexibility Score: inf
ROOT
ATOM      1  C   UNL     1       4.247  -0.885  -3.497  1.00  0.00     0.002 C 
ENDROOT
BRANCH   1   2
ATOM      2  C   UNL     1       4.720  -0.932  -2.040  1.00  0.00     0.021 C 
BRANCH   2   3
ATOM      3  C   UNL     1       4.637   0.401  -1.294  1.00  0.00     0.116 C 
BRANCH   3   4
ATOM      4  N   UNL     1       3.295   0.913  -1.115  1.00  0.00    -0.352 N 
ATOM      5  O   UNL     1       1.264   1.316  -0.311  1.00  0.00    -0.269 OA
ATOM      6  C   UNL     1       2.272   0.610  -0.261  1.00  0.00     0.251 C 
ATOM      7  H   UNL     1       3.071   1.637  -1.744  1.00  0.00     0.163 HD
BRANCH   6   8
ATOM      8  C   UNL     1       2.277  -0.563   0.649  1.00  0.00     0.039 A 
ATOM      9  C   UNL     1       3.421  -1.208   1.126  1.00  0.00     0.014 A 
ATOM     10  C   UNL     1       1.016  -1.049   1.027  1.00  0.00     0.014 A 
ATOM     11  C   UNL     1       3.316  -2.394   1.843  1.00  0.00     0.010 A 
ATOM     12  C   UNL     1       0.904  -2.204   1.785  1.00  0.00     0.010 A 
ATOM     13  C   UNL     1       2.057  -2.907   2.141  1.00  0.00    -0.014 A 
BRANCH  13  14
ATOM     14  C   UNL     1       1.975  -4.151   2.900  1.00  0.00     0.031 A 
ATOM     15  C   UNL     1       2.436  -4.105   4.323  1.00  0.00     0.074 A 
ATOM     16  C   UNL     1       1.319  -5.218   2.403  1.00  0.00     0.049 A 
ATOM     17  N   UNL     1       3.164  -4.959   4.974  1.00  0.00    -0.248 NA
ATOM     18  C   UNL     1       2.047  -2.926   5.117  1.00  0.00     0.031 C 
ATOM     19  C   UNL     1       0.560  -5.287   1.149  1.00  0.00     0.029 A 
ATOM     20  N   UNL     1       1.044  -6.411   3.000  1.00  0.00    -0.354 N 
ATOM     21  C   UNL     1       3.207  -4.504   6.293  1.00  0.00     0.074 A 
ATOM     22  C   UNL     1       2.575  -3.209   6.306  1.00  0.00     0.031 C 
ATOM     23  C   UNL     1      -0.296  -6.328   1.212  1.00  0.00     0.029 A 
ATOM     24  C   UNL     1      -0.050  -7.058   2.443  1.00  0.00     0.049 A 
ATOM     25  H   UNL     1       1.567  -6.776   3.750  1.00  0.00     0.167 HD
ATOM     26  C   UNL     1       3.601  -5.276   7.342  1.00  0.00     0.031 A 
ATOM     27  C   UNL     1      -0.781  -8.048   3.006  1.00  0.00     0.031 A 
ATOM     28  C   UNL     1       4.387  -6.406   6.946  1.00  0.00     0.049 A 
ATOM     29  C   UNL     1       0.009  -8.637   4.109  1.00  0.00     0.074 A 
ATOM     30  C   UNL     1       5.609  -6.579   6.328  1.00  0.00     0.029 A 
ATOM     31  N   UNL     1       3.784  -7.638   6.922  1.00  0.00    -0.354 N 
ATOM     32  N   UNL     1       1.104  -9.318   3.932  1.00  0.00    -0.248 NA
ATOM     33  C   UNL     1      -0.200  -8.133   5.457  1.00  0.00     0.031 C 
ATOM     34  C   UNL     1       5.458  -7.756   5.539  1.00  0.00     0.029 A 
ATOM     35  C   UNL     1       4.161  -8.230   5.745  1.00  0.00     0.049 A 
ATOM     36  H   UNL     1       3.196  -8.021   7.613  1.00  0.00     0.167 HD
ATOM     37  C   UNL     1       1.911  -8.983   5.010  1.00  0.00     0.074 A 
ATOM     38  C   UNL     1       1.014  -8.348   5.971  1.00  0.00     0.031 C 
ATOM     39  C   UNL     1       3.273  -8.998   4.905  1.00  0.00     0.031 A 
BRANCH  26  40
ATOM     40  C   UNL     1       2.983  -5.173   8.712  1.00  0.00    -0.014 A 
ATOM     41  C   UNL     1       3.555  -5.877   9.787  1.00  0.00     0.009 A 
ATOM     42  C   UNL     1       1.700  -4.628   8.918  1.00  0.00     0.009 A 
ATOM     43  C   UNL     1       2.856  -6.062  10.988  1.00  0.00     0.001 A 
ATOM     44  C   UNL     1       1.018  -4.777  10.129  1.00  0.00     0.001 A 
ATOM     45  C   UNL     1       1.587  -5.515  11.156  1.00  0.00     0.000 A 
ENDBRANCH  26  40
BRANCH  27  46
ATOM     46  C   UNL     1      -2.232  -8.275   2.845  1.00  0.00    -0.014 A 
ATOM     47  C   UNL     1      -2.808  -9.521   3.127  1.00  0.00     0.009 A 
ATOM     48  C   UNL     1      -3.098  -7.186   2.623  1.00  0.00     0.009 A 
ATOM     49  C   UNL     1      -4.200  -9.666   3.193  1.00  0.00     0.001 A 
ATOM     50  C   UNL     1      -4.485  -7.331   2.682  1.00  0.00     0.001 A 
ATOM     51  C   UNL     1      -5.037  -8.571   2.977  1.00  0.00     0.000 A 
ENDBRANCH  27  46
BRANCH  39  52
ATOM     52  C   UNL     1       3.874  -9.569   3.645  1.00  0.00    -0.014 A 
ATOM     53  C   UNL     1       3.651  -8.989   2.383  1.00  0.00     0.009 A 
ATOM     54  C   UNL     1       4.818 -10.600   3.744  1.00  0.00     0.009 A 
ATOM     55  C   UNL     1       4.328  -9.446   1.249  1.00  0.00     0.001 A 
ATOM     56  C   UNL     1       5.510 -11.045   2.614  1.00  0.00     0.001 A 
ATOM     57  C   UNL     1       5.262 -10.472   1.367  1.00  0.00     0.000 A 
ENDBRANCH  39  52
ENDBRANCH  13  14
ENDBRANCH   6   8
ENDBRANCH   3   4
ENDBRANCH   2   3
ENDBRANCH   1   2
BRANCH   1  58
ATOM     58  C   UNL     1       4.822   0.255  -4.343  1.00  0.00     0.002 C 
BRANCH  58  59
ATOM     59  C   UNL     1       6.351   0.381  -4.343  1.00  0.00     0.021 C 
BRANCH  59  60
ATOM     60  C   UNL     1       7.107  -0.817  -4.916  1.00  0.00     0.116 C 
BRANCH  60  61
ATOM     61  N   UNL     1       6.878  -0.969  -6.340  1.00  0.00    -0.352 N 
ATOM     62  C   UNL     1       7.788  -1.048  -7.361  1.00  0.00     0.251 C 
ATOM     63  H   UNL     1       5.933  -1.024  -6.611  1.00  0.00     0.163 HD
ATOM     64  O   UNL     1       7.410  -0.993  -8.528  1.00  0.00    -0.269 OA
BRANCH  62  65
ATOM     65  C   UNL     1       9.235  -1.159  -7.072  1.00  0.00     0.039 A 
ATOM     66  C   UNL     1      10.079  -0.206  -7.634  1.00  0.00     0.016 A 
ATOM     67  C   UNL     1       9.769  -2.201  -6.301  1.00  0.00     0.016 A 
ATOM     68  C   UNL     1      11.447  -0.257  -7.367  1.00  0.00     0.027 A 
ATOM     69  C   UNL     1      11.153  -2.262  -6.049  1.00  0.00     0.027 A 
ATOM     70  C   UNL     1      11.995  -1.274  -6.560  1.00  0.00     0.045 A 
BRANCH  70  71
ATOM     71  N   UNL     1      13.381  -1.217  -6.211  1.00  0.00    -0.299 N 
ATOM     72  C   UNL     1      13.870   0.089  -5.865  1.00  0.00     0.259 C 
ATOM     73  C   UNL     1      14.380  -1.952  -7.024  1.00  0.00     0.152 C 
ATOM     74  C   UNL     1      15.191   0.286  -6.557  1.00  0.00     0.248 C 
ATOM     75  O   UNL     1      13.293   0.919  -5.186  1.00  0.00    -0.271 OA
ATOM     76  C   UNL     1      15.047  -0.761  -7.590  1.00  0.00     0.021 C 
ATOM     77  N   UNL     1      15.312   1.501  -7.378  1.00  0.00    -0.170 NA
ATOM     78  C   UNL     1      15.322  -0.189  -8.758  1.00  0.00     0.097 C 
ATOM     79  N   UNL     1      15.517   1.168  -8.586  1.00  0.00    -0.154 NA
BRANCH  73  80
ATOM     80  C   UNL     1      15.375  -2.792  -6.199  1.00  0.00    -0.020 A 
ATOM     81  C   UNL     1      16.775  -2.621  -6.337  1.00  0.00     0.006 A 
ATOM     82  C   UNL     1      14.941  -3.791  -5.313  1.00  0.00     0.022 A 
ATOM     83  C   UNL     1      17.696  -3.359  -5.591  1.00  0.00     0.002 A 
ATOM     84  C   UNL     1      15.872  -4.551  -4.587  1.00  0.00     0.018 A 
ATOM     85  C   UNL     1      17.243  -4.331  -4.713  1.00  0.00     0.016 A 
ATOM     86  Br  UNL     1      15.274  -5.917  -3.421  1.00  0.00    -0.051 Br
ENDBRANCH  73  80
BRANCH  78  87
ATOM     87  C   UNL     1      15.264  -0.749 -10.105  1.00  0.00     0.002 A 
ATOM     88  C   UNL     1      16.327  -1.522 -10.592  1.00  0.00     0.010 A 
ATOM     89  C   UNL     1      14.241  -0.366 -10.982  1.00  0.00     0.010 A 
ATOM     90  C   UNL     1      16.398  -1.846 -11.951  1.00  0.00     0.001 A 
ATOM     91  C   UNL     1      14.311  -0.697 -12.337  1.00  0.00     0.001 A 
ATOM     92  C   UNL     1      15.400  -1.418 -12.824  1.00  0.00     0.000 A 
ENDBRANCH  78  87
ENDBRANCH  70  71
ENDBRANCH  62  65
ENDBRANCH  60  61
ENDBRANCH  59  60
ENDBRANCH  58  59
ENDBRANCH   1  58
TORSDOF 16
