REMARK SMILES CC(=O)Oc1cc(CCC(=O)NCCCCCCNC(=O)c2ccc(-c3c4nc(c(-c5ccccc5)c5ccc([nH]5)c(-c5ccccc5)c5nc(c(-c6ccccc6)c6ccc3[nH]6)C=C5)C=C4)cc2)c(OC(C)=O)c2c1C(=O)c1ccccc1C2=O
REMARK SMILES IDX 14 1 13 2 12 3 10 4 11 5 9 7 8 8 7 9 5 10 6 11 76 12 75 13
REMARK SMILES IDX 77 14 70 15 85 16 78 17 79 18 84 19 86 20 80 21 83 22 81 23
REMARK SMILES IDX 82 24 4 25 2 26 1 27 3 28 71 29 72 30 73 31 74 32 15 33
REMARK SMILES IDX 16 34 17 35 18 36 19 37 20 38 21 40 22 41 23 42 69 43 24 44
REMARK SMILES IDX 68 45 25 46 26 47 27 48 62 49 28 50 67 51 61 52 63 53 29 54
REMARK SMILES IDX 66 55 60 56 59 57 30 59 52 60 37 61 51 62 38 63 41 64 50 65
REMARK SMILES IDX 64 66 39 67 40 68 49 70 65 71 42 72 31 73 32 74 36 75 33 76
REMARK SMILES IDX 35 77 34 78 53 79 54 80 58 81 55 82 57 83 56 84 43 85 44 86
REMARK SMILES IDX 48 87 45 88 47 89 46 90
REMARK H PARENT 12 6 19 39 63 58 41 69
REMARK Flexibility Score: inf
ROOT
ATOM      1  C   UNL     1      -1.422  -6.261   1.082  1.00  0.00     0.021 C 
ENDROOT
BRANCH   1   2
ATOM      2  C   UNL     1      -0.118  -6.540   1.821  1.00  0.00     0.116 C 
BRANCH   2   3
ATOM      3  N   UNL     1       0.376  -7.866   1.482  1.00  0.00    -0.356 N 
ATOM      4  C   UNL     1       1.331  -8.251   0.592  1.00  0.00     0.220 C 
ATOM      5  O   UNL     1       1.461  -9.458   0.376  1.00  0.00    -0.275 OA
ATOM      6  H   UNL     1      -0.050  -8.604   1.976  1.00  0.00     0.163 HD
BRANCH   4   7
ATOM      7  C   UNL     1       2.269  -7.243  -0.057  1.00  0.00     0.105 C 
BRANCH   7   8
ATOM      8  C   UNL     1       1.954  -6.751  -1.477  1.00  0.00     0.049 C 
BRANCH   8   9
ATOM      9  C   UNL     1       0.854  -5.736  -1.636  1.00  0.00    -0.000 A 
ATOM     10  C   UNL     1       0.155  -3.399  -1.573  1.00  0.00     0.143 A 
ATOM     11  C   UNL     1       1.152  -4.380  -1.452  1.00  0.00     0.055 A 
ATOM     12  C   UNL     1      -1.179  -3.733  -1.865  1.00  0.00     0.080 A 
ATOM     13  C   UNL     1      -1.515  -5.086  -1.989  1.00  0.00     0.081 A 
ATOM     14  C   UNL     1      -2.231  -2.691  -1.995  1.00  0.00     0.198 C 
ATOM     15  C   UNL     1      -0.478  -6.052  -1.942  1.00  0.00     0.146 A 
ATOM     16  C   UNL     1      -2.950  -5.469  -1.944  1.00  0.00     0.198 C 
ATOM     17  O   UNL     1      -1.953  -1.498  -2.037  1.00  0.00    -0.288 OA
ATOM     18  C   UNL     1      -3.651  -3.095  -1.983  1.00  0.00     0.034 A 
ATOM     19  C   UNL     1      -3.982  -4.429  -1.798  1.00  0.00     0.034 A 
ATOM     20  O   UNL     1      -3.311  -6.636  -1.959  1.00  0.00    -0.288 OA
ATOM     21  C   UNL     1      -4.661  -2.124  -1.990  1.00  0.00     0.013 A 
ATOM     22  C   UNL     1      -5.293  -4.779  -1.440  1.00  0.00     0.013 A 
ATOM     23  C   UNL     1      -5.971  -2.474  -1.651  1.00  0.00     0.001 A 
ATOM     24  C   UNL     1      -6.277  -3.794  -1.331  1.00  0.00     0.001 A 
BRANCH  10  25
ATOM     25  O   UNL     1       0.573  -2.074  -1.387  1.00  0.00    -0.426 OA
BRANCH  25  26
ATOM     26  C   UNL     1       0.369  -1.616  -0.088  1.00  0.00     0.308 C 
ATOM     27  C   UNL     1       0.860  -0.201   0.019  1.00  0.00     0.139 C 
ATOM     28  O   UNL     1      -0.080  -2.272   0.845  1.00  0.00    -0.252 OA
ENDBRANCH  25  26
ENDBRANCH  10  25
BRANCH  15  29
ATOM     29  O   UNL     1      -0.838  -7.503  -2.106  1.00  0.00    -0.426 OA
BRANCH  29  30
ATOM     30  C   UNL     1      -1.083  -8.915  -2.272  1.00  0.00     0.308 C 
ATOM     31  C   UNL     1       0.172  -9.661  -2.584  1.00  0.00     0.139 C 
ATOM     32  O   UNL     1      -2.195  -9.420  -2.221  1.00  0.00    -0.252 OA
ENDBRANCH  29  30
ENDBRANCH  15  29
ENDBRANCH   8   9
ENDBRANCH   7   8
ENDBRANCH   4   7
ENDBRANCH   2   3
ENDBRANCH   1   2
BRANCH   1  33
ATOM     33  C   UNL     1      -2.742  -6.495   1.805  1.00  0.00     0.002 C 
BRANCH  33  34
ATOM     34  C   UNL     1      -3.164  -5.491   2.884  1.00  0.00     0.002 C 
BRANCH  34  35
ATOM     35  C   UNL     1      -2.780  -4.012   2.729  1.00  0.00     0.021 C 
BRANCH  35  36
ATOM     36  C   UNL     1      -3.678  -3.125   1.863  1.00  0.00     0.116 C 
BRANCH  36  37
ATOM     37  N   UNL     1      -5.062  -3.050   2.308  1.00  0.00    -0.352 N 
ATOM     38  C   UNL     1      -5.915  -1.979   2.449  1.00  0.00     0.251 C 
ATOM     39  H   UNL     1      -5.457  -3.918   2.552  1.00  0.00     0.163 HD
ATOM     40  O   UNL     1      -7.056  -2.173   2.865  1.00  0.00    -0.269 OA
BRANCH  38  41
ATOM     41  C   UNL     1      -5.504  -0.590   2.127  1.00  0.00     0.039 A 
ATOM     42  C   UNL     1      -5.888   0.447   2.981  1.00  0.00     0.014 A 
ATOM     43  C   UNL     1      -4.801  -0.282   0.964  1.00  0.00     0.014 A 
ATOM     44  C   UNL     1      -5.513   1.765   2.696  1.00  0.00     0.010 A 
ATOM     45  C   UNL     1      -4.401   1.026   0.685  1.00  0.00     0.010 A 
ATOM     46  C   UNL     1      -4.731   2.062   1.563  1.00  0.00    -0.014 A 
BRANCH  46  47
ATOM     47  C   UNL     1      -4.124   3.408   1.389  1.00  0.00     0.031 A 
ATOM     48  C   UNL     1      -4.465   4.302   0.229  1.00  0.00     0.074 A 
ATOM     49  C   UNL     1      -3.179   3.784   2.274  1.00  0.00     0.049 A 
ATOM     50  N   UNL     1      -4.056   5.523  -0.014  1.00  0.00    -0.248 NA
ATOM     51  C   UNL     1      -5.355   3.753  -0.805  1.00  0.00     0.031 C 
ATOM     52  C   UNL     1      -2.687   2.955   3.378  1.00  0.00     0.029 A 
ATOM     53  N   UNL     1      -2.471   4.952   2.397  1.00  0.00    -0.354 N 
ATOM     54  C   UNL     1      -4.637   5.890  -1.223  1.00  0.00     0.074 A 
ATOM     55  C   UNL     1      -5.381   4.740  -1.692  1.00  0.00     0.031 C 
ATOM     56  C   UNL     1      -1.808   3.662   4.103  1.00  0.00     0.029 A 
ATOM     57  C   UNL     1      -1.638   4.974   3.491  1.00  0.00     0.049 A 
ATOM     58  H   UNL     1      -2.551   5.702   1.764  1.00  0.00     0.167 HD
ATOM     59  C   UNL     1      -4.568   7.080  -1.869  1.00  0.00     0.031 A 
ATOM     60  C   UNL     1      -0.832   5.944   3.959  1.00  0.00     0.031 A 
ATOM     61  C   UNL     1      -3.805   8.210  -1.398  1.00  0.00     0.049 A 
ATOM     62  C   UNL     1      -0.788   7.258   3.233  1.00  0.00     0.074 A 
ATOM     63  C   UNL     1      -3.724   9.484  -1.936  1.00  0.00     0.029 A 
ATOM     64  N   UNL     1      -2.980   8.197  -0.283  1.00  0.00    -0.354 N 
ATOM     65  N   UNL     1      -1.440   7.629   2.157  1.00  0.00    -0.248 NA
ATOM     66  C   UNL     1       0.091   8.292   3.794  1.00  0.00     0.031 C 
ATOM     67  C   UNL     1      -2.799  10.218  -1.187  1.00  0.00     0.029 A 
ATOM     68  C   UNL     1      -2.361   9.428  -0.137  1.00  0.00     0.049 A 
ATOM     69  H   UNL     1      -2.853   7.426   0.316  1.00  0.00     0.167 HD
ATOM     70  C   UNL     1      -1.069   8.946   1.926  1.00  0.00     0.074 A 
ATOM     71  C   UNL     1      -0.158   9.316   2.991  1.00  0.00     0.031 C 
ATOM     72  C   UNL     1      -1.447   9.775   0.922  1.00  0.00     0.031 A 
BRANCH  59  73
ATOM     73  C   UNL     1      -5.340   7.232  -3.156  1.00  0.00    -0.014 A 
ATOM     74  C   UNL     1      -6.745   7.228  -3.167  1.00  0.00     0.009 A 
ATOM     75  C   UNL     1      -4.661   7.456  -4.366  1.00  0.00     0.009 A 
ATOM     76  C   UNL     1      -7.450   7.405  -4.361  1.00  0.00     0.001 A 
ATOM     77  C   UNL     1      -5.368   7.665  -5.553  1.00  0.00     0.001 A 
ATOM     78  C   UNL     1      -6.761   7.630  -5.552  1.00  0.00     0.000 A 
ENDBRANCH  59  73
BRANCH  60  79
ATOM     79  C   UNL     1      -0.029   5.717   5.191  1.00  0.00    -0.014 A 
ATOM     80  C   UNL     1      -0.309   6.427   6.369  1.00  0.00     0.009 A 
ATOM     81  C   UNL     1       1.017   4.781   5.199  1.00  0.00     0.009 A 
ATOM     82  C   UNL     1       0.462   6.228   7.517  1.00  0.00     0.001 A 
ATOM     83  C   UNL     1       1.761   4.556   6.358  1.00  0.00     0.001 A 
ATOM     84  C   UNL     1       1.492   5.288   7.512  1.00  0.00     0.000 A 
ENDBRANCH  60  79
BRANCH  72  85
ATOM     85  C   UNL     1      -0.892  11.173   0.948  1.00  0.00    -0.014 A 
ATOM     86  C   UNL     1       0.468  11.426   0.704  1.00  0.00     0.009 A 
ATOM     87  C   UNL     1      -1.750  12.255   1.196  1.00  0.00     0.009 A 
ATOM     88  C   UNL     1       0.963  12.730   0.753  1.00  0.00     0.001 A 
ATOM     89  C   UNL     1      -1.260  13.561   1.206  1.00  0.00     0.001 A 
ATOM     90  C   UNL     1       0.098  13.797   0.997  1.00  0.00     0.000 A 
ENDBRANCH  72  85
ENDBRANCH  46  47
ENDBRANCH  38  41
ENDBRANCH  36  37
ENDBRANCH  35  36
ENDBRANCH  34  35
ENDBRANCH  33  34
ENDBRANCH   1  33
TORSDOF 19
