REMARK SMILES O=C(NCCCCCCNC(=O)c1ccccc1C(=O)Nc1ccc(N2C(=O)[C@H]3[C@@H]4CC[C@@H](C4)[C@@H]3C2=O)cc1)c1ccc(-c2c3nc(c(-c4ccccc4)c4ccc([nH]4)c(-c4ccccc4)c4nc(c(-c5ccccc5)c5ccc2[nH]5)C=C4)C=C3)cc1
REMARK SMILES IDX 7 1 6 2 5 3 4 4 3 5 1 6 2 7 40 9 41 10 87 11 42 12 86 13
REMARK SMILES IDX 43 14 44 15 45 16 80 17 46 18 85 19 79 20 81 21 47 22 84 23
REMARK SMILES IDX 78 24 77 25 48 27 70 28 55 29 69 30 56 31 59 32 68 33 82 34
REMARK SMILES IDX 57 35 58 36 67 38 83 39 60 40 49 41 50 42 54 43 51 44 53 45
REMARK SMILES IDX 52 46 71 47 72 48 76 49 73 50 75 51 74 52 61 53 62 54 66 55
REMARK SMILES IDX 63 56 65 57 64 58 8 59 9 60 10 61 11 62 12 64 13 65 14 66
REMARK SMILES IDX 18 67 15 68 17 69 16 70 19 71 20 72 21 73 22 75 23 76 39 77
REMARK SMILES IDX 24 78 38 79 25 80 26 81 27 82 36 83 28 84 29 85 35 86 37 87
REMARK SMILES IDX 30 88 33 89 31 90 34 91 32 92
REMARK H PARENT 3 8 81 26 59 37 10 63 21 74
REMARK Flexibility Score: inf
ROOT
ATOM      1  C   UNL     1       5.011   0.406  -3.967  1.00  0.00     0.002 C 
ENDROOT
BRANCH   1   2
ATOM      2  C   UNL     1       4.602  -0.979  -3.453  1.00  0.00     0.002 C 
BRANCH   2   3
ATOM      3  C   UNL     1       4.893  -1.263  -1.989  1.00  0.00     0.021 C 
BRANCH   3   4
ATOM      4  C   UNL     1       4.442  -0.178  -1.036  1.00  0.00     0.116 C 
BRANCH   4   5
ATOM      5  N   UNL     1       2.999   0.015  -1.015  1.00  0.00    -0.352 N 
ATOM      6  O   UNL     1       0.972   0.216  -0.011  1.00  0.00    -0.269 OA
ATOM      7  C   UNL     1       2.192   0.164   0.089  1.00  0.00     0.251 C 
ATOM      8  H   UNL     1       2.550   0.041  -1.891  1.00  0.00     0.163 HD
BRANCH   7   9
ATOM      9  C   UNL     1       2.841   0.219   1.415  1.00  0.00     0.039 A 
ATOM     10  C   UNL     1       3.947   1.050   1.602  1.00  0.00     0.014 A 
ATOM     11  C   UNL     1       2.416  -0.643   2.427  1.00  0.00     0.014 A 
ATOM     12  C   UNL     1       4.738   0.886   2.726  1.00  0.00     0.010 A 
ATOM     13  C   UNL     1       3.143  -0.709   3.617  1.00  0.00     0.010 A 
ATOM     14  C   UNL     1       4.327   0.033   3.763  1.00  0.00    -0.014 A 
BRANCH  14  15
ATOM     15  C   UNL     1       5.103   0.022   5.026  1.00  0.00     0.031 A 
ATOM     16  C   UNL     1       5.768  -1.223   5.538  1.00  0.00     0.074 A 
ATOM     17  C   UNL     1       5.214   1.183   5.703  1.00  0.00     0.049 A 
ATOM     18  N   UNL     1       6.474  -1.383   6.629  1.00  0.00    -0.248 NA
ATOM     19  C   UNL     1       5.620  -2.446   4.734  1.00  0.00     0.031 C 
ATOM     20  C   UNL     1       4.608   2.456   5.297  1.00  0.00     0.029 A 
ATOM     21  N   UNL     1       5.886   1.491   6.855  1.00  0.00    -0.354 N 
ATOM     22  C   UNL     1       6.832  -2.726   6.659  1.00  0.00     0.074 A 
ATOM     23  C   UNL     1       6.248  -3.341   5.486  1.00  0.00     0.031 C 
ATOM     24  C   UNL     1       4.986   3.416   6.149  1.00  0.00     0.029 A 
ATOM     25  C   UNL     1       5.777   2.812   7.211  1.00  0.00     0.049 A 
ATOM     26  H   UNL     1       6.398   0.830   7.376  1.00  0.00     0.167 HD
ATOM     27  C   UNL     1       7.577  -3.380   7.583  1.00  0.00     0.031 A 
ATOM     28  C   UNL     1       6.232   3.468   8.292  1.00  0.00     0.031 A 
ATOM     29  C   UNL     1       8.146  -2.755   8.751  1.00  0.00     0.049 A 
ATOM     30  C   UNL     1       7.008   2.705   9.322  1.00  0.00     0.074 A 
ATOM     31  C   UNL     1       8.941  -3.324   9.732  1.00  0.00     0.029 A 
ATOM     32  N   UNL     1       7.972  -1.424   9.103  1.00  0.00    -0.354 N 
ATOM     33  N   UNL     1       7.362   1.444   9.319  1.00  0.00    -0.248 NA
ATOM     34  C   UNL     1       7.445   3.457  10.503  1.00  0.00     0.031 C 
ATOM     35  C   UNL     1       9.190  -2.356  10.710  1.00  0.00     0.029 A 
ATOM     36  C   UNL     1       8.616  -1.163  10.302  1.00  0.00     0.049 A 
ATOM     37  H   UNL     1       7.466  -0.763   8.578  1.00  0.00     0.167 HD
ATOM     38  C   UNL     1       8.083   1.253  10.488  1.00  0.00     0.074 A 
ATOM     39  C   UNL     1       8.135   2.537  11.161  1.00  0.00     0.031 C 
ATOM     40  C   UNL     1       8.651   0.118  10.962  1.00  0.00     0.031 A 
BRANCH  27  41
ATOM     41  C   UNL     1       7.790  -4.859   7.394  1.00  0.00    -0.014 A 
ATOM     42  C   UNL     1       8.600  -5.361   6.364  1.00  0.00     0.009 A 
ATOM     43  C   UNL     1       7.209  -5.764   8.298  1.00  0.00     0.009 A 
ATOM     44  C   UNL     1       8.796  -6.738   6.224  1.00  0.00     0.001 A 
ATOM     45  C   UNL     1       7.432  -7.137   8.175  1.00  0.00     0.001 A 
ATOM     46  C   UNL     1       8.217  -7.624   7.132  1.00  0.00     0.000 A 
ENDBRANCH  27  41
BRANCH  28  47
ATOM     47  C   UNL     1       5.930   4.913   8.460  1.00  0.00    -0.014 A 
ATOM     48  C   UNL     1       6.952   5.870   8.398  1.00  0.00     0.009 A 
ATOM     49  C   UNL     1       4.608   5.342   8.665  1.00  0.00     0.009 A 
ATOM     50  C   UNL     1       6.659   7.226   8.562  1.00  0.00     0.001 A 
ATOM     51  C   UNL     1       4.314   6.700   8.791  1.00  0.00     0.001 A 
ATOM     52  C   UNL     1       5.341   7.640   8.752  1.00  0.00     0.000 A 
ENDBRANCH  28  47
BRANCH  40  53
ATOM     53  C   UNL     1       9.409   0.227  12.255  1.00  0.00    -0.014 A 
ATOM     54  C   UNL     1       8.751   0.438  13.477  1.00  0.00     0.009 A 
ATOM     55  C   UNL     1      10.807   0.095  12.250  1.00  0.00     0.009 A 
ATOM     56  C   UNL     1       9.481   0.554  14.661  1.00  0.00     0.001 A 
ATOM     57  C   UNL     1      11.531   0.176  13.440  1.00  0.00     0.001 A 
ATOM     58  C   UNL     1      10.868   0.417  14.642  1.00  0.00     0.000 A 
ENDBRANCH  40  53
ENDBRANCH  14  15
ENDBRANCH   7   9
ENDBRANCH   4   5
ENDBRANCH   3   4
ENDBRANCH   2   3
ENDBRANCH   1   2
BRANCH   1  59
ATOM     59  C   UNL     1       6.499   0.751  -3.812  1.00  0.00     0.021 C 
BRANCH  59  60
ATOM     60  C   UNL     1       7.421  -0.072  -4.707  1.00  0.00     0.116 C 
BRANCH  60  61
ATOM     61  N   UNL     1       7.224   0.248  -6.106  1.00  0.00    -0.352 N 
ATOM     62  C   UNL     1       7.987  -0.079  -7.190  1.00  0.00     0.252 C 
ATOM     63  H   UNL     1       6.421   0.780  -6.305  1.00  0.00     0.163 HD
ATOM     64  O   UNL     1       7.761   0.458  -8.276  1.00  0.00    -0.269 OA
BRANCH  62  65
ATOM     65  C   UNL     1       9.170  -0.953  -7.076  1.00  0.00     0.052 A 
ATOM     66  C   UNL     1      10.330  -0.335  -7.605  1.00  0.00     0.014 A 
ATOM     67  C   UNL     1       9.259  -2.228  -6.497  1.00  0.00     0.052 A 
ATOM     68  C   UNL     1      11.590  -0.904  -7.466  1.00  0.00     0.001 A 
ATOM     69  C   UNL     1      10.564  -2.761  -6.332  1.00  0.00     0.014 A 
ATOM     70  C   UNL     1      11.711  -2.106  -6.793  1.00  0.00     0.001 A 
BRANCH  67  71
ATOM     71  C   UNL     1       8.189  -3.095  -5.906  1.00  0.00     0.256 C 
ATOM     72  O   UNL     1       8.508  -3.780  -4.924  1.00  0.00    -0.269 OA
ATOM     73  N   UNL     1       6.862  -3.170  -6.260  1.00  0.00    -0.322 N 
ATOM     74  H   UNL     1       6.336  -3.772  -5.685  1.00  0.00     0.170 HD
BRANCH  73  75
ATOM     75  C   UNL     1       6.111  -2.567  -7.266  1.00  0.00     0.041 A 
ATOM     76  C   UNL     1       4.895  -2.000  -6.872  1.00  0.00     0.028 A 
ATOM     77  C   UNL     1       6.544  -2.426  -8.575  1.00  0.00     0.028 A 
ATOM     78  C   UNL     1       4.304  -1.015  -7.655  1.00  0.00     0.029 A 
ATOM     79  C   UNL     1       5.854  -1.558  -9.427  1.00  0.00     0.029 A 
ATOM     80  C   UNL     1       4.817  -0.758  -8.920  1.00  0.00     0.052 A 
BRANCH  80  81
ATOM     81  N   UNL     1       4.438   0.397  -9.620  1.00  0.00    -0.250 N 
ATOM     82  C   UNL     1       4.168   0.402 -10.991  1.00  0.00     0.237 C 
ATOM     83  C   UNL     1       4.581   1.699  -9.090  1.00  0.00     0.237 C 
ATOM     84  O   UNL     1       3.824  -0.500 -11.726  1.00  0.00    -0.274 OA
ATOM     85  C   UNL     1       4.574   1.774 -11.392  1.00  0.00     0.095 C 
ATOM     86  C   UNL     1       4.066   2.569 -10.200  1.00  0.00     0.095 C 
ATOM     87  O   UNL     1       4.918   2.066  -7.977  1.00  0.00    -0.274 OA
ATOM     88  C   UNL     1       4.234   2.683 -12.570  1.00  0.00     0.002 C 
ATOM     89  C   UNL     1       4.255   3.991 -10.719  1.00  0.00     0.002 C 
ATOM     90  C   UNL     1       5.518   3.514 -12.773  1.00  0.00     0.005 C 
ATOM     91  C   UNL     1       3.358   3.809 -11.972  1.00  0.00     0.009 C 
ATOM     92  C   UNL     1       5.619   4.270 -11.416  1.00  0.00     0.005 C 
ENDBRANCH  80  81
ENDBRANCH  73  75
ENDBRANCH  67  71
ENDBRANCH  62  65
ENDBRANCH  60  61
ENDBRANCH  59  60
ENDBRANCH   1  59
TORSDOF 16
