REMARK SMILES CC(C)C[C@H](NC(=O)[C@H](Cc1ccccc1)NC(=O)CNC(=O)C[NH3+])C(=O)NCCCCCCNC(=O)c1ccc(-c2c3nc(c(-c4ccccc4)c4ccc([nH]4)c(-c4ccccc4)c4nc(c(-c5ccccc5)c5ccc2[nH]5)C=C4)C=C3)cc1
REMARK SMILES IDX 29 1 28 2 26 3 27 4 5 6 4 7 2 8 1 9 3 10 6 11 7 12 8 14 9 15
REMARK SMILES IDX 17 16 18 17 19 19 20 20 21 21 22 22 23 24 24 25 25 26 10 30
REMARK SMILES IDX 11 31 12 32 16 33 13 34 15 35 14 36 30 37 31 38 32 39 33 40
REMARK SMILES IDX 34 41 35 42 36 43 37 45 38 46 39 47 85 48 40 49 84 50 41 51
REMARK SMILES IDX 42 52 43 53 78 54 44 55 83 56 77 57 79 58 45 59 82 60 76 61
REMARK SMILES IDX 75 62 46 64 68 65 53 66 67 67 54 68 57 69 66 70 80 71 55 72
REMARK SMILES IDX 56 73 65 75 81 76 58 77 47 78 48 79 52 80 49 81 51 82 50 83
REMARK SMILES IDX 69 84 70 85 74 86 71 87 73 88 72 89 59 90 60 91 64 92 61 93
REMARK SMILES IDX 63 94 62 95
REMARK H PARENT 28 5 6 13 17 18 21 23 25 27 25 28 25 29 35 44 79 63 57 74
REMARK Flexibility Score: inf
ROOT
ATOM      1  C   UNL     1      -1.128  -2.188   0.080  1.00  0.00     0.116 C 
ENDROOT
BRANCH   1   2
ATOM      2  N   UNL     1      -2.163  -2.766  -0.762  1.00  0.00    -0.354 N 
ATOM      3  C   UNL     1      -2.898  -3.915  -0.627  1.00  0.00     0.242 C 
ATOM      4  O   UNL     1      -3.803  -4.119  -1.444  1.00  0.00    -0.273 OA
ATOM      5  H   UNL     1      -2.372  -2.241  -1.568  1.00  0.00     0.163 HD
BRANCH   3   6
ATOM      6  C   UNL     1      -2.773  -4.779   0.635  1.00  0.00     0.171 C 
BRANCH   6   7
ATOM      7  C   UNL     1      -3.522  -3.917   1.690  1.00  0.00     0.038 C 
BRANCH   7   8
ATOM      8  C   UNL     1      -3.557  -4.224   3.190  1.00  0.00    -0.015 C 
ATOM      9  C   UNL     1      -2.194  -4.152   3.871  1.00  0.00     0.007 C 
ATOM     10  C   UNL     1      -4.479  -3.166   3.833  1.00  0.00     0.007 C 
ENDBRANCH   7   8
ENDBRANCH   6   7
BRANCH   6  11
ATOM     11  N   UNL     1      -1.407  -5.221   0.901  1.00  0.00    -0.343 N 
ATOM     12  C   UNL     1      -0.660  -6.198   0.283  1.00  0.00     0.243 C 
ATOM     13  H   UNL     1      -0.951  -4.748   1.634  1.00  0.00     0.164 HD
ATOM     14  O   UNL     1       0.285  -6.652   0.945  1.00  0.00    -0.273 OA
BRANCH  12  15
ATOM     15  C   UNL     1      -0.904  -6.712  -1.175  1.00  0.00     0.175 C 
BRANCH  15  16
ATOM     16  N   UNL     1       0.450  -7.057  -1.706  1.00  0.00    -0.342 N 
ATOM     17  C   UNL     1       1.096  -6.863  -2.885  1.00  0.00     0.240 C 
ATOM     18  H   UNL     1       1.002  -7.537  -1.048  1.00  0.00     0.164 HD
ATOM     19  O   UNL     1       2.091  -7.557  -3.115  1.00  0.00    -0.273 OA
BRANCH  17  20
ATOM     20  C   UNL     1       0.649  -5.811  -3.891  1.00  0.00     0.216 C 
BRANCH  20  21
ATOM     21  N   UNL     1      -0.371  -6.208  -4.845  1.00  0.00    -0.342 N 
ATOM     22  C   UNL     1      -1.313  -5.391  -5.417  1.00  0.00     0.275 C 
ATOM     23  H   UNL     1      -0.388  -7.157  -5.107  1.00  0.00     0.164 HD
ATOM     24  O   UNL     1      -1.978  -5.793  -6.371  1.00  0.00    -0.268 OA
BRANCH  22  25
ATOM     25  C   UNL     1      -1.512  -3.988  -4.845  1.00  0.00     0.360 C 
BRANCH  25  26
ATOM     26  N   UNL     1      -1.866  -4.101  -3.439  1.00  0.00    -0.350 N 
ATOM     27  H   UNL     1      -2.726  -4.642  -3.347  1.00  0.00     0.344 HD
ATOM     28  H   UNL     1      -2.006  -3.170  -3.047  1.00  0.00     0.344 HD
ATOM     29  H   UNL     1      -1.113  -4.572  -2.936  1.00  0.00     0.344 HD
ENDBRANCH  25  26
ENDBRANCH  22  25
ENDBRANCH  20  21
ENDBRANCH  17  20
ENDBRANCH  15  16
BRANCH  15  30
ATOM     30  C   UNL     1      -1.721  -8.024  -1.244  1.00  0.00     0.070 C 
BRANCH  30  31
ATOM     31  C   UNL     1      -3.010  -8.075  -0.474  1.00  0.00    -0.045 A 
ATOM     32  C   UNL     1      -3.026  -8.605   0.826  1.00  0.00     0.004 A 
ATOM     33  C   UNL     1      -4.195  -7.565  -1.018  1.00  0.00     0.004 A 
ATOM     34  C   UNL     1      -4.195  -8.580   1.586  1.00  0.00     0.000 A 
ATOM     35  C   UNL     1      -5.362  -7.532  -0.250  1.00  0.00     0.000 A 
ATOM     36  C   UNL     1      -5.358  -8.029   1.053  1.00  0.00     0.000 A 
ENDBRANCH  30  31
ENDBRANCH  15  30
ENDBRANCH  12  15
ENDBRANCH   6  11
ENDBRANCH   3   6
ENDBRANCH   1   2
BRANCH   1  37
ATOM     37  C   UNL     1       0.303  -2.533  -0.322  1.00  0.00     0.021 C 
BRANCH  37  38
ATOM     38  C   UNL     1       0.674  -2.315  -1.786  1.00  0.00     0.002 C 
BRANCH  38  39
ATOM     39  C   UNL     1       0.251  -0.991  -2.416  1.00  0.00     0.002 C 
BRANCH  39  40
ATOM     40  C   UNL     1       0.913   0.239  -1.810  1.00  0.00     0.021 C 
BRANCH  40  41
ATOM     41  C   UNL     1       2.434   0.198  -1.816  1.00  0.00     0.116 C 
BRANCH  41  42
ATOM     42  N   UNL     1       3.002   0.061  -3.149  1.00  0.00    -0.352 N 
ATOM     43  C   UNL     1       4.103   0.711  -3.661  1.00  0.00     0.251 C 
ATOM     44  H   UNL     1       2.546  -0.567  -3.755  1.00  0.00     0.163 HD
ATOM     45  O   UNL     1       4.430   0.599  -4.837  1.00  0.00    -0.269 OA
BRANCH  43  46
ATOM     46  C   UNL     1       4.857   1.583  -2.747  1.00  0.00     0.039 A 
ATOM     47  C   UNL     1       4.957   2.944  -3.036  1.00  0.00     0.014 A 
ATOM     48  C   UNL     1       5.309   1.066  -1.531  1.00  0.00     0.014 A 
ATOM     49  C   UNL     1       5.448   3.808  -2.059  1.00  0.00     0.010 A 
ATOM     50  C   UNL     1       5.707   1.939  -0.529  1.00  0.00     0.010 A 
ATOM     51  C   UNL     1       5.783   3.317  -0.784  1.00  0.00    -0.014 A 
BRANCH  51  52
ATOM     52  C   UNL     1       6.211   4.238   0.296  1.00  0.00     0.031 A 
ATOM     53  C   UNL     1       7.591   4.122   0.877  1.00  0.00     0.074 A 
ATOM     54  C   UNL     1       5.339   5.140   0.787  1.00  0.00     0.049 A 
ATOM     55  N   UNL     1       8.156   4.847   1.809  1.00  0.00    -0.248 NA
ATOM     56  C   UNL     1       8.437   3.028   0.371  1.00  0.00     0.031 C 
ATOM     57  C   UNL     1       3.948   5.303   0.355  1.00  0.00     0.029 A 
ATOM     58  N   UNL     1       5.500   6.101   1.754  1.00  0.00    -0.354 N 
ATOM     59  C   UNL     1       9.410   4.284   2.011  1.00  0.00     0.074 A 
ATOM     60  C   UNL     1       9.497   3.121   1.157  1.00  0.00     0.031 C 
ATOM     61  C   UNL     1       3.402   6.339   1.012  1.00  0.00     0.029 A 
ATOM     62  C   UNL     1       4.391   6.892   1.932  1.00  0.00     0.049 A 
ATOM     63  H   UNL     1       6.330   6.212   2.270  1.00  0.00     0.167 HD
ATOM     64  C   UNL     1      10.412   4.713   2.813  1.00  0.00     0.031 A 
ATOM     65  C   UNL     1       4.201   7.956   2.733  1.00  0.00     0.031 A 
ATOM     66  C   UNL     1      10.329   5.880   3.646  1.00  0.00     0.049 A 
ATOM     67  C   UNL     1       5.334   8.426   3.602  1.00  0.00     0.074 A 
ATOM     68  C   UNL     1      11.312   6.449   4.436  1.00  0.00     0.029 A 
ATOM     69  N   UNL     1       9.190   6.656   3.799  1.00  0.00    -0.354 N 
ATOM     70  N   UNL     1       6.548   7.944   3.709  1.00  0.00    -0.248 NA
ATOM     71  C   UNL     1       5.072   9.598   4.448  1.00  0.00     0.031 C 
ATOM     72  C   UNL     1      10.751   7.541   5.108  1.00  0.00     0.029 A 
ATOM     73  C   UNL     1       9.435   7.683   4.694  1.00  0.00     0.049 A 
ATOM     74  H   UNL     1       8.334   6.500   3.338  1.00  0.00     0.167 HD
ATOM     75  C   UNL     1       7.203   8.764   4.618  1.00  0.00     0.074 A 
ATOM     76  C   UNL     1       6.256   9.788   5.013  1.00  0.00     0.031 C 
ATOM     77  C   UNL     1       8.473   8.681   5.085  1.00  0.00     0.031 A 
BRANCH  64  78
ATOM     78  C   UNL     1      11.678   3.900   2.821  1.00  0.00    -0.014 A 
ATOM     79  C   UNL     1      12.517   3.842   1.696  1.00  0.00     0.009 A 
ATOM     80  C   UNL     1      12.035   3.177   3.969  1.00  0.00     0.009 A 
ATOM     81  C   UNL     1      13.658   3.038   1.702  1.00  0.00     0.001 A 
ATOM     82  C   UNL     1      13.194   2.399   3.985  1.00  0.00     0.001 A 
ATOM     83  C   UNL     1      13.997   2.320   2.848  1.00  0.00     0.000 A 
ENDBRANCH  64  78
BRANCH  65  84
ATOM     84  C   UNL     1       2.905   8.684   2.713  1.00  0.00    -0.014 A 
ATOM     85  C   UNL     1       2.820   9.961   2.135  1.00  0.00     0.009 A 
ATOM     86  C   UNL     1       1.749   8.112   3.265  1.00  0.00     0.009 A 
ATOM     87  C   UNL     1       1.610  10.659   2.132  1.00  0.00     0.001 A 
ATOM     88  C   UNL     1       0.534   8.801   3.236  1.00  0.00     0.001 A 
ATOM     89  C   UNL     1       0.468  10.077   2.677  1.00  0.00     0.000 A 
ENDBRANCH  65  84
BRANCH  77  90
ATOM     90  C   UNL     1       8.908   9.734   6.064  1.00  0.00    -0.014 A 
ATOM     91  C   UNL     1       8.417   9.752   7.378  1.00  0.00     0.009 A 
ATOM     92  C   UNL     1       9.841  10.707   5.670  1.00  0.00     0.009 A 
ATOM     93  C   UNL     1       8.822  10.749   8.268  1.00  0.00     0.001 A 
ATOM     94  C   UNL     1      10.266  11.683   6.572  1.00  0.00     0.001 A 
ATOM     95  C   UNL     1       9.748  11.710   7.865  1.00  0.00     0.000 A 
ENDBRANCH  77  90
ENDBRANCH  51  52
ENDBRANCH  43  46
ENDBRANCH  41  42
ENDBRANCH  40  41
ENDBRANCH  39  40
ENDBRANCH  38  39
ENDBRANCH  37  38
ENDBRANCH   1  37
TORSDOF 24
