REMARK SMILES O=C(NCCCCCCNC(=O)c1nn(Cc2ccc(F)cc2)c2c1CN(C(=O)[C@H]1CC1(F)F)CC2)c1ccc(-c2c3nc(c(-c4ccccc4)c4ccc([nH]4)c(-c4ccccc4)c4nc(c(-c5ccccc5)c5ccc2[nH]5)C=C4)C=C3)cc1
REMARK SMILES IDX 6 1 5 2 4 3 3 4 1 5 2 6 37 8 38 9 84 10 39 11 83 12 40 13
REMARK SMILES IDX 41 14 42 15 77 16 43 17 82 18 76 19 78 20 44 21 81 22 75 23
REMARK SMILES IDX 74 24 45 26 67 27 52 28 66 29 53 30 56 31 65 32 79 33 54 34
REMARK SMILES IDX 55 35 64 37 80 38 57 39 46 40 47 41 51 42 48 43 50 44 49 45
REMARK SMILES IDX 68 46 69 47 73 48 70 49 72 50 71 51 58 52 59 53 63 54 60 55
REMARK SMILES IDX 62 56 61 57 7 58 8 59 9 60 10 61 11 62 12 64 13 65 14 66
REMARK SMILES IDX 25 67 15 68 24 69 26 70 36 71 27 72 35 73 16 74 17 75 18 76
REMARK SMILES IDX 23 77 19 78 22 79 20 80 21 81 28 82 29 83 30 84 31 85 32 86
REMARK SMILES IDX 33 87 34 88
REMARK H PARENT 3 7 78 25 56 36 10 63
REMARK Flexibility Score: inf
ROOT
ATOM      1  C   UNL     1       9.582 -20.555   9.822  1.00  0.00     0.002 C 
ENDROOT
BRANCH   1   2
ATOM      2  C   UNL     1       9.283 -20.314  11.307  1.00  0.00     0.021 C 
BRANCH   2   3
ATOM      3  C   UNL     1       7.819 -20.026  11.640  1.00  0.00     0.116 C 
BRANCH   3   4
ATOM      4  N   UNL     1       6.900 -21.100  11.323  1.00  0.00    -0.352 N 
ATOM      5  O   UNL     1       5.602 -22.889  11.427  1.00  0.00    -0.269 OA
ATOM      6  C   UNL     1       6.548 -22.276  11.926  1.00  0.00     0.251 C 
ATOM      7  H   UNL     1       6.418 -20.949  10.478  1.00  0.00     0.163 HD
BRANCH   6   8
ATOM      8  C   UNL     1       7.254 -22.888  13.085  1.00  0.00     0.039 A 
ATOM      9  C   UNL     1       8.098 -22.220  13.974  1.00  0.00     0.014 A 
ATOM     10  C   UNL     1       7.023 -24.263  13.285  1.00  0.00     0.014 A 
ATOM     11  C   UNL     1       8.745 -22.918  14.993  1.00  0.00     0.010 A 
ATOM     12  C   UNL     1       7.654 -24.962  14.309  1.00  0.00     0.010 A 
ATOM     13  C   UNL     1       8.535 -24.291  15.152  1.00  0.00    -0.014 A 
BRANCH  13  14
ATOM     14  C   UNL     1       9.115 -24.951  16.321  1.00  0.00     0.031 A 
ATOM     15  C   UNL     1       8.548 -24.530  17.634  1.00  0.00     0.074 A 
ATOM     16  C   UNL     1       9.964 -25.996  16.262  1.00  0.00     0.049 A 
ATOM     17  N   UNL     1       9.167 -24.015  18.647  1.00  0.00    -0.248 NA
ATOM     18  C   UNL     1       7.092 -24.645  17.815  1.00  0.00     0.031 C 
ATOM     19  C   UNL     1      10.373 -26.749  15.075  1.00  0.00     0.029 A 
ATOM     20  N   UNL     1      10.549 -26.686  17.287  1.00  0.00    -0.354 N 
ATOM     21  C   UNL     1       8.215 -23.894  19.658  1.00  0.00     0.074 A 
ATOM     22  C   UNL     1       6.938 -24.177  19.053  1.00  0.00     0.031 C 
ATOM     23  C   UNL     1      10.948 -27.910  15.463  1.00  0.00     0.029 A 
ATOM     24  C   UNL     1      11.059 -27.922  16.913  1.00  0.00     0.049 A 
ATOM     25  H   UNL     1      10.604 -26.337  18.206  1.00  0.00     0.167 HD
ATOM     26  C   UNL     1       8.562 -23.786  20.970  1.00  0.00     0.031 A 
ATOM     27  C   UNL     1      11.486 -28.912  17.735  1.00  0.00     0.031 A 
ATOM     28  C   UNL     1       9.936 -23.397  21.143  1.00  0.00     0.049 A 
ATOM     29  C   UNL     1      11.751 -28.330  19.067  1.00  0.00     0.074 A 
ATOM     30  C   UNL     1      10.711 -22.323  20.754  1.00  0.00     0.029 A 
ATOM     31  N   UNL     1      10.819 -24.364  21.555  1.00  0.00    -0.354 N 
ATOM     32  N   UNL     1      12.750 -27.539  19.328  1.00  0.00    -0.248 NA
ATOM     33  C   UNL     1      10.687 -28.340  20.058  1.00  0.00     0.031 C 
ATOM     34  C   UNL     1      12.002 -22.873  20.500  1.00  0.00     0.029 A 
ATOM     35  C   UNL     1      11.944 -24.237  20.788  1.00  0.00     0.049 A 
ATOM     36  H   UNL     1      10.670 -25.025  22.269  1.00  0.00     0.167 HD
ATOM     37  C   UNL     1      12.251 -26.640  20.257  1.00  0.00     0.074 A 
ATOM     38  C   UNL     1      11.031 -27.261  20.765  1.00  0.00     0.031 C 
ATOM     39  C   UNL     1      12.720 -25.359  20.313  1.00  0.00     0.031 A 
BRANCH  26  40
ATOM     40  C   UNL     1       7.780 -24.440  22.089  1.00  0.00    -0.014 A 
ATOM     41  C   UNL     1       8.219 -24.262  23.415  1.00  0.00     0.009 A 
ATOM     42  C   UNL     1       6.836 -25.460  21.870  1.00  0.00     0.009 A 
ATOM     43  C   UNL     1       7.809 -25.122  24.442  1.00  0.00     0.001 A 
ATOM     44  C   UNL     1       6.387 -26.290  22.902  1.00  0.00     0.001 A 
ATOM     45  C   UNL     1       6.901 -26.142  24.182  1.00  0.00     0.000 A 
ENDBRANCH  26  40
BRANCH  27  46
ATOM     46  C   UNL     1      11.480 -30.375  17.520  1.00  0.00    -0.014 A 
ATOM     47  C   UNL     1      12.265 -31.222  18.320  1.00  0.00     0.009 A 
ATOM     48  C   UNL     1      10.501 -30.968  16.703  1.00  0.00     0.009 A 
ATOM     49  C   UNL     1      12.049 -32.606  18.331  1.00  0.00     0.001 A 
ATOM     50  C   UNL     1      10.290 -32.350  16.709  1.00  0.00     0.001 A 
ATOM     51  C   UNL     1      11.053 -33.168  17.535  1.00  0.00     0.000 A 
ENDBRANCH  27  46
BRANCH  39  52
ATOM     52  C   UNL     1      13.991 -25.035  19.571  1.00  0.00    -0.014 A 
ATOM     53  C   UNL     1      14.139 -25.220  18.186  1.00  0.00     0.009 A 
ATOM     54  C   UNL     1      15.025 -24.395  20.271  1.00  0.00     0.009 A 
ATOM     55  C   UNL     1      15.306 -24.816  17.530  1.00  0.00     0.001 A 
ATOM     56  C   UNL     1      16.179 -23.968  19.612  1.00  0.00     0.001 A 
ATOM     57  C   UNL     1      16.323 -24.186  18.244  1.00  0.00     0.000 A 
ENDBRANCH  39  52
ENDBRANCH  13  14
ENDBRANCH   6   8
ENDBRANCH   3   4
ENDBRANCH   2   3
ENDBRANCH   1   2
BRANCH   1  58
ATOM     58  C   UNL     1       9.123 -19.460   8.852  1.00  0.00     0.002 C 
BRANCH  58  59
ATOM     59  C   UNL     1       9.626 -18.044   9.155  1.00  0.00     0.021 C 
BRANCH  59  60
ATOM     60  C   UNL     1      11.142 -17.850   9.046  1.00  0.00     0.116 C 
BRANCH  60  61
ATOM     61  N   UNL     1      11.591 -17.911   7.664  1.00  0.00    -0.351 N 
ATOM     62  C   UNL     1      12.179 -16.932   6.889  1.00  0.00     0.272 C 
ATOM     63  H   UNL     1      11.456 -18.776   7.215  1.00  0.00     0.163 HD
ATOM     64  O   UNL     1      12.249 -17.120   5.674  1.00  0.00    -0.267 OA
BRANCH  62  65
ATOM     65  C   UNL     1      12.661 -15.684   7.505  1.00  0.00     0.155 A 
ATOM     66  N   UNL     1      13.215 -15.633   8.735  1.00  0.00    -0.167 NA
ATOM     67  C   UNL     1      12.671 -14.392   6.907  1.00  0.00     0.026 A 
ATOM     68  N   UNL     1      13.461 -14.324   8.960  1.00  0.00    -0.264 N 
ATOM     69  C   UNL     1      13.105 -13.542   7.905  1.00  0.00     0.046 A 
ATOM     70  C   UNL     1      12.243 -13.941   5.548  1.00  0.00     0.159 C 
ATOM     71  C   UNL     1      13.159 -12.063   7.787  1.00  0.00     0.078 C 
ATOM     72  N   UNL     1      12.510 -12.488   5.421  1.00  0.00    -0.337 N 
ATOM     73  C   UNL     1      12.240 -11.658   6.613  1.00  0.00     0.126 C 
BRANCH  68  74
ATOM     74  C   UNL     1      14.113 -13.918  10.198  1.00  0.00     0.180 C 
BRANCH  74  75
ATOM     75  C   UNL     1      13.183 -14.022  11.384  1.00  0.00    -0.026 A 
ATOM     76  C   UNL     1      12.958 -15.270  11.991  1.00  0.00     0.008 A 
ATOM     77  C   UNL     1      12.522 -12.890  11.885  1.00  0.00     0.008 A 
ATOM     78  C   UNL     1      12.094 -15.384  13.079  1.00  0.00     0.039 A 
ATOM     79  C   UNL     1      11.658 -13.007  12.976  1.00  0.00     0.039 A 
ATOM     80  C   UNL     1      11.453 -14.251  13.562  1.00  0.00     0.123 A 
ATOM     81  F   UNL     1      10.620 -14.359  14.606  1.00  0.00    -0.207 F 
ENDBRANCH  74  75
ENDBRANCH  68  74
BRANCH  72  82
ATOM     82  C   UNL     1      12.971 -12.002   4.205  1.00  0.00     0.232 C 
ATOM     83  O   UNL     1      13.124 -12.697   3.212  1.00  0.00    -0.274 OA
BRANCH  82  84
ATOM     84  C   UNL     1      13.228 -10.548   4.116  1.00  0.00     0.154 C 
ATOM     85  C   UNL     1      14.426  -9.922   4.812  1.00  0.00     0.097 C 
ATOM     86  C   UNL     1      14.380 -10.038   3.335  1.00  0.00     0.260 C 
ATOM     87  F   UNL     1      15.300 -10.844   2.711  1.00  0.00    -0.206 F 
ATOM     88  F   UNL     1      14.269  -8.887   2.587  1.00  0.00    -0.206 F 
ENDBRANCH  82  84
ENDBRANCH  72  82
ENDBRANCH  62  65
ENDBRANCH  60  61
ENDBRANCH  59  60
ENDBRANCH  58  59
ENDBRANCH   1  58
TORSDOF 17
