REMARK SMILES O=C(NCCCCCCNC(=O)[C@H]1C=C[C@H](NS(=O)(=O)c2ccc(F)c(F)c2F)C1)c1ccc(-c2c3nc(c(-c4ccccc4)c4ccc([nH]4)c(-c4ccccc4)c4nc(c(-c5ccccc5)c5ccc2[nH]5)C=C4)C=C3)cc1
REMARK SMILES IDX 7 1 6 2 5 3 4 4 3 5 1 6 2 7 31 9 32 10 78 11 33 12 77 13
REMARK SMILES IDX 34 14 35 15 36 16 71 17 37 18 76 19 70 20 72 21 38 22 75 23
REMARK SMILES IDX 69 24 68 25 39 27 61 28 46 29 60 30 47 31 50 32 59 33 73 34
REMARK SMILES IDX 48 35 49 36 58 38 74 39 51 40 40 41 41 42 45 43 42 44 44 45
REMARK SMILES IDX 43 46 62 47 63 48 67 49 64 50 66 51 65 52 52 53 53 54 57 55
REMARK SMILES IDX 54 56 56 57 55 58 8 59 9 60 10 61 11 62 12 64 13 65 14 66
REMARK SMILES IDX 30 67 15 68 16 69 17 70 18 72 19 73 20 74 21 75 22 76 28 77
REMARK SMILES IDX 23 78 26 79 29 80 24 81 27 82 25 83
REMARK H PARENT 3 8 72 26 50 37 10 63 17 71
REMARK Flexibility Score: inf
ROOT
ATOM      1  C   UNL     1       4.739  -3.302  -2.853  1.00  0.00     0.002 C 
ENDROOT
BRANCH   1   2
ATOM      2  C   UNL     1       4.036  -3.550  -1.513  1.00  0.00     0.002 C 
BRANCH   2   3
ATOM      3  C   UNL     1       4.482  -2.625  -0.383  1.00  0.00     0.021 C 
BRANCH   3   4
ATOM      4  C   UNL     1       4.309  -1.146  -0.695  1.00  0.00     0.116 C 
BRANCH   4   5
ATOM      5  N   UNL     1       2.909  -0.774  -0.833  1.00  0.00    -0.352 N 
ATOM      6  O   UNL     1       0.964   0.207  -0.229  1.00  0.00    -0.269 OA
ATOM      7  C   UNL     1       2.183   0.151  -0.121  1.00  0.00     0.251 C 
ATOM      8  H   UNL     1       2.411  -1.251  -1.536  1.00  0.00     0.163 HD
BRANCH   7   9
ATOM      9  C   UNL     1       2.891   1.060   0.803  1.00  0.00     0.039 A 
ATOM     10  C   UNL     1       4.080   1.675   0.407  1.00  0.00     0.014 A 
ATOM     11  C   UNL     1       2.384   1.268   2.088  1.00  0.00     0.014 A 
ATOM     12  C   UNL     1       4.854   2.339   1.347  1.00  0.00     0.010 A 
ATOM     13  C   UNL     1       3.112   2.035   3.001  1.00  0.00     0.010 A 
ATOM     14  C   UNL     1       4.376   2.537   2.653  1.00  0.00    -0.014 A 
BRANCH  14  15
ATOM     15  C   UNL     1       5.210   3.301   3.616  1.00  0.00     0.031 A 
ATOM     16  C   UNL     1       5.729   2.665   4.878  1.00  0.00     0.074 A 
ATOM     17  C   UNL     1       5.539   4.573   3.317  1.00  0.00     0.049 A 
ATOM     18  N   UNL     1       6.515   3.177   5.793  1.00  0.00    -0.248 NA
ATOM     19  C   UNL     1       5.311   1.283   5.156  1.00  0.00     0.031 C 
ATOM     20  C   UNL     1       5.099   5.301   2.124  1.00  0.00     0.029 A 
ATOM     21  N   UNL     1       6.343   5.470   3.973  1.00  0.00    -0.354 N 
ATOM     22  C   UNL     1       6.662   2.194   6.765  1.00  0.00     0.074 A 
ATOM     23  C   UNL     1       5.862   1.065   6.342  1.00  0.00     0.031 C 
ATOM     24  C   UNL     1       5.689   6.504   2.099  1.00  0.00     0.029 A 
ATOM     25  C   UNL     1       6.486   6.663   3.308  1.00  0.00     0.049 A 
ATOM     26  H   UNL     1       6.775   5.277   4.836  1.00  0.00     0.167 HD
ATOM     27  C   UNL     1       7.397   2.228   7.902  1.00  0.00     0.031 A 
ATOM     28  C   UNL     1       7.172   7.772   3.638  1.00  0.00     0.031 A 
ATOM     29  C   UNL     1       8.192   3.356   8.320  1.00  0.00     0.049 A 
ATOM     30  C   UNL     1       7.946   7.793   4.923  1.00  0.00     0.074 A 
ATOM     31  C   UNL     1       9.001   3.473   9.438  1.00  0.00     0.029 A 
ATOM     32  N   UNL     1       8.270   4.564   7.643  1.00  0.00    -0.354 N 
ATOM     33  N   UNL     1       8.107   6.840   5.807  1.00  0.00    -0.248 NA
ATOM     34  C   UNL     1       8.639   9.046   5.249  1.00  0.00     0.031 C 
ATOM     35  C   UNL     1       9.515   4.774   9.472  1.00  0.00     0.029 A 
ATOM     36  C   UNL     1       9.090   5.441   8.335  1.00  0.00     0.049 A 
ATOM     37  H   UNL     1       7.811   4.768   6.797  1.00  0.00     0.167 HD
ATOM     38  C   UNL     1       8.947   7.365   6.779  1.00  0.00     0.074 A 
ATOM     39  C   UNL     1       9.275   8.714   6.363  1.00  0.00     0.031 C 
ATOM     40  C   UNL     1       9.409   6.782   7.912  1.00  0.00     0.031 A 
BRANCH  27  41
ATOM     41  C   UNL     1       7.348   1.022   8.803  1.00  0.00    -0.014 A 
ATOM     42  C   UNL     1       7.933  -0.200   8.432  1.00  0.00     0.009 A 
ATOM     43  C   UNL     1       6.740   1.123  10.065  1.00  0.00     0.009 A 
ATOM     44  C   UNL     1       7.874  -1.303   9.289  1.00  0.00     0.001 A 
ATOM     45  C   UNL     1       6.711   0.030  10.932  1.00  0.00     0.001 A 
ATOM     46  C   UNL     1       7.268  -1.185  10.540  1.00  0.00     0.000 A 
ENDBRANCH  27  41
BRANCH  28  47
ATOM     47  C   UNL     1       7.151   8.954   2.737  1.00  0.00    -0.014 A 
ATOM     48  C   UNL     1       8.314   9.364   2.068  1.00  0.00     0.009 A 
ATOM     49  C   UNL     1       5.966   9.683   2.546  1.00  0.00     0.009 A 
ATOM     50  C   UNL     1       8.297  10.497   1.251  1.00  0.00     0.001 A 
ATOM     51  C   UNL     1       5.944  10.793   1.701  1.00  0.00     0.001 A 
ATOM     52  C   UNL     1       7.112  11.207   1.064  1.00  0.00     0.000 A 
ENDBRANCH  28  47
BRANCH  40  53
ATOM     53  C   UNL     1      10.366   7.583   8.752  1.00  0.00    -0.014 A 
ATOM     54  C   UNL     1       9.951   8.720   9.463  1.00  0.00     0.009 A 
ATOM     55  C   UNL     1      11.708   7.179   8.839  1.00  0.00     0.009 A 
ATOM     56  C   UNL     1      10.872   9.463  10.204  1.00  0.00     0.001 A 
ATOM     57  C   UNL     1      12.618   7.902   9.611  1.00  0.00     0.001 A 
ATOM     58  C   UNL     1      12.203   9.052  10.281  1.00  0.00     0.000 A 
ENDBRANCH  40  53
ENDBRANCH  14  15
ENDBRANCH   7   9
ENDBRANCH   4   5
ENDBRANCH   3   4
ENDBRANCH   2   3
ENDBRANCH   1   2
BRANCH   1  59
ATOM     59  C   UNL     1       6.274  -3.304  -2.783  1.00  0.00     0.021 C 
BRANCH  59  60
ATOM     60  C   UNL     1       6.846  -4.635  -2.298  1.00  0.00     0.116 C 
BRANCH  60  61
ATOM     61  N   UNL     1       6.676  -5.634  -3.331  1.00  0.00    -0.356 N 
ATOM     62  C   UNL     1       7.551  -6.080  -4.270  1.00  0.00     0.226 C 
ATOM     63  H   UNL     1       5.787  -6.056  -3.358  1.00  0.00     0.163 HD
ATOM     64  O   UNL     1       7.085  -6.708  -5.225  1.00  0.00    -0.274 OA
BRANCH  62  65
ATOM     65  C   UNL     1       9.069  -5.983  -4.086  1.00  0.00     0.103 C 
ATOM     66  C   UNL     1       9.726  -4.694  -3.713  1.00  0.00    -0.016 C 
ATOM     67  C   UNL     1       9.488  -6.942  -2.969  1.00  0.00     0.042 C 
ATOM     68  C   UNL     1      10.488  -4.820  -2.618  1.00  0.00    -0.011 C 
ATOM     69  C   UNL     1      10.400  -6.181  -2.004  1.00  0.00     0.093 C 
BRANCH  69  70
ATOM     70  N   UNL     1      11.717  -6.792  -1.968  1.00  0.00    -0.204 NA
ATOM     71  H   UNL     1      12.387  -6.031  -1.859  1.00  0.00     0.142 HD
BRANCH  70  72
ATOM     72  S   UNL     1      12.105  -7.938  -0.808  1.00  0.00     0.244 S 
ATOM     73  O   UNL     1      13.515  -8.197  -0.991  1.00  0.00    -0.207 OA
ATOM     74  O   UNL     1      11.588  -7.509   0.472  1.00  0.00    -0.207 OA
BRANCH  72  75
ATOM     75  C   UNL     1      11.239  -9.391  -1.317  1.00  0.00     0.121 A 
ATOM     76  C   UNL     1      11.918 -10.448  -1.938  1.00  0.00     0.028 A 
ATOM     77  C   UNL     1       9.868  -9.479  -1.097  1.00  0.00     0.181 A 
ATOM     78  C   UNL     1      11.198 -11.554  -2.401  1.00  0.00     0.044 A 
ATOM     79  C   UNL     1       9.151 -10.557  -1.599  1.00  0.00     0.195 A 
ATOM     80  F   UNL     1       9.202  -8.500  -0.469  1.00  0.00    -0.202 F 
ATOM     81  C   UNL     1       9.814 -11.588  -2.251  1.00  0.00     0.161 A 
ATOM     82  F   UNL     1       7.816 -10.584  -1.481  1.00  0.00    -0.200 F 
ATOM     83  F   UNL     1       9.124 -12.624  -2.748  1.00  0.00    -0.204 F 
ENDBRANCH  72  75
ENDBRANCH  70  72
ENDBRANCH  69  70
ENDBRANCH  62  65
ENDBRANCH  60  61
ENDBRANCH  59  60
ENDBRANCH   1  59
TORSDOF 16
