REMARK SMILES O=C(CNS(=O)(=O)c1ccccc1)N[C@@H](CO)C(=O)NCCCCCCNC(=O)c1ccc(-c2c3nc(c(-c4ccccc4)c4ccc([nH]4)c(-c4ccccc4)c4nc(c(-c5ccccc5)c5ccc2[nH]5)C=C4)C=C3)cc1
REMARK SMILES IDX 22 1 21 2 20 3 18 4 19 5 15 7 14 8 1 9 2 10 3 12 4 13 5 15
REMARK SMILES IDX 6 16 7 17 8 18 9 19 13 20 10 21 12 22 11 23 16 24 17 25
REMARK SMILES IDX 23 27 24 28 25 29 26 30 27 31 28 32 29 34 30 35 31 36 77 37
REMARK SMILES IDX 32 38 76 39 33 40 34 41 35 42 70 43 36 44 75 45 69 46 71 47
REMARK SMILES IDX 37 48 74 49 68 50 67 51 38 53 60 54 45 55 59 56 46 57 49 58
REMARK SMILES IDX 58 59 72 60 47 61 48 62 57 64 73 65 50 66 39 67 40 68 44 69
REMARK SMILES IDX 41 70 43 71 42 72 61 73 62 74 66 75 63 76 65 77 64 78 51 79
REMARK SMILES IDX 52 80 56 81 53 82 55 83 54 84
REMARK H PARENT 20 6 14 11 4 14 17 26 27 33 71 52 49 63
REMARK Flexibility Score: inf
ROOT
ATOM      1  C   UNL     1       6.211   1.184  -2.786  1.00  0.00     0.021 C 
ENDROOT
BRANCH   1   2
ATOM      2  C   UNL     1       5.149   2.208  -2.391  1.00  0.00     0.116 C 
BRANCH   2   3
ATOM      3  N   UNL     1       3.957   2.091  -3.207  1.00  0.00    -0.354 N 
ATOM      4  C   UNL     1       2.638   2.098  -2.873  1.00  0.00     0.244 C 
ATOM      5  O   UNL     1       1.833   2.252  -3.798  1.00  0.00    -0.273 OA
ATOM      6  H   UNL     1       4.133   1.989  -4.170  1.00  0.00     0.163 HD
BRANCH   4   7
ATOM      7  C   UNL     1       2.140   2.007  -1.420  1.00  0.00     0.197 C 
BRANCH   7   8
ATOM      8  N   UNL     1       2.720   0.883  -0.684  1.00  0.00    -0.341 N 
ATOM      9  O   UNL     1       0.880   0.498   0.618  1.00  0.00    -0.274 OA
ATOM     10  C   UNL     1       1.996   0.158   0.236  1.00  0.00     0.235 C 
ATOM     11  H   UNL     1       3.658   0.637  -0.852  1.00  0.00     0.164 HD
BRANCH  10  12
ATOM     12  C   UNL     1       2.695  -1.093   0.763  1.00  0.00     0.198 C 
BRANCH  12  13
ATOM     13  N   UNL     1       3.895  -1.417  -0.049  1.00  0.00    -0.202 NA
ATOM     14  H   UNL     1       4.479  -0.582  -0.092  1.00  0.00     0.141 HD
BRANCH  13  15
ATOM     15  S   UNL     1       4.851  -2.691   0.528  1.00  0.00     0.241 S 
ATOM     16  O   UNL     1       3.949  -3.680   1.072  1.00  0.00    -0.207 OA
ATOM     17  O   UNL     1       5.771  -2.992  -0.544  1.00  0.00    -0.207 OA
BRANCH  15  18
ATOM     18  C   UNL     1       5.798  -2.001   1.855  1.00  0.00     0.082 A 
ATOM     19  C   UNL     1       6.281  -2.869   2.840  1.00  0.00     0.022 A 
ATOM     20  C   UNL     1       6.029  -0.626   1.940  1.00  0.00     0.022 A 
ATOM     21  C   UNL     1       7.005  -2.356   3.915  1.00  0.00     0.001 A 
ATOM     22  C   UNL     1       6.745  -0.119   3.026  1.00  0.00     0.001 A 
ATOM     23  C   UNL     1       7.233  -0.983   4.009  1.00  0.00     0.000 A 
ENDBRANCH  15  18
ENDBRANCH  13  15
ENDBRANCH  12  13
ENDBRANCH  10  12
ENDBRANCH   7   8
BRANCH   7  24
ATOM     24  C   UNL     1       2.244   3.357  -0.696  1.00  0.00     0.191 C 
BRANCH  24  25
ATOM     25  O   UNL     1       3.538   3.597  -0.140  1.00  0.00    -0.394 OA
ATOM     26  H   UNL     1       3.735   2.919   0.525  1.00  0.00     0.210 HD
ENDBRANCH  24  25
ENDBRANCH   7  24
ENDBRANCH   4   7
ENDBRANCH   2   3
ENDBRANCH   1   2
BRANCH   1  27
ATOM     27  C   UNL     1       6.783   1.346  -4.199  1.00  0.00     0.002 C 
BRANCH  27  28
ATOM     28  C   UNL     1       7.398   2.712  -4.519  1.00  0.00     0.002 C 
BRANCH  28  29
ATOM     29  C   UNL     1       8.460   3.213  -3.538  1.00  0.00     0.021 C 
BRANCH  29  30
ATOM     30  C   UNL     1       9.624   2.261  -3.282  1.00  0.00     0.116 C 
BRANCH  30  31
ATOM     31  N   UNL     1      10.396   1.975  -4.478  1.00  0.00    -0.352 N 
ATOM     32  C   UNL     1      11.758   1.950  -4.651  1.00  0.00     0.251 C 
ATOM     33  H   UNL     1       9.867   1.769  -5.282  1.00  0.00     0.163 HD
ATOM     34  O   UNL     1      12.233   1.804  -5.773  1.00  0.00    -0.269 OA
BRANCH  32  35
ATOM     35  C   UNL     1      12.662   2.131  -3.492  1.00  0.00     0.039 A 
ATOM     36  C   UNL     1      13.754   2.994  -3.625  1.00  0.00     0.014 A 
ATOM     37  C   UNL     1      12.454   1.445  -2.292  1.00  0.00     0.014 A 
ATOM     38  C   UNL     1      14.603   3.214  -2.538  1.00  0.00     0.010 A 
ATOM     39  C   UNL     1      13.268   1.710  -1.191  1.00  0.00     0.010 A 
ATOM     40  C   UNL     1      14.351   2.595  -1.304  1.00  0.00    -0.014 A 
BRANCH  40  41
ATOM     41  C   UNL     1      15.210   2.863  -0.124  1.00  0.00     0.031 A 
ATOM     42  C   UNL     1      16.065   1.771   0.456  1.00  0.00     0.074 A 
ATOM     43  C   UNL     1      15.178   4.074   0.463  1.00  0.00     0.049 A 
ATOM     44  N   UNL     1      16.837   1.801   1.513  1.00  0.00    -0.248 NA
ATOM     45  C   UNL     1      16.031   0.468  -0.227  1.00  0.00     0.031 C 
ATOM     46  C   UNL     1      14.364   5.209   0.024  1.00  0.00     0.029 A 
ATOM     47  N   UNL     1      15.846   4.550   1.565  1.00  0.00    -0.354 N 
ATOM     48  C   UNL     1      17.363   0.521   1.634  1.00  0.00     0.074 A 
ATOM     49  C   UNL     1      16.794  -0.272   0.565  1.00  0.00     0.031 C 
ATOM     50  C   UNL     1      14.595   6.255   0.835  1.00  0.00     0.029 A 
ATOM     51  C   UNL     1      15.548   5.856   1.867  1.00  0.00     0.049 A 
ATOM     52  H   UNL     1      16.478   4.006   2.088  1.00  0.00     0.167 HD
ATOM     53  C   UNL     1      18.249   0.050   2.542  1.00  0.00     0.031 A 
ATOM     54  C   UNL     1      15.990   6.645   2.864  1.00  0.00     0.031 A 
ATOM     55  C   UNL     1      18.834   0.838   3.594  1.00  0.00     0.049 A 
ATOM     56  C   UNL     1      16.983   6.102   3.852  1.00  0.00     0.074 A 
ATOM     57  C   UNL     1      19.787   0.463   4.525  1.00  0.00     0.029 A 
ATOM     58  N   UNL     1      18.521   2.163   3.852  1.00  0.00    -0.354 N 
ATOM     59  N   UNL     1      17.513   4.906   3.916  1.00  0.00    -0.248 NA
ATOM     60  C   UNL     1      17.445   7.025   4.899  1.00  0.00     0.031 C 
ATOM     61  C   UNL     1      20.024   1.552   5.371  1.00  0.00     0.029 A 
ATOM     62  C   UNL     1      19.249   2.616   4.939  1.00  0.00     0.049 A 
ATOM     63  H   UNL     1      17.876   2.702   3.339  1.00  0.00     0.167 HD
ATOM     64  C   UNL     1      18.389   4.938   4.992  1.00  0.00     0.074 A 
ATOM     65  C   UNL     1      18.327   6.276   5.545  1.00  0.00     0.031 C 
ATOM     66  C   UNL     1      19.175   3.948   5.479  1.00  0.00     0.031 A 
BRANCH  53  67
ATOM     67  C   UNL     1      18.637  -1.398   2.439  1.00  0.00    -0.014 A 
ATOM     68  C   UNL     1      19.472  -1.854   1.407  1.00  0.00     0.009 A 
ATOM     69  C   UNL     1      18.186  -2.312   3.404  1.00  0.00     0.009 A 
ATOM     70  C   UNL     1      19.819  -3.204   1.323  1.00  0.00     0.001 A 
ATOM     71  C   UNL     1      18.556  -3.656   3.332  1.00  0.00     0.001 A 
ATOM     72  C   UNL     1      19.364  -4.103   2.287  1.00  0.00     0.000 A 
ENDBRANCH  53  67
BRANCH  54  73
ATOM     73  C   UNL     1      15.510   8.046   2.967  1.00  0.00    -0.014 A 
ATOM     74  C   UNL     1      16.355   9.112   2.623  1.00  0.00     0.009 A 
ATOM     75  C   UNL     1      14.207   8.324   3.408  1.00  0.00     0.009 A 
ATOM     76  C   UNL     1      15.912  10.431   2.740  1.00  0.00     0.001 A 
ATOM     77  C   UNL     1      13.759   9.643   3.502  1.00  0.00     0.001 A 
ATOM     78  C   UNL     1      14.614  10.695   3.175  1.00  0.00     0.000 A 
ENDBRANCH  54  73
BRANCH  66  79
ATOM     79  C   UNL     1      20.052   4.282   6.650  1.00  0.00    -0.014 A 
ATOM     80  C   UNL     1      19.519   4.416   7.941  1.00  0.00     0.009 A 
ATOM     81  C   UNL     1      21.435   4.430   6.463  1.00  0.00     0.009 A 
ATOM     82  C   UNL     1      20.352   4.720   9.019  1.00  0.00     0.001 A 
ATOM     83  C   UNL     1      22.269   4.711   7.546  1.00  0.00     0.001 A 
ATOM     84  C   UNL     1      21.726   4.863   8.822  1.00  0.00     0.000 A 
ENDBRANCH  66  79
ENDBRANCH  40  41
ENDBRANCH  32  35
ENDBRANCH  30  31
ENDBRANCH  29  30
ENDBRANCH  28  29
ENDBRANCH  27  28
ENDBRANCH   1  27
TORSDOF 20
