REMARK SMILES C[C@@H]1CCC[C@H](C)N1C(=O)Cn1cccc1C(=O)NCCCCCCNC(=O)c1ccc(-c2c3nc(c(-c4ccccc4)c4ccc([nH]4)c(-c4ccccc4)c4nc(c(-c5ccccc5)c5ccc2[nH]5)C=C4)C=C3)cc1
REMARK SMILES IDX 22 1 21 2 20 3 19 4 17 5 18 6 16 8 12 9 13 10 14 11 15 12
REMARK SMILES IDX 11 13 9 14 10 15 8 16 1 17 2 18 3 19 4 20 6 21 5 22 7 23
REMARK SMILES IDX 23 24 24 25 25 26 26 27 27 28 28 30 29 31 30 32 76 33 31 34
REMARK SMILES IDX 75 35 32 36 33 37 34 38 69 39 35 40 74 41 68 42 70 43 36 44
REMARK SMILES IDX 73 45 67 46 66 47 37 49 59 50 44 51 58 52 45 53 48 54 57 55
REMARK SMILES IDX 71 56 46 57 47 58 56 60 72 61 49 62 38 63 39 64 43 65 40 66
REMARK SMILES IDX 42 67 41 68 60 69 61 70 65 71 62 72 64 73 63 74 50 75 51 76
REMARK SMILES IDX 55 77 52 78 54 79 53 80
REMARK H PARENT 19 7 26 29 70 48 48 59
REMARK Flexibility Score: inf
ROOT
ATOM      1  C   UNL     1      -2.976   2.581   0.925  1.00  0.00     0.002 C 
ENDROOT
BRANCH   1   2
ATOM      2  C   UNL     1      -1.637   2.601   1.665  1.00  0.00     0.021 C 
BRANCH   2   3
ATOM      3  C   UNL     1      -1.457   1.907   3.028  1.00  0.00     0.116 C 
BRANCH   3   4
ATOM      4  N   UNL     1      -1.222   0.467   2.966  1.00  0.00    -0.351 N 
ATOM      5  C   UNL     1      -0.253  -0.450   3.291  1.00  0.00     0.267 C 
ATOM      6  O   UNL     1      -0.716  -1.600   3.311  1.00  0.00    -0.268 OA
ATOM      7  H   UNL     1      -2.000   0.013   2.568  1.00  0.00     0.163 HD
BRANCH   5   8
ATOM      8  C   UNL     1       1.158  -0.254   3.631  1.00  0.00     0.107 A 
ATOM      9  N   UNL     1       2.152   0.644   3.274  1.00  0.00    -0.334 N 
ATOM     10  C   UNL     1       3.310   0.373   4.001  1.00  0.00     0.087 A 
ATOM     11  C   UNL     1       3.185  -0.861   4.575  1.00  0.00     0.020 A 
ATOM     12  C   UNL     1       1.858  -1.255   4.333  1.00  0.00     0.033 A 
BRANCH   9  13
ATOM     13  C   UNL     1       2.241   1.665   2.235  1.00  0.00     0.222 C 
BRANCH  13  14
ATOM     14  C   UNL     1       1.325   1.599   1.039  1.00  0.00     0.242 C 
ATOM     15  O   UNL     1       0.966   2.662   0.521  1.00  0.00    -0.273 OA
BRANCH  14  16
ATOM     16  N   UNL     1       1.118   0.367   0.417  1.00  0.00    -0.336 N 
ATOM     17  C   UNL     1       2.688   0.536  -1.462  1.00  0.00     0.031 C 
ATOM     18  C   UNL     1       2.300  -0.235  -0.196  1.00  0.00     0.082 C 
ATOM     19  C   UNL     1       2.157  -1.746  -0.395  1.00  0.00     0.025 C 
ATOM     20  C   UNL     1       0.810  -2.185  -0.958  1.00  0.00     0.004 C 
ATOM     21  C   UNL     1      -0.214  -0.071  -0.079  1.00  0.00     0.082 C 
ATOM     22  C   UNL     1      -0.311  -1.597  -0.125  1.00  0.00     0.025 C 
ATOM     23  C   UNL     1      -0.709   0.563  -1.382  1.00  0.00     0.031 C 
ENDBRANCH  14  16
ENDBRANCH  13  14
ENDBRANCH   9  13
ENDBRANCH   5   8
ENDBRANCH   3   4
ENDBRANCH   2   3
ENDBRANCH   1   2
BRANCH   1  24
ATOM     24  C   UNL     1      -3.950   3.664   1.371  1.00  0.00     0.002 C 
BRANCH  24  25
ATOM     25  C   UNL     1      -3.431   5.109   1.238  1.00  0.00     0.021 C 
BRANCH  25  26
ATOM     26  C   UNL     1      -3.003   5.524  -0.174  1.00  0.00     0.116 C 
BRANCH  26  27
ATOM     27  N   UNL     1      -4.124   5.409  -1.092  1.00  0.00    -0.352 N 
ATOM     28  C   UNL     1      -4.385   6.127  -2.228  1.00  0.00     0.251 C 
ATOM     29  H   UNL     1      -4.788   4.719  -0.865  1.00  0.00     0.163 HD
ATOM     30  O   UNL     1      -5.526   6.240  -2.637  1.00  0.00    -0.269 OA
BRANCH  28  31
ATOM     31  C   UNL     1      -3.272   6.707  -2.996  1.00  0.00     0.039 A 
ATOM     32  C   UNL     1      -3.466   7.948  -3.613  1.00  0.00     0.014 A 
ATOM     33  C   UNL     1      -2.120   5.947  -3.231  1.00  0.00     0.014 A 
ATOM     34  C   UNL     1      -2.488   8.440  -4.462  1.00  0.00     0.010 A 
ATOM     35  C   UNL     1      -1.139   6.436  -4.072  1.00  0.00     0.010 A 
ATOM     36  C   UNL     1      -1.331   7.679  -4.681  1.00  0.00    -0.014 A 
BRANCH  36  37
ATOM     37  C   UNL     1      -0.239   8.266  -5.470  1.00  0.00     0.031 A 
ATOM     38  C   UNL     1       0.603   9.231  -4.603  1.00  0.00     0.074 A 
ATOM     39  C   UNL     1      -0.206   7.874  -6.781  1.00  0.00     0.049 A 
ATOM     40  N   UNL     1       1.362  10.223  -4.949  1.00  0.00    -0.248 NA
ATOM     41  C   UNL     1       0.561   9.102  -3.115  1.00  0.00     0.031 C 
ATOM     42  C   UNL     1      -1.118   6.871  -7.394  1.00  0.00     0.029 A 
ATOM     43  N   UNL     1       0.565   8.217  -7.867  1.00  0.00    -0.354 N 
ATOM     44  C   UNL     1       1.990  10.729  -3.784  1.00  0.00     0.074 A 
ATOM     45  C   UNL     1       1.403  10.042  -2.676  1.00  0.00     0.031 C 
ATOM     46  C   UNL     1      -0.913   6.772  -8.726  1.00  0.00     0.029 A 
ATOM     47  C   UNL     1       0.134   7.692  -9.114  1.00  0.00     0.049 A 
ATOM     48  H   UNL     1       1.362   8.788  -7.785  1.00  0.00     0.167 HD
ATOM     49  C   UNL     1       3.028  11.617  -3.821  1.00  0.00     0.031 A 
ATOM     50  C   UNL     1       0.544   8.040 -10.372  1.00  0.00     0.031 A 
ATOM     51  C   UNL     1       3.253  12.045  -5.158  1.00  0.00     0.049 A 
ATOM     52  C   UNL     1       1.620   9.019 -10.165  1.00  0.00     0.074 A 
ATOM     53  C   UNL     1       2.567  12.908  -5.971  1.00  0.00     0.029 A 
ATOM     54  N   UNL     1       4.078  11.262  -5.925  1.00  0.00    -0.354 N 
ATOM     55  N   UNL     1       2.802   8.739  -9.713  1.00  0.00    -0.248 NA
ATOM     56  C   UNL     1       1.315  10.443 -10.343  1.00  0.00     0.031 C 
ATOM     57  C   UNL     1       2.592  12.247  -7.218  1.00  0.00     0.029 A 
ATOM     58  C   UNL     1       3.490  11.175  -7.164  1.00  0.00     0.049 A 
ATOM     59  H   UNL     1       4.924  10.844  -5.644  1.00  0.00     0.167 HD
ATOM     60  C   UNL     1       3.212   9.941  -9.193  1.00  0.00     0.074 A 
ATOM     61  C   UNL     1       2.441  10.966  -9.865  1.00  0.00     0.031 C 
ATOM     62  C   UNL     1       3.759   9.998  -7.951  1.00  0.00     0.031 A 
BRANCH  49  63
ATOM     63  C   UNL     1       4.043  12.037  -2.794  1.00  0.00    -0.014 A 
ATOM     64  C   UNL     1       4.826  13.183  -3.087  1.00  0.00     0.009 A 
ATOM     65  C   UNL     1       4.494  11.201  -1.770  1.00  0.00     0.009 A 
ATOM     66  C   UNL     1       6.067  13.406  -2.489  1.00  0.00     0.001 A 
ATOM     67  C   UNL     1       5.727  11.445  -1.141  1.00  0.00     0.001 A 
ATOM     68  C   UNL     1       6.529  12.519  -1.529  1.00  0.00     0.000 A 
ENDBRANCH  49  63
BRANCH  50  69
ATOM     69  C   UNL     1       0.092   7.833 -11.796  1.00  0.00    -0.014 A 
ATOM     70  C   UNL     1      -0.911   6.961 -12.225  1.00  0.00     0.009 A 
ATOM     71  C   UNL     1       0.654   8.661 -12.808  1.00  0.00     0.009 A 
ATOM     72  C   UNL     1      -1.398   7.006 -13.551  1.00  0.00     0.001 A 
ATOM     73  C   UNL     1       0.144   8.748 -14.106  1.00  0.00     0.001 A 
ATOM     74  C   UNL     1      -0.903   7.927 -14.474  1.00  0.00     0.000 A 
ENDBRANCH  50  69
BRANCH  62  75
ATOM     75  C   UNL     1       4.252   8.664  -7.397  1.00  0.00    -0.014 A 
ATOM     76  C   UNL     1       5.236   7.940  -8.087  1.00  0.00     0.009 A 
ATOM     77  C   UNL     1       3.683   8.041  -6.270  1.00  0.00     0.009 A 
ATOM     78  C   UNL     1       5.612   6.649  -7.688  1.00  0.00     0.001 A 
ATOM     79  C   UNL     1       4.056   6.749  -5.864  1.00  0.00     0.001 A 
ATOM     80  C   UNL     1       5.021   6.051  -6.579  1.00  0.00     0.000 A 
ENDBRANCH  62  75
ENDBRANCH  36  37
ENDBRANCH  28  31
ENDBRANCH  26  27
ENDBRANCH  25  26
ENDBRANCH  24  25
ENDBRANCH   1  24
TORSDOF 16
