REMARK SMILES NC(=O)COc1ccc(/C=C2\SC(=S)N(CCC(=O)NCCCCCCNC(=O)c3ccc(-c4c5nc(c(-c6ccccc6)c6ccc([nH]6)c(-c6ccccc6)c6nc(c(-c7ccccc7)c7ccc4[nH]7)C=C6)C=C5)cc3)C2=O)cc1
REMARK SMILES IDX 21 1 20 2 18 3 19 4 17 6 16 7 15 8 10 9 11 10 12 11 78 12
REMARK SMILES IDX 13 13 79 14 14 15 9 16 6 17 7 18 81 19 8 20 80 21 5 22 4 23
REMARK SMILES IDX 2 24 1 25 3 28 22 29 23 30 24 31 25 32 26 33 27 34 28 35
REMARK SMILES IDX 29 37 30 38 31 39 77 40 32 41 76 42 33 43 34 44 35 45 70 46
REMARK SMILES IDX 36 47 75 48 69 49 71 50 37 51 74 52 68 53 67 54 38 56 60 57
REMARK SMILES IDX 45 58 59 59 46 60 49 61 58 62 72 63 47 64 48 65 57 67 73 68
REMARK SMILES IDX 50 69 39 70 40 71 44 72 41 73 43 74 42 75 61 76 62 77 66 78
REMARK SMILES IDX 63 79 65 80 64 81 51 82 52 83 56 84 53 85 55 86 54 87
REMARK H PARENT 20 5 1 26 1 27 27 36 71 55 49 66
REMARK Flexibility Score: inf
ROOT
ATOM      1  C   UNL     1       0.152   0.260 -10.073  1.00  0.00     0.116 C 
ENDROOT
BRANCH   1   2
ATOM      2  N   UNL     1      -0.713   0.629 -11.182  1.00  0.00    -0.356 N 
ATOM      3  C   UNL     1      -1.281   1.830 -11.494  1.00  0.00     0.221 C 
ATOM      4  O   UNL     1      -2.187   1.851 -12.329  1.00  0.00    -0.275 OA
ATOM      5  H   UNL     1      -0.921  -0.103 -11.807  1.00  0.00     0.163 HD
BRANCH   3   6
ATOM      6  C   UNL     1      -0.788   3.116 -10.865  1.00  0.00     0.122 C 
BRANCH   6   7
ATOM      7  C   UNL     1      -1.692   3.637  -9.739  1.00  0.00     0.137 C 
BRANCH   7   8
ATOM      8  N   UNL     1      -0.957   3.711  -8.466  1.00  0.00    -0.292 N 
ATOM      9  C   UNL     1       0.179   1.631  -5.851  1.00  0.00     0.029 C 
ATOM     10  C   UNL     1      -0.077   2.749  -6.531  1.00  0.00     0.081 C 
ATOM     11  S   UNL     1       0.853   4.169  -6.674  1.00  0.00    -0.054 SA
ATOM     12  C   UNL     1      -1.213   2.777  -7.486  1.00  0.00     0.266 C 
ATOM     13  C   UNL     1       0.021   4.638  -8.161  1.00  0.00     0.148 C 
ATOM     14  O   UNL     1      -2.190   2.048  -7.406  1.00  0.00    -0.268 OA
ATOM     15  S   UNL     1       0.459   5.991  -9.029  1.00  0.00    -0.052 S 
BRANCH   9  16
ATOM     16  C   UNL     1       1.276   1.283  -4.945  1.00  0.00    -0.024 A 
ATOM     17  C   UNL     1       2.146  -0.370  -2.904  1.00  0.00     0.120 A 
ATOM     18  C   UNL     1       2.508  -0.669  -4.217  1.00  0.00     0.047 A 
ATOM     19  C   UNL     1       1.791   0.967  -2.637  1.00  0.00     0.047 A 
ATOM     20  C   UNL     1       2.095   0.189  -5.242  1.00  0.00     0.012 A 
ATOM     21  C   UNL     1       1.255   1.760  -3.649  1.00  0.00     0.012 A 
BRANCH  17  22
ATOM     22  O   UNL     1       1.911  -1.542  -2.059  1.00  0.00    -0.484 OA
BRANCH  22  23
ATOM     23  C   UNL     1       0.929  -2.624  -0.684  1.00  0.00     0.329 C 
BRANCH  23  24
ATOM     24  C   UNL     1      -0.660  -2.542  -0.042  1.00  0.00     0.255 C 
ATOM     25  N   UNL     1      -0.934  -1.687   0.993  1.00  0.00    -0.367 N 
ATOM     26  H   UNL     1      -1.845  -1.639   1.363  1.00  0.00     0.159 HD
ATOM     27  H   UNL     1      -0.220  -1.122   1.367  1.00  0.00     0.159 HD
ATOM     28  O   UNL     1      -1.574  -3.259  -0.451  1.00  0.00    -0.271 OA
ENDBRANCH  23  24
ENDBRANCH  22  23
ENDBRANCH  17  22
ENDBRANCH   9  16
ENDBRANCH   7   8
ENDBRANCH   6   7
ENDBRANCH   3   6
ENDBRANCH   1   2
BRANCH   1  29
ATOM     29  C   UNL     1      -0.679  -0.259  -8.900  1.00  0.00     0.021 C 
BRANCH  29  30
ATOM     30  C   UNL     1      -1.062  -1.742  -8.916  1.00  0.00     0.002 C 
BRANCH  30  31
ATOM     31  C   UNL     1      -0.026  -2.728  -8.349  1.00  0.00     0.002 C 
BRANCH  31  32
ATOM     32  C   UNL     1       0.548  -2.414  -6.957  1.00  0.00     0.021 C 
BRANCH  32  33
ATOM     33  C   UNL     1      -0.444  -2.288  -5.788  1.00  0.00     0.116 C 
BRANCH  33  34
ATOM     34  N   UNL     1      -0.514  -3.499  -5.000  1.00  0.00    -0.352 N 
ATOM     35  C   UNL     1      -0.005  -3.800  -3.766  1.00  0.00     0.251 C 
ATOM     36  H   UNL     1      -1.014  -4.234  -5.424  1.00  0.00     0.163 HD
ATOM     37  O   UNL     1      -0.056  -4.964  -3.369  1.00  0.00    -0.269 OA
BRANCH  35  38
ATOM     38  C   UNL     1       0.702  -2.836  -2.900  1.00  0.00     0.039 A 
ATOM     39  C   UNL     1       2.305  -3.431  -2.331  1.00  0.00     0.014 A 
ATOM     40  C   UNL     1      -0.040  -1.382  -2.127  1.00  0.00     0.014 A 
ATOM     41  C   UNL     1       3.182  -2.590  -1.020  1.00  0.00     0.010 A 
ATOM     42  C   UNL     1       0.852  -0.535  -0.754  1.00  0.00     0.010 A 
ATOM     43  C   UNL     1       2.500  -1.113  -0.242  1.00  0.00    -0.014 A 
BRANCH  43  44
ATOM     44  C   UNL     1       3.340  -0.422   0.775  1.00  0.00     0.031 A 
ATOM     45  C   UNL     1       2.840  -0.222   2.169  1.00  0.00     0.074 A 
ATOM     46  C   UNL     1       4.592  -0.017   0.481  1.00  0.00     0.049 A 
ATOM     47  N   UNL     1       3.186   0.661   3.068  1.00  0.00    -0.248 NA
ATOM     48  C   UNL     1       1.770  -1.118   2.603  1.00  0.00     0.031 C 
ATOM     49  C   UNL     1       5.290  -0.222  -0.788  1.00  0.00     0.029 A 
ATOM     50  N   UNL     1       5.513   0.646   1.257  1.00  0.00    -0.354 N 
ATOM     51  C   UNL     1       2.257   0.529   4.095  1.00  0.00     0.074 A 
ATOM     52  C   UNL     1       1.342  -0.518   3.703  1.00  0.00     0.031 C 
ATOM     53  C   UNL     1       6.539   0.264  -0.691  1.00  0.00     0.029 A 
ATOM     54  C   UNL     1       6.704   0.892   0.614  1.00  0.00     0.049 A 
ATOM     55  H   UNL     1       5.337   0.919   2.186  1.00  0.00     0.167 HD
ATOM     56  C   UNL     1       2.199   1.200   5.270  1.00  0.00     0.031 A 
ATOM     57  C   UNL     1       7.790   1.575   1.025  1.00  0.00     0.031 A 
ATOM     58  C   UNL     1       3.268   2.035   5.750  1.00  0.00     0.049 A 
ATOM     59  C   UNL     1       7.768   2.225   2.383  1.00  0.00     0.074 A 
ATOM     60  C   UNL     1       3.366   2.712   6.953  1.00  0.00     0.029 A 
ATOM     61  N   UNL     1       4.470   2.222   5.084  1.00  0.00    -0.354 N 
ATOM     62  N   UNL     1       6.803   2.248   3.273  1.00  0.00    -0.248 NA
ATOM     63  C   UNL     1       8.980   2.948   2.793  1.00  0.00     0.031 C 
ATOM     64  C   UNL     1       4.632   3.304   7.016  1.00  0.00     0.029 A 
ATOM     65  C   UNL     1       5.332   2.966   5.867  1.00  0.00     0.049 A 
ATOM     66  H   UNL     1       4.679   1.875   4.186  1.00  0.00     0.167 HD
ATOM     67  C   UNL     1       7.301   2.963   4.354  1.00  0.00     0.074 A 
ATOM     68  C   UNL     1       8.660   3.338   4.019  1.00  0.00     0.031 C 
ATOM     69  C   UNL     1       6.689   3.292   5.518  1.00  0.00     0.031 A 
BRANCH  56  70
ATOM     70  C   UNL     1       0.946   1.074   6.096  1.00  0.00    -0.014 A 
ATOM     71  C   UNL     1       0.559  -0.121   6.719  1.00  0.00     0.009 A 
ATOM     72  C   UNL     1       0.127   2.207   6.252  1.00  0.00     0.009 A 
ATOM     73  C   UNL     1      -0.650  -0.200   7.416  1.00  0.00     0.001 A 
ATOM     74  C   UNL     1      -1.057   2.139   6.988  1.00  0.00     0.001 A 
ATOM     75  C   UNL     1      -1.455   0.930   7.553  1.00  0.00     0.000 A 
ENDBRANCH  56  70
BRANCH  57  76
ATOM     76  C   UNL     1       8.985   1.697   0.144  1.00  0.00    -0.014 A 
ATOM     77  C   UNL     1      10.187   1.056   0.483  1.00  0.00     0.009 A 
ATOM     78  C   UNL     1       8.939   2.465  -1.029  1.00  0.00     0.009 A 
ATOM     79  C   UNL     1      11.323   1.205  -0.318  1.00  0.00     0.001 A 
ATOM     80  C   UNL     1      10.067   2.587  -1.845  1.00  0.00     0.001 A 
ATOM     81  C   UNL     1      11.261   1.967  -1.483  1.00  0.00     0.000 A 
ENDBRANCH  57  76
BRANCH  69  82
ATOM     82  C   UNL     1       7.504   4.035   6.537  1.00  0.00    -0.014 A 
ATOM     83  C   UNL     1       7.801   5.396   6.379  1.00  0.00     0.009 A 
ATOM     84  C   UNL     1       7.929   3.371   7.698  1.00  0.00     0.009 A 
ATOM     85  C   UNL     1       8.533   6.073   7.356  1.00  0.00     0.001 A 
ATOM     86  C   UNL     1       8.638   4.057   8.684  1.00  0.00     0.001 A 
ATOM     87  C   UNL     1       8.945   5.405   8.509  1.00  0.00     0.000 A 
ENDBRANCH  69  82
ENDBRANCH  43  44
ENDBRANCH  35  38
ENDBRANCH  33  34
ENDBRANCH  32  33
ENDBRANCH  31  32
ENDBRANCH  30  31
ENDBRANCH  29  30
ENDBRANCH   1  29
TORSDOF 19
