REMARK SMILES C[C@H](c1ccc(Br)s1)[NH+]1CCC(CC(=O)NCCCCCCNC(=O)c2ccc(-c3c4nc(c(-c5ccccc5)c5ccc([nH]5)c(-c5ccccc5)c5nc(c(-c6ccccc6)c6ccc3[nH]6)C=C5)C=C4)cc2)CC1
REMARK SMILES IDX 19 1 18 2 17 3 16 4 14 5 15 6 13 8 12 9 9 10 10 11 75 12
REMARK SMILES IDX 11 14 74 15 2 16 1 17 3 18 4 19 8 20 5 21 6 22 7 23 20 24
REMARK SMILES IDX 21 25 22 26 23 27 24 28 25 30 26 31 27 32 73 33 28 34 72 35
REMARK SMILES IDX 29 36 30 37 31 38 66 39 32 40 71 41 65 42 67 43 33 44 70 45
REMARK SMILES IDX 64 46 63 47 34 49 56 50 41 51 55 52 42 53 45 54 54 55 68 56
REMARK SMILES IDX 43 57 44 58 53 60 69 61 46 62 35 63 36 64 40 65 37 66 39 67
REMARK SMILES IDX 38 68 57 69 58 70 62 71 59 72 61 73 60 74 47 75 48 76 52 77
REMARK SMILES IDX 49 78 51 79 50 80
REMARK H PARENT 16 7 9 13 23 29 67 48 45 59
REMARK Flexibility Score: inf
ROOT
ATOM      1  C   UNL     1      -4.341   6.538  -0.058  1.00  0.00     0.002 C 
ENDROOT
BRANCH   1   2
ATOM      2  C   UNL     1      -3.981   5.082   0.229  1.00  0.00     0.021 C 
BRANCH   2   3
ATOM      3  C   UNL     1      -5.154   4.204   0.687  1.00  0.00     0.116 C 
BRANCH   3   4
ATOM      4  N   UNL     1      -5.765   3.511  -0.437  1.00  0.00    -0.356 N 
ATOM      5  C   UNL     1      -5.745   2.192  -0.790  1.00  0.00     0.220 C 
ATOM      6  O   UNL     1      -6.276   1.865  -1.853  1.00  0.00    -0.275 OA
ATOM      7  H   UNL     1      -6.278   4.090  -1.046  1.00  0.00     0.163 HD
BRANCH   5   8
ATOM      8  C   UNL     1      -5.081   1.152   0.100  1.00  0.00     0.104 C 
BRANCH   8   9
ATOM      9  C   UNL     1      -3.624   0.831  -0.289  1.00  0.00     0.009 C 
ATOM     10  N   UNL     1      -0.826   0.867   0.631  1.00  0.00    -0.328 N 
ATOM     11  C   UNL     1      -1.259   1.814  -0.387  1.00  0.00     0.263 C 
ATOM     12  C   UNL     1      -1.530  -0.417   0.485  1.00  0.00     0.263 C 
ATOM     13  H   UNL     1      -1.105   1.280   1.521  1.00  0.00     0.348 HD
ATOM     14  C   UNL     1      -2.747   2.077  -0.235  1.00  0.00     0.066 C 
ATOM     15  C   UNL     1      -3.047  -0.251   0.636  1.00  0.00     0.066 C 
BRANCH  10  16
ATOM     16  C   UNL     1       0.639   0.730   0.807  1.00  0.00     0.222 C 
ATOM     17  C   UNL     1       1.403   2.067   0.779  1.00  0.00     0.082 C 
BRANCH  16  18
ATOM     18  C   UNL     1       1.299  -0.260  -0.134  1.00  0.00     0.063 A 
ATOM     19  C   UNL     1       1.315  -0.299  -1.518  1.00  0.00     0.023 A 
ATOM     20  S   UNL     1       2.179  -1.587   0.527  1.00  0.00    -0.127 S 
ATOM     21  C   UNL     1       1.980  -1.455  -2.025  1.00  0.00     0.028 A 
ATOM     22  C   UNL     1       2.486  -2.222  -1.008  1.00  0.00     0.070 A 
ATOM     23  Br  UNL     1       3.420  -3.821  -1.282  1.00  0.00    -0.039 Br
ENDBRANCH  16  18
ENDBRANCH  10  16
ENDBRANCH   8   9
ENDBRANCH   5   8
ENDBRANCH   3   4
ENDBRANCH   2   3
ENDBRANCH   1   2
BRANCH   1  24
ATOM     24  C   UNL     1      -4.651   7.381   1.181  1.00  0.00     0.002 C 
BRANCH  24  25
ATOM     25  C   UNL     1      -3.558   7.409   2.256  1.00  0.00     0.021 C 
BRANCH  25  26
ATOM     26  C   UNL     1      -2.168   7.812   1.768  1.00  0.00     0.116 C 
BRANCH  26  27
ATOM     27  N   UNL     1      -2.152   9.153   1.206  1.00  0.00    -0.352 N 
ATOM     28  C   UNL     1      -1.500  10.280   1.639  1.00  0.00     0.251 C 
ATOM     29  H   UNL     1      -2.692   9.271   0.391  1.00  0.00     0.163 HD
ATOM     30  O   UNL     1      -1.778  11.375   1.163  1.00  0.00    -0.269 OA
BRANCH  28  31
ATOM     31  C   UNL     1      -0.464  10.181   2.690  1.00  0.00     0.039 A 
ATOM     32  C   UNL     1      -0.472  11.108   3.736  1.00  0.00     0.014 A 
ATOM     33  C   UNL     1       0.532   9.202   2.626  1.00  0.00     0.014 A 
ATOM     34  C   UNL     1       0.487  11.020   4.747  1.00  0.00     0.010 A 
ATOM     35  C   UNL     1       1.449   9.077   3.667  1.00  0.00     0.010 A 
ATOM     36  C   UNL     1       1.439   9.987   4.735  1.00  0.00    -0.014 A 
BRANCH  36  37
ATOM     37  C   UNL     1       2.432   9.846   5.830  1.00  0.00     0.031 A 
ATOM     38  C   UNL     1       3.898  10.033   5.553  1.00  0.00     0.074 A 
ATOM     39  C   UNL     1       2.019   9.490   7.062  1.00  0.00     0.049 A 
ATOM     40  N   UNL     1       4.916   9.895   6.365  1.00  0.00    -0.248 NA
ATOM     41  C   UNL     1       4.272  10.399   4.177  1.00  0.00     0.031 C 
ATOM     42  C   UNL     1       0.630   9.243   7.453  1.00  0.00     0.029 A 
ATOM     43  N   UNL     1       2.733   9.267   8.213  1.00  0.00    -0.354 N 
ATOM     44  C   UNL     1       6.048  10.140   5.597  1.00  0.00     0.074 A 
ATOM     45  C   UNL     1       5.596  10.391   4.246  1.00  0.00     0.031 C 
ATOM     46  C   UNL     1       0.591   8.925   8.757  1.00  0.00     0.029 A 
ATOM     47  C   UNL     1       1.951   8.909   9.284  1.00  0.00     0.049 A 
ATOM     48  H   UNL     1       3.712   9.355   8.265  1.00  0.00     0.167 HD
ATOM     49  C   UNL     1       7.345  10.170   5.984  1.00  0.00     0.031 A 
ATOM     50  C   UNL     1       2.292   8.597  10.549  1.00  0.00     0.031 A 
ATOM     51  C   UNL     1       7.795   9.934   7.330  1.00  0.00     0.049 A 
ATOM     52  C   UNL     1       3.740   8.631  10.951  1.00  0.00     0.074 A 
ATOM     53  C   UNL     1       9.084  10.000   7.832  1.00  0.00     0.029 A 
ATOM     54  N   UNL     1       6.971   9.586   8.388  1.00  0.00    -0.354 N 
ATOM     55  N   UNL     1       4.791   8.930  10.228  1.00  0.00    -0.248 NA
ATOM     56  C   UNL     1       4.045   8.296  12.350  1.00  0.00     0.031 C 
ATOM     57  C   UNL     1       9.044   9.645   9.185  1.00  0.00     0.029 A 
ATOM     58  C   UNL     1       7.725   9.411   9.536  1.00  0.00     0.049 A 
ATOM     59  H   UNL     1       5.994   9.479   8.331  1.00  0.00     0.167 HD
ATOM     60  C   UNL     1       5.878   8.846  11.088  1.00  0.00     0.074 A 
ATOM     61  C   UNL     1       5.356   8.483  12.390  1.00  0.00     0.031 C 
ATOM     62  C   UNL     1       7.191   9.051  10.823  1.00  0.00     0.031 A 
BRANCH  49  63
ATOM     63  C   UNL     1       8.376  10.464   4.930  1.00  0.00    -0.014 A 
ATOM     64  C   UNL     1       8.500  11.747   4.373  1.00  0.00     0.009 A 
ATOM     65  C   UNL     1       9.261   9.456   4.517  1.00  0.00     0.009 A 
ATOM     66  C   UNL     1       9.466  12.005   3.397  1.00  0.00     0.001 A 
ATOM     67  C   UNL     1      10.243   9.724   3.562  1.00  0.00     0.001 A 
ATOM     68  C   UNL     1      10.339  10.995   2.996  1.00  0.00     0.000 A 
ENDBRANCH  49  63
BRANCH  50  69
ATOM     69  C   UNL     1       1.241   8.238  11.536  1.00  0.00    -0.014 A 
ATOM     70  C   UNL     1       0.918   9.117  12.582  1.00  0.00     0.009 A 
ATOM     71  C   UNL     1       0.561   7.013  11.444  1.00  0.00     0.009 A 
ATOM     72  C   UNL     1      -0.044   8.764  13.530  1.00  0.00     0.001 A 
ATOM     73  C   UNL     1      -0.420   6.676  12.378  1.00  0.00     0.001 A 
ATOM     74  C   UNL     1      -0.715   7.547  13.426  1.00  0.00     0.000 A 
ENDBRANCH  50  69
BRANCH  62  75
ATOM     75  C   UNL     1       8.150   8.923  11.972  1.00  0.00    -0.014 A 
ATOM     76  C   UNL     1       8.481   7.670  12.510  1.00  0.00     0.009 A 
ATOM     77  C   UNL     1       8.761  10.073  12.497  1.00  0.00     0.009 A 
ATOM     78  C   UNL     1       9.380   7.574  13.574  1.00  0.00     0.001 A 
ATOM     79  C   UNL     1       9.681   9.971  13.541  1.00  0.00     0.001 A 
ATOM     80  C   UNL     1       9.983   8.724  14.085  1.00  0.00     0.000 A 
ENDBRANCH  62  75
ENDBRANCH  36  37
ENDBRANCH  28  31
ENDBRANCH  26  27
ENDBRANCH  25  26
ENDBRANCH  24  25
ENDBRANCH   1  24
TORSDOF 16
