REMARK SMILES CCc1ccc(C[NH+]2CCC(Oc3ccccc3OC)(C(=O)NCCCCCCNC(=O)c3ccc(-c4c5nc(c(-c6ccccc6)c6ccc([nH]6)c(-c6ccccc6)c6nc(c(-c7ccccc7)c7ccc4[nH]7)C=C6)C=C5)cc3)CC2)nc1
REMARK SMILES IDX 26 1 25 2 24 3 23 4 21 5 22 6 11 8 8 9 9 10 82 11 10 13
REMARK SMILES IDX 81 14 7 15 6 16 3 17 4 18 84 19 5 20 83 21 2 22 1 23 12 24
REMARK SMILES IDX 13 25 14 26 18 27 15 28 17 29 16 30 19 31 20 32 27 33 28 34
REMARK SMILES IDX 29 35 30 36 31 37 32 39 33 40 34 41 80 42 35 43 79 44 36 45
REMARK SMILES IDX 37 46 38 47 73 48 39 49 78 50 72 51 74 52 40 53 77 54 71 55
REMARK SMILES IDX 70 56 41 58 63 59 48 60 62 61 49 62 52 63 61 64 75 65 50 66
REMARK SMILES IDX 51 67 60 69 76 70 53 71 42 72 43 73 47 74 44 75 46 76 45 77
REMARK SMILES IDX 64 78 65 79 69 80 66 81 68 82 67 83 54 84 55 85 59 86 56 87
REMARK SMILES IDX 58 88 57 89
REMARK H PARENT 23 7 8 12 30 38 74 57 52 68
REMARK Flexibility Score: inf
ROOT
ATOM      1  C   UNL     1       2.487  -3.075   5.422  1.00  0.00     0.002 C 
ENDROOT
BRANCH   1   2
ATOM      2  C   UNL     1       2.724  -4.459   4.812  1.00  0.00     0.021 C 
BRANCH   2   3
ATOM      3  C   UNL     1       1.502  -5.372   4.850  1.00  0.00     0.116 C 
BRANCH   3   4
ATOM      4  N   UNL     1       0.556  -5.070   3.797  1.00  0.00    -0.353 N 
ATOM      5  C   UNL     1       0.181  -5.788   2.694  1.00  0.00     0.264 C 
ATOM      6  O   UNL     1      -0.823  -5.357   2.115  1.00  0.00    -0.270 OA
ATOM      7  H   UNL     1       0.105  -4.200   3.891  1.00  0.00     0.163 HD
BRANCH   5   8
ATOM      8  C   UNL     1       0.967  -7.050   2.188  1.00  0.00     0.197 C 
ATOM      9  N   UNL     1       1.701  -6.556  -0.618  1.00  0.00    -0.330 N 
ATOM     10  C   UNL     1       2.364  -5.819   0.459  1.00  0.00     0.267 C 
ATOM     11  C   UNL     1       0.297  -6.829  -0.280  1.00  0.00     0.267 C 
ATOM     12  H   UNL     1       2.175  -7.453  -0.713  1.00  0.00     0.348 HD
ATOM     13  C   UNL     1       2.375  -6.656   1.727  1.00  0.00     0.120 C 
ATOM     14  C   UNL     1       0.197  -7.675   1.000  1.00  0.00     0.120 C 
BRANCH   9  15
ATOM     15  C   UNL     1       1.837  -5.875  -1.929  1.00  0.00     0.319 C 
BRANCH  15  16
ATOM     16  C   UNL     1       1.509  -4.389  -1.950  1.00  0.00     0.095 A 
ATOM     17  C   UNL     1       0.884  -1.728  -1.583  1.00  0.00    -0.030 A 
ATOM     18  C   UNL     1       2.218  -2.105  -1.742  1.00  0.00     0.007 A 
ATOM     19  C   UNL     1      -0.077  -2.728  -1.675  1.00  0.00     0.115 A 
ATOM     20  C   UNL     1       2.538  -3.448  -1.921  1.00  0.00     0.030 A 
ATOM     21  N   UNL     1       0.204  -4.035  -1.869  1.00  0.00    -0.255 NA
BRANCH  17  22
ATOM     22  C   UNL     1       0.496  -0.306  -1.293  1.00  0.00     0.034 C 
ATOM     23  C   UNL     1       0.968   0.149   0.082  1.00  0.00     0.009 C 
ENDBRANCH  17  22
ENDBRANCH  15  16
ENDBRANCH   9  15
BRANCH   8  24
ATOM     24  O   UNL     1       1.032  -7.885   3.371  1.00  0.00    -0.473 OA
BRANCH  24  25
ATOM     25  C   UNL     1       1.217  -9.228   3.252  1.00  0.00     0.162 A 
ATOM     26  C   UNL     1       0.070 -10.022   3.360  1.00  0.00     0.050 A 
ATOM     27  C   UNL     1       2.475  -9.840   3.206  1.00  0.00     0.160 A 
ATOM     28  C   UNL     1       0.169 -11.414   3.361  1.00  0.00     0.004 A 
ATOM     29  C   UNL     1       2.567 -11.235   3.186  1.00  0.00     0.050 A 
ATOM     30  C   UNL     1       1.419 -12.021   3.272  1.00  0.00     0.004 A 
BRANCH  27  31
ATOM     31  O   UNL     1       3.668  -9.177   3.105  1.00  0.00    -0.493 OA
ATOM     32  C   UNL     1       3.993  -8.437   4.274  1.00  0.00     0.278 C 
ENDBRANCH  27  31
ENDBRANCH  24  25
ENDBRANCH   8  24
ENDBRANCH   5   8
ENDBRANCH   3   4
ENDBRANCH   2   3
ENDBRANCH   1   2
BRANCH   1  33
ATOM     33  C   UNL     1       2.092  -3.076   6.904  1.00  0.00     0.002 C 
BRANCH  33  34
ATOM     34  C   UNL     1       3.051  -3.820   7.839  1.00  0.00     0.021 C 
BRANCH  34  35
ATOM     35  C   UNL     1       4.483  -3.290   7.842  1.00  0.00     0.116 C 
BRANCH  35  36
ATOM     36  N   UNL     1       4.549  -1.905   8.281  1.00  0.00    -0.352 N 
ATOM     37  C   UNL     1       5.246  -1.345   9.317  1.00  0.00     0.251 C 
ATOM     38  H   UNL     1       4.010  -1.274   7.753  1.00  0.00     0.163 HD
ATOM     39  O   UNL     1       4.998  -0.188   9.667  1.00  0.00    -0.269 OA
BRANCH  37  40
ATOM     40  C   UNL     1       6.287  -2.114  10.030  1.00  0.00     0.039 A 
ATOM     41  C   UNL     1       6.363  -2.012  11.422  1.00  0.00     0.014 A 
ATOM     42  C   UNL     1       7.210  -2.901   9.335  1.00  0.00     0.014 A 
ATOM     43  C   UNL     1       7.329  -2.740  12.119  1.00  0.00     0.010 A 
ATOM     44  C   UNL     1       8.129  -3.679  10.037  1.00  0.00     0.010 A 
ATOM     45  C   UNL     1       8.200  -3.604  11.436  1.00  0.00    -0.014 A 
BRANCH  45  46
ATOM     46  C   UNL     1       9.171  -4.445  12.180  1.00  0.00     0.031 A 
ATOM     47  C   UNL     1      10.652  -4.241  12.014  1.00  0.00     0.074 A 
ATOM     48  C   UNL     1       8.713  -5.430  12.978  1.00  0.00     0.049 A 
ATOM     49  N   UNL     1      11.641  -4.884  12.583  1.00  0.00    -0.248 NA
ATOM     50  C   UNL     1      11.080  -3.196  11.071  1.00  0.00     0.031 C 
ATOM     51  C   UNL     1       7.302  -5.764  13.185  1.00  0.00     0.029 A 
ATOM     52  N   UNL     1       9.387  -6.331  13.764  1.00  0.00    -0.354 N 
ATOM     53  C   UNL     1      12.804  -4.332  12.059  1.00  0.00     0.074 A 
ATOM     54  C   UNL     1      12.398  -3.334  11.093  1.00  0.00     0.031 C 
ATOM     55  C   UNL     1       7.215  -6.775  14.065  1.00  0.00     0.029 A 
ATOM     56  C   UNL     1       8.560  -7.183  14.455  1.00  0.00     0.049 A 
ATOM     57  H   UNL     1      10.369  -6.364  13.826  1.00  0.00     0.167 HD
ATOM     58  C   UNL     1      14.092  -4.616  12.367  1.00  0.00     0.031 A 
ATOM     59  C   UNL     1       8.851  -8.184  15.307  1.00  0.00     0.031 A 
ATOM     60  C   UNL     1      14.496  -5.603  13.335  1.00  0.00     0.049 A 
ATOM     61  C   UNL     1      10.288  -8.477  15.632  1.00  0.00     0.074 A 
ATOM     62  C   UNL     1      15.774  -5.917  13.763  1.00  0.00     0.029 A 
ATOM     63  N   UNL     1      13.628  -6.441  14.018  1.00  0.00    -0.354 N 
ATOM     64  N   UNL     1      11.372  -7.886  15.191  1.00  0.00    -0.248 NA
ATOM     65  C   UNL     1      10.540  -9.568  16.584  1.00  0.00     0.031 C 
ATOM     66  C   UNL     1      15.684  -6.983  14.665  1.00  0.00     0.029 A 
ATOM     67  C   UNL     1      14.346  -7.292  14.843  1.00  0.00     0.049 A 
ATOM     68  H   UNL     1      12.648  -6.432  13.930  1.00  0.00     0.167 HD
ATOM     69  C   UNL     1      12.432  -8.517  15.829  1.00  0.00     0.074 A 
ATOM     70  C   UNL     1      11.858  -9.518  16.706  1.00  0.00     0.031 C 
ATOM     71  C   UNL     1      13.762  -8.291  15.700  1.00  0.00     0.031 A 
BRANCH  58  72
ATOM     72  C   UNL     1      15.166  -3.853  11.642  1.00  0.00    -0.014 A 
ATOM     73  C   UNL     1      15.388  -2.489  11.893  1.00  0.00     0.009 A 
ATOM     74  C   UNL     1      16.002  -4.518  10.731  1.00  0.00     0.009 A 
ATOM     75  C   UNL     1      16.402  -1.801  11.223  1.00  0.00     0.001 A 
ATOM     76  C   UNL     1      17.033  -3.835  10.084  1.00  0.00     0.001 A 
ATOM     77  C   UNL     1      17.227  -2.475  10.324  1.00  0.00     0.000 A 
ENDBRANCH  58  72
BRANCH  59  78
ATOM     78  C   UNL     1       7.757  -8.979  15.924  1.00  0.00    -0.014 A 
ATOM     79  C   UNL     1       7.478  -8.867  17.295  1.00  0.00     0.009 A 
ATOM     80  C   UNL     1       6.993  -9.863  15.147  1.00  0.00     0.009 A 
ATOM     81  C   UNL     1       6.478  -9.648  17.880  1.00  0.00     0.001 A 
ATOM     82  C   UNL     1       5.973 -10.619  15.729  1.00  0.00     0.001 A 
ATOM     83  C   UNL     1       5.724 -10.520  17.096  1.00  0.00     0.000 A 
ENDBRANCH  59  78
BRANCH  71  84
ATOM     84  C   UNL     1      14.682  -9.128  16.544  1.00  0.00    -0.014 A 
ATOM     85  C   UNL     1      14.869 -10.495  16.284  1.00  0.00     0.009 A 
ATOM     86  C   UNL     1      15.385  -8.536  17.605  1.00  0.00     0.009 A 
ATOM     87  C   UNL     1      15.708 -11.260  17.097  1.00  0.00     0.001 A 
ATOM     88  C   UNL     1      16.247  -9.296  18.396  1.00  0.00     0.001 A 
ATOM     89  C   UNL     1      16.398 -10.660  18.149  1.00  0.00     0.000 A 
ENDBRANCH  71  84
ENDBRANCH  45  46
ENDBRANCH  37  40
ENDBRANCH  35  36
ENDBRANCH  34  35
ENDBRANCH  33  34
ENDBRANCH   1  33
TORSDOF 19
