REMARK SMILES C[C@H](c1ccccc1F)N(C)c1cccc(F)c1C(=O)NCCCCCCNC(=O)c1ccc(-c2c3nc(c(-c4ccccc4)c4ccc([nH]4)c(-c4ccccc4)c4nc(c(-c5ccccc5)c5ccc2[nH]5)C=C4)C=C3)cc1
REMARK SMILES IDX 24 1 23 2 22 3 21 4 19 5 20 6 18 8 12 9 13 10 14 11 16 12
REMARK SMILES IDX 15 13 17 14 10 15 11 16 2 17 1 18 3 19 4 20 8 21 5 22 7 23
REMARK SMILES IDX 9 24 6 25 25 26 26 27 27 28 28 29 29 30 30 32 31 33 32 34
REMARK SMILES IDX 78 35 33 36 77 37 34 38 35 39 36 40 71 41 37 42 76 43 70 44
REMARK SMILES IDX 72 45 38 46 75 47 69 48 68 49 39 51 61 52 46 53 60 54 47 55
REMARK SMILES IDX 50 56 59 57 73 58 48 59 49 60 58 62 74 63 51 64 40 65 41 66
REMARK SMILES IDX 45 67 42 68 44 69 43 70 62 71 63 72 67 73 64 74 66 75 65 76
REMARK SMILES IDX 52 77 53 78 57 79 54 80 56 81 55 82
REMARK H PARENT 21 7 28 31 72 50 50 61
REMARK Flexibility Score: inf
ROOT
ATOM      1  C   UNL     1      -7.273  -4.545   0.827  1.00  0.00     0.002 C 
ENDROOT
BRANCH   1   2
ATOM      2  C   UNL     1      -6.830  -3.108   1.114  1.00  0.00     0.021 C 
BRANCH   2   3
ATOM      3  C   UNL     1      -5.502  -2.914   1.842  1.00  0.00     0.116 C 
BRANCH   3   4
ATOM      4  N   UNL     1      -4.351  -3.500   1.179  1.00  0.00    -0.352 N 
ATOM      5  C   UNL     1      -3.030  -3.087   1.147  1.00  0.00     0.256 C 
ATOM      6  O   UNL     1      -2.210  -3.867   0.667  1.00  0.00    -0.269 OA
ATOM      7  H   UNL     1      -4.539  -4.322   0.671  1.00  0.00     0.163 HD
BRANCH   5   8
ATOM      8  C   UNL     1      -2.618  -1.739   1.634  1.00  0.00     0.098 A 
ATOM      9  C   UNL     1      -1.779  -0.876   0.886  1.00  0.00     0.053 A 
ATOM     10  C   UNL     1      -1.610   0.442   1.365  1.00  0.00     0.027 A 
ATOM     11  C   UNL     1      -2.131   0.867   2.586  1.00  0.00     0.005 A 
ATOM     12  C   UNL     1      -3.042  -1.328   2.906  1.00  0.00     0.138 A 
ATOM     13  C   UNL     1      -2.817  -0.037   3.377  1.00  0.00     0.040 A 
ATOM     14  F   UNL     1      -3.677  -2.176   3.730  1.00  0.00    -0.206 F 
BRANCH   9  15
ATOM     15  N   UNL     1      -1.075  -1.217  -0.263  1.00  0.00    -0.367 N 
ATOM     16  C   UNL     1      -1.816  -1.465  -1.490  1.00  0.00     0.144 C 
BRANCH  15  17
ATOM     17  C   UNL     1       0.371  -1.549  -0.221  1.00  0.00     0.112 C 
ATOM     18  C   UNL     1       0.700  -2.645   0.802  1.00  0.00     0.036 C 
BRANCH  17  19
ATOM     19  C   UNL     1       1.242  -0.309  -0.065  1.00  0.00     0.010 A 
ATOM     20  C   UNL     1       1.673   0.170   1.187  1.00  0.00     0.009 A 
ATOM     21  C   UNL     1       1.646   0.398  -1.203  1.00  0.00     0.128 A 
ATOM     22  C   UNL     1       2.477   1.310   1.284  1.00  0.00     0.001 A 
ATOM     23  C   UNL     1       2.453   1.532  -1.113  1.00  0.00     0.039 A 
ATOM     24  F   UNL     1       1.271  -0.019  -2.422  1.00  0.00    -0.207 F 
ATOM     25  C   UNL     1       2.870   1.990   0.134  1.00  0.00     0.003 A 
ENDBRANCH  17  19
ENDBRANCH  15  17
ENDBRANCH   9  15
ENDBRANCH   5   8
ENDBRANCH   3   4
ENDBRANCH   2   3
ENDBRANCH   1   2
BRANCH   1  26
ATOM     26  C   UNL     1      -7.277  -5.527   2.001  1.00  0.00     0.002 C 
BRANCH  26  27
ATOM     27  C   UNL     1      -8.045  -5.108   3.256  1.00  0.00     0.021 C 
BRANCH  27  28
ATOM     28  C   UNL     1      -9.499  -4.686   3.061  1.00  0.00     0.116 C 
BRANCH  28  29
ATOM     29  N   UNL     1     -10.331  -5.730   2.491  1.00  0.00    -0.352 N 
ATOM     30  C   UNL     1     -11.562  -6.198   2.879  1.00  0.00     0.251 C 
ATOM     31  H   UNL     1      -9.952  -6.174   1.698  1.00  0.00     0.163 HD
ATOM     32  O   UNL     1     -12.045  -7.172   2.307  1.00  0.00    -0.269 OA
BRANCH  30  33
ATOM     33  C   UNL     1     -12.311  -5.570   3.996  1.00  0.00     0.039 A 
ATOM     34  C   UNL     1     -12.998  -6.406   4.883  1.00  0.00     0.014 A 
ATOM     35  C   UNL     1     -12.390  -4.184   4.156  1.00  0.00     0.014 A 
ATOM     36  C   UNL     1     -13.712  -5.859   5.953  1.00  0.00     0.010 A 
ATOM     37  C   UNL     1     -13.047  -3.641   5.264  1.00  0.00     0.010 A 
ATOM     38  C   UNL     1     -13.720  -4.472   6.171  1.00  0.00    -0.014 A 
BRANCH  38  39
ATOM     39  C   UNL     1     -14.425  -3.897   7.347  1.00  0.00     0.031 A 
ATOM     40  C   UNL     1     -15.631  -3.013   7.166  1.00  0.00     0.074 A 
ATOM     41  C   UNL     1     -13.970  -4.159   8.589  1.00  0.00     0.049 A 
ATOM     42  N   UNL     1     -16.384  -2.448   8.078  1.00  0.00    -0.248 NA
ATOM     43  C   UNL     1     -16.035  -2.710   5.784  1.00  0.00     0.031 C 
ATOM     44  C   UNL     1     -12.791  -4.969   8.906  1.00  0.00     0.029 A 
ATOM     45  N   UNL     1     -14.451  -3.779   9.818  1.00  0.00    -0.354 N 
ATOM     46  C   UNL     1     -17.345  -1.725   7.382  1.00  0.00     0.074 A 
ATOM     47  C   UNL     1     -17.048  -1.877   5.974  1.00  0.00     0.031 C 
ATOM     48  C   UNL     1     -12.665  -5.058  10.240  1.00  0.00     0.029 A 
ATOM     49  C   UNL     1     -13.730  -4.287  10.872  1.00  0.00     0.049 A 
ATOM     50  H   UNL     1     -15.237  -3.197   9.933  1.00  0.00     0.167 HD
ATOM     51  C   UNL     1     -18.393  -1.016   7.866  1.00  0.00     0.031 A 
ATOM     52  C   UNL     1     -13.909  -4.153  12.200  1.00  0.00     0.031 A 
ATOM     53  C   UNL     1     -18.696  -0.863   9.264  1.00  0.00     0.049 A 
ATOM     54  C   UNL     1     -15.072  -3.347  12.709  1.00  0.00     0.074 A 
ATOM     55  C   UNL     1     -19.759  -0.194   9.849  1.00  0.00     0.029 A 
ATOM     56  N   UNL     1     -17.936  -1.385  10.298  1.00  0.00    -0.354 N 
ATOM     57  N   UNL     1     -16.006  -2.724  12.034  1.00  0.00    -0.248 NA
ATOM     58  C   UNL     1     -15.210  -3.241  14.169  1.00  0.00     0.031 C 
ATOM     59  C   UNL     1     -19.616  -0.274  11.239  1.00  0.00     0.029 A 
ATOM     60  C   UNL     1     -18.495  -1.039  11.518  1.00  0.00     0.049 A 
ATOM     61  H   UNL     1     -17.119  -1.923  10.184  1.00  0.00     0.167 HD
ATOM     62  C   UNL     1     -16.858  -2.178  12.985  1.00  0.00     0.074 A 
ATOM     63  C   UNL     1     -16.342  -2.561  14.282  1.00  0.00     0.031 C 
ATOM     64  C   UNL     1     -17.970  -1.425  12.801  1.00  0.00     0.031 A 
BRANCH  51  65
ATOM     65  C   UNL     1     -19.301  -0.351   6.867  1.00  0.00    -0.014 A 
ATOM     66  C   UNL     1     -20.167  -1.108   6.061  1.00  0.00     0.009 A 
ATOM     67  C   UNL     1     -19.327   1.048   6.763  1.00  0.00     0.009 A 
ATOM     68  C   UNL     1     -21.018  -0.479   5.150  1.00  0.00     0.001 A 
ATOM     69  C   UNL     1     -20.199   1.676   5.871  1.00  0.00     0.001 A 
ATOM     70  C   UNL     1     -21.037   0.912   5.059  1.00  0.00     0.000 A 
ENDBRANCH  51  65
BRANCH  52  71
ATOM     71  C   UNL     1     -12.982  -4.818  13.153  1.00  0.00    -0.014 A 
ATOM     72  C   UNL     1     -13.420  -5.895  13.939  1.00  0.00     0.009 A 
ATOM     73  C   UNL     1     -11.663  -4.362  13.303  1.00  0.00     0.009 A 
ATOM     74  C   UNL     1     -12.569  -6.479  14.880  1.00  0.00     0.001 A 
ATOM     75  C   UNL     1     -10.804  -4.968  14.223  1.00  0.00     0.001 A 
ATOM     76  C   UNL     1     -11.261  -6.017  15.019  1.00  0.00     0.000 A 
ENDBRANCH  52  71
BRANCH  64  77
ATOM     77  C   UNL     1     -18.719  -1.000  14.032  1.00  0.00    -0.014 A 
ATOM     78  C   UNL     1     -18.200  -0.029  14.903  1.00  0.00     0.009 A 
ATOM     79  C   UNL     1     -19.971  -1.569  14.316  1.00  0.00     0.009 A 
ATOM     80  C   UNL     1     -18.901   0.331  16.056  1.00  0.00     0.001 A 
ATOM     81  C   UNL     1     -20.682  -1.185  15.453  1.00  0.00     0.001 A 
ATOM     82  C   UNL     1     -20.142  -0.244  16.328  1.00  0.00     0.000 A 
ENDBRANCH  64  77
ENDBRANCH  38  39
ENDBRANCH  30  33
ENDBRANCH  28  29
ENDBRANCH  27  28
ENDBRANCH  26  27
ENDBRANCH   1  26
TORSDOF 16
