REMARK SMILES C[C@]12C(=O)N(c3ccc(C(=O)NCCCCCCNC(=O)c4ccc(-c5c6nc(c(-c7ccccc7)c7ccc([nH]7)c(-c7ccccc7)c7nc(c(-c8ccccc8)c8ccc5[nH]8)C=C7)C=C6)cc4)cc3)C(=O)[C@@H]1[C@H]1c3ccccc3[C@@H]2c2ccccc21
REMARK SMILES IDX 16 1 15 2 14 3 13 4 12 5 10 6 11 7 9 9 6 10 7 11 71 12 8 13
REMARK SMILES IDX 70 14 5 15 1 16 2 17 3 18 74 19 82 20 4 21 72 22 75 23 81 24
REMARK SMILES IDX 83 25 73 26 76 27 88 28 80 29 84 30 77 31 87 32 79 33 85 34
REMARK SMILES IDX 78 35 86 36 17 37 18 38 19 39 20 40 21 42 22 43 23 44 69 45
REMARK SMILES IDX 24 46 68 47 25 48 26 49 27 50 62 51 28 52 67 53 61 54 63 55
REMARK SMILES IDX 29 56 66 57 60 58 59 59 30 61 52 62 37 63 51 64 38 65 41 66
REMARK SMILES IDX 50 67 64 68 39 69 40 70 49 72 65 73 42 74 31 75 32 76 36 77
REMARK SMILES IDX 33 78 35 79 34 80 53 81 54 82 58 83 55 84 57 85 56 86 43 87
REMARK SMILES IDX 44 88 48 89 45 90 47 91 46 92
REMARK H PARENT 12 8 19 41 63 60 41 71
REMARK Flexibility Score: inf
ROOT
ATOM      1  C   UNL     1      -7.527  -1.134  10.103  1.00  0.00     0.002 C 
ENDROOT
BRANCH   1   2
ATOM      2  C   UNL     1      -7.903  -0.493   8.764  1.00  0.00     0.002 C 
BRANCH   2   3
ATOM      3  C   UNL     1      -6.767   0.036   7.886  1.00  0.00     0.021 C 
BRANCH   3   4
ATOM      4  C   UNL     1      -5.592  -0.902   7.643  1.00  0.00     0.116 C 
BRANCH   4   5
ATOM      5  N   UNL     1      -5.957  -2.093   6.908  1.00  0.00    -0.352 N 
ATOM      6  C   UNL     1      -5.496  -2.549   5.701  1.00  0.00     0.251 C 
ATOM      7  O   UNL     1      -5.993  -3.555   5.201  1.00  0.00    -0.269 OA
ATOM      8  H   UNL     1      -6.637  -2.660   7.338  1.00  0.00     0.163 HD
BRANCH   6   9
ATOM      9  C   UNL     1      -4.426  -1.829   4.972  1.00  0.00     0.039 A 
ATOM     10  C   UNL     1      -2.352  -0.658   3.431  1.00  0.00     0.052 A 
ATOM     11  C   UNL     1      -3.585  -1.014   2.855  1.00  0.00     0.027 A 
ATOM     12  C   UNL     1      -2.216  -0.832   4.820  1.00  0.00     0.027 A 
ATOM     13  C   UNL     1      -4.603  -1.607   3.610  1.00  0.00     0.016 A 
ATOM     14  C   UNL     1      -3.226  -1.446   5.575  1.00  0.00     0.016 A 
BRANCH  10  15
ATOM     15  N   UNL     1      -1.190  -0.419   2.612  1.00  0.00    -0.250 N 
ATOM     16  C   UNL     1       0.955  -0.225   0.268  1.00  0.00     0.024 C 
ATOM     17  C   UNL     1       0.278  -1.373   1.052  1.00  0.00     0.071 C 
ATOM     18  C   UNL     1      -1.140  -0.923   1.304  1.00  0.00     0.241 C 
ATOM     19  C   UNL     1       0.774  -1.506   2.503  1.00  0.00     0.107 C 
ATOM     20  C   UNL     1       0.450  -2.787   0.406  1.00  0.00     0.066 C 
ATOM     21  O   UNL     1      -2.014  -0.984   0.450  1.00  0.00    -0.273 OA
ATOM     22  C   UNL     1       0.116  -0.345   3.173  1.00  0.00     0.238 C 
ATOM     23  C   UNL     1       1.876  -2.587   2.658  1.00  0.00     0.063 C 
ATOM     24  C   UNL     1       0.096  -3.868   1.458  1.00  0.00    -0.036 A 
ATOM     25  C   UNL     1       1.964  -2.922   0.200  1.00  0.00    -0.036 A 
ATOM     26  O   UNL     1       0.561   0.349   4.059  1.00  0.00    -0.274 OA
ATOM     27  C   UNL     1       0.950  -3.859   2.622  1.00  0.00    -0.036 A 
ATOM     28  C   UNL     1       2.724  -2.747   1.395  1.00  0.00    -0.036 A 
ATOM     29  C   UNL     1      -1.055  -4.639   1.451  1.00  0.00     0.005 A 
ATOM     30  C   UNL     1       2.576  -3.246  -1.003  1.00  0.00     0.005 A 
ATOM     31  C   UNL     1       0.664  -4.642   3.734  1.00  0.00     0.004 A 
ATOM     32  C   UNL     1       4.102  -2.913   1.367  1.00  0.00     0.004 A 
ATOM     33  C   UNL     1      -1.350  -5.403   2.585  1.00  0.00     0.000 A 
ATOM     34  C   UNL     1       3.960  -3.409  -1.019  1.00  0.00     0.000 A 
ATOM     35  C   UNL     1      -0.498  -5.414   3.705  1.00  0.00     0.000 A 
ATOM     36  C   UNL     1       4.715  -3.244   0.153  1.00  0.00     0.000 A 
ENDBRANCH  10  15
ENDBRANCH   6   9
ENDBRANCH   4   5
ENDBRANCH   3   4
ENDBRANCH   2   3
ENDBRANCH   1   2
BRANCH   1  37
ATOM     37  C   UNL     1      -6.524  -0.390  10.984  1.00  0.00     0.021 C 
BRANCH  37  38
ATOM     38  C   UNL     1      -6.806   1.082  11.247  1.00  0.00     0.116 C 
BRANCH  38  39
ATOM     39  N   UNL     1      -7.963   1.315  12.092  1.00  0.00    -0.352 N 
ATOM     40  C   UNL     1      -8.072   2.104  13.215  1.00  0.00     0.251 C 
ATOM     41  H   UNL     1      -8.784   0.842  11.825  1.00  0.00     0.163 HD
ATOM     42  O   UNL     1      -9.117   2.126  13.856  1.00  0.00    -0.269 OA
BRANCH  40  43
ATOM     43  C   UNL     1      -6.904   2.885  13.687  1.00  0.00     0.039 A 
ATOM     44  C   UNL     1      -6.141   3.658  12.808  1.00  0.00     0.014 A 
ATOM     45  C   UNL     1      -6.547   2.806  15.036  1.00  0.00     0.014 A 
ATOM     46  C   UNL     1      -4.933   4.204  13.238  1.00  0.00     0.010 A 
ATOM     47  C   UNL     1      -5.371   3.416  15.483  1.00  0.00     0.010 A 
ATOM     48  C   UNL     1      -4.524   4.071  14.575  1.00  0.00    -0.014 A 
BRANCH  48  49
ATOM     49  C   UNL     1      -3.196   4.584  14.997  1.00  0.00     0.031 A 
ATOM     50  C   UNL     1      -2.103   3.632  15.408  1.00  0.00     0.074 A 
ATOM     51  C   UNL     1      -2.946   5.907  14.959  1.00  0.00     0.049 A 
ATOM     52  N   UNL     1      -0.877   3.898  15.787  1.00  0.00    -0.248 NA
ATOM     53  C   UNL     1      -2.423   2.195  15.389  1.00  0.00     0.031 C 
ATOM     54  C   UNL     1      -3.906   6.934  14.552  1.00  0.00     0.029 A 
ATOM     55  N   UNL     1      -1.801   6.610  15.239  1.00  0.00    -0.354 N 
ATOM     56  C   UNL     1      -0.290   2.671  16.067  1.00  0.00     0.074 A 
ATOM     57  C   UNL     1      -1.297   1.658  15.836  1.00  0.00     0.031 C 
ATOM     58  C   UNL     1      -3.294   8.129  14.557  1.00  0.00     0.029 A 
ATOM     59  C   UNL     1      -1.919   7.960  15.017  1.00  0.00     0.049 A 
ATOM     60  H   UNL     1      -0.975   6.187  15.567  1.00  0.00     0.167 HD
ATOM     61  C   UNL     1       0.975   2.407  16.472  1.00  0.00     0.031 A 
ATOM     62  C   UNL     1      -1.025   8.955  15.170  1.00  0.00     0.031 A 
ATOM     63  C   UNL     1       1.986   3.406  16.692  1.00  0.00     0.049 A 
ATOM     64  C   UNL     1       0.357   8.643  15.665  1.00  0.00     0.074 A 
ATOM     65  C   UNL     1       3.298   3.226  17.098  1.00  0.00     0.029 A 
ATOM     66  N   UNL     1       1.802   4.767  16.521  1.00  0.00    -0.354 N 
ATOM     67  N   UNL     1       0.888   7.477  15.939  1.00  0.00    -0.248 NA
ATOM     68  C   UNL     1       1.259   9.784  15.880  1.00  0.00     0.031 C 
ATOM     69  C   UNL     1       3.897   4.484  17.207  1.00  0.00     0.029 A 
ATOM     70  C   UNL     1       2.971   5.441  16.828  1.00  0.00     0.049 A 
ATOM     71  H   UNL     1       0.964   5.192  16.225  1.00  0.00     0.167 HD
ATOM     72  C   UNL     1       2.187   7.741  16.351  1.00  0.00     0.074 A 
ATOM     73  C   UNL     1       2.370   9.176  16.276  1.00  0.00     0.031 C 
ATOM     74  C   UNL     1       3.140   6.869  16.756  1.00  0.00     0.031 A 
BRANCH  61  75
ATOM     75  C   UNL     1       1.344   0.973  16.719  1.00  0.00    -0.014 A 
ATOM     76  C   UNL     1       1.514   0.513  18.035  1.00  0.00     0.009 A 
ATOM     77  C   UNL     1       1.597   0.097  15.653  1.00  0.00     0.009 A 
ATOM     78  C   UNL     1       1.933  -0.796  18.278  1.00  0.00     0.001 A 
ATOM     79  C   UNL     1       1.995  -1.218  15.900  1.00  0.00     0.001 A 
ATOM     80  C   UNL     1       2.168  -1.662  17.211  1.00  0.00     0.000 A 
ENDBRANCH  61  75
BRANCH  62  81
ATOM     81  C   UNL     1      -1.421  10.346  14.837  1.00  0.00    -0.014 A 
ATOM     82  C   UNL     1      -2.315  11.050  15.660  1.00  0.00     0.009 A 
ATOM     83  C   UNL     1      -0.943  10.958  13.670  1.00  0.00     0.009 A 
ATOM     84  C   UNL     1      -2.737  12.333  15.310  1.00  0.00     0.001 A 
ATOM     85  C   UNL     1      -1.350  12.251  13.334  1.00  0.00     0.001 A 
ATOM     86  C   UNL     1      -2.253  12.934  14.149  1.00  0.00     0.000 A 
ENDBRANCH  62  81
BRANCH  74  87
ATOM     87  C   UNL     1       4.476   7.428  17.148  1.00  0.00    -0.014 A 
ATOM     88  C   UNL     1       5.579   7.260  16.297  1.00  0.00     0.009 A 
ATOM     89  C   UNL     1       4.661   8.039  18.396  1.00  0.00     0.009 A 
ATOM     90  C   UNL     1       6.847   7.687  16.692  1.00  0.00     0.001 A 
ATOM     91  C   UNL     1       5.928   8.482  18.781  1.00  0.00     0.001 A 
ATOM     92  C   UNL     1       7.020   8.300  17.932  1.00  0.00     0.000 A 
ENDBRANCH  74  87
ENDBRANCH  48  49
ENDBRANCH  40  43
ENDBRANCH  38  39
ENDBRANCH  37  38
ENDBRANCH   1  37
TORSDOF 14
