REMARK SMILES Cc1csc(C[C@@H](Cc2ccc(Br)cc2)C(=O)NCCCCCCNC(=O)c2ccc(-c3c4nc(c(-c5ccccc5)c5ccc([nH]5)c(-c5ccccc5)c5nc(c(-c6ccccc6)c6ccc3[nH]6)C=C5)C=C4)cc2)n1
REMARK SMILES IDX 21 1 20 2 19 3 18 4 16 5 17 6 7 8 6 9 5 10 1 11 2 12 3 13
REMARK SMILES IDX 76 14 4 15 8 16 9 17 10 18 15 19 11 20 14 21 12 22 13 23
REMARK SMILES IDX 22 24 23 25 24 26 25 27 26 28 27 30 28 31 29 32 75 33 30 34
REMARK SMILES IDX 74 35 31 36 32 37 33 38 68 39 34 40 73 41 67 42 69 43 35 44
REMARK SMILES IDX 72 45 66 46 65 47 36 49 58 50 43 51 57 52 44 53 47 54 56 55
REMARK SMILES IDX 70 56 45 57 46 58 55 60 71 61 48 62 37 63 38 64 42 65 39 66
REMARK SMILES IDX 41 67 40 68 59 69 60 70 64 71 61 72 63 73 62 74 49 75 50 76
REMARK SMILES IDX 54 77 51 78 53 79 52 80
REMARK H PARENT 18 7 25 29 69 48 47 59
REMARK Flexibility Score: inf
ROOT
ATOM      1  C   UNL     1       2.955   6.978   2.519  1.00  0.00     0.002 C 
ENDROOT
BRANCH   1   2
ATOM      2  C   UNL     1       2.490   5.527   2.360  1.00  0.00     0.021 C 
BRANCH   2   3
ATOM      3  C   UNL     1       1.531   5.285   1.200  1.00  0.00     0.116 C 
BRANCH   3   4
ATOM      4  N   UNL     1       2.181   5.204  -0.089  1.00  0.00    -0.356 N 
ATOM      5  C   UNL     1       1.880   4.453  -1.183  1.00  0.00     0.223 C 
ATOM      6  O   UNL     1       2.453   4.752  -2.236  1.00  0.00    -0.275 OA
ATOM      7  H   UNL     1       2.968   5.787  -0.192  1.00  0.00     0.163 HD
BRANCH   5   8
ATOM      8  C   UNL     1       0.906   3.274  -1.159  1.00  0.00     0.089 C 
BRANCH   8   9
ATOM      9  C   UNL     1       1.335   2.209  -0.140  1.00  0.00     0.081 C 
BRANCH   9  10
ATOM     10  C   UNL     1       0.590   0.911  -0.241  1.00  0.00     0.094 A 
ATOM     11  C   UNL     1      -2.567  -0.795  -0.065  1.00  0.00     0.067 C 
ATOM     12  C   UNL     1      -1.114  -0.508  -0.152  1.00  0.00     0.048 A 
ATOM     13  C   UNL     1      -0.075  -1.415  -0.183  1.00  0.00     0.090 A 
ATOM     14  N   UNL     1      -0.719   0.814  -0.188  1.00  0.00    -0.247 NA
ATOM     15  S   UNL     1       1.426  -0.590  -0.274  1.00  0.00    -0.127 S 
ENDBRANCH   9  10
ENDBRANCH   8   9
BRANCH   8  16
ATOM     16  C   UNL     1      -0.574   3.709  -1.268  1.00  0.00     0.049 C 
BRANCH  16  17
ATOM     17  C   UNL     1      -1.252   4.424  -0.123  1.00  0.00    -0.047 A 
ATOM     18  C   UNL     1      -1.650   3.740   1.035  1.00  0.00     0.005 A 
ATOM     19  C   UNL     1      -1.535   5.797  -0.218  1.00  0.00     0.005 A 
ATOM     20  C   UNL     1      -2.264   4.416   2.093  1.00  0.00     0.016 A 
ATOM     21  C   UNL     1      -2.154   6.475   0.837  1.00  0.00     0.016 A 
ATOM     22  C   UNL     1      -2.507   5.782   1.991  1.00  0.00     0.017 A 
ATOM     23  Br  UNL     1      -3.306   6.702   3.437  1.00  0.00    -0.051 Br
ENDBRANCH  16  17
ENDBRANCH   8  16
ENDBRANCH   5   8
ENDBRANCH   3   4
ENDBRANCH   2   3
ENDBRANCH   1   2
BRANCH   1  24
ATOM     24  C   UNL     1       1.852   8.044   2.558  1.00  0.00     0.002 C 
BRANCH  24  25
ATOM     25  C   UNL     1       0.678   7.774   3.505  1.00  0.00     0.021 C 
BRANCH  25  26
ATOM     26  C   UNL     1       1.038   7.588   4.973  1.00  0.00     0.116 C 
BRANCH  26  27
ATOM     27  N   UNL     1       1.649   8.770   5.551  1.00  0.00    -0.352 N 
ATOM     28  C   UNL     1       1.373   9.422   6.726  1.00  0.00     0.251 C 
ATOM     29  H   UNL     1       2.375   9.165   5.017  1.00  0.00     0.163 HD
ATOM     30  O   UNL     1       1.915  10.499   6.958  1.00  0.00    -0.269 OA
BRANCH  28  31
ATOM     31  C   UNL     1       0.422   8.857   7.713  1.00  0.00     0.039 A 
ATOM     32  C   UNL     1      -0.422   9.739   8.397  1.00  0.00     0.014 A 
ATOM     33  C   UNL     1       0.393   7.494   8.020  1.00  0.00     0.014 A 
ATOM     34  C   UNL     1      -1.309   9.254   9.362  1.00  0.00     0.010 A 
ATOM     35  C   UNL     1      -0.539   7.002   8.934  1.00  0.00     0.010 A 
ATOM     36  C   UNL     1      -1.387   7.878   9.628  1.00  0.00    -0.014 A 
BRANCH  36  37
ATOM     37  C   UNL     1      -2.321   7.353  10.655  1.00  0.00     0.031 A 
ATOM     38  C   UNL     1      -1.788   6.716  11.911  1.00  0.00     0.074 A 
ATOM     39  C   UNL     1      -3.651   7.418  10.450  1.00  0.00     0.049 A 
ATOM     40  N   UNL     1      -2.445   6.184  12.912  1.00  0.00    -0.248 NA
ATOM     41  C   UNL     1      -0.325   6.649  12.051  1.00  0.00     0.031 C 
ATOM     42  C   UNL     1      -4.299   7.981   9.265  1.00  0.00     0.029 A 
ATOM     43  N   UNL     1      -4.696   7.007  11.239  1.00  0.00    -0.354 N 
ATOM     44  C   UNL     1      -1.478   5.705  13.787  1.00  0.00     0.074 A 
ATOM     45  C   UNL     1      -0.191   5.966  13.178  1.00  0.00     0.031 C 
ATOM     46  C   UNL     1      -5.631   7.908   9.418  1.00  0.00     0.029 A 
ATOM     47  C   UNL     1      -5.930   7.266  10.694  1.00  0.00     0.049 A 
ATOM     48  H   UNL     1      -4.573   6.569  12.112  1.00  0.00     0.167 HD
ATOM     49  C   UNL     1      -1.641   5.117  14.997  1.00  0.00     0.031 A 
ATOM     50  C   UNL     1      -7.164   7.017  11.170  1.00  0.00     0.031 A 
ATOM     51  C   UNL     1      -2.916   4.869  15.613  1.00  0.00     0.049 A 
ATOM     52  C   UNL     1      -7.320   6.365  12.516  1.00  0.00     0.074 A 
ATOM     53  C   UNL     1      -3.182   4.324  16.858  1.00  0.00     0.029 A 
ATOM     54  N   UNL     1      -4.141   5.153  15.031  1.00  0.00    -0.354 N 
ATOM     55  N   UNL     1      -6.394   5.970  13.355  1.00  0.00    -0.248 NA
ATOM     56  C   UNL     1      -8.695   6.140  12.984  1.00  0.00     0.031 C 
ATOM     57  C   UNL     1      -4.571   4.241  17.011  1.00  0.00     0.029 A 
ATOM     58  C   UNL     1      -5.167   4.780  15.883  1.00  0.00     0.049 A 
ATOM     59  H   UNL     1      -4.264   5.560  14.143  1.00  0.00     0.167 HD
ATOM     60  C   UNL     1      -7.073   5.477  14.462  1.00  0.00     0.074 A 
ATOM     61  C   UNL     1      -8.488   5.635  14.192  1.00  0.00     0.031 C 
ATOM     62  C   UNL     1      -6.569   4.944  15.601  1.00  0.00     0.031 A 
BRANCH  49  63
ATOM     63  C   UNL     1      -0.397   4.696  15.730  1.00  0.00    -0.014 A 
ATOM     64  C   UNL     1       0.475   5.644  16.287  1.00  0.00     0.009 A 
ATOM     65  C   UNL     1      -0.106   3.332  15.885  1.00  0.00     0.009 A 
ATOM     66  C   UNL     1       1.635   5.236  16.949  1.00  0.00     0.001 A 
ATOM     67  C   UNL     1       1.040   2.926  16.572  1.00  0.00     0.001 A 
ATOM     68  C   UNL     1       1.915   3.878  17.093  1.00  0.00     0.000 A 
ENDBRANCH  49  63
BRANCH  50  69
ATOM     69  C   UNL     1      -8.358   7.415  10.381  1.00  0.00    -0.014 A 
ATOM     70  C   UNL     1      -9.152   8.497  10.792  1.00  0.00     0.009 A 
ATOM     71  C   UNL     1      -8.711   6.716   9.216  1.00  0.00     0.009 A 
ATOM     72  C   UNL     1     -10.289   8.856  10.066  1.00  0.00     0.001 A 
ATOM     73  C   UNL     1      -9.834   7.095   8.478  1.00  0.00     0.001 A 
ATOM     74  C   UNL     1     -10.627   8.158   8.907  1.00  0.00     0.000 A 
ENDBRANCH  50  69
BRANCH  62  75
ATOM     75  C   UNL     1      -7.554   4.528  16.657  1.00  0.00    -0.014 A 
ATOM     76  C   UNL     1      -8.349   3.382  16.504  1.00  0.00     0.009 A 
ATOM     77  C   UNL     1      -7.663   5.281  17.837  1.00  0.00     0.009 A 
ATOM     78  C   UNL     1      -9.260   3.018  17.498  1.00  0.00     0.001 A 
ATOM     79  C   UNL     1      -8.555   4.899  18.840  1.00  0.00     0.001 A 
ATOM     80  C   UNL     1      -9.359   3.775  18.666  1.00  0.00     0.000 A 
ENDBRANCH  62  75
ENDBRANCH  36  37
ENDBRANCH  28  31
ENDBRANCH  26  27
ENDBRANCH  25  26
ENDBRANCH  24  25
ENDBRANCH   1  24
TORSDOF 17
