REMARK SMILES NS(=O)(=O)c1ccc(C#Cc2cc(Cl)cc3c2O[C@H](C(F)(F)F)C(C(=O)NCCCCCCNC(=O)c2ccc(-c4c5nc(c(-c6ccccc6)c6ccc([nH]6)c(-c6ccccc6)c6nc(c(-c7ccccc7)c7ccc4[nH]7)C=C6)C=C5)cc2)=C3)cc1
REMARK SMILES IDX 29 1 28 2 27 3 25 4 26 5 24 7 11 8 12 9 17 10 13 11 16 12
REMARK SMILES IDX 18 13 14 14 15 15 85 16 19 17 10 18 9 19 8 20 5 21 6 22
REMARK SMILES IDX 87 23 7 24 86 25 2 26 3 27 4 28 1 29 20 32 21 33 22 34 23 35
REMARK SMILES IDX 30 36 31 37 32 38 33 39 34 40 35 41 36 43 37 44 38 45 84 46
REMARK SMILES IDX 39 47 83 48 40 49 41 50 42 51 77 52 43 53 82 54 76 55 78 56
REMARK SMILES IDX 44 57 81 58 75 59 74 60 45 62 67 63 52 64 66 65 53 66 56 67
REMARK SMILES IDX 65 68 79 69 54 70 55 71 64 73 80 74 57 75 46 76 47 77 51 78
REMARK SMILES IDX 48 79 50 80 49 81 68 82 69 83 73 84 70 85 72 86 71 87 58 88
REMARK SMILES IDX 59 89 63 90 60 91 62 92 61 93
REMARK H PARENT 27 6 1 30 1 31 34 42 78 61 56 72
REMARK Flexibility Score: inf
ROOT
ATOM      1  C   UNL     1      -0.723  12.690   3.264  1.00  0.00     0.021 C 
ENDROOT
BRANCH   1   2
ATOM      2  C   UNL     1       0.792  12.543   3.290  1.00  0.00     0.116 C 
BRANCH   2   3
ATOM      3  N   UNL     1       1.357  13.023   4.539  1.00  0.00    -0.352 N 
ATOM      4  C   UNL     1       2.074  12.510   5.567  1.00  0.00     0.251 C 
ATOM      5  O   UNL     1       2.386  13.310   6.454  1.00  0.00    -0.270 OA
ATOM      6  H   UNL     1       1.167  13.979   4.676  1.00  0.00     0.163 HD
BRANCH   4   7
ATOM      7  C   UNL     1       2.487  11.080   5.683  1.00  0.00     0.067 C 
ATOM      8  C   UNL     1       3.347   7.002   6.232  1.00  0.00     0.069 A 
ATOM      9  C   UNL     1       4.095   6.593   7.333  1.00  0.00     0.041 A 
ATOM     10  C   UNL     1       3.058   8.363   6.063  1.00  0.00     0.143 A 
ATOM     11  C   UNL     1       4.525   7.542   8.262  1.00  0.00     0.043 A 
ATOM     12  C   UNL     1       3.469   9.313   7.003  1.00  0.00     0.020 A 
ATOM     13  O   UNL     1       2.315   8.700   4.970  1.00  0.00    -0.474 OA
ATOM     14  Cl  UNL     1       5.441   7.035   9.629  1.00  0.00    -0.084 Cl
ATOM     15  C   UNL     1       4.210   8.896   8.110  1.00  0.00     0.032 A 
ATOM     16  C   UNL     1       3.062  10.707   6.841  1.00  0.00     0.025 C 
ATOM     17  C   UNL     1       2.312  10.087   4.576  1.00  0.00     0.314 C 
BRANCH   8  18
ATOM     18  C   UNL     1       2.859   6.044   5.282  1.00  0.00    -0.058 C 
ATOM     19  C   UNL     1       2.406   5.308   4.443  1.00  0.00    -0.062 C 
BRANCH  19  20
ATOM     20  C   UNL     1       1.878   4.461   3.419  1.00  0.00     0.025 A 
ATOM     21  C   UNL     1       0.958   2.809   1.363  1.00  0.00     0.082 A 
ATOM     22  C   UNL     1       0.590   4.159   1.387  1.00  0.00     0.023 A 
ATOM     23  C   UNL     1       1.759   2.275   2.375  1.00  0.00     0.023 A 
ATOM     24  C   UNL     1       1.051   4.984   2.418  1.00  0.00     0.018 A 
ATOM     25  C   UNL     1       2.218   3.105   3.402  1.00  0.00     0.018 A 
BRANCH  21  26
ATOM     26  S   UNL     1       0.443   1.832  -0.018  1.00  0.00     0.238 S 
ATOM     27  O   UNL     1       1.078   2.360  -1.202  1.00  0.00    -0.207 OA
ATOM     28  O   UNL     1      -0.981   1.618   0.081  1.00  0.00    -0.207 OA
BRANCH  26  29
ATOM     29  N   UNL     1       1.146   0.324   0.227  1.00  0.00    -0.225 NA
ATOM     30  H   UNL     1       0.890  -0.299  -0.538  1.00  0.00     0.137 HD
ATOM     31  H   UNL     1       0.814  -0.066   1.109  1.00  0.00     0.137 HD
ENDBRANCH  26  29
ENDBRANCH  21  26
ENDBRANCH  19  20
ENDBRANCH   8  18
BRANCH  17  32
ATOM     32  C   UNL     1       3.318  10.305   3.429  1.00  0.00     0.429 C 
ATOM     33  F   UNL     1       2.906   9.662   2.308  1.00  0.00    -0.167 F 
ATOM     34  F   UNL     1       3.451  11.609   3.090  1.00  0.00    -0.167 F 
ATOM     35  F   UNL     1       4.555   9.850   3.732  1.00  0.00    -0.167 F 
ENDBRANCH  17  32
ENDBRANCH   4   7
ENDBRANCH   2   3
ENDBRANCH   1   2
BRANCH   1  36
ATOM     36  C   UNL     1      -1.174  14.073   2.789  1.00  0.00     0.002 C 
BRANCH  36  37
ATOM     37  C   UNL     1      -0.624  14.487   1.416  1.00  0.00     0.002 C 
BRANCH  37  38
ATOM     38  C   UNL     1      -0.822  13.450   0.310  1.00  0.00     0.021 C 
BRANCH  38  39
ATOM     39  C   UNL     1      -2.279  13.081   0.080  1.00  0.00     0.116 C 
BRANCH  39  40
ATOM     40  N   UNL     1      -3.071  14.227  -0.346  1.00  0.00    -0.352 N 
ATOM     41  C   UNL     1      -3.783  14.399  -1.507  1.00  0.00     0.251 C 
ATOM     42  H   UNL     1      -3.099  14.982   0.286  1.00  0.00     0.163 HD
ATOM     43  O   UNL     1      -4.234  15.494  -1.817  1.00  0.00    -0.269 OA
BRANCH  41  44
ATOM     44  C   UNL     1      -3.956  13.236  -2.396  1.00  0.00     0.039 A 
ATOM     45  C   UNL     1      -4.350  12.009  -1.857  1.00  0.00     0.014 A 
ATOM     46  C   UNL     1      -3.619  13.351  -3.744  1.00  0.00     0.014 A 
ATOM     47  C   UNL     1      -4.208  10.858  -2.617  1.00  0.00     0.010 A 
ATOM     48  C   UNL     1      -3.585  12.203  -4.536  1.00  0.00     0.010 A 
ATOM     49  C   UNL     1      -3.822  10.942  -3.965  1.00  0.00    -0.014 A 
BRANCH  49  50
ATOM     50  C   UNL     1      -3.670   9.704  -4.767  1.00  0.00     0.031 A 
ATOM     51  C   UNL     1      -2.338   9.328  -5.355  1.00  0.00     0.074 A 
ATOM     52  C   UNL     1      -4.741   8.906  -4.945  1.00  0.00     0.049 A 
ATOM     53  N   UNL     1      -2.041   8.318  -6.133  1.00  0.00    -0.248 NA
ATOM     54  C   UNL     1      -1.190  10.193  -5.035  1.00  0.00     0.031 C 
ATOM     55  C   UNL     1      -6.071   9.147  -4.381  1.00  0.00     0.029 A 
ATOM     56  N   UNL     1      -4.880   7.730  -5.636  1.00  0.00    -0.354 N 
ATOM     57  C   UNL     1      -0.685   8.438  -6.411  1.00  0.00     0.074 A 
ATOM     58  C   UNL     1      -0.219   9.634  -5.746  1.00  0.00     0.031 C 
ATOM     59  C   UNL     1      -6.878   8.131  -4.714  1.00  0.00     0.029 A 
ATOM     60  C   UNL     1      -6.154   7.218  -5.591  1.00  0.00     0.049 A 
ATOM     61  H   UNL     1      -4.139   7.295  -6.118  1.00  0.00     0.167 HD
ATOM     62  C   UNL     1       0.097   7.615  -7.148  1.00  0.00     0.031 A 
ATOM     63  C   UNL     1      -6.698   6.154  -6.212  1.00  0.00     0.031 A 
ATOM     64  C   UNL     1      -0.382   6.420  -7.795  1.00  0.00     0.049 A 
ATOM     65  C   UNL     1      -5.828   5.305  -7.094  1.00  0.00     0.074 A 
ATOM     66  C   UNL     1       0.340   5.509  -8.546  1.00  0.00     0.029 A 
ATOM     67  N   UNL     1      -1.693   5.970  -7.770  1.00  0.00    -0.354 N 
ATOM     68  N   UNL     1      -4.546   5.424  -7.341  1.00  0.00    -0.248 NA
ATOM     69  C   UNL     1      -6.471   4.176  -7.779  1.00  0.00     0.031 C 
ATOM     70  C   UNL     1      -0.549   4.564  -9.054  1.00  0.00     0.029 A 
ATOM     71  C   UNL     1      -1.807   4.818  -8.530  1.00  0.00     0.049 A 
ATOM     72  H   UNL     1      -2.432   6.403  -7.284  1.00  0.00     0.167 HD
ATOM     73  C   UNL     1      -4.221   4.369  -8.182  1.00  0.00     0.074 A 
ATOM     74  C   UNL     1      -5.438   3.613  -8.395  1.00  0.00     0.031 C 
ATOM     75  C   UNL     1      -3.019   4.060  -8.725  1.00  0.00     0.031 A 
BRANCH  62  76
ATOM     76  C   UNL     1       1.553   7.960  -7.323  1.00  0.00    -0.014 A 
ATOM     77  C   UNL     1       2.050   8.240  -8.608  1.00  0.00     0.009 A 
ATOM     78  C   UNL     1       2.459   7.873  -6.255  1.00  0.00     0.009 A 
ATOM     79  C   UNL     1       3.421   8.391  -8.826  1.00  0.00     0.001 A 
ATOM     80  C   UNL     1       3.827   8.063  -6.470  1.00  0.00     0.001 A 
ATOM     81  C   UNL     1       4.308   8.305  -7.756  1.00  0.00     0.000 A 
ENDBRANCH  62  76
BRANCH  63  82
ATOM     82  C   UNL     1      -8.140   5.853  -6.000  1.00  0.00    -0.014 A 
ATOM     83  C   UNL     1      -9.129   6.763  -6.416  1.00  0.00     0.009 A 
ATOM     84  C   UNL     1      -8.534   4.701  -5.305  1.00  0.00     0.009 A 
ATOM     85  C   UNL     1     -10.472   6.550  -6.099  1.00  0.00     0.001 A 
ATOM     86  C   UNL     1      -9.884   4.470  -5.027  1.00  0.00     0.001 A 
ATOM     87  C   UNL     1     -10.849   5.401  -5.409  1.00  0.00     0.000 A 
ENDBRANCH  63  82
BRANCH  75  88
ATOM     88  C   UNL     1      -2.914   2.831  -9.588  1.00  0.00    -0.014 A 
ATOM     89  C   UNL     1      -2.101   1.762  -9.172  1.00  0.00     0.009 A 
ATOM     90  C   UNL     1      -3.477   2.794 -10.872  1.00  0.00     0.009 A 
ATOM     91  C   UNL     1      -1.816   0.707 -10.038  1.00  0.00     0.001 A 
ATOM     92  C   UNL     1      -3.222   1.716 -11.723  1.00  0.00     0.001 A 
ATOM     93  C   UNL     1      -2.377   0.684 -11.313  1.00  0.00     0.000 A 
ENDBRANCH  75  88
ENDBRANCH  49  50
ENDBRANCH  41  44
ENDBRANCH  39  40
ENDBRANCH  38  39
ENDBRANCH  37  38
ENDBRANCH  36  37
ENDBRANCH   1  36
TORSDOF 18
