REMARK SMILES CC1=C([C@H](NC(=O)[C@@H]2[C@H](C)c3cc(F)ccc3N2C)C(=O)NCCCCCCNC(=O)c2ccc(-c3c4nc(c(-c5ccccc5)c5ccc([nH]5)c(-c5ccccc5)c5nc(c(-c6ccccc6)c6ccc3[nH]6)C=C5)C=C4)cc2)[C@@H](C)N=N1
REMARK SMILES IDX 25 1 24 2 23 3 22 4 20 5 21 6 4 8 3 9 1 10 2 11 83 12 80 13
REMARK SMILES IDX 82 14 81 15 5 16 6 17 7 19 8 20 9 21 18 22 11 23 10 24 17 25
REMARK SMILES IDX 19 26 12 27 16 28 13 29 15 30 14 31 26 32 27 33 28 34 29 35
REMARK SMILES IDX 30 36 31 38 32 39 33 40 79 41 34 42 78 43 35 44 36 45 37 46
REMARK SMILES IDX 72 47 38 48 77 49 71 50 73 51 39 52 76 53 70 54 69 55 40 57
REMARK SMILES IDX 62 58 47 59 61 60 48 61 51 62 60 63 74 64 49 65 50 66 59 68
REMARK SMILES IDX 75 69 52 70 41 71 42 72 46 73 43 74 45 75 44 76 63 77 64 78
REMARK SMILES IDX 68 79 65 80 67 81 66 82 53 83 54 84 58 85 55 86 57 87 56 88
REMARK H PARENT 22 7 5 18 29 37 73 56 51 67
REMARK Flexibility Score: inf
ROOT
ATOM      1  C   UNL     1      -3.652   3.179  -5.353  1.00  0.00     0.002 C 
ENDROOT
BRANCH   1   2
ATOM      2  C   UNL     1      -2.623   2.162  -4.854  1.00  0.00     0.021 C 
BRANCH   2   3
ATOM      3  C   UNL     1      -1.419   2.796  -4.183  1.00  0.00     0.116 C 
BRANCH   3   4
ATOM      4  N   UNL     1      -1.677   3.285  -2.850  1.00  0.00    -0.354 N 
ATOM      5  C   UNL     1      -0.749   3.641  -1.911  1.00  0.00     0.247 C 
ATOM      6  O   UNL     1      -1.074   4.500  -1.085  1.00  0.00    -0.272 OA
ATOM      7  H   UNL     1      -2.623   3.371  -2.588  1.00  0.00     0.163 HD
BRANCH   5   8
ATOM      8  C   UNL     1       0.696   3.055  -1.928  1.00  0.00     0.202 C 
BRANCH   8   9
ATOM      9  C   UNL     1       1.675   3.905  -2.658  1.00  0.00     0.011 C 
ATOM     10  C   UNL     1       2.382   5.494  -0.773  1.00  0.00     0.069 C 
ATOM     11  C   UNL     1       2.429   4.884  -2.134  1.00  0.00     0.064 C 
ATOM     12  N   UNL     1       3.435   5.277  -2.978  1.00  0.00    -0.160 NA
ATOM     13  C   UNL     1       2.163   3.773  -4.067  1.00  0.00     0.156 C 
ATOM     14  N   UNL     1       3.406   4.592  -4.033  1.00  0.00    -0.181 NA
ATOM     15  C   UNL     1       1.297   4.402  -5.156  1.00  0.00     0.040 C 
ENDBRANCH   8   9
BRANCH   8  16
ATOM     16  N   UNL     1       0.723   1.644  -2.297  1.00  0.00    -0.339 N 
ATOM     17  C   UNL     1       1.642   0.642  -2.315  1.00  0.00     0.244 C 
ATOM     18  H   UNL     1      -0.155   1.336  -2.616  1.00  0.00     0.164 HD
ATOM     19  O   UNL     1       1.131  -0.458  -2.560  1.00  0.00    -0.273 OA
BRANCH  17  20
ATOM     20  C   UNL     1       3.174   0.845  -2.184  1.00  0.00     0.178 C 
ATOM     21  C   UNL     1       4.040  -0.361  -2.741  1.00  0.00     0.050 C 
ATOM     22  N   UNL     1       3.698   1.083  -0.811  1.00  0.00    -0.362 N 
ATOM     23  C   UNL     1       5.293  -0.183  -1.925  1.00  0.00    -0.016 A 
ATOM     24  C   UNL     1       3.510  -1.782  -2.554  1.00  0.00     0.015 C 
ATOM     25  C   UNL     1       5.044   0.694  -0.867  1.00  0.00     0.041 A 
ATOM     26  C   UNL     1       3.350   2.181   0.046  1.00  0.00     0.144 C 
ATOM     27  C   UNL     1       6.536  -0.777  -2.096  1.00  0.00     0.045 A 
ATOM     28  C   UNL     1       6.078   1.065  -0.017  1.00  0.00     0.029 A 
ATOM     29  C   UNL     1       7.552  -0.430  -1.212  1.00  0.00     0.123 A 
ATOM     30  C   UNL     1       7.343   0.503  -0.196  1.00  0.00     0.041 A 
ATOM     31  F   UNL     1       8.758  -1.000  -1.335  1.00  0.00    -0.207 F 
ENDBRANCH  17  20
ENDBRANCH   8  16
ENDBRANCH   5   8
ENDBRANCH   3   4
ENDBRANCH   2   3
ENDBRANCH   1   2
BRANCH   1  32
ATOM     32  C   UNL     1      -3.120   4.272  -6.293  1.00  0.00     0.002 C 
BRANCH  32  33
ATOM     33  C   UNL     1      -2.319   3.799  -7.516  1.00  0.00     0.021 C 
BRANCH  33  34
ATOM     34  C   UNL     1      -3.030   2.773  -8.398  1.00  0.00     0.116 C 
BRANCH  34  35
ATOM     35  N   UNL     1      -4.375   3.162  -8.757  1.00  0.00    -0.352 N 
ATOM     36  C   UNL     1      -4.967   3.854  -9.775  1.00  0.00     0.251 C 
ATOM     37  H   UNL     1      -5.035   2.846  -8.098  1.00  0.00     0.163 HD
ATOM     38  O   UNL     1      -6.194   3.894  -9.743  1.00  0.00    -0.269 OA
BRANCH  36  39
ATOM     39  C   UNL     1      -4.260   4.584 -10.866  1.00  0.00     0.039 A 
ATOM     40  C   UNL     1      -2.882   4.678 -11.036  1.00  0.00     0.014 A 
ATOM     41  C   UNL     1      -5.093   5.280 -11.769  1.00  0.00     0.014 A 
ATOM     42  C   UNL     1      -2.357   5.503 -12.033  1.00  0.00     0.010 A 
ATOM     43  C   UNL     1      -4.573   6.099 -12.770  1.00  0.00     0.010 A 
ATOM     44  C   UNL     1      -3.199   6.242 -12.882  1.00  0.00    -0.014 A 
BRANCH  44  45
ATOM     45  C   UNL     1      -2.574   7.045 -13.934  1.00  0.00     0.031 A 
ATOM     46  C   UNL     1      -1.665   6.281 -14.832  1.00  0.00     0.074 A 
ATOM     47  C   UNL     1      -2.776   8.358 -14.177  1.00  0.00     0.049 A 
ATOM     48  N   UNL     1      -0.379   6.381 -14.898  1.00  0.00    -0.248 NA
ATOM     49  C   UNL     1      -2.231   5.210 -15.662  1.00  0.00     0.031 C 
ATOM     50  C   UNL     1      -3.794   9.255 -13.630  1.00  0.00     0.029 A 
ATOM     51  N   UNL     1      -2.105   9.161 -15.058  1.00  0.00    -0.354 N 
ATOM     52  C   UNL     1       0.033   5.489 -15.882  1.00  0.00     0.074 A 
ATOM     53  C   UNL     1      -1.133   4.720 -16.243  1.00  0.00     0.031 C 
ATOM     54  C   UNL     1      -3.813  10.403 -14.351  1.00  0.00     0.029 A 
ATOM     55  C   UNL     1      -2.710  10.388 -15.297  1.00  0.00     0.049 A 
ATOM     56  H   UNL     1      -1.261   8.892 -15.487  1.00  0.00     0.167 HD
ATOM     57  C   UNL     1       1.274   5.567 -16.439  1.00  0.00     0.031 A 
ATOM     58  C   UNL     1      -2.345  11.305 -16.230  1.00  0.00     0.031 A 
ATOM     59  C   UNL     1       2.169   6.362 -15.639  1.00  0.00     0.049 A 
ATOM     60  C   UNL     1      -0.924  11.067 -16.569  1.00  0.00     0.074 A 
ATOM     61  C   UNL     1       2.631   6.277 -14.339  1.00  0.00     0.029 A 
ATOM     62  N   UNL     1       2.427   7.650 -16.044  1.00  0.00    -0.354 N 
ATOM     63  N   UNL     1       0.062  11.300 -15.753  1.00  0.00    -0.248 NA
ATOM     64  C   UNL     1      -0.628  10.175 -17.677  1.00  0.00     0.031 C 
ATOM     65  C   UNL     1       2.655   7.622 -13.874  1.00  0.00     0.029 A 
ATOM     66  C   UNL     1       2.292   8.449 -14.938  1.00  0.00     0.049 A 
ATOM     67  H   UNL     1       2.663   7.942 -16.954  1.00  0.00     0.167 HD
ATOM     68  C   UNL     1       0.941  10.250 -15.965  1.00  0.00     0.074 A 
ATOM     69  C   UNL     1       0.508   9.641 -17.223  1.00  0.00     0.031 C 
ATOM     70  C   UNL     1       1.762   9.795 -14.973  1.00  0.00     0.031 A 
BRANCH  57  71
ATOM     71  C   UNL     1       1.578   5.212 -17.871  1.00  0.00    -0.014 A 
ATOM     72  C   UNL     1       0.583   5.015 -18.845  1.00  0.00     0.009 A 
ATOM     73  C   UNL     1       2.900   5.343 -18.337  1.00  0.00     0.009 A 
ATOM     74  C   UNL     1       0.880   4.982 -20.211  1.00  0.00     0.001 A 
ATOM     75  C   UNL     1       3.196   5.354 -19.705  1.00  0.00     0.001 A 
ATOM     76  C   UNL     1       2.183   5.180 -20.642  1.00  0.00     0.000 A 
ENDBRANCH  57  71
BRANCH  58  77
ATOM     77  C   UNL     1      -3.213  12.125 -17.108  1.00  0.00    -0.014 A 
ATOM     78  C   UNL     1      -4.502  11.674 -17.442  1.00  0.00     0.009 A 
ATOM     79  C   UNL     1      -2.669  13.171 -17.875  1.00  0.00     0.009 A 
ATOM     80  C   UNL     1      -5.198  12.206 -18.533  1.00  0.00     0.001 A 
ATOM     81  C   UNL     1      -3.366  13.702 -18.970  1.00  0.00     0.001 A 
ATOM     82  C   UNL     1      -4.622  13.207 -19.309  1.00  0.00     0.000 A 
ENDBRANCH  58  77
BRANCH  70  83
ATOM     83  C   UNL     1       1.917  10.606 -13.706  1.00  0.00    -0.014 A 
ATOM     84  C   UNL     1       3.217  10.784 -13.199  1.00  0.00     0.009 A 
ATOM     85  C   UNL     1       0.838  11.034 -12.913  1.00  0.00     0.009 A 
ATOM     86  C   UNL     1       3.433  11.351 -11.942  1.00  0.00     0.001 A 
ATOM     87  C   UNL     1       1.056  11.633 -11.666  1.00  0.00     0.001 A 
ATOM     88  C   UNL     1       2.353  11.778 -11.176  1.00  0.00     0.000 A 
ENDBRANCH  70  83
ENDBRANCH  44  45
ENDBRANCH  36  39
ENDBRANCH  34  35
ENDBRANCH  33  34
ENDBRANCH  32  33
ENDBRANCH   1  32
TORSDOF 16
