REMARK SMILES O=C(NCCCCCCNC(=O)c1ccc(-c2c3nc(c(-c4ccccc4)c4ccc([nH]4)c(-c4ccccc4)c4nc(c(-c5ccccc5)c5ccc2[nH]5)C=C4)C=C3)cc1)C1=Cc2cc(Cl)cc(-c3ccc(CO)cc3)c2O[C@@H]1C(F)(F)F
REMARK SMILES IDX 6 1 5 2 4 3 3 4 1 5 2 6 61 8 62 9 79 10 63 11 78 12 64 13
REMARK SMILES IDX 77 14 65 15 68 16 66 17 67 18 80 19 81 20 82 21 83 22 69 23
REMARK SMILES IDX 70 24 76 25 71 26 75 27 72 28 73 29 74 30 7 32 8 33 9 34
REMARK SMILES IDX 10 35 11 36 12 38 13 39 14 40 60 41 15 42 59 43 16 44 17 45
REMARK SMILES IDX 18 46 53 47 19 48 58 49 52 50 54 51 20 52 57 53 51 54 50 55
REMARK SMILES IDX 21 57 43 58 28 59 42 60 29 61 32 62 41 63 55 64 30 65 31 66
REMARK SMILES IDX 40 68 56 69 33 70 22 71 23 72 27 73 24 74 26 75 25 76 44 77
REMARK SMILES IDX 45 78 49 79 46 80 48 81 47 82 34 83 35 84 39 85 36 86 38 87
REMARK SMILES IDX 37 88
REMARK H PARENT 3 7 74 31 10 37 54 56 32 67
REMARK Flexibility Score: inf
ROOT
ATOM      1  C   UNL     1       3.834  -3.032   3.504  1.00  0.00     0.002 C 
ENDROOT
BRANCH   1   2
ATOM      2  C   UNL     1       4.218  -1.584   3.177  1.00  0.00     0.021 C 
BRANCH   2   3
ATOM      3  C   UNL     1       3.950  -1.096   1.748  1.00  0.00     0.116 C 
BRANCH   3   4
ATOM      4  N   UNL     1       2.702  -0.357   1.578  1.00  0.00    -0.352 N 
ATOM      5  O   UNL     1       1.180   0.949   0.540  1.00  0.00    -0.270 OA
ATOM      6  C   UNL     1       2.344   0.571   0.623  1.00  0.00     0.251 C 
ATOM      7  H   UNL     1       2.008  -0.551   2.249  1.00  0.00     0.163 HD
BRANCH   6   8
ATOM      8  C   UNL     1       3.325   0.936  -0.432  1.00  0.00     0.067 C 
ATOM      9  C   UNL     1       4.549   1.452  -0.236  1.00  0.00     0.025 C 
ATOM     10  C   UNL     1       3.032   0.403  -1.801  1.00  0.00     0.314 C 
ATOM     11  C   UNL     1       5.580   0.501  -0.738  1.00  0.00     0.019 A 
ATOM     12  O   UNL     1       3.923  -0.695  -2.092  1.00  0.00    -0.475 OA
ATOM     13  C   UNL     1       6.843   0.489  -0.125  1.00  0.00     0.032 A 
ATOM     14  C   UNL     1       5.185  -0.605  -1.537  1.00  0.00     0.135 A 
ATOM     15  C   UNL     1       7.681  -0.613  -0.286  1.00  0.00     0.042 A 
ATOM     16  C   UNL     1       6.006  -1.743  -1.653  1.00  0.00     0.026 A 
ATOM     17  Cl  UNL     1       9.168  -0.693   0.580  1.00  0.00    -0.084 Cl
ATOM     18  C   UNL     1       7.272  -1.714  -1.037  1.00  0.00     0.033 A 
BRANCH  10  19
ATOM     19  C   UNL     1       3.102   1.524  -2.869  1.00  0.00     0.429 C 
ATOM     20  F   UNL     1       2.745   1.064  -4.092  1.00  0.00    -0.167 F 
ATOM     21  F   UNL     1       2.263   2.548  -2.575  1.00  0.00    -0.167 F 
ATOM     22  F   UNL     1       4.340   2.059  -2.998  1.00  0.00    -0.167 F 
ENDBRANCH  10  19
BRANCH  16  23
ATOM     23  C   UNL     1       5.503  -3.032  -2.165  1.00  0.00    -0.015 A 
ATOM     24  C   UNL     1       5.276  -4.069  -1.246  1.00  0.00     0.009 A 
ATOM     25  C   UNL     1       5.239  -3.290  -3.511  1.00  0.00     0.009 A 
ATOM     26  C   UNL     1       4.856  -5.335  -1.640  1.00  0.00     0.007 A 
ATOM     27  C   UNL     1       4.814  -4.566  -3.920  1.00  0.00     0.007 A 
ATOM     28  C   UNL     1       4.640  -5.603  -2.991  1.00  0.00    -0.023 A 
BRANCH  28  29
ATOM     29  C   UNL     1       4.221  -6.987  -3.410  1.00  0.00     0.191 C 
BRANCH  29  30
ATOM     30  O   UNL     1       5.174  -7.953  -2.979  1.00  0.00    -0.392 OA
ATOM     31  H   UNL     1       6.036  -7.758  -3.380  1.00  0.00     0.211 HD
ENDBRANCH  29  30
ENDBRANCH  28  29
ENDBRANCH  16  23
ENDBRANCH   6   8
ENDBRANCH   3   4
ENDBRANCH   2   3
ENDBRANCH   1   2
BRANCH   1  32
ATOM     32  C   UNL     1       4.412  -4.128   2.601  1.00  0.00     0.002 C 
BRANCH  32  33
ATOM     33  C   UNL     1       5.920  -4.075   2.338  1.00  0.00     0.021 C 
BRANCH  33  34
ATOM     34  C   UNL     1       6.822  -4.290   3.544  1.00  0.00     0.116 C 
BRANCH  34  35
ATOM     35  N   UNL     1       6.727  -5.647   4.053  1.00  0.00    -0.352 N 
ATOM     36  C   UNL     1       7.668  -6.645   4.148  1.00  0.00     0.251 C 
ATOM     37  H   UNL     1       5.835  -5.896   4.387  1.00  0.00     0.163 HD
ATOM     38  O   UNL     1       7.299  -7.787   4.398  1.00  0.00    -0.269 OA
BRANCH  36  39
ATOM     39  C   UNL     1       9.116  -6.374   3.956  1.00  0.00     0.039 A 
ATOM     40  C   UNL     1       9.921  -7.388   3.419  1.00  0.00     0.014 A 
ATOM     41  C   UNL     1       9.708  -5.179   4.368  1.00  0.00     0.014 A 
ATOM     42  C   UNL     1      11.297  -7.190   3.269  1.00  0.00     0.010 A 
ATOM     43  C   UNL     1      11.062  -4.947   4.133  1.00  0.00     0.010 A 
ATOM     44  C   UNL     1      11.877  -5.958   3.606  1.00  0.00    -0.014 A 
BRANCH  44  45
ATOM     45  C   UNL     1      13.337  -5.720   3.461  1.00  0.00     0.031 A 
ATOM     46  C   UNL     1      14.178  -5.428   4.676  1.00  0.00     0.074 A 
ATOM     47  C   UNL     1      13.898  -5.706   2.236  1.00  0.00     0.049 A 
ATOM     48  N   UNL     1      15.448  -5.116   4.748  1.00  0.00    -0.248 NA
ATOM     49  C   UNL     1      13.495  -5.460   5.979  1.00  0.00     0.031 C 
ATOM     50  C   UNL     1      13.190  -5.938   0.976  1.00  0.00     0.029 A 
ATOM     51  N   UNL     1      15.195  -5.477   1.852  1.00  0.00    -0.354 N 
ATOM     52  C   UNL     1      15.705  -4.888   6.095  1.00  0.00     0.074 A 
ATOM     53  C   UNL     1      14.451  -5.048   6.798  1.00  0.00     0.031 C 
ATOM     54  C   UNL     1      14.066  -5.867  -0.039  1.00  0.00     0.029 A 
ATOM     55  C   UNL     1      15.386  -5.544   0.493  1.00  0.00     0.049 A 
ATOM     56  H   UNL     1      15.920  -5.284   2.489  1.00  0.00     0.167 HD
ATOM     57  C   UNL     1      16.881  -4.592   6.699  1.00  0.00     0.031 A 
ATOM     58  C   UNL     1      16.498  -5.361  -0.243  1.00  0.00     0.031 A 
ATOM     59  C   UNL     1      18.133  -4.455   6.005  1.00  0.00     0.049 A 
ATOM     60  C   UNL     1      17.792  -5.036   0.447  1.00  0.00     0.074 A 
ATOM     61  C   UNL     1      19.391  -4.218   6.531  1.00  0.00     0.029 A 
ATOM     62  N   UNL     1      18.284  -4.547   4.630  1.00  0.00    -0.354 N 
ATOM     63  N   UNL     1      18.029  -4.882   1.728  1.00  0.00    -0.248 NA
ATOM     64  C   UNL     1      18.975  -4.871  -0.409  1.00  0.00     0.031 C 
ATOM     65  C   UNL     1      20.297  -4.120   5.469  1.00  0.00     0.029 A 
ATOM     66  C   UNL     1      19.611  -4.350   4.287  1.00  0.00     0.049 A 
ATOM     67  H   UNL     1      17.556  -4.725   3.991  1.00  0.00     0.167 HD
ATOM     68  C   UNL     1      19.390  -4.627   1.833  1.00  0.00     0.074 A 
ATOM     69  C   UNL     1      19.928  -4.663   0.488  1.00  0.00     0.031 C 
ATOM     70  C   UNL     1      20.128  -4.385   2.943  1.00  0.00     0.031 A 
BRANCH  57  71
ATOM     71  C   UNL     1      16.860  -4.388   8.190  1.00  0.00    -0.014 A 
ATOM     72  C   UNL     1      16.635  -5.460   9.069  1.00  0.00     0.009 A 
ATOM     73  C   UNL     1      17.087  -3.110   8.723  1.00  0.00     0.009 A 
ATOM     74  C   UNL     1      16.593  -5.247  10.449  1.00  0.00     0.001 A 
ATOM     75  C   UNL     1      17.076  -2.906  10.105  1.00  0.00     0.001 A 
ATOM     76  C   UNL     1      16.817  -3.971  10.966  1.00  0.00     0.000 A 
ENDBRANCH  57  71
BRANCH  58  77
ATOM     77  C   UNL     1      16.438  -5.502  -1.721  1.00  0.00    -0.014 A 
ATOM     78  C   UNL     1      17.021  -6.612  -2.352  1.00  0.00     0.009 A 
ATOM     79  C   UNL     1      15.789  -4.538  -2.507  1.00  0.00     0.009 A 
ATOM     80  C   UNL     1      16.973  -6.741  -3.742  1.00  0.00     0.001 A 
ATOM     81  C   UNL     1      15.719  -4.684  -3.894  1.00  0.00     0.001 A 
ATOM     82  C   UNL     1      16.318  -5.781  -4.511  1.00  0.00     0.000 A 
ENDBRANCH  58  77
BRANCH  70  83
ATOM     83  C   UNL     1      21.603  -4.171   2.753  1.00  0.00    -0.014 A 
ATOM     84  C   UNL     1      22.100  -2.984   2.196  1.00  0.00     0.009 A 
ATOM     85  C   UNL     1      22.507  -5.157   3.177  1.00  0.00     0.009 A 
ATOM     86  C   UNL     1      23.476  -2.802   2.037  1.00  0.00     0.001 A 
ATOM     87  C   UNL     1      23.882  -4.961   3.043  1.00  0.00     0.001 A 
ATOM     88  C   UNL     1      24.365  -3.788   2.465  1.00  0.00     0.000 A 
ENDBRANCH  70  83
ENDBRANCH  44  45
ENDBRANCH  36  39
ENDBRANCH  34  35
ENDBRANCH  33  34
ENDBRANCH  32  33
ENDBRANCH   1  32
TORSDOF 17
