REMARK SMILES COc1cc([N+](=O)[O-])cc([C@H]2[NH2+][C@H](C(=O)NCCCCCCNC(=O)c3ccc(-c4c5nc(c(-c6ccccc6)c6ccc([nH]6)c(-c6ccccc6)c6nc(c(-c7ccccc7)c7ccc4[nH]7)C=C6)C=C5)cc3)CS2)c1O
REMARK SMILES IDX 19 1 18 2 17 3 16 4 14 5 15 6 13 8 11 9 12 10 75 11 74 14
REMARK SMILES IDX 10 15 3 16 4 17 76 18 5 19 9 20 2 21 1 22 77 23 6 25 7 26
REMARK SMILES IDX 8 27 20 28 21 29 22 30 23 31 24 32 25 34 26 35 27 36 73 37
REMARK SMILES IDX 28 38 72 39 29 40 30 41 31 42 66 43 32 44 71 45 65 46 67 47
REMARK SMILES IDX 33 48 70 49 64 50 63 51 34 53 56 54 41 55 55 56 42 57 45 58
REMARK SMILES IDX 54 59 68 60 43 61 44 62 53 64 69 65 46 66 35 67 36 68 40 69
REMARK SMILES IDX 37 70 39 71 38 72 57 73 58 74 62 75 59 76 61 77 60 78 47 79
REMARK SMILES IDX 48 80 52 81 49 82 51 83 50 84
REMARK H PARENT 16 7 12 12 12 13 77 24 23 33 67 52 45 63
REMARK Flexibility Score: inf
ROOT
ATOM      1  C   UNL     1       2.290  -0.137  -5.066  1.00  0.00     0.002 C 
ENDROOT
BRANCH   1   2
ATOM      2  C   UNL     1       1.360  -1.225  -4.519  1.00  0.00     0.021 C 
BRANCH   2   3
ATOM      3  C   UNL     1       1.654  -1.556  -3.054  1.00  0.00     0.116 C 
BRANCH   3   4
ATOM      4  N   UNL     1       0.854  -0.732  -2.175  1.00  0.00    -0.351 N 
ATOM      5  C   UNL     1      -0.344  -0.945  -1.568  1.00  0.00     0.279 C 
ATOM      6  O   UNL     1      -0.826   0.019  -0.962  1.00  0.00    -0.268 OA
ATOM      7  H   UNL     1       1.250   0.147  -1.981  1.00  0.00     0.163 HD
BRANCH   5   8
ATOM      8  C   UNL     1      -1.068  -2.305  -1.536  1.00  0.00     0.283 C 
ATOM      9  C   UNL     1      -0.867  -3.885  -3.330  1.00  0.00     0.278 C 
ATOM     10  N   UNL     1      -1.617  -2.726  -2.867  1.00  0.00    -0.320 N 
ATOM     11  S   UNL     1      -0.413  -4.846  -1.879  1.00  0.00    -0.087 SA
ATOM     12  H   UNL     1      -2.603  -2.970  -2.771  1.00  0.00     0.348 HD
ATOM     13  H   UNL     1      -1.530  -1.963  -3.538  1.00  0.00     0.348 HD
ATOM     14  C   UNL     1      -0.251  -3.388  -0.836  1.00  0.00     0.151 C 
BRANCH   9  15
ATOM     15  C   UNL     1      -1.435  -4.612  -4.540  1.00  0.00     0.073 A 
ATOM     16  C   UNL     1      -1.812  -6.654  -5.843  1.00  0.00     0.167 A 
ATOM     17  C   UNL     1      -1.740  -5.919  -7.031  1.00  0.00     0.136 A 
ATOM     18  C   UNL     1      -1.718  -5.992  -4.605  1.00  0.00     0.168 A 
ATOM     19  C   UNL     1      -1.583  -4.535  -6.984  1.00  0.00     0.273 A 
ATOM     20  C   UNL     1      -1.444  -3.882  -5.752  1.00  0.00     0.100 A 
BRANCH  16  21
ATOM     21  O   UNL     1      -1.933  -8.004  -6.058  1.00  0.00    -0.493 OA
ATOM     22  C   UNL     1      -1.636  -8.881  -4.976  1.00  0.00     0.278 C 
ENDBRANCH  16  21
BRANCH  18  23
ATOM     23  O   UNL     1      -1.921  -6.724  -3.468  1.00  0.00    -0.504 OA
ATOM     24  H   UNL     1      -2.108  -7.640  -3.528  1.00  0.00     0.293 HD
ENDBRANCH  18  23
BRANCH  19  25
ATOM     25  N   UNL     1      -1.453  -3.772  -8.232  1.00  0.00     0.062 N 
ATOM     26  O   UNL     1      -1.579  -4.384  -9.302  1.00  0.00    -0.258 OA
ATOM     27  O   UNL     1      -1.192  -2.563  -8.142  1.00  0.00    -0.258 OA
ENDBRANCH  19  25
ENDBRANCH   9  15
ENDBRANCH   5   8
ENDBRANCH   3   4
ENDBRANCH   2   3
ENDBRANCH   1   2
BRANCH   1  28
ATOM     28  C   UNL     1       3.760  -0.566  -5.179  1.00  0.00     0.002 C 
BRANCH  28  29
ATOM     29  C   UNL     1       4.008  -1.778  -6.082  1.00  0.00     0.021 C 
BRANCH  29  30
ATOM     30  C   UNL     1       3.607  -1.558  -7.536  1.00  0.00     0.116 C 
BRANCH  30  31
ATOM     31  N   UNL     1       4.409  -0.512  -8.153  1.00  0.00    -0.352 N 
ATOM     32  C   UNL     1       5.217  -0.585  -9.259  1.00  0.00     0.251 C 
ATOM     33  H   UNL     1       4.365   0.370  -7.716  1.00  0.00     0.163 HD
ATOM     34  O   UNL     1       6.025   0.302  -9.503  1.00  0.00    -0.269 OA
BRANCH  32  35
ATOM     35  C   UNL     1       5.106  -1.755 -10.152  1.00  0.00     0.039 A 
ATOM     36  C   UNL     1       6.269  -2.389 -10.597  1.00  0.00     0.014 A 
ATOM     37  C   UNL     1       3.848  -2.221 -10.544  1.00  0.00     0.014 A 
ATOM     38  C   UNL     1       6.167  -3.530 -11.394  1.00  0.00     0.010 A 
ATOM     39  C   UNL     1       3.748  -3.397 -11.276  1.00  0.00     0.010 A 
ATOM     40  C   UNL     1       4.906  -4.059 -11.713  1.00  0.00    -0.014 A 
BRANCH  40  41
ATOM     41  C   UNL     1       4.758  -5.292 -12.523  1.00  0.00     0.031 A 
ATOM     42  C   UNL     1       4.084  -5.221 -13.866  1.00  0.00     0.074 A 
ATOM     43  C   UNL     1       5.155  -6.478 -12.022  1.00  0.00     0.049 A 
ATOM     44  N   UNL     1       3.733  -6.194 -14.666  1.00  0.00    -0.248 NA
ATOM     45  C   UNL     1       3.740  -3.878 -14.364  1.00  0.00     0.031 C 
ATOM     46  C   UNL     1       5.811  -6.679 -10.728  1.00  0.00     0.029 A 
ATOM     47  N   UNL     1       5.048  -7.745 -12.540  1.00  0.00    -0.354 N 
ATOM     48  C   UNL     1       3.117  -5.584 -15.751  1.00  0.00     0.074 A 
ATOM     49  C   UNL     1       3.097  -4.162 -15.487  1.00  0.00     0.031 C 
ATOM     50  C   UNL     1       6.061  -7.989 -10.561  1.00  0.00     0.029 A 
ATOM     51  C   UNL     1       5.538  -8.723 -11.708  1.00  0.00     0.049 A 
ATOM     52  H   UNL     1       4.658  -7.934 -13.423  1.00  0.00     0.167 HD
ATOM     53  C   UNL     1       2.629  -6.154 -16.877  1.00  0.00     0.031 A 
ATOM     54  C   UNL     1       5.543 -10.063 -11.847  1.00  0.00     0.031 A 
ATOM     55  C   UNL     1       2.653  -7.567 -17.141  1.00  0.00     0.049 A 
ATOM     56  C   UNL     1       4.942 -10.673 -13.085  1.00  0.00     0.074 A 
ATOM     57  C   UNL     1       2.200  -8.242 -18.261  1.00  0.00     0.029 A 
ATOM     58  N   UNL     1       3.163  -8.520 -16.274  1.00  0.00    -0.354 N 
ATOM     59  N   UNL     1       4.397 -10.079 -14.118  1.00  0.00    -0.248 NA
ATOM     60  C   UNL     1       4.965 -12.140 -13.178  1.00  0.00     0.031 C 
ATOM     61  C   UNL     1       2.397  -9.609 -18.054  1.00  0.00     0.029 A 
ATOM     62  C   UNL     1       3.028  -9.778 -16.832  1.00  0.00     0.049 A 
ATOM     63  H   UNL     1       3.561  -8.330 -15.394  1.00  0.00     0.167 HD
ATOM     64  C   UNL     1       4.058 -11.095 -15.003  1.00  0.00     0.074 A 
ATOM     65  C   UNL     1       4.461 -12.342 -14.388  1.00  0.00     0.031 C 
ATOM     66  C   UNL     1       3.468 -11.004 -16.219  1.00  0.00     0.031 A 
BRANCH  53  67
ATOM     67  C   UNL     1       2.033  -5.248 -17.917  1.00  0.00    -0.014 A 
ATOM     68  C   UNL     1       2.845  -4.399 -18.686  1.00  0.00     0.009 A 
ATOM     69  C   UNL     1       0.654  -5.286 -18.176  1.00  0.00     0.009 A 
ATOM     70  C   UNL     1       2.286  -3.590 -19.676  1.00  0.00     0.001 A 
ATOM     71  C   UNL     1       0.101  -4.498 -19.186  1.00  0.00     0.001 A 
ATOM     72  C   UNL     1       0.916  -3.646 -19.931  1.00  0.00     0.000 A 
ENDBRANCH  53  67
BRANCH  54  73
ATOM     73  C   UNL     1       6.129 -10.931 -10.790  1.00  0.00    -0.014 A 
ATOM     74  C   UNL     1       7.290 -11.678 -11.046  1.00  0.00     0.009 A 
ATOM     75  C   UNL     1       5.507 -11.056  -9.538  1.00  0.00     0.009 A 
ATOM     76  C   UNL     1       7.789 -12.564 -10.088  1.00  0.00     0.001 A 
ATOM     77  C   UNL     1       6.029 -11.916  -8.569  1.00  0.00     0.001 A 
ATOM     78  C   UNL     1       7.159 -12.681  -8.850  1.00  0.00     0.000 A 
ENDBRANCH  54  73
BRANCH  66  79
ATOM     79  C   UNL     1       3.295 -12.271 -17.006  1.00  0.00    -0.014 A 
ATOM     80  C   UNL     1       2.324 -13.223 -16.663  1.00  0.00     0.009 A 
ATOM     81  C   UNL     1       4.074 -12.473 -18.157  1.00  0.00     0.009 A 
ATOM     82  C   UNL     1       2.153 -14.366 -17.447  1.00  0.00     0.001 A 
ATOM     83  C   UNL     1       3.880 -13.601 -18.955  1.00  0.00     0.001 A 
ATOM     84  C   UNL     1       2.924 -14.549 -18.595  1.00  0.00     0.000 A 
ENDBRANCH  66  79
ENDBRANCH  40  41
ENDBRANCH  32  35
ENDBRANCH  30  31
ENDBRANCH  29  30
ENDBRANCH  28  29
ENDBRANCH   1  28
TORSDOF 17
