REMARK SMILES CC(C)c1ccc(C(=O)N2CCC[C@@H](C(=O)NCCCCCCNC(=O)c3ccc(-c4c5nc(c(-c6ccccc6)c6ccc([nH]6)c(-c6ccccc6)c6nc(c(-c7ccccc7)c7ccc4[nH]7)C=C6)C=C5)cc3)C2)cc1
REMARK SMILES IDX 20 1 19 2 18 3 17 4 15 5 16 6 14 8 10 9 11 10 75 11 12 12
REMARK SMILES IDX 13 13 8 14 9 15 7 16 4 17 5 18 77 19 6 20 76 21 2 22 1 23
REMARK SMILES IDX 3 24 21 25 22 26 23 27 24 28 25 29 26 31 27 32 28 33 74 34
REMARK SMILES IDX 29 35 73 36 30 37 31 38 32 39 67 40 33 41 72 42 66 43 68 44
REMARK SMILES IDX 34 45 71 46 65 47 64 48 35 50 57 51 42 52 56 53 43 54 46 55
REMARK SMILES IDX 55 56 69 57 44 58 45 59 54 61 70 62 47 63 36 64 37 65 41 66
REMARK SMILES IDX 38 67 40 68 39 69 58 70 59 71 63 72 60 73 62 74 61 75 48 76
REMARK SMILES IDX 49 77 53 78 50 79 52 80 51 81
REMARK H PARENT 17 7 24 30 68 49 46 60
REMARK Flexibility Score: inf
ROOT
ATOM      1  C   UNL     1      -8.637  -9.225  -0.200  1.00  0.00     0.002 C 
ENDROOT
BRANCH   1   2
ATOM      2  C   UNL     1      -8.517  -7.790  -0.729  1.00  0.00     0.021 C 
BRANCH   2   3
ATOM      3  C   UNL     1      -9.259  -6.764   0.129  1.00  0.00     0.116 C 
BRANCH   3   4
ATOM      4  N   UNL     1      -8.441  -6.314   1.237  1.00  0.00    -0.356 N 
ATOM      5  C   UNL     1      -7.697  -5.212   1.488  1.00  0.00     0.224 C 
ATOM      6  O   UNL     1      -7.055  -5.246   2.547  1.00  0.00    -0.275 OA
ATOM      7  H   UNL     1      -8.422  -6.960   1.980  1.00  0.00     0.163 HD
BRANCH   5   8
ATOM      8  C   UNL     1      -7.601  -3.964   0.603  1.00  0.00     0.098 C 
ATOM      9  N   UNL     1      -5.844  -2.587  -0.545  1.00  0.00    -0.338 N 
ATOM     10  C   UNL     1      -6.562  -2.600  -1.800  1.00  0.00     0.120 C 
ATOM     11  C   UNL     1      -6.098  -3.672   0.404  1.00  0.00     0.133 C 
ATOM     12  C   UNL     1      -8.052  -2.698  -1.556  1.00  0.00     0.022 C 
ATOM     13  C   UNL     1      -8.350  -3.943  -0.729  1.00  0.00     0.017 C 
BRANCH   9  14
ATOM     14  C   UNL     1      -5.266  -1.394  -0.145  1.00  0.00     0.253 C 
ATOM     15  O   UNL     1      -5.910  -0.355  -0.043  1.00  0.00    -0.269 OA
BRANCH  14  16
ATOM     16  C   UNL     1      -3.773  -1.383  -0.080  1.00  0.00     0.040 A 
ATOM     17  C   UNL     1      -0.944  -1.244  -0.185  1.00  0.00    -0.045 A 
ATOM     18  C   UNL     1      -1.722  -0.085  -0.042  1.00  0.00     0.005 A 
ATOM     19  C   UNL     1      -1.618  -2.471  -0.297  1.00  0.00     0.005 A 
ATOM     20  C   UNL     1      -3.119  -0.153   0.015  1.00  0.00     0.014 A 
ATOM     21  C   UNL     1      -3.012  -2.543  -0.239  1.00  0.00     0.014 A 
BRANCH  17  22
ATOM     22  C   UNL     1       0.579  -1.218  -0.275  1.00  0.00     0.013 C 
ATOM     23  C   UNL     1       1.217   0.155  -0.026  1.00  0.00     0.012 C 
ATOM     24  C   UNL     1       1.222  -2.234   0.683  1.00  0.00     0.012 C 
ENDBRANCH  17  22
ENDBRANCH  14  16
ENDBRANCH   9  14
ENDBRANCH   5   8
ENDBRANCH   3   4
ENDBRANCH   2   3
ENDBRANCH   1   2
BRANCH   1  25
ATOM     25  C   UNL     1     -10.075  -9.745  -0.060  1.00  0.00     0.002 C 
BRANCH  25  26
ATOM     26  C   UNL     1     -10.942  -9.601  -1.314  1.00  0.00     0.021 C 
BRANCH  26  27
ATOM     27  C   UNL     1     -10.420 -10.367  -2.525  1.00  0.00     0.116 C 
BRANCH  27  28
ATOM     28  N   UNL     1     -10.406 -11.802  -2.284  1.00  0.00    -0.352 N 
ATOM     29  C   UNL     1     -11.033 -12.803  -2.974  1.00  0.00     0.251 C 
ATOM     30  H   UNL     1      -9.868 -12.094  -1.513  1.00  0.00     0.163 HD
ATOM     31  O   UNL     1     -11.114 -13.933  -2.489  1.00  0.00    -0.269 OA
BRANCH  29  32
ATOM     32  C   UNL     1     -11.622 -12.530  -4.299  1.00  0.00     0.039 A 
ATOM     33  C   UNL     1     -12.881 -13.052  -4.604  1.00  0.00     0.014 A 
ATOM     34  C   UNL     1     -10.921 -11.779  -5.248  1.00  0.00     0.014 A 
ATOM     35  C   UNL     1     -13.460 -12.778  -5.844  1.00  0.00     0.010 A 
ATOM     36  C   UNL     1     -11.529 -11.447  -6.454  1.00  0.00     0.010 A 
ATOM     37  C   UNL     1     -12.800 -11.950  -6.767  1.00  0.00    -0.014 A 
BRANCH  37  38
ATOM     38  C   UNL     1     -13.423 -11.603  -8.068  1.00  0.00     0.031 A 
ATOM     39  C   UNL     1     -12.788 -12.054  -9.355  1.00  0.00     0.074 A 
ATOM     40  C   UNL     1     -14.527 -10.832  -8.092  1.00  0.00     0.049 A 
ATOM     41  N   UNL     1     -13.154 -11.805 -10.587  1.00  0.00    -0.248 NA
ATOM     42  C   UNL     1     -11.569 -12.871  -9.243  1.00  0.00     0.031 C 
ATOM     43  C   UNL     1     -15.216 -10.301  -6.914  1.00  0.00     0.029 A 
ATOM     44  N   UNL     1     -15.260 -10.356  -9.149  1.00  0.00    -0.354 N 
ATOM     45  C   UNL     1     -12.205 -12.420 -11.393  1.00  0.00     0.074 A 
ATOM     46  C   UNL     1     -11.219 -13.008 -10.514  1.00  0.00     0.031 C 
ATOM     47  C   UNL     1     -16.288  -9.597  -7.313  1.00  0.00     0.029 A 
ATOM     48  C   UNL     1     -16.337  -9.590  -8.771  1.00  0.00     0.049 A 
ATOM     49  H   UNL     1     -15.037 -10.545 -10.089  1.00  0.00     0.167 HD
ATOM     50  C   UNL     1     -12.166 -12.504 -12.744  1.00  0.00     0.031 A 
ATOM     51  C   UNL     1     -17.256  -8.949  -9.516  1.00  0.00     0.031 A 
ATOM     52  C   UNL     1     -13.151 -11.923 -13.618  1.00  0.00     0.049 A 
ATOM     53  C   UNL     1     -17.180  -9.040 -11.015  1.00  0.00     0.074 A 
ATOM     54  C   UNL     1     -13.230 -11.998 -14.998  1.00  0.00     0.029 A 
ATOM     55  N   UNL     1     -14.226 -11.157 -13.196  1.00  0.00    -0.354 N 
ATOM     56  N   UNL     1     -16.313  -9.682 -11.760  1.00  0.00    -0.248 NA
ATOM     57  C   UNL     1     -18.216  -8.326 -11.773  1.00  0.00     0.031 C 
ATOM     58  C   UNL     1     -14.323 -11.231 -15.414  1.00  0.00     0.029 A 
ATOM     59  C   UNL     1     -14.960 -10.730 -14.290  1.00  0.00     0.049 A 
ATOM     60  H   UNL     1     -14.437 -10.948 -12.257  1.00  0.00     0.167 HD
ATOM     61  C   UNL     1     -16.717  -9.475 -13.073  1.00  0.00     0.074 A 
ATOM     62  C   UNL     1     -17.914  -8.661 -13.020  1.00  0.00     0.031 C 
ATOM     63  C   UNL     1     -16.148  -9.919 -14.220  1.00  0.00     0.031 A 
BRANCH  50  64
ATOM     64  C   UNL     1     -11.011 -13.245 -13.360  1.00  0.00    -0.014 A 
ATOM     65  C   UNL     1     -10.887 -14.638 -13.233  1.00  0.00     0.009 A 
ATOM     66  C   UNL     1     -10.051 -12.545 -14.108  1.00  0.00     0.009 A 
ATOM     67  C   UNL     1      -9.805 -15.308 -13.808  1.00  0.00     0.001 A 
ATOM     68  C   UNL     1      -8.988 -13.222 -14.708  1.00  0.00     0.001 A 
ATOM     69  C   UNL     1      -8.860 -14.601 -14.549  1.00  0.00     0.000 A 
ENDBRANCH  50  64
BRANCH  51  70
ATOM     70  C   UNL     1     -18.340  -8.173  -8.857  1.00  0.00    -0.014 A 
ATOM     71  C   UNL     1     -19.668  -8.623  -8.904  1.00  0.00     0.009 A 
ATOM     72  C   UNL     1     -18.053  -6.976  -8.183  1.00  0.00     0.009 A 
ATOM     73  C   UNL     1     -20.690  -7.876  -8.316  1.00  0.00     0.001 A 
ATOM     74  C   UNL     1     -19.073  -6.246  -7.569  1.00  0.00     0.001 A 
ATOM     75  C   UNL     1     -20.392  -6.691  -7.645  1.00  0.00     0.000 A 
ENDBRANCH  51  70
BRANCH  63  76
ATOM     76  C   UNL     1     -16.834  -9.566 -15.510  1.00  0.00    -0.014 A 
ATOM     77  C   UNL     1     -16.816  -8.256 -16.012  1.00  0.00     0.009 A 
ATOM     78  C   UNL     1     -17.475 -10.571 -16.251  1.00  0.00     0.009 A 
ATOM     79  C   UNL     1     -17.457  -7.954 -17.216  1.00  0.00     0.001 A 
ATOM     80  C   UNL     1     -18.087 -10.272 -17.469  1.00  0.00     0.001 A 
ATOM     81  C   UNL     1     -18.086  -8.962 -17.945  1.00  0.00     0.000 A 
ENDBRANCH  63  76
ENDBRANCH  37  38
ENDBRANCH  29  32
ENDBRANCH  27  28
ENDBRANCH  26  27
ENDBRANCH  25  26
ENDBRANCH   1  25
TORSDOF 16
