REMARK SMILES CCN(Cc1ccccn1)C(=O)NC(CC)(CC)C(=O)NCCCCCCNC(=O)c1ccc(-c2c3nc(c(-c4ccccc4)c4ccc([nH]4)c(-c4ccccc4)c4nc(c(-c5ccccc5)c5ccc2[nH]5)C=C4)C=C3)cc1
REMARK SMILES IDX 23 1 22 2 21 3 19 4 20 5 14 7 13 8 11 9 12 10 3 12 2 13 1 14
REMARK SMILES IDX 4 15 5 16 6 17 10 18 7 19 9 20 8 21 15 22 16 23 17 24 18 25
REMARK SMILES IDX 24 26 25 27 26 28 27 29 28 30 29 31 30 33 31 34 32 35 78 36
REMARK SMILES IDX 33 37 77 38 34 39 35 40 36 41 71 42 37 43 76 44 70 45 72 46
REMARK SMILES IDX 38 47 75 48 69 49 68 50 39 52 61 53 46 54 60 55 47 56 50 57
REMARK SMILES IDX 59 58 73 59 48 60 49 61 58 63 74 64 51 65 40 66 41 67 45 68
REMARK SMILES IDX 42 69 44 70 43 71 62 72 63 73 67 74 64 75 66 76 65 77 52 78
REMARK SMILES IDX 53 79 57 80 54 81 56 82 55 83
REMARK H PARENT 21 6 13 11 28 32 72 51 50 62
REMARK Flexibility Score: inf
ROOT
ATOM      1  C   UNL     1      -1.118   3.855  -6.640  1.00  0.00     0.021 C 
ENDROOT
BRANCH   1   2
ATOM      2  C   UNL     1      -0.247   4.613  -5.635  1.00  0.00     0.116 C 
BRANCH   2   3
ATOM      3  N   UNL     1      -0.315   3.966  -4.345  1.00  0.00    -0.354 N 
ATOM      4  C   UNL     1       0.528   2.985  -3.914  1.00  0.00     0.245 C 
ATOM      5  O   UNL     1       0.003   1.901  -3.639  1.00  0.00    -0.272 OA
ATOM      6  H   UNL     1      -1.026   4.255  -3.729  1.00  0.00     0.163 HD
BRANCH   4   7
ATOM      7  C   UNL     1       2.051   3.242  -3.801  1.00  0.00     0.120 C 
BRANCH   7   8
ATOM      8  N   UNL     1       2.579   2.572  -2.583  1.00  0.00    -0.323 N 
ATOM      9  C   UNL     1       2.358   2.466  -1.267  1.00  0.00     0.318 C 
ATOM     10  O   UNL     1       3.365   2.068  -0.657  1.00  0.00    -0.249 OA
ATOM     11  H   UNL     1       3.356   2.019  -2.827  1.00  0.00     0.166 HD
BRANCH   9  12
ATOM     12  N   UNL     1       1.157   2.548  -0.625  1.00  0.00    -0.319 N 
BRANCH  12  13
ATOM     13  C   UNL     1       1.031   1.591   0.487  1.00  0.00     0.118 C 
ATOM     14  C   UNL     1       1.044   0.140   0.004  1.00  0.00     0.027 C 
ENDBRANCH  12  13
BRANCH  12  15
ATOM     15  C   UNL     1      -0.092   3.263  -0.935  1.00  0.00     0.177 C 
BRANCH  15  16
ATOM     16  C   UNL     1      -0.080   4.767  -1.147  1.00  0.00     0.060 A 
ATOM     17  C   UNL     1      -1.294   5.400  -1.445  1.00  0.00     0.026 A 
ATOM     18  N   UNL     1       1.062   5.473  -0.998  1.00  0.00    -0.259 NA
ATOM     19  C   UNL     1      -1.321   6.777  -1.651  1.00  0.00     0.004 A 
ATOM     20  C   UNL     1       1.013   6.807  -1.218  1.00  0.00     0.111 A 
ATOM     21  C   UNL     1      -0.140   7.496  -1.552  1.00  0.00     0.020 A 
ENDBRANCH  15  16
ENDBRANCH  12  15
ENDBRANCH   9  12
ENDBRANCH   7   8
BRANCH   7  22
ATOM     22  C   UNL     1       2.493   4.737  -3.728  1.00  0.00     0.035 C 
ATOM     23  C   UNL     1       3.794   5.114  -4.437  1.00  0.00     0.007 C 
ENDBRANCH   7  22
BRANCH   7  24
ATOM     24  C   UNL     1       2.694   2.534  -5.046  1.00  0.00     0.035 C 
ATOM     25  C   UNL     1       2.398   1.043  -5.210  1.00  0.00     0.007 C 
ENDBRANCH   7  24
ENDBRANCH   4   7
ENDBRANCH   2   3
ENDBRANCH   1   2
BRANCH   1  26
ATOM     26  C   UNL     1      -2.583   3.664  -6.209  1.00  0.00     0.002 C 
BRANCH  26  27
ATOM     27  C   UNL     1      -3.336   4.943  -5.828  1.00  0.00     0.002 C 
BRANCH  27  28
ATOM     28  C   UNL     1      -3.311   6.047  -6.883  1.00  0.00     0.021 C 
BRANCH  28  29
ATOM     29  C   UNL     1      -3.780   5.615  -8.266  1.00  0.00     0.116 C 
BRANCH  29  30
ATOM     30  N   UNL     1      -5.196   5.294  -8.309  1.00  0.00    -0.352 N 
ATOM     31  C   UNL     1      -6.095   5.611  -9.300  1.00  0.00     0.251 C 
ATOM     32  H   UNL     1      -5.553   4.793  -7.541  1.00  0.00     0.163 HD
ATOM     33  O   UNL     1      -7.294   5.388  -9.165  1.00  0.00    -0.269 OA
BRANCH  31  34
ATOM     34  C   UNL     1      -5.592   6.265 -10.525  1.00  0.00     0.039 A 
ATOM     35  C   UNL     1      -6.143   7.486 -10.919  1.00  0.00     0.014 A 
ATOM     36  C   UNL     1      -4.528   5.701 -11.234  1.00  0.00     0.014 A 
ATOM     37  C   UNL     1      -5.580   8.181 -11.992  1.00  0.00     0.010 A 
ATOM     38  C   UNL     1      -3.933   6.421 -12.264  1.00  0.00     0.010 A 
ATOM     39  C   UNL     1      -4.449   7.670 -12.649  1.00  0.00    -0.014 A 
BRANCH  39  40
ATOM     40  C   UNL     1      -3.782   8.408 -13.751  1.00  0.00     0.031 A 
ATOM     41  C   UNL     1      -3.761   7.816 -15.133  1.00  0.00     0.074 A 
ATOM     42  C   UNL     1      -3.107   9.544 -13.491  1.00  0.00     0.049 A 
ATOM     43  N   UNL     1      -3.096   8.208 -16.189  1.00  0.00    -0.248 NA
ATOM     44  C   UNL     1      -4.571   6.604 -15.346  1.00  0.00     0.031 C 
ATOM     45  C   UNL     1      -3.022  10.207 -12.188  1.00  0.00     0.029 A 
ATOM     46  N   UNL     1      -2.338  10.331 -14.313  1.00  0.00    -0.354 N 
ATOM     47  C   UNL     1      -3.373   7.271 -17.176  1.00  0.00     0.074 A 
ATOM     48  C   UNL     1      -4.248   6.280 -16.589  1.00  0.00     0.031 C 
ATOM     49  C   UNL     1      -2.248  11.300 -12.299  1.00  0.00     0.029 A 
ATOM     50  C   UNL     1      -1.747  11.391 -13.667  1.00  0.00     0.049 A 
ATOM     51  H   UNL     1      -2.220  10.152 -15.274  1.00  0.00     0.167 HD
ATOM     52  C   UNL     1      -2.942   7.243 -18.458  1.00  0.00     0.031 A 
ATOM     53  C   UNL     1      -0.882  12.318 -14.121  1.00  0.00     0.031 A 
ATOM     54  C   UNL     1      -2.110   8.251 -19.055  1.00  0.00     0.049 A 
ATOM     55  C   UNL     1      -0.433  12.270 -15.556  1.00  0.00     0.074 A 
ATOM     56  C   UNL     1      -1.692   8.351 -20.371  1.00  0.00     0.029 A 
ATOM     57  N   UNL     1      -1.574   9.333 -18.378  1.00  0.00    -0.354 N 
ATOM     58  N   UNL     1      -0.758  11.414 -16.494  1.00  0.00    -0.248 NA
ATOM     59  C   UNL     1       0.500  13.319 -15.995  1.00  0.00     0.031 C 
ATOM     60  C   UNL     1      -0.869   9.476 -20.481  1.00  0.00     0.029 A 
ATOM     61  C   UNL     1      -0.811  10.096 -19.244  1.00  0.00     0.049 A 
ATOM     62  H   UNL     1      -1.714   9.530 -17.423  1.00  0.00     0.167 HD
ATOM     63  C   UNL     1      -0.098  11.841 -17.639  1.00  0.00     0.074 A 
ATOM     64  C   UNL     1       0.641  13.033 -17.282  1.00  0.00     0.031 C 
ATOM     65  C   UNL     1      -0.103  11.292 -18.877  1.00  0.00     0.031 A 
BRANCH  52  66
ATOM     66  C   UNL     1      -3.357   6.079 -19.309  1.00  0.00    -0.014 A 
ATOM     67  C   UNL     1      -4.668   5.963 -19.797  1.00  0.00     0.009 A 
ATOM     68  C   UNL     1      -2.404   5.118 -19.680  1.00  0.00     0.009 A 
ATOM     69  C   UNL     1      -5.021   4.893 -20.621  1.00  0.00     0.001 A 
ATOM     70  C   UNL     1      -2.754   4.062 -20.523  1.00  0.00     0.001 A 
ATOM     71  C   UNL     1      -4.063   3.948 -20.988  1.00  0.00     0.000 A 
ENDBRANCH  52  66
BRANCH  53  72
ATOM     72  C   UNL     1      -0.366  13.374 -13.211  1.00  0.00    -0.014 A 
ATOM     73  C   UNL     1      -0.772  14.708 -13.367  1.00  0.00     0.009 A 
ATOM     74  C   UNL     1       0.564  13.060 -12.208  1.00  0.00     0.009 A 
ATOM     75  C   UNL     1      -0.232  15.712 -12.559  1.00  0.00     0.001 A 
ATOM     76  C   UNL     1       1.082  14.062 -11.384  1.00  0.00     0.001 A 
ATOM     77  C   UNL     1       0.693  15.388 -11.568  1.00  0.00     0.000 A 
ENDBRANCH  53  72
BRANCH  65  78
ATOM     78  C   UNL     1       0.667  12.001 -19.952  1.00  0.00    -0.014 A 
ATOM     79  C   UNL     1       2.066  11.924 -20.015  1.00  0.00     0.009 A 
ATOM     80  C   UNL     1      -0.026  12.701 -20.952  1.00  0.00     0.009 A 
ATOM     81  C   UNL     1       2.758  12.552 -21.052  1.00  0.00     0.001 A 
ATOM     82  C   UNL     1       0.666  13.308 -21.999  1.00  0.00     0.001 A 
ATOM     83  C   UNL     1       2.058  13.238 -22.045  1.00  0.00     0.000 A 
ENDBRANCH  65  78
ENDBRANCH  39  40
ENDBRANCH  31  34
ENDBRANCH  29  30
ENDBRANCH  28  29
ENDBRANCH  27  28
ENDBRANCH  26  27
ENDBRANCH   1  26
TORSDOF 20
