REMARK SMILES COc1ccc(-c2nc(NCC(=O)NCCCCCCNC(=O)c3ccc(-c4c5nc(c(-c6ccccc6)c6ccc([nH]6)c(-c6ccccc6)c6nc(c(-c7ccccc7)c7ccc4[nH]7)C=C6)C=C5)cc3)sc2-c2ccc(OC)cc2)cc1
REMARK SMILES IDX 16 1 15 2 14 3 12 4 13 5 11 7 10 8 9 10 7 11 8 12 73 13
REMARK SMILES IDX 72 14 6 15 3 16 4 17 83 18 5 19 82 20 2 21 1 22 74 23 75 24
REMARK SMILES IDX 81 25 76 26 80 27 77 28 78 29 79 30 17 31 18 32 19 33 20 34
REMARK SMILES IDX 21 35 22 36 23 38 24 39 25 40 71 41 26 42 70 43 27 44 28 45
REMARK SMILES IDX 29 46 64 47 30 48 69 49 63 50 65 51 31 52 68 53 62 54 61 55
REMARK SMILES IDX 32 57 54 58 39 59 53 60 40 61 43 62 52 63 66 64 41 65 42 66
REMARK SMILES IDX 51 68 67 69 44 70 33 71 34 72 38 73 35 74 37 75 36 76 55 77
REMARK SMILES IDX 56 78 60 79 57 80 59 81 58 82 45 83 46 84 50 85 47 86 49 87
REMARK SMILES IDX 48 88
REMARK H PARENT 14 6 10 9 21 37 65 56 43 67
REMARK Flexibility Score: inf
ROOT
ATOM      1  C   UNL     1       6.114   8.036  -0.689  1.00  0.00     0.021 C 
ENDROOT
BRANCH   1   2
ATOM      2  C   UNL     1       5.478   9.407  -0.919  1.00  0.00     0.116 C 
BRANCH   2   3
ATOM      3  N   UNL     1       6.113  10.099  -2.022  1.00  0.00    -0.355 N 
ATOM      4  C   UNL     1       5.634  10.317  -3.284  1.00  0.00     0.239 C 
ATOM      5  O   UNL     1       6.380  10.846  -4.110  1.00  0.00    -0.273 OA
ATOM      6  H   UNL     1       7.010  10.461  -1.838  1.00  0.00     0.163 HD
BRANCH   4   7
ATOM      7  C   UNL     1       4.182   9.959  -3.627  1.00  0.00     0.215 C 
BRANCH   7   8
ATOM      8  N   UNL     1       3.957   8.523  -3.599  1.00  0.00    -0.352 N 
ATOM      9  H   UNL     1       4.580   7.959  -4.112  1.00  0.00     0.163 HD
BRANCH   8  10
ATOM     10  C   UNL     1       2.966   7.897  -2.929  1.00  0.00     0.184 A 
ATOM     11  C   UNL     1       1.866   6.180  -2.055  1.00  0.00     0.091 A 
ATOM     12  N   UNL     1       2.906   6.587  -2.875  1.00  0.00    -0.220 NA
ATOM     13  C   UNL     1       1.184   7.200  -1.408  1.00  0.00     0.064 A 
ATOM     14  S   UNL     1       1.723   8.698  -2.038  1.00  0.00    -0.096 S 
BRANCH  11  15
ATOM     15  C   UNL     1       1.567   4.770  -1.861  1.00  0.00     0.002 A 
ATOM     16  C   UNL     1       0.938   2.087  -1.341  1.00  0.00     0.118 A 
ATOM     17  C   UNL     1      -0.036   2.950  -1.841  1.00  0.00     0.047 A 
ATOM     18  C   UNL     1       2.241   2.550  -1.148  1.00  0.00     0.047 A 
ATOM     19  C   UNL     1       0.272   4.287  -2.093  1.00  0.00     0.014 A 
ATOM     20  C   UNL     1       2.557   3.889  -1.413  1.00  0.00     0.014 A 
BRANCH  16  21
ATOM     21  O   UNL     1       0.528   0.800  -1.127  1.00  0.00    -0.497 OA
ATOM     22  C   UNL     1       1.113   0.168   0.007  1.00  0.00     0.278 C 
ENDBRANCH  16  21
ENDBRANCH  11  15
BRANCH  13  23
ATOM     23  C   UNL     1       0.190   7.161  -0.331  1.00  0.00    -0.006 A 
ATOM     24  C   UNL     1      -1.024   7.850  -0.418  1.00  0.00     0.013 A 
ATOM     25  C   UNL     1       0.450   6.407   0.824  1.00  0.00     0.013 A 
ATOM     26  C   UNL     1      -1.958   7.767   0.620  1.00  0.00     0.047 A 
ATOM     27  C   UNL     1      -0.488   6.319   1.857  1.00  0.00     0.047 A 
ATOM     28  C   UNL     1      -1.702   6.992   1.754  1.00  0.00     0.118 A 
BRANCH  28  29
ATOM     29  O   UNL     1      -2.705   6.980   2.684  1.00  0.00    -0.497 OA
ATOM     30  C   UNL     1      -2.572   6.046   3.750  1.00  0.00     0.278 C 
ENDBRANCH  28  29
ENDBRANCH  13  23
ENDBRANCH   8  10
ENDBRANCH   7   8
ENDBRANCH   4   7
ENDBRANCH   2   3
ENDBRANCH   1   2
BRANCH   1  31
ATOM     31  C   UNL     1       7.496   8.108  -0.026  1.00  0.00     0.002 C 
BRANCH  31  32
ATOM     32  C   UNL     1       7.519   8.777   1.355  1.00  0.00     0.002 C 
BRANCH  32  33
ATOM     33  C   UNL     1       6.563   8.172   2.387  1.00  0.00     0.021 C 
BRANCH  33  34
ATOM     34  C   UNL     1       6.821   6.704   2.707  1.00  0.00     0.116 C 
BRANCH  34  35
ATOM     35  N   UNL     1       8.117   6.501   3.336  1.00  0.00    -0.352 N 
ATOM     36  C   UNL     1       8.428   5.815   4.481  1.00  0.00     0.251 C 
ATOM     37  H   UNL     1       8.880   6.916   2.873  1.00  0.00     0.163 HD
ATOM     38  O   UNL     1       9.556   5.906   4.967  1.00  0.00    -0.269 OA
BRANCH  36  39
ATOM     39  C   UNL     1       7.411   4.975   5.145  1.00  0.00     0.039 A 
ATOM     40  C   UNL     1       7.299   5.023   6.538  1.00  0.00     0.014 A 
ATOM     41  C   UNL     1       6.591   4.118   4.405  1.00  0.00     0.014 A 
ATOM     42  C   UNL     1       6.337   4.244   7.184  1.00  0.00     0.010 A 
ATOM     43  C   UNL     1       5.589   3.392   5.044  1.00  0.00     0.010 A 
ATOM     44  C   UNL     1       5.460   3.439   6.440  1.00  0.00    -0.014 A 
BRANCH  44  45
ATOM     45  C   UNL     1       4.425   2.611   7.107  1.00  0.00     0.031 A 
ATOM     46  C   UNL     1       4.508   1.110   7.043  1.00  0.00     0.074 A 
ATOM     47  C   UNL     1       3.388   3.203   7.728  1.00  0.00     0.049 A 
ATOM     48  N   UNL     1       3.671   0.215   7.504  1.00  0.00    -0.248 NA
ATOM     49  C   UNL     1       5.674   0.540   6.348  1.00  0.00     0.031 C 
ATOM     50  C   UNL     1       3.178   4.648   7.843  1.00  0.00     0.029 A 
ATOM     51  N   UNL     1       2.311   2.658   8.381  1.00  0.00    -0.354 N 
ATOM     52  C   UNL     1       4.201  -1.018   7.144  1.00  0.00     0.074 A 
ATOM     53  C   UNL     1       5.402  -0.756   6.381  1.00  0.00     0.031 C 
ATOM     54  C   UNL     1       2.059   4.874   8.550  1.00  0.00     0.029 A 
ATOM     55  C   UNL     1       1.453   3.595   8.906  1.00  0.00     0.049 A 
ATOM     56  H   UNL     1       2.166   1.688   8.465  1.00  0.00     0.167 HD
ATOM     57  C   UNL     1       3.744  -2.258   7.440  1.00  0.00     0.031 A 
ATOM     58  C   UNL     1       0.308   3.438   9.596  1.00  0.00     0.031 A 
ATOM     59  C   UNL     1       2.559  -2.522   8.210  1.00  0.00     0.049 A 
ATOM     60  C   UNL     1      -0.186   2.051   9.897  1.00  0.00     0.074 A 
ATOM     61  C   UNL     1       2.028  -3.744   8.587  1.00  0.00     0.029 A 
ATOM     62  N   UNL     1       1.725  -1.545   8.729  1.00  0.00    -0.354 N 
ATOM     63  N   UNL     1       0.347   0.896   9.580  1.00  0.00    -0.248 NA
ATOM     64  C   UNL     1      -1.435   1.948  10.666  1.00  0.00     0.031 C 
ATOM     65  C   UNL     1       0.851  -3.506   9.305  1.00  0.00     0.029 A 
ATOM     66  C   UNL     1       0.678  -2.136   9.416  1.00  0.00     0.049 A 
ATOM     67  H   UNL     1       1.857  -0.575   8.626  1.00  0.00     0.167 HD
ATOM     68  C   UNL     1      -0.479  -0.069  10.143  1.00  0.00     0.074 A 
ATOM     69  C   UNL     1      -1.543   0.637  10.827  1.00  0.00     0.031 C 
ATOM     70  C   UNL     1      -0.365  -1.418  10.101  1.00  0.00     0.031 A 
BRANCH  57  71
ATOM     71  C   UNL     1       4.538  -3.425   6.924  1.00  0.00    -0.014 A 
ATOM     72  C   UNL     1       5.798  -3.738   7.460  1.00  0.00     0.009 A 
ATOM     73  C   UNL     1       4.012  -4.239   5.909  1.00  0.00     0.009 A 
ATOM     74  C   UNL     1       6.530  -4.818   6.963  1.00  0.00     0.001 A 
ATOM     75  C   UNL     1       4.734  -5.336   5.434  1.00  0.00     0.001 A 
ATOM     76  C   UNL     1       5.996  -5.618   5.954  1.00  0.00     0.000 A 
ENDBRANCH  57  71
BRANCH  58  77
ATOM     77  C   UNL     1      -0.444   4.626  10.078  1.00  0.00    -0.014 A 
ATOM     78  C   UNL     1      -0.489   4.928  11.447  1.00  0.00     0.009 A 
ATOM     79  C   UNL     1      -1.138   5.449   9.178  1.00  0.00     0.009 A 
ATOM     80  C   UNL     1      -1.241   6.010  11.910  1.00  0.00     0.001 A 
ATOM     81  C   UNL     1      -1.867   6.547   9.640  1.00  0.00     0.001 A 
ATOM     82  C   UNL     1      -1.927   6.820  11.006  1.00  0.00     0.000 A 
ENDBRANCH  58  77
BRANCH  70  83
ATOM     83  C   UNL     1      -1.385  -2.217  10.861  1.00  0.00    -0.014 A 
ATOM     84  C   UNL     1      -2.706  -2.342  10.403  1.00  0.00     0.009 A 
ATOM     85  C   UNL     1      -1.005  -2.880  12.038  1.00  0.00     0.009 A 
ATOM     86  C   UNL     1      -3.635  -3.088  11.131  1.00  0.00     0.001 A 
ATOM     87  C   UNL     1      -1.929  -3.647  12.748  1.00  0.00     0.001 A 
ATOM     88  C   UNL     1      -3.245  -3.743  12.300  1.00  0.00     0.000 A 
ENDBRANCH  70  83
ENDBRANCH  44  45
ENDBRANCH  36  39
ENDBRANCH  34  35
ENDBRANCH  33  34
ENDBRANCH  32  33
ENDBRANCH  31  32
ENDBRANCH   1  31
TORSDOF 19
