REMARK SMILES CCC(CC)(NC(=O)C[C@@H]1CCC[NH2+]C1)C(=O)NCCCCCCNC(=O)c1ccc(-c2c3nc(c(-c4ccccc4)c4ccc([nH]4)c(-c4ccccc4)c4nc(c(-c5ccccc5)c5ccc2[nH]5)C=C4)C=C3)cc1
REMARK SMILES IDX 21 1 20 2 19 3 18 4 16 5 17 6 3 8 2 9 1 10 4 11 5 12 6 13
REMARK SMILES IDX 7 14 8 16 9 17 10 18 11 19 15 20 12 21 14 22 13 23 22 26
REMARK SMILES IDX 23 27 24 28 25 29 26 30 27 32 28 33 29 34 75 35 30 36 74 37
REMARK SMILES IDX 31 38 32 39 33 40 68 41 34 42 73 43 67 44 69 45 35 46 72 47
REMARK SMILES IDX 66 48 65 49 36 51 58 52 43 53 57 54 44 55 47 56 56 57 70 58
REMARK SMILES IDX 45 59 46 60 55 62 71 63 48 64 37 65 38 66 42 67 39 68 41 69
REMARK SMILES IDX 40 70 59 71 60 72 64 73 61 74 63 75 62 76 49 77 50 78 54 79
REMARK SMILES IDX 51 80 53 81 52 82
REMARK H PARENT 18 7 6 15 14 24 14 25 25 31 69 50 47 61
REMARK Flexibility Score: inf
ROOT
ATOM      1  C   UNL     1       4.509  -0.527  -6.119  1.00  0.00     0.002 C 
ENDROOT
BRANCH   1   2
ATOM      2  C   UNL     1       2.980  -0.516  -6.042  1.00  0.00     0.021 C 
BRANCH   2   3
ATOM      3  C   UNL     1       2.390  -1.380  -4.926  1.00  0.00     0.116 C 
BRANCH   3   4
ATOM      4  N   UNL     1       3.003  -1.158  -3.625  1.00  0.00    -0.354 N 
ATOM      5  C   UNL     1       2.517  -0.625  -2.463  1.00  0.00     0.245 C 
ATOM      6  O   UNL     1       3.285  -0.628  -1.498  1.00  0.00    -0.272 OA
ATOM      7  H   UNL     1       3.944  -1.445  -3.571  1.00  0.00     0.163 HD
BRANCH   5   8
ATOM      8  C   UNL     1       1.032  -0.169  -2.338  1.00  0.00     0.118 C 
BRANCH   8   9
ATOM      9  C   UNL     1       0.742   0.623  -1.031  1.00  0.00     0.035 C 
ATOM     10  C   UNL     1       0.863  -0.121   0.296  1.00  0.00     0.007 C 
ENDBRANCH   8   9
BRANCH   8  11
ATOM     11  C   UNL     1       0.187  -1.489  -2.377  1.00  0.00     0.035 C 
ATOM     12  C   UNL     1      -1.328  -1.327  -2.335  1.00  0.00     0.007 C 
ENDBRANCH   8  11
BRANCH   8  13
ATOM     13  N   UNL     1       0.657   0.693  -3.489  1.00  0.00    -0.342 N 
ATOM     14  C   UNL     1       1.200   1.819  -4.021  1.00  0.00     0.221 C 
ATOM     15  H   UNL     1      -0.148   0.385  -3.964  1.00  0.00     0.164 HD
ATOM     16  O   UNL     1       0.451   2.495  -4.735  1.00  0.00    -0.275 OA
BRANCH  14  17
ATOM     17  C   UNL     1       2.669   2.188  -3.896  1.00  0.00     0.109 C 
BRANCH  17  18
ATOM     18  C   UNL     1       3.158   2.862  -2.614  1.00  0.00     0.054 C 
ATOM     19  C   UNL     1       2.191   3.920  -2.077  1.00  0.00     0.016 C 
ATOM     20  C   UNL     1       4.541   3.504  -2.860  1.00  0.00     0.264 C 
ATOM     21  C   UNL     1       2.151   5.141  -2.986  1.00  0.00     0.062 C 
ATOM     22  N   UNL     1       4.460   4.661  -3.755  1.00  0.00    -0.346 N 
ATOM     23  C   UNL     1       3.555   5.686  -3.234  1.00  0.00     0.260 C 
ATOM     24  H   UNL     1       5.392   5.064  -3.858  1.00  0.00     0.346 HD
ATOM     25  H   UNL     1       4.098   4.343  -4.654  1.00  0.00     0.346 HD
ENDBRANCH  17  18
ENDBRANCH  14  17
ENDBRANCH   8  13
ENDBRANCH   5   8
ENDBRANCH   3   4
ENDBRANCH   2   3
ENDBRANCH   1   2
BRANCH   1  26
ATOM     26  C   UNL     1       5.112  -1.912  -6.362  1.00  0.00     0.002 C 
BRANCH  26  27
ATOM     27  C   UNL     1       4.508  -2.658  -7.552  1.00  0.00     0.021 C 
BRANCH  27  28
ATOM     28  C   UNL     1       4.535  -1.871  -8.855  1.00  0.00     0.116 C 
BRANCH  28  29
ATOM     29  N   UNL     1       5.889  -1.687  -9.344  1.00  0.00    -0.352 N 
ATOM     30  C   UNL     1       6.409  -2.063 -10.559  1.00  0.00     0.251 C 
ATOM     31  H   UNL     1       6.513  -1.237  -8.729  1.00  0.00     0.163 HD
ATOM     32  O   UNL     1       7.614  -2.055 -10.761  1.00  0.00    -0.269 OA
BRANCH  30  33
ATOM     33  C   UNL     1       5.475  -2.503 -11.616  1.00  0.00     0.039 A 
ATOM     34  C   UNL     1       5.708  -3.715 -12.268  1.00  0.00     0.014 A 
ATOM     35  C   UNL     1       4.348  -1.734 -11.921  1.00  0.00     0.014 A 
ATOM     36  C   UNL     1       4.777  -4.183 -13.196  1.00  0.00     0.010 A 
ATOM     37  C   UNL     1       3.385  -2.240 -12.787  1.00  0.00     0.010 A 
ATOM     38  C   UNL     1       3.593  -3.465 -13.440  1.00  0.00    -0.014 A 
BRANCH  38  39
ATOM     39  C   UNL     1       2.564  -3.970 -14.382  1.00  0.00     0.031 A 
ATOM     40  C   UNL     1       2.236  -3.183 -15.623  1.00  0.00     0.074 A 
ATOM     41  C   UNL     1       1.879  -5.094 -14.091  1.00  0.00     0.049 A 
ATOM     42  N   UNL     1       1.320  -3.415 -16.529  1.00  0.00    -0.248 NA
ATOM     43  C   UNL     1       3.023  -1.962 -15.867  1.00  0.00     0.031 C 
ATOM     44  C   UNL     1       2.081  -5.931 -12.906  1.00  0.00     0.029 A 
ATOM     45  N   UNL     1       0.865  -5.723 -14.770  1.00  0.00    -0.354 N 
ATOM     46  C   UNL     1       1.403  -2.360 -17.428  1.00  0.00     0.074 A 
ATOM     47  C   UNL     1       2.430  -1.466 -16.943  1.00  0.00     0.031 C 
ATOM     48  C   UNL     1       1.237  -6.974 -12.955  1.00  0.00     0.029 A 
ATOM     49  C   UNL     1       0.401  -6.856 -14.145  1.00  0.00     0.049 A 
ATOM     50  H   UNL     1       0.503  -5.393 -15.624  1.00  0.00     0.167 HD
ATOM     51  C   UNL     1       0.697  -2.160 -18.565  1.00  0.00     0.031 A 
ATOM     52  C   UNL     1      -0.595  -7.697 -14.486  1.00  0.00     0.031 A 
ATOM     53  C   UNL     1      -0.306  -3.063 -19.061  1.00  0.00     0.049 A 
ATOM     54  C   UNL     1      -1.377  -7.433 -15.745  1.00  0.00     0.074 A 
ATOM     55  C   UNL     1      -1.020  -2.986 -20.244  1.00  0.00     0.029 A 
ATOM     56  N   UNL     1      -0.740  -4.201 -18.401  1.00  0.00    -0.354 N 
ATOM     57  N   UNL     1      -1.225  -6.478 -16.630  1.00  0.00    -0.248 NA
ATOM     58  C   UNL     1      -2.467  -8.370 -16.056  1.00  0.00     0.031 C 
ATOM     59  C   UNL     1      -1.936  -4.041 -20.268  1.00  0.00     0.029 A 
ATOM     60  C   UNL     1      -1.741  -4.814 -19.136  1.00  0.00     0.049 A 
ATOM     61  H   UNL     1      -0.390  -4.525 -17.540  1.00  0.00     0.167 HD
ATOM     62  C   UNL     1      -2.169  -6.724 -17.619  1.00  0.00     0.074 A 
ATOM     63  C   UNL     1      -2.879  -7.925 -17.234  1.00  0.00     0.031 C 
ATOM     64  C   UNL     1      -2.425  -6.019 -18.747  1.00  0.00     0.031 A 
BRANCH  51  65
ATOM     65  C   UNL     1       0.968  -0.910 -19.355  1.00  0.00    -0.014 A 
ATOM     66  C   UNL     1       2.163  -0.741 -20.072  1.00  0.00     0.009 A 
ATOM     67  C   UNL     1      -0.024   0.080 -19.444  1.00  0.00     0.009 A 
ATOM     68  C   UNL     1       2.366   0.405 -20.844  1.00  0.00     0.001 A 
ATOM     69  C   UNL     1       0.171   1.209 -20.240  1.00  0.00     0.001 A 
ATOM     70  C   UNL     1       1.367   1.374 -20.934  1.00  0.00     0.000 A 
ENDBRANCH  51  65
BRANCH  52  71
ATOM     71  C   UNL     1      -0.928  -8.868 -13.630  1.00  0.00    -0.014 A 
ATOM     72  C   UNL     1      -0.735 -10.176 -14.104  1.00  0.00     0.009 A 
ATOM     73  C   UNL     1      -1.492  -8.687 -12.358  1.00  0.00     0.009 A 
ATOM     74  C   UNL     1      -1.144 -11.274 -13.343  1.00  0.00     0.001 A 
ATOM     75  C   UNL     1      -1.867  -9.788 -11.584  1.00  0.00     0.001 A 
ATOM     76  C   UNL     1      -1.708 -11.079 -12.084  1.00  0.00     0.000 A 
ENDBRANCH  52  71
BRANCH  64  77
ATOM     77  C   UNL     1      -3.476  -6.556 -19.678  1.00  0.00    -0.014 A 
ATOM     78  C   UNL     1      -4.839  -6.516 -19.349  1.00  0.00     0.009 A 
ATOM     79  C   UNL     1      -3.093  -7.062 -20.931  1.00  0.00     0.009 A 
ATOM     80  C   UNL     1      -5.795  -7.001 -20.245  1.00  0.00     0.001 A 
ATOM     81  C   UNL     1      -4.052  -7.514 -21.837  1.00  0.00     0.001 A 
ATOM     82  C   UNL     1      -5.401  -7.492 -21.489  1.00  0.00     0.000 A 
ENDBRANCH  64  77
ENDBRANCH  38  39
ENDBRANCH  30  33
ENDBRANCH  28  29
ENDBRANCH  27  28
ENDBRANCH  26  27
ENDBRANCH   1  26
TORSDOF 18
