REMARK SMILES O=C(NCCCCCCNC(=O)[C@@H](Cc1ccccc1)N1C(=O)/C(=C/c2ccncc2)SC1=S)c1ccc(-c2c3nc(c(-c4ccccc4)c4ccc([nH]4)c(-c4ccccc4)c4nc(c(-c5ccccc5)c5ccc2[nH]5)C=C4)C=C3)cc1
REMARK SMILES IDX 6 1 5 2 4 3 3 4 1 5 2 6 35 8 36 9 82 10 37 11 81 12 38 13
REMARK SMILES IDX 39 14 40 15 75 16 41 17 80 18 74 19 76 20 42 21 79 22 73 23
REMARK SMILES IDX 72 24 43 26 65 27 50 28 64 29 51 30 54 31 63 32 77 33 52 34
REMARK SMILES IDX 53 35 62 37 78 38 55 39 44 40 45 41 49 42 46 43 48 44 47 45
REMARK SMILES IDX 66 46 67 47 71 48 68 49 70 50 69 51 56 52 57 53 61 54 58 55
REMARK SMILES IDX 60 56 59 57 7 58 8 59 9 60 10 61 11 62 12 64 13 65 14 66
REMARK SMILES IDX 15 67 16 68 20 69 17 70 19 71 18 72 21 73 22 74 33 75 23 76
REMARK SMILES IDX 24 77 32 78 34 79 25 80 26 81 27 82 31 83 28 84 30 85 29 86
REMARK H PARENT 3 7 76 25 54 36 10 63
REMARK Flexibility Score: inf
ROOT
ATOM      1  C   UNL     1       3.650   3.828   0.982  1.00  0.00     0.002 C 
ENDROOT
BRANCH   1   2
ATOM      2  C   UNL     1       4.386   2.740   0.197  1.00  0.00     0.021 C 
BRANCH   2   3
ATOM      3  C   UNL     1       4.243   1.330   0.761  1.00  0.00     0.116 C 
BRANCH   3   4
ATOM      4  N   UNL     1       2.857   0.885   0.755  1.00  0.00    -0.352 N 
ATOM      5  O   UNL     1       1.016  -0.111  -0.080  1.00  0.00    -0.269 OA
ATOM      6  C   UNL     1       2.242  -0.058  -0.028  1.00  0.00     0.251 C 
ATOM      7  H   UNL     1       2.273   1.329   1.412  1.00  0.00     0.163 HD
BRANCH   6   8
ATOM      8  C   UNL     1       3.049  -1.026  -0.801  1.00  0.00     0.039 A 
ATOM      9  C   UNL     1       4.159  -1.643  -0.219  1.00  0.00     0.014 A 
ATOM     10  C   UNL     1       2.640  -1.391  -2.087  1.00  0.00     0.014 A 
ATOM     11  C   UNL     1       4.912  -2.555  -0.950  1.00  0.00     0.010 A 
ATOM     12  C   UNL     1       3.348  -2.370  -2.792  1.00  0.00     0.010 A 
ATOM     13  C   UNL     1       4.487  -2.961  -2.225  1.00  0.00    -0.014 A 
BRANCH  13  14
ATOM     14  C   UNL     1       5.155  -4.118  -2.870  1.00  0.00     0.031 A 
ATOM     15  C   UNL     1       5.929  -3.972  -4.146  1.00  0.00     0.074 A 
ATOM     16  C   UNL     1       5.041  -5.323  -2.274  1.00  0.00     0.049 A 
ATOM     17  N   UNL     1       6.563  -4.893  -4.827  1.00  0.00    -0.248 NA
ATOM     18  C   UNL     1       6.002  -2.628  -4.740  1.00  0.00     0.031 C 
ATOM     19  C   UNL     1       4.295  -5.584  -1.037  1.00  0.00     0.029 A 
ATOM     20  N   UNL     1       5.552  -6.548  -2.614  1.00  0.00    -0.354 N 
ATOM     21  C   UNL     1       7.094  -4.249  -5.937  1.00  0.00     0.074 A 
ATOM     22  C   UNL     1       6.699  -2.859  -5.847  1.00  0.00     0.031 C 
ATOM     23  C   UNL     1       4.427  -6.876  -0.706  1.00  0.00     0.029 A 
ATOM     24  C   UNL     1       5.200  -7.550  -1.740  1.00  0.00     0.049 A 
ATOM     25  H   UNL     1       6.116  -6.697  -3.407  1.00  0.00     0.167 HD
ATOM     26  C   UNL     1       7.840  -4.776  -6.936  1.00  0.00     0.031 A 
ATOM     27  C   UNL     1       5.440  -8.873  -1.782  1.00  0.00     0.031 A 
ATOM     28  C   UNL     1       8.227  -6.162  -7.016  1.00  0.00     0.049 A 
ATOM     29  C   UNL     1       6.229  -9.427  -2.932  1.00  0.00     0.074 A 
ATOM     30  C   UNL     1       9.032  -6.776  -7.960  1.00  0.00     0.029 A 
ATOM     31  N   UNL     1       7.824  -7.150  -6.131  1.00  0.00    -0.354 N 
ATOM     32  N   UNL     1       6.789  -8.789  -3.931  1.00  0.00    -0.248 NA
ATOM     33  C   UNL     1       6.414 -10.883  -2.963  1.00  0.00     0.031 C 
ATOM     34  C   UNL     1       9.057  -8.147  -7.689  1.00  0.00     0.029 A 
ATOM     35  C   UNL     1       8.323  -8.377  -6.537  1.00  0.00     0.049 A 
ATOM     36  H   UNL     1       7.266  -7.002  -5.334  1.00  0.00     0.167 HD
ATOM     37  C   UNL     1       7.402  -9.765  -4.703  1.00  0.00     0.074 A 
ATOM     38  C   UNL     1       7.177 -11.031  -4.037  1.00  0.00     0.031 C 
ATOM     39  C   UNL     1       8.083  -9.627  -5.866  1.00  0.00     0.031 A 
BRANCH  26  40
ATOM     40  C   UNL     1       8.274  -3.870  -8.056  1.00  0.00    -0.014 A 
ATOM     41  C   UNL     1       9.291  -2.921  -7.878  1.00  0.00     0.009 A 
ATOM     42  C   UNL     1       7.727  -4.047  -9.338  1.00  0.00     0.009 A 
ATOM     43  C   UNL     1       9.743  -2.160  -8.959  1.00  0.00     0.001 A 
ATOM     44  C   UNL     1       8.197  -3.302 -10.420  1.00  0.00     0.001 A 
ATOM     45  C   UNL     1       9.203  -2.357 -10.230  1.00  0.00     0.000 A 
ENDBRANCH  26  40
BRANCH  27  46
ATOM     46  C   UNL     1       4.877  -9.771  -0.739  1.00  0.00    -0.014 A 
ATOM     47  C   UNL     1       5.717 -10.477   0.135  1.00  0.00     0.009 A 
ATOM     48  C   UNL     1       3.488  -9.950  -0.635  1.00  0.00     0.009 A 
ATOM     49  C   UNL     1       5.179 -11.371   1.063  1.00  0.00     0.001 A 
ATOM     50  C   UNL     1       2.951 -10.814   0.319  1.00  0.00     0.001 A 
ATOM     51  C   UNL     1       3.797 -11.536   1.157  1.00  0.00     0.000 A 
ENDBRANCH  27  46
BRANCH  39  52
ATOM     52  C   UNL     1       8.642 -10.880  -6.479  1.00  0.00    -0.014 A 
ATOM     53  C   UNL     1       7.800 -11.836  -7.069  1.00  0.00     0.009 A 
ATOM     54  C   UNL     1      10.028 -11.092  -6.492  1.00  0.00     0.009 A 
ATOM     55  C   UNL     1       8.335 -12.997  -7.628  1.00  0.00     0.001 A 
ATOM     56  C   UNL     1      10.563 -12.238  -7.082  1.00  0.00     0.001 A 
ATOM     57  C   UNL     1       9.715 -13.194  -7.640  1.00  0.00     0.000 A 
ENDBRANCH  39  52
ENDBRANCH  13  14
ENDBRANCH   6   8
ENDBRANCH   3   4
ENDBRANCH   2   3
ENDBRANCH   1   2
BRANCH   1  58
ATOM     58  C   UNL     1       4.045   3.968   2.457  1.00  0.00     0.002 C 
BRANCH  58  59
ATOM     59  C   UNL     1       5.525   4.269   2.725  1.00  0.00     0.021 C 
BRANCH  59  60
ATOM     60  C   UNL     1       6.041   5.582   2.115  1.00  0.00     0.116 C 
BRANCH  60  61
ATOM     61  N   UNL     1       6.583   6.468   3.129  1.00  0.00    -0.354 N 
ATOM     62  C   UNL     1       7.815   6.777   3.598  1.00  0.00     0.243 C 
ATOM     63  H   UNL     1       5.876   6.971   3.594  1.00  0.00     0.163 HD
ATOM     64  O   UNL     1       7.811   7.497   4.610  1.00  0.00    -0.273 OA
BRANCH  62  65
ATOM     65  C   UNL     1       9.182   6.211   3.108  1.00  0.00     0.185 C 
BRANCH  65  66
ATOM     66  C   UNL     1       9.316   4.771   3.690  1.00  0.00     0.071 C 
BRANCH  66  67
ATOM     67  C   UNL     1       8.998   3.508   2.909  1.00  0.00    -0.045 A 
ATOM     68  C   UNL     1       8.615   3.456   1.565  1.00  0.00     0.004 A 
ATOM     69  C   UNL     1       9.147   2.284   3.585  1.00  0.00     0.004 A 
ATOM     70  C   UNL     1       8.343   2.241   0.928  1.00  0.00     0.000 A 
ATOM     71  C   UNL     1       8.887   1.067   2.950  1.00  0.00     0.000 A 
ATOM     72  C   UNL     1       8.471   1.046   1.623  1.00  0.00     0.000 A 
ENDBRANCH  66  67
ENDBRANCH  65  66
BRANCH  65  73
ATOM     73  N   UNL     1       9.608   6.445   1.709  1.00  0.00    -0.280 N 
ATOM     74  C   UNL     1       9.238   7.633   1.091  1.00  0.00     0.266 C 
ATOM     75  C   UNL     1      10.713   5.876   1.096  1.00  0.00     0.149 C 
ATOM     76  O   UNL     1       8.606   8.554   1.596  1.00  0.00    -0.268 OA
ATOM     77  C   UNL     1       9.774   7.697  -0.297  1.00  0.00     0.081 C 
ATOM     78  S   UNL     1      10.694   6.286  -0.613  1.00  0.00    -0.054 SA
ATOM     79  S   UNL     1      11.988   5.007   1.729  1.00  0.00    -0.052 S 
ATOM     80  C   UNL     1       9.573   8.723  -1.137  1.00  0.00     0.029 C 
BRANCH  80  81
ATOM     81  C   UNL     1       9.996   8.691  -2.542  1.00  0.00    -0.021 A 
ATOM     82  C   UNL     1       9.199   8.011  -3.466  1.00  0.00     0.028 A 
ATOM     83  C   UNL     1      11.204   9.241  -2.962  1.00  0.00     0.028 A 
ATOM     84  C   UNL     1       9.650   7.900  -4.769  1.00  0.00     0.111 A 
ATOM     85  C   UNL     1      11.566   9.079  -4.291  1.00  0.00     0.111 A 
ATOM     86  N   UNL     1      10.816   8.420  -5.202  1.00  0.00    -0.265 NA
ENDBRANCH  80  81
ENDBRANCH  65  73
ENDBRANCH  62  65
ENDBRANCH  60  61
ENDBRANCH  59  60
ENDBRANCH  58  59
ENDBRANCH   1  58
TORSDOF 17
