REMARK SMILES CC(C)CSc1cc2c(cc1Cl)C=C(C(=O)NCCCCCCNC(=O)c1ccc(-c3c4nc(c(-c5ccccc5)c5ccc([nH]5)c(-c5ccccc5)c5nc(c(-c6ccccc6)c6ccc3[nH]6)C=C5)C=C4)cc1)[C@@H](C(F)(F)F)O2
REMARK SMILES IDX 20 1 19 2 18 3 17 4 15 5 16 6 14 8 6 9 7 10 11 11 8 12 10 13
REMARK SMILES IDX 12 14 9 15 80 16 13 17 75 18 5 19 4 20 2 21 1 22 3 23 76 24
REMARK SMILES IDX 77 25 78 26 79 27 21 28 22 29 23 30 24 31 25 32 26 34 27 35
REMARK SMILES IDX 28 36 74 37 29 38 73 39 30 40 31 41 32 42 67 43 33 44 72 45
REMARK SMILES IDX 66 46 68 47 34 48 71 49 65 50 64 51 35 53 57 54 42 55 56 56
REMARK SMILES IDX 43 57 46 58 55 59 69 60 44 61 45 62 54 64 70 65 47 66 36 67
REMARK SMILES IDX 37 68 41 69 38 70 40 71 39 72 58 73 59 74 63 75 60 76 62 77
REMARK SMILES IDX 61 78 48 79 49 80 53 81 50 82 52 83 51 84
REMARK H PARENT 17 7 24 33 68 52 46 63
REMARK Flexibility Score: inf
ROOT
ATOM      1  C   UNL     1       1.284  -1.335  11.315  1.00  0.00     0.002 C 
ENDROOT
BRANCH   1   2
ATOM      2  C   UNL     1       0.828  -0.589  10.057  1.00  0.00     0.021 C 
BRANCH   2   3
ATOM      3  C   UNL     1       1.612  -0.939   8.795  1.00  0.00     0.116 C 
BRANCH   3   4
ATOM      4  N   UNL     1       1.148  -2.171   8.185  1.00  0.00    -0.352 N 
ATOM      5  C   UNL     1       0.639  -2.558   6.992  1.00  0.00     0.251 C 
ATOM      6  O   UNL     1       0.412  -3.768   6.888  1.00  0.00    -0.270 OA
ATOM      7  H   UNL     1       1.224  -2.931   8.806  1.00  0.00     0.163 HD
BRANCH   5   8
ATOM      8  C   UNL     1       0.339  -1.653   5.840  1.00  0.00     0.067 C 
ATOM      9  C   UNL     1      -1.479   0.218   1.500  1.00  0.00     0.030 A 
ATOM     10  C   UNL     1      -0.814   0.759   2.609  1.00  0.00     0.063 A 
ATOM     11  C   UNL     1      -1.826  -1.142   1.531  1.00  0.00     0.055 A 
ATOM     12  C   UNL     1      -0.445  -0.045   3.686  1.00  0.00     0.129 A 
ATOM     13  C   UNL     1      -1.453  -1.946   2.619  1.00  0.00     0.033 A 
ATOM     14  Cl  UNL     1      -2.770  -1.900   0.296  1.00  0.00    -0.083 Cl
ATOM     15  C   UNL     1      -0.757  -1.399   3.700  1.00  0.00     0.019 A 
ATOM     16  O   UNL     1       0.189   0.586   4.712  1.00  0.00    -0.475 OA
ATOM     17  C   UNL     1      -0.407  -2.201   4.862  1.00  0.00     0.025 C 
ATOM     18  C   UNL     1       0.837  -0.240   5.717  1.00  0.00     0.314 C 
BRANCH   9  19
ATOM     19  S   UNL     1      -1.846   1.377   0.188  1.00  0.00    -0.124 SA
BRANCH  19  20
ATOM     20  C   UNL     1      -0.967   0.660  -1.250  1.00  0.00     0.078 C 
BRANCH  20  21
ATOM     21  C   UNL     1       0.565   0.818  -1.273  1.00  0.00    -0.007 C 
ATOM     22  C   UNL     1       1.291  -0.053  -0.246  1.00  0.00     0.008 C 
ATOM     23  C   UNL     1       1.073   0.450  -2.674  1.00  0.00     0.008 C 
ENDBRANCH  20  21
ENDBRANCH  19  20
ENDBRANCH   9  19
BRANCH  18  24
ATOM     24  C   UNL     1       2.359  -0.158   5.503  1.00  0.00     0.429 C 
ATOM     25  F   UNL     1       2.802   1.105   5.731  1.00  0.00    -0.167 F 
ATOM     26  F   UNL     1       3.051  -0.960   6.343  1.00  0.00    -0.167 F 
ATOM     27  F   UNL     1       2.721  -0.494   4.244  1.00  0.00    -0.167 F 
ENDBRANCH  18  24
ENDBRANCH   5   8
ENDBRANCH   3   4
ENDBRANCH   2   3
ENDBRANCH   1   2
BRANCH   1  28
ATOM     28  C   UNL     1       2.769  -1.194  11.672  1.00  0.00     0.002 C 
BRANCH  28  29
ATOM     29  C   UNL     1       3.322   0.233  11.677  1.00  0.00     0.021 C 
BRANCH  29  30
ATOM     30  C   UNL     1       2.604   1.204  12.607  1.00  0.00     0.116 C 
BRANCH  30  31
ATOM     31  N   UNL     1       2.720   0.832  14.007  1.00  0.00    -0.352 N 
ATOM     32  C   UNL     1       3.114   1.595  15.079  1.00  0.00     0.251 C 
ATOM     33  H   UNL     1       2.481  -0.100  14.217  1.00  0.00     0.163 HD
ATOM     34  O   UNL     1       3.287   1.078  16.179  1.00  0.00    -0.269 OA
BRANCH  32  35
ATOM     35  C   UNL     1       3.372   3.039  14.895  1.00  0.00     0.039 A 
ATOM     36  C   UNL     1       2.466   3.845  14.200  1.00  0.00     0.014 A 
ATOM     37  C   UNL     1       4.554   3.584  15.401  1.00  0.00     0.014 A 
ATOM     38  C   UNL     1       2.817   5.152  13.873  1.00  0.00     0.010 A 
ATOM     39  C   UNL     1       4.871   4.918  15.134  1.00  0.00     0.010 A 
ATOM     40  C   UNL     1       4.029   5.697  14.325  1.00  0.00    -0.014 A 
BRANCH  40  41
ATOM     41  C   UNL     1       4.422   7.071  13.921  1.00  0.00     0.031 A 
ATOM     42  C   UNL     1       5.615   7.287  13.028  1.00  0.00     0.074 A 
ATOM     43  C   UNL     1       3.682   8.122  14.321  1.00  0.00     0.049 A 
ATOM     44  N   UNL     1       6.128   8.412  12.598  1.00  0.00    -0.248 NA
ATOM     45  C   UNL     1       6.324   6.087  12.554  1.00  0.00     0.031 C 
ATOM     46  C   UNL     1       2.478   8.039  15.150  1.00  0.00     0.029 A 
ATOM     47  N   UNL     1       3.821   9.464  14.069  1.00  0.00    -0.354 N 
ATOM     48  C   UNL     1       7.225   8.058  11.823  1.00  0.00     0.074 A 
ATOM     49  C   UNL     1       7.322   6.616  11.858  1.00  0.00     0.031 C 
ATOM     50  C   UNL     1       1.964   9.268  15.300  1.00  0.00     0.029 A 
ATOM     51  C   UNL     1       2.836  10.234  14.638  1.00  0.00     0.049 A 
ATOM     52  H   UNL     1       4.555   9.838  13.531  1.00  0.00     0.167 HD
ATOM     53  C   UNL     1       8.069   8.863  11.136  1.00  0.00     0.031 A 
ATOM     54  C   UNL     1       2.662  11.569  14.646  1.00  0.00     0.031 A 
ATOM     55  C   UNL     1       7.964  10.297  11.092  1.00  0.00     0.049 A 
ATOM     56  C   UNL     1       3.655  12.445  13.937  1.00  0.00     0.074 A 
ATOM     57  C   UNL     1       8.774  11.195  10.418  1.00  0.00     0.029 A 
ATOM     58  N   UNL     1       6.991  11.039  11.739  1.00  0.00    -0.354 N 
ATOM     59  N   UNL     1       4.695  12.094  13.221  1.00  0.00    -0.248 NA
ATOM     60  C   UNL     1       3.456  13.898  14.039  1.00  0.00     0.031 C 
ATOM     61  C   UNL     1       8.321  12.485  10.700  1.00  0.00     0.029 A 
ATOM     62  C   UNL     1       7.192  12.387  11.498  1.00  0.00     0.049 A 
ATOM     63  H   UNL     1       6.264  10.665  12.288  1.00  0.00     0.167 HD
ATOM     64  C   UNL     1       5.264  13.279  12.774  1.00  0.00     0.074 A 
ATOM     65  C   UNL     1       4.447  14.359  13.286  1.00  0.00     0.031 C 
ATOM     66  C   UNL     1       6.368  13.452  12.008  1.00  0.00     0.031 A 
BRANCH  53  67
ATOM     67  C   UNL     1       9.198   8.224  10.376  1.00  0.00    -0.014 A 
ATOM     68  C   UNL     1      10.521   8.402  10.813  1.00  0.00     0.009 A 
ATOM     69  C   UNL     1       8.966   7.533   9.177  1.00  0.00     0.009 A 
ATOM     70  C   UNL     1      11.589   7.916  10.058  1.00  0.00     0.001 A 
ATOM     71  C   UNL     1      10.037   7.025   8.437  1.00  0.00     0.001 A 
ATOM     72  C   UNL     1      11.346   7.225   8.873  1.00  0.00     0.000 A 
ENDBRANCH  53  67
BRANCH  54  73
ATOM     73  C   UNL     1       1.494  12.150  15.360  1.00  0.00    -0.014 A 
ATOM     74  C   UNL     1       1.405  12.082  16.760  1.00  0.00     0.009 A 
ATOM     75  C   UNL     1       0.439  12.732  14.642  1.00  0.00     0.009 A 
ATOM     76  C   UNL     1       0.274  12.559  17.424  1.00  0.00     0.001 A 
ATOM     77  C   UNL     1      -0.679  13.236  15.312  1.00  0.00     0.001 A 
ATOM     78  C   UNL     1      -0.765  13.140  16.701  1.00  0.00     0.000 A 
ENDBRANCH  54  73
BRANCH  66  79
ATOM     79  C   UNL     1       6.762  14.854  11.644  1.00  0.00    -0.014 A 
ATOM     80  C   UNL     1       6.625  15.291  10.316  1.00  0.00     0.009 A 
ATOM     81  C   UNL     1       7.381  15.696  12.579  1.00  0.00     0.009 A 
ATOM     82  C   UNL     1       7.119  16.536   9.926  1.00  0.00     0.001 A 
ATOM     83  C   UNL     1       7.852  16.952  12.191  1.00  0.00     0.001 A 
ATOM     84  C   UNL     1       7.731  17.366  10.864  1.00  0.00     0.000 A 
ENDBRANCH  66  79
ENDBRANCH  40  41
ENDBRANCH  32  35
ENDBRANCH  30  31
ENDBRANCH  29  30
ENDBRANCH  28  29
ENDBRANCH   1  28
TORSDOF 17
