REMARK SMILES Nc1c(Cl)ccc2c1C=C(C(=O)NCCCCCCNC(=O)c1ccc(-c3c4nc(c(-c5ccccc5)c5ccc([nH]5)c(-c5ccccc5)c5nc(c(-c6ccccc6)c6ccc3[nH]6)C=C5)C=C4)cc1)[C@@H](C(F)(F)F)O2
REMARK SMILES IDX 17 1 16 2 15 3 14 4 13 5 11 6 12 7 10 9 2 10 3 11 8 12 4 13
REMARK SMILES IDX 5 14 7 15 9 16 6 17 76 18 71 19 1 20 72 23 73 24 74 25 75 26
REMARK SMILES IDX 18 27 19 28 20 29 21 30 22 32 23 33 24 34 70 35 25 36 69 37
REMARK SMILES IDX 26 38 27 39 28 40 63 41 29 42 68 43 62 44 64 45 30 46 67 47
REMARK SMILES IDX 61 48 60 49 31 51 53 52 38 53 52 54 39 55 42 56 51 57 65 58
REMARK SMILES IDX 40 59 41 60 50 62 66 63 43 64 32 65 33 66 37 67 34 68 36 69
REMARK SMILES IDX 35 70 54 71 55 72 59 73 56 74 58 75 57 76 44 77 45 78 49 79
REMARK SMILES IDX 46 80 48 81 47 82
REMARK H PARENT 13 8 1 21 1 22 20 31 64 50 42 61
REMARK Flexibility Score: inf
ROOT
ATOM      1  C   UNL     1      -6.890  -4.526   4.389  1.00  0.00     0.002 C 
ENDROOT
BRANCH   1   2
ATOM      2  C   UNL     1      -6.711  -4.076   2.933  1.00  0.00     0.002 C 
BRANCH   2   3
ATOM      3  C   UNL     1      -6.188  -2.648   2.740  1.00  0.00     0.021 C 
BRANCH   3   4
ATOM      4  C   UNL     1      -4.855  -2.368   3.429  1.00  0.00     0.116 C 
BRANCH   4   5
ATOM      5  N   UNL     1      -3.734  -2.858   2.651  1.00  0.00    -0.352 N 
ATOM      6  C   UNL     1      -2.620  -2.346   2.080  1.00  0.00     0.251 C 
ATOM      7  O   UNL     1      -1.913  -3.171   1.491  1.00  0.00    -0.270 OA
ATOM      8  H   UNL     1      -3.802  -3.828   2.496  1.00  0.00     0.163 HD
BRANCH   6   9
ATOM      9  C   UNL     1      -2.203  -0.910   2.113  1.00  0.00     0.067 C 
ATOM     10  C   UNL     1       0.549   1.121   0.599  1.00  0.00     0.061 A 
ATOM     11  C   UNL     1       0.975   2.469   0.656  1.00  0.00     0.064 A 
ATOM     12  C   UNL     1      -0.635   0.767   1.288  1.00  0.00     0.042 A 
ATOM     13  Cl  UNL     1       2.436   2.968  -0.133  1.00  0.00    -0.082 Cl
ATOM     14  C   UNL     1       0.233   3.444   1.324  1.00  0.00     0.026 A 
ATOM     15  C   UNL     1      -1.361   1.757   1.964  1.00  0.00     0.130 A 
ATOM     16  C   UNL     1      -1.172  -0.597   1.306  1.00  0.00     0.027 C 
ATOM     17  C   UNL     1      -0.942   3.087   1.973  1.00  0.00     0.049 A 
ATOM     18  O   UNL     1      -2.532   1.513   2.621  1.00  0.00    -0.475 OA
ATOM     19  C   UNL     1      -2.814   0.139   2.995  1.00  0.00     0.314 C 
BRANCH  10  20
ATOM     20  N   UNL     1       1.353   0.168  -0.033  1.00  0.00    -0.397 N 
ATOM     21  H   UNL     1       2.171   0.448  -0.504  1.00  0.00     0.156 HD
ATOM     22  H   UNL     1       1.101  -0.784  -0.007  1.00  0.00     0.156 HD
ENDBRANCH  10  20
BRANCH  19  23
ATOM     23  C   UNL     1      -2.481  -0.052   4.484  1.00  0.00     0.429 C 
ATOM     24  F   UNL     1      -3.302   0.707   5.253  1.00  0.00    -0.167 F 
ATOM     25  F   UNL     1      -2.650  -1.330   4.897  1.00  0.00    -0.167 F 
ATOM     26  F   UNL     1      -1.210   0.297   4.782  1.00  0.00    -0.167 F 
ENDBRANCH  19  23
ENDBRANCH   6   9
ENDBRANCH   4   5
ENDBRANCH   3   4
ENDBRANCH   2   3
ENDBRANCH   1   2
BRANCH   1  27
ATOM     27  C   UNL     1      -7.638  -3.547   5.298  1.00  0.00     0.021 C 
BRANCH  27  28
ATOM     28  C   UNL     1      -9.036  -3.172   4.819  1.00  0.00     0.116 C 
BRANCH  28  29
ATOM     29  N   UNL     1      -9.943  -4.308   4.835  1.00  0.00    -0.352 N 
ATOM     30  C   UNL     1     -11.152  -4.425   5.472  1.00  0.00     0.251 C 
ATOM     31  H   UNL     1      -9.652  -5.095   4.321  1.00  0.00     0.163 HD
ATOM     32  O   UNL     1     -11.733  -5.503   5.533  1.00  0.00    -0.269 OA
BRANCH  30  33
ATOM     33  C   UNL     1     -11.740  -3.231   6.109  1.00  0.00     0.039 A 
ATOM     34  C   UNL     1     -12.076  -3.284   7.462  1.00  0.00     0.014 A 
ATOM     35  C   UNL     1     -11.925  -2.058   5.369  1.00  0.00     0.014 A 
ATOM     36  C   UNL     1     -12.550  -2.135   8.095  1.00  0.00     0.010 A 
ATOM     37  C   UNL     1     -12.354  -0.901   6.012  1.00  0.00     0.010 A 
ATOM     38  C   UNL     1     -12.669  -0.931   7.379  1.00  0.00    -0.014 A 
BRANCH  38  39
ATOM     39  C   UNL     1     -13.129   0.302   8.056  1.00  0.00     0.031 A 
ATOM     40  C   UNL     1     -14.489   0.860   7.760  1.00  0.00     0.074 A 
ATOM     41  C   UNL     1     -12.310   0.930   8.921  1.00  0.00     0.049 A 
ATOM     42  N   UNL     1     -15.072   1.914   8.270  1.00  0.00    -0.248 NA
ATOM     43  C   UNL     1     -15.297   0.152   6.753  1.00  0.00     0.031 C 
ATOM     44  C   UNL     1     -10.954   0.499   9.268  1.00  0.00     0.029 A 
ATOM     45  N   UNL     1     -12.504   2.061   9.674  1.00  0.00    -0.354 N 
ATOM     46  C   UNL     1     -16.311   1.993   7.652  1.00  0.00     0.074 A 
ATOM     47  C   UNL     1     -16.382   0.911   6.695  1.00  0.00     0.031 C 
ATOM     48  C   UNL     1     -10.453   1.334  10.192  1.00  0.00     0.029 A 
ATOM     49  C   UNL     1     -11.440   2.369  10.486  1.00  0.00     0.049 A 
ATOM     50  H   UNL     1     -13.327   2.599   9.636  1.00  0.00     0.167 HD
ATOM     51  C   UNL     1     -17.311   2.874   7.880  1.00  0.00     0.031 A 
ATOM     52  C   UNL     1     -11.281   3.366  11.377  1.00  0.00     0.031 A 
ATOM     53  C   UNL     1     -17.249   3.938   8.842  1.00  0.00     0.049 A 
ATOM     54  C   UNL     1     -12.398   4.345  11.600  1.00  0.00     0.074 A 
ATOM     55  C   UNL     1     -18.234   4.850   9.176  1.00  0.00     0.029 A 
ATOM     56  N   UNL     1     -16.143   4.229   9.623  1.00  0.00    -0.354 N 
ATOM     57  N   UNL     1     -13.583   4.376  11.041  1.00  0.00    -0.248 NA
ATOM     58  C   UNL     1     -12.163   5.420  12.575  1.00  0.00     0.031 C 
ATOM     59  C   UNL     1     -17.712   5.717  10.139  1.00  0.00     0.029 A 
ATOM     60  C   UNL     1     -16.416   5.320  10.428  1.00  0.00     0.049 A 
ATOM     61  H   UNL     1     -15.292   3.735   9.608  1.00  0.00     0.167 HD
ATOM     62  C   UNL     1     -14.242   5.457  11.610  1.00  0.00     0.074 A 
ATOM     63  C   UNL     1     -13.327   6.058  12.558  1.00  0.00     0.031 C 
ATOM     64  C   UNL     1     -15.497   5.903  11.369  1.00  0.00     0.031 A 
BRANCH  51  65
ATOM     65  C   UNL     1     -18.576   2.714   7.091  1.00  0.00    -0.014 A 
ATOM     66  C   UNL     1     -19.494   1.703   7.411  1.00  0.00     0.009 A 
ATOM     67  C   UNL     1     -18.890   3.628   6.075  1.00  0.00     0.009 A 
ATOM     68  C   UNL     1     -20.701   1.602   6.718  1.00  0.00     0.001 A 
ATOM     69  C   UNL     1     -20.106   3.536   5.396  1.00  0.00     0.001 A 
ATOM     70  C   UNL     1     -21.008   2.522   5.716  1.00  0.00     0.000 A 
ENDBRANCH  51  65
BRANCH  52  71
ATOM     71  C   UNL     1     -10.024   3.448  12.160  1.00  0.00    -0.014 A 
ATOM     72  C   UNL     1      -9.993   3.009  13.492  1.00  0.00     0.009 A 
ATOM     73  C   UNL     1      -8.839   3.910  11.566  1.00  0.00     0.009 A 
ATOM     74  C   UNL     1      -8.799   3.034  14.216  1.00  0.00     0.001 A 
ATOM     75  C   UNL     1      -7.644   3.919  12.289  1.00  0.00     0.001 A 
ATOM     76  C   UNL     1      -7.625   3.483  13.613  1.00  0.00     0.000 A 
ENDBRANCH  52  71
BRANCH  64  77
ATOM     77  C   UNL     1     -15.986   7.092  12.139  1.00  0.00    -0.014 A 
ATOM     78  C   UNL     1     -15.652   8.392  11.734  1.00  0.00     0.009 A 
ATOM     79  C   UNL     1     -16.908   6.912  13.182  1.00  0.00     0.009 A 
ATOM     80  C   UNL     1     -16.242   9.493  12.357  1.00  0.00     0.001 A 
ATOM     81  C   UNL     1     -17.506   8.014  13.792  1.00  0.00     0.001 A 
ATOM     82  C   UNL     1     -17.174   9.303  13.377  1.00  0.00     0.000 A 
ENDBRANCH  64  77
ENDBRANCH  38  39
ENDBRANCH  30  33
ENDBRANCH  28  29
ENDBRANCH  27  28
ENDBRANCH   1  27
TORSDOF 15
