REMARK SMILES O=C(NCCCCCCNC(=O)[C@@H]1[C@@H](C(=O)Nc2cccc([N+](=O)[O-])c2)[C@@H]2C=C[C@H]1O2)c1ccc(-c2c3nc(c(-c4ccccc4)c4ccc([nH]4)c(-c4ccccc4)c4nc(c(-c5ccccc5)c5ccc2[nH]5)C=C4)C=C3)cc1
REMARK SMILES IDX 7 1 6 2 5 3 4 4 3 5 1 6 2 7 32 9 33 10 79 11 34 12 78 13
REMARK SMILES IDX 35 14 36 15 37 16 72 17 38 18 77 19 71 20 73 21 39 22 76 23
REMARK SMILES IDX 70 24 69 25 40 27 62 28 47 29 61 30 48 31 51 32 60 33 74 34
REMARK SMILES IDX 49 35 50 36 59 38 75 39 52 40 41 41 42 42 46 43 43 44 45 45
REMARK SMILES IDX 44 46 63 47 64 48 68 49 65 50 67 51 66 52 53 53 54 54 58 55
REMARK SMILES IDX 55 56 57 57 56 58 8 59 9 60 10 61 11 62 12 64 13 65 14 66
REMARK SMILES IDX 30 67 27 68 29 69 31 70 28 71 15 72 16 73 17 74 18 76 19 77
REMARK SMILES IDX 26 78 20 79 22 80 21 81 23 82 24 83 25 84
REMARK H PARENT 3 8 73 26 51 37 10 63 17 75
REMARK Flexibility Score: inf
ROOT
ATOM      1  C   UNL     1       4.337   3.775   2.135  1.00  0.00     0.002 C 
ENDROOT
BRANCH   1   2
ATOM      2  C   UNL     1       3.911   3.713   0.666  1.00  0.00     0.002 C 
BRANCH   2   3
ATOM      3  C   UNL     1       4.542   2.584  -0.150  1.00  0.00     0.021 C 
BRANCH   3   4
ATOM      4  C   UNL     1       4.363   1.200   0.451  1.00  0.00     0.116 C 
BRANCH   4   5
ATOM      5  N   UNL     1       2.963   0.843   0.574  1.00  0.00    -0.352 N 
ATOM      6  O   UNL     1       1.078  -0.269   0.019  1.00  0.00    -0.269 OA
ATOM      7  C   UNL     1       2.299  -0.215   0.008  1.00  0.00     0.251 C 
ATOM      8  H   UNL     1       2.417   1.438   1.138  1.00  0.00     0.163 HD
BRANCH   7   9
ATOM      9  C   UNL     1       3.091  -1.291  -0.620  1.00  0.00     0.039 A 
ATOM     10  C   UNL     1       4.204  -1.816   0.043  1.00  0.00     0.014 A 
ATOM     11  C   UNL     1       2.709  -1.783  -1.869  1.00  0.00     0.014 A 
ATOM     12  C   UNL     1       4.998  -2.761  -0.588  1.00  0.00     0.010 A 
ATOM     13  C   UNL     1       3.453  -2.805  -2.460  1.00  0.00     0.010 A 
ATOM     14  C   UNL     1       4.601  -3.301  -1.822  1.00  0.00    -0.014 A 
BRANCH  14  15
ATOM     15  C   UNL     1       5.315  -4.489  -2.342  1.00  0.00     0.031 A 
ATOM     16  C   UNL     1       6.081  -4.448  -3.630  1.00  0.00     0.074 A 
ATOM     17  C   UNL     1       5.251  -5.622  -1.614  1.00  0.00     0.049 A 
ATOM     18  N   UNL     1       6.746  -5.413  -4.214  1.00  0.00    -0.248 NA
ATOM     19  C   UNL     1       6.103  -3.173  -4.363  1.00  0.00     0.031 C 
ATOM     20  C   UNL     1       4.520  -5.774  -0.350  1.00  0.00     0.029 A 
ATOM     21  N   UNL     1       5.812  -6.855  -1.817  1.00  0.00    -0.354 N 
ATOM     22  C   UNL     1       7.248  -4.871  -5.390  1.00  0.00     0.074 A 
ATOM     23  C   UNL     1       6.801  -3.495  -5.446  1.00  0.00     0.031 C 
ATOM     24  C   UNL     1       4.713  -7.010   0.127  1.00  0.00     0.029 A 
ATOM     25  C   UNL     1       5.509  -7.763  -0.832  1.00  0.00     0.049 A 
ATOM     26  H   UNL     1       6.378  -7.070  -2.594  1.00  0.00     0.167 HD
ATOM     27  C   UNL     1       8.009  -5.475  -6.333  1.00  0.00     0.031 A 
ATOM     28  C   UNL     1       5.804  -9.070  -0.726  1.00  0.00     0.031 A 
ATOM     29  C   UNL     1       8.445  -6.847  -6.264  1.00  0.00     0.049 A 
ATOM     30  C   UNL     1       6.608  -9.714  -1.815  1.00  0.00     0.074 A 
ATOM     31  C   UNL     1       9.262  -7.533  -7.146  1.00  0.00     0.029 A 
ATOM     32  N   UNL     1       8.089  -7.744  -5.269  1.00  0.00    -0.354 N 
ATOM     33  N   UNL     1       7.132  -9.169  -2.886  1.00  0.00    -0.248 NA
ATOM     34  C   UNL     1       6.859 -11.155  -1.684  1.00  0.00     0.031 C 
ATOM     35  C   UNL     1       9.342  -8.863  -6.723  1.00  0.00     0.029 A 
ATOM     36  C   UNL     1       8.633  -8.989  -5.540  1.00  0.00     0.049 A 
ATOM     37  H   UNL     1       7.532  -7.528  -4.486  1.00  0.00     0.167 HD
ATOM     38  C   UNL     1       7.787 -10.197  -3.548  1.00  0.00     0.074 A 
ATOM     39  C   UNL     1       7.624 -11.388  -2.740  1.00  0.00     0.031 C 
ATOM     40  C   UNL     1       8.455 -10.163  -4.726  1.00  0.00     0.031 A 
BRANCH  27  41
ATOM     41  C   UNL     1       8.404  -4.679  -7.546  1.00  0.00    -0.014 A 
ATOM     42  C   UNL     1       9.379  -3.672  -7.476  1.00  0.00     0.009 A 
ATOM     43  C   UNL     1       7.866  -5.017  -8.798  1.00  0.00     0.009 A 
ATOM     44  C   UNL     1       9.797  -3.013  -8.635  1.00  0.00     0.001 A 
ATOM     45  C   UNL     1       8.303  -4.374  -9.958  1.00  0.00     0.001 A 
ATOM     46  C   UNL     1       9.266  -3.370  -9.875  1.00  0.00     0.000 A 
ENDBRANCH  27  41
BRANCH  28  47
ATOM     47  C   UNL     1       5.291  -9.865   0.420  1.00  0.00    -0.014 A 
ATOM     48  C   UNL     1       6.169 -10.433   1.354  1.00  0.00     0.009 A 
ATOM     49  C   UNL     1       3.911 -10.083   0.568  1.00  0.00     0.009 A 
ATOM     50  C   UNL     1       5.679 -11.237   2.386  1.00  0.00     0.001 A 
ATOM     51  C   UNL     1       3.421 -10.854   1.623  1.00  0.00     0.001 A 
ATOM     52  C   UNL     1       4.307 -11.443   2.522  1.00  0.00     0.000 A 
ENDBRANCH  28  47
BRANCH  40  53
ATOM     53  C   UNL     1       9.076 -11.449  -5.191  1.00  0.00    -0.014 A 
ATOM     54  C   UNL     1       8.285 -12.516  -5.644  1.00  0.00     0.009 A 
ATOM     55  C   UNL     1      10.473 -11.585  -5.197  1.00  0.00     0.009 A 
ATOM     56  C   UNL     1       8.881 -13.709  -6.056  1.00  0.00     0.001 A 
ATOM     57  C   UNL     1      11.066 -12.766  -5.642  1.00  0.00     0.001 A 
ATOM     58  C   UNL     1      10.270 -13.831  -6.060  1.00  0.00     0.000 A 
ENDBRANCH  40  53
ENDBRANCH  14  15
ENDBRANCH   7   9
ENDBRANCH   4   5
ENDBRANCH   3   4
ENDBRANCH   2   3
ENDBRANCH   1   2
BRANCH   1  59
ATOM     59  C   UNL     1       5.841   3.700   2.373  1.00  0.00     0.021 C 
BRANCH  59  60
ATOM     60  C   UNL     1       6.666   4.682   1.549  1.00  0.00     0.116 C 
BRANCH  60  61
ATOM     61  N   UNL     1       6.623   6.034   2.061  1.00  0.00    -0.356 N 
ATOM     62  C   UNL     1       7.576   6.913   2.451  1.00  0.00     0.227 C 
ATOM     63  H   UNL     1       5.708   6.390   2.143  1.00  0.00     0.163 HD
ATOM     64  O   UNL     1       7.167   8.040   2.761  1.00  0.00    -0.275 OA
BRANCH  62  65
ATOM     65  C   UNL     1       9.050   6.605   2.649  1.00  0.00     0.127 C 
ATOM     66  C   UNL     1       9.826   5.636   1.724  1.00  0.00     0.127 C 
ATOM     67  C   UNL     1       9.268   5.980   4.040  1.00  0.00     0.155 C 
ATOM     68  C   UNL     1      10.362   4.616   2.736  1.00  0.00     0.155 C 
ATOM     69  C   UNL     1       8.622   4.644   4.208  1.00  0.00     0.004 C 
ATOM     70  O   UNL     1      10.615   5.485   3.873  1.00  0.00    -0.365 OA
ATOM     71  C   UNL     1       9.278   3.806   3.390  1.00  0.00     0.004 C 
BRANCH  66  72
ATOM     72  C   UNL     1      10.827   6.313   0.771  1.00  0.00     0.231 C 
ATOM     73  O   UNL     1      10.600   6.233  -0.447  1.00  0.00    -0.274 OA
ATOM     74  N   UNL     1      11.868   7.120   1.120  1.00  0.00    -0.325 N 
ATOM     75  H   UNL     1      12.240   7.651   0.379  1.00  0.00     0.169 HD
BRANCH  74  76
ATOM     76  C   UNL     1      12.495   7.322   2.349  1.00  0.00     0.048 A 
ATOM     77  C   UNL     1      12.623   8.626   2.826  1.00  0.00     0.026 A 
ATOM     78  C   UNL     1      12.973   6.258   3.101  1.00  0.00     0.111 A 
ATOM     79  C   UNL     1      13.037   8.845   4.143  1.00  0.00     0.009 A 
ATOM     80  C   UNL     1      13.300   6.469   4.444  1.00  0.00     0.271 A 
ATOM     81  C   UNL     1      13.328   7.762   4.975  1.00  0.00     0.086 A 
BRANCH  80  82
ATOM     82  N   UNL     1      13.454   5.305   5.326  1.00  0.00     0.062 N 
ATOM     83  O   UNL     1      13.422   5.503   6.550  1.00  0.00    -0.258 OA
ATOM     84  O   UNL     1      13.602   4.193   4.797  1.00  0.00    -0.258 OA
ENDBRANCH  80  82
ENDBRANCH  74  76
ENDBRANCH  66  72
ENDBRANCH  62  65
ENDBRANCH  60  61
ENDBRANCH  59  60
ENDBRANCH   1  59
TORSDOF 16
