REMARK SMILES C[NH2+][C@@]1(C(=O)NCCCCCCNC(=O)c2ccc(-c3c4nc(c(-c5ccccc5)c5ccc([nH]5)c(-c5ccccc5)c5nc(c(-c6ccccc6)c6ccc3[nH]6)C=C5)C=C4)cc2)CC[C@H]([NH+]2CC[NH+](C)CC2)C1
REMARK SMILES IDX 10 1 9 2 8 3 7 4 6 5 4 6 5 7 3 9 64 10 74 11 65 12 66 13
REMARK SMILES IDX 2 14 1 15 67 18 68 19 73 20 69 22 72 23 70 24 71 25 11 27
REMARK SMILES IDX 12 28 13 29 14 30 15 32 16 33 17 34 63 35 18 36 62 37 19 38
REMARK SMILES IDX 20 39 21 40 56 41 22 42 61 43 55 44 57 45 23 46 60 47 54 48
REMARK SMILES IDX 53 49 24 51 46 52 31 53 45 54 32 55 35 56 44 57 58 58 33 59
REMARK SMILES IDX 34 60 43 62 59 63 36 64 25 65 26 66 30 67 27 68 29 69 28 70
REMARK SMILES IDX 47 71 48 72 52 73 49 74 51 75 50 76 37 77 38 78 42 79 39 80
REMARK SMILES IDX 41 81 40 82
REMARK H PARENT 6 8 2 16 2 17 67 21 70 26 13 31 57 50 35 61
REMARK Flexibility Score: inf
ROOT
ATOM      1  C   UNL     1      -6.691  -1.882   3.141  1.00  0.00     0.002 C 
ENDROOT
BRANCH   1   2
ATOM      2  C   UNL     1      -5.630  -2.635   2.301  1.00  0.00     0.002 C 
BRANCH   2   3
ATOM      3  C   UNL     1      -4.978  -1.967   0.860  1.00  0.00     0.021 C 
BRANCH   3   4
ATOM      4  C   UNL     1      -3.524  -0.510   0.311  1.00  0.00     0.116 C 
BRANCH   4   5
ATOM      5  N   UNL     1      -2.050  -0.211   0.819  1.00  0.00    -0.351 N 
ATOM      6  C   UNL     1      -0.769  -0.561   0.558  1.00  0.00     0.281 C 
ATOM      7  O   UNL     1      -0.003  -0.287   1.493  1.00  0.00    -0.268 OA
ATOM      8  H   UNL     1      -2.077   0.436   1.560  1.00  0.00     0.163 HD
BRANCH   6   9
ATOM      9  C   UNL     1      -0.296  -1.253  -0.749  1.00  0.00     0.181 C 
ATOM     10  C   UNL     1      -0.928  -0.599  -1.989  1.00  0.00     0.085 C 
ATOM     11  C   UNL     1      -0.755  -2.725  -0.810  1.00  0.00     0.144 C 
ATOM     12  C   UNL     1      -1.883  -1.645  -2.559  1.00  0.00     0.072 C 
ATOM     13  C   UNL     1      -2.146  -2.683  -1.441  1.00  0.00     0.191 C 
BRANCH   9  14
ATOM     14  N   UNL     1       1.196  -1.239  -0.838  1.00  0.00    -0.336 N 
ATOM     15  C   UNL     1       1.811   0.083  -0.743  1.00  0.00     0.331 C 
ATOM     16  H   UNL     1       1.563  -1.814  -0.080  1.00  0.00     0.346 HD
ATOM     17  H   UNL     1       1.428  -1.595  -1.766  1.00  0.00     0.346 HD
ENDBRANCH   9  14
BRANCH  13  18
ATOM     18  N   UNL     1      -3.267  -2.451  -0.522  1.00  0.00    -0.323 N 
ATOM     19  C   UNL     1      -4.709  -1.574  -1.251  1.00  0.00     0.324 C 
ATOM     20  C   UNL     1      -2.971  -2.321   1.314  1.00  0.00     0.324 C 
ATOM     21  H   UNL     1      -3.606  -3.409  -0.430  1.00  0.00     0.348 HD
ATOM     22  C   UNL     1      -5.574  -0.133  -0.263  1.00  0.00     0.324 C 
ATOM     23  C   UNL     1      -3.882  -0.879   2.337  1.00  0.00     0.324 C 
ATOM     24  N   UNL     1      -5.303   0.021   1.553  1.00  0.00    -0.328 N 
ATOM     25  C   UNL     1      -5.418   1.404   1.996  1.00  0.00     0.333 C 
ATOM     26  H   UNL     1      -6.079  -0.526   1.925  1.00  0.00     0.348 HD
ENDBRANCH  13  18
ENDBRANCH   6   9
ENDBRANCH   4   5
ENDBRANCH   3   4
ENDBRANCH   2   3
ENDBRANCH   1   2
BRANCH   1  27
ATOM     27  C   UNL     1      -7.943  -1.441   2.391  1.00  0.00     0.021 C 
BRANCH  27  28
ATOM     28  C   UNL     1      -8.771  -2.603   1.884  1.00  0.00     0.116 C 
BRANCH  28  29
ATOM     29  N   UNL     1      -9.519  -3.213   2.972  1.00  0.00    -0.352 N 
ATOM     30  C   UNL     1     -10.882  -3.340   3.064  1.00  0.00     0.251 C 
ATOM     31  H   UNL     1      -8.992  -3.573   3.721  1.00  0.00     0.163 HD
ATOM     32  O   UNL     1     -11.434  -3.588   4.128  1.00  0.00    -0.269 OA
BRANCH  30  33
ATOM     33  C   UNL     1     -11.670  -3.170   1.829  1.00  0.00     0.039 A 
ATOM     34  C   UNL     1     -12.773  -2.316   1.824  1.00  0.00     0.014 A 
ATOM     35  C   UNL     1     -11.273  -3.842   0.667  1.00  0.00     0.014 A 
ATOM     36  C   UNL     1     -13.480  -2.127   0.637  1.00  0.00     0.010 A 
ATOM     37  C   UNL     1     -11.926  -3.588  -0.528  1.00  0.00     0.010 A 
ATOM     38  C   UNL     1     -13.058  -2.761  -0.544  1.00  0.00    -0.014 A 
BRANCH  38  39
ATOM     39  C   UNL     1     -13.843  -2.656  -1.794  1.00  0.00     0.031 A 
ATOM     40  C   UNL     1     -14.516  -3.887  -2.338  1.00  0.00     0.074 A 
ATOM     41  C   UNL     1     -13.911  -1.487  -2.456  1.00  0.00     0.049 A 
ATOM     42  N   UNL     1     -15.204  -4.035  -3.440  1.00  0.00    -0.248 NA
ATOM     43  C   UNL     1     -14.364  -5.126  -1.554  1.00  0.00     0.031 C 
ATOM     44  C   UNL     1     -13.266  -0.238  -2.046  1.00  0.00     0.029 A 
ATOM     45  N   UNL     1     -14.557  -1.163  -3.620  1.00  0.00    -0.354 N 
ATOM     46  C   UNL     1     -15.542  -5.382  -3.491  1.00  0.00     0.074 A 
ATOM     47  C   UNL     1     -14.935  -6.020  -2.345  1.00  0.00     0.031 C 
ATOM     48  C   UNL     1     -13.578   0.726  -2.929  1.00  0.00     0.029 A 
ATOM     49  C   UNL     1     -14.416   0.155  -3.979  1.00  0.00     0.049 A 
ATOM     50  H   UNL     1     -15.073  -1.813  -4.149  1.00  0.00     0.167 HD
ATOM     51  C   UNL     1     -16.313  -6.027  -4.396  1.00  0.00     0.031 A 
ATOM     52  C   UNL     1     -14.916   0.824  -5.034  1.00  0.00     0.031 A 
ATOM     53  C   UNL     1     -16.941  -5.383  -5.514  1.00  0.00     0.049 A 
ATOM     54  C   UNL     1     -15.784   0.090  -6.018  1.00  0.00     0.074 A 
ATOM     55  C   UNL     1     -17.793  -5.927  -6.458  1.00  0.00     0.029 A 
ATOM     56  N   UNL     1     -16.790  -4.042  -5.831  1.00  0.00    -0.354 N 
ATOM     57  N   UNL     1     -16.146  -1.171  -6.021  1.00  0.00    -0.248 NA
ATOM     58  C   UNL     1     -16.325   0.875  -7.136  1.00  0.00     0.031 C 
ATOM     59  C   UNL     1     -18.127  -4.921  -7.371  1.00  0.00     0.029 A 
ATOM     60  C   UNL     1     -17.520  -3.742  -6.966  1.00  0.00     0.049 A 
ATOM     61  H   UNL     1     -16.243  -3.399  -5.324  1.00  0.00     0.167 HD
ATOM     62  C   UNL     1     -16.977  -1.324  -7.123  1.00  0.00     0.074 A 
ATOM     63  C   UNL     1     -17.076  -0.024  -7.755  1.00  0.00     0.031 C 
ATOM     64  C   UNL     1     -17.603  -2.439  -7.573  1.00  0.00     0.031 A 
BRANCH  51  65
ATOM     65  C   UNL     1     -16.514  -7.504  -4.202  1.00  0.00    -0.014 A 
ATOM     66  C   UNL     1     -17.288  -7.999  -3.139  1.00  0.00     0.009 A 
ATOM     67  C   UNL     1     -15.932  -8.413  -5.098  1.00  0.00     0.009 A 
ATOM     68  C   UNL     1     -17.439  -9.375  -2.954  1.00  0.00     0.001 A 
ATOM     69  C   UNL     1     -16.110  -9.787  -4.928  1.00  0.00     0.001 A 
ATOM     70  C   UNL     1     -16.854 -10.267  -3.851  1.00  0.00     0.000 A 
ENDBRANCH  51  65
BRANCH  52  71
ATOM     71  C   UNL     1     -14.639   2.274  -5.196  1.00  0.00    -0.014 A 
ATOM     72  C   UNL     1     -15.654   3.218  -4.978  1.00  0.00     0.009 A 
ATOM     73  C   UNL     1     -13.363   2.724  -5.567  1.00  0.00     0.009 A 
ATOM     74  C   UNL     1     -15.404   4.581  -5.153  1.00  0.00     0.001 A 
ATOM     75  C   UNL     1     -13.108   4.089  -5.716  1.00  0.00     0.001 A 
ATOM     76  C   UNL     1     -14.130   5.016  -5.518  1.00  0.00     0.000 A 
ENDBRANCH  52  71
BRANCH  64  77
ATOM     77  C   UNL     1     -18.473  -2.291  -8.787  1.00  0.00    -0.014 A 
ATOM     78  C   UNL     1     -17.916  -2.137 -10.065  1.00  0.00     0.009 A 
ATOM     79  C   UNL     1     -19.868  -2.357  -8.651  1.00  0.00     0.009 A 
ATOM     80  C   UNL     1     -18.743  -2.021 -11.183  1.00  0.00     0.001 A 
ATOM     81  C   UNL     1     -20.691  -2.267  -9.774  1.00  0.00     0.001 A 
ATOM     82  C   UNL     1     -20.128  -2.091 -11.037  1.00  0.00     0.000 A 
ENDBRANCH  64  77
ENDBRANCH  38  39
ENDBRANCH  30  33
ENDBRANCH  28  29
ENDBRANCH  27  28
ENDBRANCH   1  27
TORSDOF 15
