REMARK SMILES N#Cc1ccccc1C[C@@H](NC(=O)OCC1c2ccccc2-c2ccccc21)C(=O)NCCCCCCNC(=O)c1ccc(-c2c3nc(c(-c4ccccc4)c4ccc([nH]4)c(-c4ccccc4)c4nc(c(-c5ccccc5)c5ccc2[nH]5)C=C4)C=C3)cc1
REMARK SMILES IDX 33 1 32 2 31 3 29 4 30 5 10 7 9 8 8 9 3 10 4 11 5 12 7 13
REMARK SMILES IDX 6 14 2 15 1 16 11 17 12 18 13 20 14 21 15 22 16 23 17 24
REMARK SMILES IDX 28 25 18 26 22 27 23 28 27 29 19 30 21 31 24 32 26 33 20 34
REMARK SMILES IDX 25 35 34 36 35 37 36 38 37 39 38 40 39 41 40 43 41 44 42 45
REMARK SMILES IDX 88 46 43 47 87 48 44 49 45 50 46 51 81 52 47 53 86 54 80 55
REMARK SMILES IDX 82 56 48 57 85 58 79 59 78 60 49 62 71 63 56 64 70 65 57 66
REMARK SMILES IDX 60 67 69 68 83 69 58 70 59 71 68 73 84 74 61 75 50 76 51 77
REMARK SMILES IDX 55 78 52 79 54 80 53 81 72 82 73 83 77 84 74 85 76 86 75 87
REMARK SMILES IDX 62 88 63 89 67 90 64 91 66 92 65 93
REMARK H PARENT 31 6 11 19 38 42 82 61 60 72
REMARK Flexibility Score: inf
ROOT
ATOM      1  C   UNL     1      -1.159  -5.495   2.192  1.00  0.00     0.021 C 
ENDROOT
BRANCH   1   2
ATOM      2  C   UNL     1      -0.332  -5.310   0.934  1.00  0.00     0.116 C 
BRANCH   2   3
ATOM      3  N   UNL     1      -1.183  -5.271  -0.244  1.00  0.00    -0.354 N 
ATOM      4  C   UNL     1      -1.140  -4.439  -1.329  1.00  0.00     0.243 C 
ATOM      5  O   UNL     1      -1.921  -4.648  -2.260  1.00  0.00    -0.273 OA
ATOM      6  H   UNL     1      -1.899  -5.946  -0.264  1.00  0.00     0.163 HD
BRANCH   4   7
ATOM      7  C   UNL     1      -0.167  -3.243  -1.349  1.00  0.00     0.179 C 
BRANCH   7   8
ATOM      8  C   UNL     1      -0.579  -2.260  -0.210  1.00  0.00     0.072 C 
BRANCH   8   9
ATOM      9  C   UNL     1       0.170  -0.942  -0.112  1.00  0.00    -0.028 A 
ATOM     10  C   UNL     1      -0.491   0.300  -0.186  1.00  0.00     0.055 A 
ATOM     11  C   UNL     1       0.244   1.493  -0.112  1.00  0.00     0.020 A 
ATOM     12  C   UNL     1       1.627   1.466   0.061  1.00  0.00     0.001 A 
ATOM     13  C   UNL     1       1.550  -0.939   0.168  1.00  0.00     0.005 A 
ATOM     14  C   UNL     1       2.278   0.250   0.218  1.00  0.00     0.000 A 
BRANCH  10  15
ATOM     15  C   UNL     1      -1.925   0.395  -0.264  1.00  0.00     0.099 C 
ATOM     16  N   UNL     1      -3.080   0.456  -0.290  1.00  0.00    -0.192 NA
ENDBRANCH  10  15
ENDBRANCH   8   9
ENDBRANCH   7   8
BRANCH   7  17
ATOM     17  N   UNL     1       1.254  -3.607  -1.357  1.00  0.00    -0.309 N 
ATOM     18  C   UNL     1       1.813  -4.825  -1.131  1.00  0.00     0.407 C 
ATOM     19  H   UNL     1       1.883  -2.876  -1.552  1.00  0.00     0.167 HD
ATOM     20  O   UNL     1       2.841  -4.928  -0.477  1.00  0.00    -0.225 OA
BRANCH  18  21
ATOM     21  O   UNL     1       1.149  -5.835  -1.743  1.00  0.00    -0.449 OA
BRANCH  21  22
ATOM     22  C   UNL     1       1.715  -7.154  -1.621  1.00  0.00     0.248 C 
BRANCH  22  23
ATOM     23  C   UNL     1       2.517  -7.545  -2.875  1.00  0.00     0.088 C 
ATOM     24  C   UNL     1       3.772  -6.691  -3.026  1.00  0.00    -0.029 A 
ATOM     25  C   UNL     1       3.121  -8.935  -2.703  1.00  0.00    -0.029 A 
ATOM     26  C   UNL     1       3.861  -5.339  -3.325  1.00  0.00     0.005 A 
ATOM     27  C   UNL     1       4.918  -7.455  -2.736  1.00  0.00    -0.014 A 
ATOM     28  C   UNL     1       4.528  -8.843  -2.606  1.00  0.00    -0.014 A 
ATOM     29  C   UNL     1       2.472 -10.160  -2.642  1.00  0.00     0.005 A 
ATOM     30  C   UNL     1       5.095  -4.712  -3.171  1.00  0.00     0.000 A 
ATOM     31  C   UNL     1       6.149  -6.838  -2.606  1.00  0.00     0.009 A 
ATOM     32  C   UNL     1       5.299  -9.984  -2.470  1.00  0.00     0.009 A 
ATOM     33  C   UNL     1       3.252 -11.309  -2.500  1.00  0.00     0.000 A 
ATOM     34  C   UNL     1       6.225  -5.452  -2.792  1.00  0.00     0.001 A 
ATOM     35  C   UNL     1       4.652 -11.223  -2.421  1.00  0.00     0.001 A 
ENDBRANCH  22  23
ENDBRANCH  21  22
ENDBRANCH  18  21
ENDBRANCH   7  17
ENDBRANCH   4   7
ENDBRANCH   2   3
ENDBRANCH   1   2
BRANCH   1  36
ATOM     36  C   UNL     1      -1.677  -6.929   2.324  1.00  0.00     0.002 C 
BRANCH  36  37
ATOM     37  C   UNL     1      -0.574  -7.997   2.344  1.00  0.00     0.002 C 
BRANCH  37  38
ATOM     38  C   UNL     1       0.510  -7.766   3.400  1.00  0.00     0.021 C 
BRANCH  38  39
ATOM     39  C   UNL     1      -0.041  -7.618   4.811  1.00  0.00     0.116 C 
BRANCH  39  40
ATOM     40  N   UNL     1      -0.806  -8.788   5.209  1.00  0.00    -0.352 N 
ATOM     41  C   UNL     1      -0.688  -9.551   6.339  1.00  0.00     0.251 C 
ATOM     42  H   UNL     1      -1.507  -9.071   4.578  1.00  0.00     0.163 HD
ATOM     43  O   UNL     1      -1.246 -10.640   6.416  1.00  0.00    -0.269 OA
BRANCH  41  44
ATOM     44  C   UNL     1       0.129  -9.051   7.460  1.00  0.00     0.039 A 
ATOM     45  C   UNL     1       0.979  -9.937   8.121  1.00  0.00     0.014 A 
ATOM     46  C   UNL     1       0.051  -7.712   7.855  1.00  0.00     0.014 A 
ATOM     47  C   UNL     1       1.778  -9.469   9.163  1.00  0.00     0.010 A 
ATOM     48  C   UNL     1       0.917  -7.227   8.825  1.00  0.00     0.010 A 
ATOM     49  C   UNL     1       1.771  -8.106   9.507  1.00  0.00    -0.014 A 
BRANCH  49  50
ATOM     50  C   UNL     1       2.631  -7.594  10.600  1.00  0.00     0.031 A 
ATOM     51  C   UNL     1       2.010  -6.985  11.827  1.00  0.00     0.074 A 
ATOM     52  C   UNL     1       3.971  -7.652  10.475  1.00  0.00     0.049 A 
ATOM     53  N   UNL     1       2.595  -6.485  12.886  1.00  0.00    -0.248 NA
ATOM     54  C   UNL     1       0.540  -6.903  11.860  1.00  0.00     0.031 C 
ATOM     55  C   UNL     1       4.692  -8.185   9.317  1.00  0.00     0.029 A 
ATOM     56  N   UNL     1       4.964  -7.264  11.336  1.00  0.00    -0.354 N 
ATOM     57  C   UNL     1       1.568  -6.025  13.701  1.00  0.00     0.074 A 
ATOM     58  C   UNL     1       0.330  -6.239  12.986  1.00  0.00     0.031 C 
ATOM     59  C   UNL     1       6.011  -8.134   9.562  1.00  0.00     0.029 A 
ATOM     60  C   UNL     1       6.229  -7.520  10.867  1.00  0.00     0.049 A 
ATOM     61  H   UNL     1       4.788  -6.842  12.208  1.00  0.00     0.167 HD
ATOM     62  C   UNL     1       1.645  -5.494  14.944  1.00  0.00     0.031 A 
ATOM     63  C   UNL     1       7.431  -7.284  11.425  1.00  0.00     0.031 A 
ATOM     64  C   UNL     1       2.879  -5.276  15.650  1.00  0.00     0.049 A 
ATOM     65  C   UNL     1       7.490  -6.656  12.791  1.00  0.00     0.074 A 
ATOM     66  C   UNL     1       3.064  -4.783  16.930  1.00  0.00     0.029 A 
ATOM     67  N   UNL     1       4.140  -5.528  15.132  1.00  0.00    -0.354 N 
ATOM     68  N   UNL     1       6.508  -6.290  13.579  1.00  0.00    -0.248 NA
ATOM     69  C   UNL     1       8.829  -6.425  13.349  1.00  0.00     0.031 C 
ATOM     70  C   UNL     1       4.438  -4.669  17.158  1.00  0.00     0.029 A 
ATOM     71  C   UNL     1       5.109  -5.171  16.054  1.00  0.00     0.049 A 
ATOM     72  H   UNL     1       4.319  -5.906  14.240  1.00  0.00     0.167 HD
ATOM     73  C   UNL     1       7.109  -5.820  14.740  1.00  0.00     0.074 A 
ATOM     74  C   UNL     1       8.539  -5.966  14.558  1.00  0.00     0.031 C 
ATOM     75  C   UNL     1       6.529  -5.317  15.858  1.00  0.00     0.031 A 
BRANCH  62  76
ATOM     76  C   UNL     1       0.353  -5.097  15.608  1.00  0.00    -0.014 A 
ATOM     77  C   UNL     1      -0.601  -6.056  15.989  1.00  0.00     0.009 A 
ATOM     78  C   UNL     1       0.095  -3.744  15.879  1.00  0.00     0.009 A 
ATOM     79  C   UNL     1      -1.803  -5.665  16.583  1.00  0.00     0.001 A 
ATOM     80  C   UNL     1      -1.091  -3.359  16.507  1.00  0.00     0.001 A 
ATOM     81  C   UNL     1      -2.044  -4.317  16.847  1.00  0.00     0.000 A 
ENDBRANCH  62  76
BRANCH  63  82
ATOM     82  C   UNL     1       8.677  -7.655  10.703  1.00  0.00    -0.014 A 
ATOM     83  C   UNL     1       9.508  -8.677  11.187  1.00  0.00     0.009 A 
ATOM     84  C   UNL     1       9.049  -6.980   9.530  1.00  0.00     0.009 A 
ATOM     85  C   UNL     1      10.702  -8.990  10.533  1.00  0.00     0.001 A 
ATOM     86  C   UNL     1      10.225  -7.319   8.857  1.00  0.00     0.001 A 
ATOM     87  C   UNL     1      11.057  -8.314   9.367  1.00  0.00     0.000 A 
ENDBRANCH  63  82
BRANCH  75  88
ATOM     88  C   UNL     1       7.441  -4.936  16.994  1.00  0.00    -0.014 A 
ATOM     89  C   UNL     1       8.322  -3.847  16.902  1.00  0.00     0.009 A 
ATOM     90  C   UNL     1       7.395  -5.670  18.190  1.00  0.00     0.009 A 
ATOM     91  C   UNL     1       9.172  -3.534  17.965  1.00  0.00     0.001 A 
ATOM     92  C   UNL     1       8.215  -5.330  19.266  1.00  0.00     0.001 A 
ATOM     93  C   UNL     1       9.114  -4.271  19.147  1.00  0.00     0.000 A 
ENDBRANCH  75  88
ENDBRANCH  49  50
ENDBRANCH  41  44
ENDBRANCH  39  40
ENDBRANCH  38  39
ENDBRANCH  37  38
ENDBRANCH  36  37
ENDBRANCH   1  36
TORSDOF 20
