REMARK SMILES COC(=O)CCN(C)C(=O)NCc1ccc(C(=O)NCCCCCCNC(=O)c2ccc(-c3c4nc(c(-c5ccccc5)c5ccc([nH]5)c(-c5ccccc5)c5nc(c(-c6ccccc6)c6ccc3[nH]6)C=C5)C=C4)cc2)o1
REMARK SMILES IDX 20 1 19 2 17 3 18 4 16 6 13 7 14 8 77 9 15 10 12 11 11 12
REMARK SMILES IDX 9 13 10 14 7 16 8 17 6 18 5 19 3 20 4 21 2 22 1 23 21 24
REMARK SMILES IDX 22 25 23 26 24 27 25 28 26 29 27 30 28 32 29 33 30 34 76 35
REMARK SMILES IDX 31 36 75 37 32 38 33 39 34 40 69 41 35 42 74 43 68 44 70 45
REMARK SMILES IDX 36 46 73 47 67 48 66 49 37 51 59 52 44 53 58 54 45 55 48 56
REMARK SMILES IDX 57 57 71 58 46 59 47 60 56 62 72 63 49 64 38 65 39 66 43 67
REMARK SMILES IDX 40 68 42 69 41 70 60 71 61 72 65 73 62 74 64 75 63 76 50 77
REMARK SMILES IDX 51 78 55 79 52 80 54 81 53 82
REMARK H PARENT 19 5 11 15 26 31 70 50 48 61
REMARK Flexibility Score: inf
ROOT
ATOM      1  C   UNL     1       2.138  -8.897   4.239  1.00  0.00     0.116 C 
ENDROOT
BRANCH   1   2
ATOM      2  N   UNL     1       1.130  -9.257   3.267  1.00  0.00    -0.349 N 
ATOM      3  C   UNL     1       0.298  -8.492   2.485  1.00  0.00     0.286 C 
ATOM      4  O   UNL     1      -0.436  -9.125   1.722  1.00  0.00    -0.266 OA
ATOM      5  H   UNL     1       1.020 -10.227   3.143  1.00  0.00     0.163 HD
BRANCH   3   6
ATOM      6  C   UNL     1       0.299  -7.040   2.546  1.00  0.00     0.191 A 
ATOM      7  C   UNL     1      -0.239  -5.056   1.719  1.00  0.00     0.124 A 
ATOM      8  C   UNL     1       0.489  -4.812   2.862  1.00  0.00     0.048 A 
ATOM      9  O   UNL     1      -0.372  -6.394   1.531  1.00  0.00    -0.454 OA
ATOM     10  C   UNL     1       0.815  -6.079   3.400  1.00  0.00     0.056 A 
BRANCH   7  11
ATOM     11  C   UNL     1      -0.822  -4.165   0.683  1.00  0.00     0.193 C 
BRANCH  11  12
ATOM     12  N   UNL     1       0.259  -3.319   0.228  1.00  0.00    -0.331 N 
ATOM     13  C   UNL     1       0.893  -3.041  -0.912  1.00  0.00     0.317 C 
ATOM     14  O   UNL     1       1.883  -2.314  -0.781  1.00  0.00    -0.249 OA
ATOM     15  H   UNL     1       0.635  -2.798   0.975  1.00  0.00     0.165 HD
BRANCH  13  16
ATOM     16  N   UNL     1       0.451  -3.435  -2.140  1.00  0.00    -0.327 N 
ATOM     17  C   UNL     1      -0.562  -4.436  -2.419  1.00  0.00     0.148 C 
BRANCH  16  18
ATOM     18  C   UNL     1       0.973  -2.687  -3.294  1.00  0.00     0.132 C 
BRANCH  18  19
ATOM     19  C   UNL     1       0.231  -1.371  -3.520  1.00  0.00     0.144 C 
BRANCH  19  20
ATOM     20  C   UNL     1       0.777  -0.278  -2.637  1.00  0.00     0.307 C 
ATOM     21  O   UNL     1       1.759   0.397  -2.917  1.00  0.00    -0.252 OA
BRANCH  20  22
ATOM     22  O   UNL     1       0.038  -0.167  -1.498  1.00  0.00    -0.469 OA
ATOM     23  C   UNL     1       0.644   0.623  -0.472  1.00  0.00     0.282 C 
ENDBRANCH  20  22
ENDBRANCH  19  20
ENDBRANCH  18  19
ENDBRANCH  16  18
ENDBRANCH  13  16
ENDBRANCH  11  12
ENDBRANCH   7  11
ENDBRANCH   3   6
ENDBRANCH   1   2
BRANCH   1  24
ATOM     24  C   UNL     1       1.595  -9.018   5.662  1.00  0.00     0.021 C 
BRANCH  24  25
ATOM     25  C   UNL     1       1.596 -10.459   6.195  1.00  0.00     0.002 C 
BRANCH  25  26
ATOM     26  C   UNL     1       2.972 -11.137   6.243  1.00  0.00     0.002 C 
BRANCH  26  27
ATOM     27  C   UNL     1       4.071 -10.337   6.949  1.00  0.00     0.021 C 
BRANCH  27  28
ATOM     28  C   UNL     1       3.790 -10.035   8.417  1.00  0.00     0.116 C 
BRANCH  28  29
ATOM     29  N   UNL     1       3.744 -11.246   9.217  1.00  0.00    -0.352 N 
ATOM     30  C   UNL     1       4.397 -11.545  10.385  1.00  0.00     0.251 C 
ATOM     31  H   UNL     1       3.158 -11.957   8.870  1.00  0.00     0.163 HD
ATOM     32  O   UNL     1       4.396 -12.697  10.808  1.00  0.00    -0.269 OA
BRANCH  30  33
ATOM     33  C   UNL     1       5.105 -10.488  11.139  1.00  0.00     0.039 A 
ATOM     34  C   UNL     1       6.338 -10.794  11.724  1.00  0.00     0.014 A 
ATOM     35  C   UNL     1       4.534  -9.226  11.329  1.00  0.00     0.014 A 
ATOM     36  C   UNL     1       7.005  -9.832  12.484  1.00  0.00     0.010 A 
ATOM     37  C   UNL     1       5.229  -8.246  12.034  1.00  0.00     0.010 A 
ATOM     38  C   UNL     1       6.457  -8.549  12.641  1.00  0.00    -0.014 A 
BRANCH  38  39
ATOM     39  C   UNL     1       7.126  -7.535  13.492  1.00  0.00     0.031 A 
ATOM     40  C   UNL     1       6.478  -7.089  14.775  1.00  0.00     0.074 A 
ATOM     41  C   UNL     1       8.294  -6.992  13.101  1.00  0.00     0.049 A 
ATOM     42  N   UNL     1       6.888  -6.198  15.642  1.00  0.00    -0.248 NA
ATOM     43  C   UNL     1       5.186  -7.708  15.115  1.00  0.00     0.031 C 
ATOM     44  C   UNL     1       9.008  -7.313  11.864  1.00  0.00     0.029 A 
ATOM     45  N   UNL     1       9.086  -6.052  13.710  1.00  0.00    -0.354 N 
ATOM     46  C   UNL     1       5.896  -6.134  16.614  1.00  0.00     0.074 A 
ATOM     47  C   UNL     1       4.845  -7.040  16.207  1.00  0.00     0.031 C 
ATOM     48  C   UNL     1      10.146  -6.601  11.818  1.00  0.00     0.029 A 
ATOM     49  C   UNL     1      10.229  -5.759  13.007  1.00  0.00     0.049 A 
ATOM     50  H   UNL     1       8.857  -5.629  14.569  1.00  0.00     0.167 HD
ATOM     51  C   UNL     1       5.869  -5.404  17.754  1.00  0.00     0.031 A 
ATOM     52  C   UNL     1      11.234  -4.912  13.295  1.00  0.00     0.031 A 
ATOM     53  C   UNL     1       6.923  -4.521  18.174  1.00  0.00     0.049 A 
ATOM     54  C   UNL     1      11.197  -4.134  14.581  1.00  0.00     0.074 A 
ATOM     55  C   UNL     1       7.012  -3.769  19.333  1.00  0.00     0.029 A 
ATOM     56  N   UNL     1       8.079  -4.278  17.449  1.00  0.00    -0.354 N 
ATOM     57  N   UNL     1      10.276  -4.125  15.514  1.00  0.00    -0.248 NA
ATOM     58  C   UNL     1      12.350  -3.268  14.861  1.00  0.00     0.031 C 
ATOM     59  C   UNL     1       8.210  -3.048  19.295  1.00  0.00     0.029 A 
ATOM     60  C   UNL     1       8.886  -3.386  18.133  1.00  0.00     0.049 A 
ATOM     61  H   UNL     1       8.295  -4.681  16.576  1.00  0.00     0.167 HD
ATOM     62  C   UNL     1      10.755  -3.281  16.508  1.00  0.00     0.074 A 
ATOM     63  C   UNL     1      12.051  -2.807  16.068  1.00  0.00     0.031 C 
ATOM     64  C   UNL     1      10.176  -2.933  17.683  1.00  0.00     0.031 A 
BRANCH  51  65
ATOM     65  C   UNL     1       4.651  -5.534  18.625  1.00  0.00    -0.014 A 
ATOM     66  C   UNL     1       4.399  -6.709  19.352  1.00  0.00     0.009 A 
ATOM     67  C   UNL     1       3.750  -4.464  18.732  1.00  0.00     0.009 A 
ATOM     68  C   UNL     1       3.249  -6.824  20.135  1.00  0.00     0.001 A 
ATOM     69  C   UNL     1       2.615  -4.571  19.538  1.00  0.00     0.001 A 
ATOM     70  C   UNL     1       2.360  -5.755  20.230  1.00  0.00     0.000 A 
ENDBRANCH  51  65
BRANCH  52  71
ATOM     71  C   UNL     1      12.388  -4.785  12.368  1.00  0.00    -0.014 A 
ATOM     72  C   UNL     1      13.634  -5.333  12.709  1.00  0.00     0.009 A 
ATOM     73  C   UNL     1      12.252  -4.113  11.145  1.00  0.00     0.009 A 
ATOM     74  C   UNL     1      14.729  -5.186  11.855  1.00  0.00     0.001 A 
ATOM     75  C   UNL     1      13.342  -3.989  10.281  1.00  0.00     0.001 A 
ATOM     76  C   UNL     1      14.581  -4.517  10.641  1.00  0.00     0.000 A 
ENDBRANCH  52  71
BRANCH  64  77
ATOM     77  C   UNL     1      10.965  -2.037  18.595  1.00  0.00    -0.014 A 
ATOM     78  C   UNL     1      11.137  -0.674  18.311  1.00  0.00     0.009 A 
ATOM     79  C   UNL     1      11.521  -2.565  19.770  1.00  0.00     0.009 A 
ATOM     80  C   UNL     1      11.886   0.135  19.169  1.00  0.00     0.001 A 
ATOM     81  C   UNL     1      12.246  -1.749  20.639  1.00  0.00     0.001 A 
ATOM     82  C   UNL     1      12.436  -0.403  20.332  1.00  0.00     0.000 A 
ENDBRANCH  64  77
ENDBRANCH  38  39
ENDBRANCH  30  33
ENDBRANCH  28  29
ENDBRANCH  27  28
ENDBRANCH  26  27
ENDBRANCH  25  26
ENDBRANCH  24  25
ENDBRANCH   1  24
TORSDOF 20
