REMARK SMILES C=CCOc1ccc(C(=O)N2CCC[C@H]2C(=O)NCCCCCCNC(=O)c2ccc(-c3c4nc(c(-c5ccccc5)c5ccc([nH]5)c(-c5ccccc5)c5nc(c(-c6ccccc6)c6ccc3[nH]6)C=C5)C=C4)cc2)cc1
REMARK SMILES IDX 20 1 19 2 18 3 16 4 17 5 15 7 11 8 12 9 13 10 14 11 9 12
REMARK SMILES IDX 10 13 8 14 5 15 6 16 77 17 7 18 76 19 4 20 3 21 2 22 1 23
REMARK SMILES IDX 21 24 22 25 23 26 24 27 25 28 26 29 27 31 28 32 29 33 75 34
REMARK SMILES IDX 30 35 74 36 31 37 32 38 33 39 68 40 34 41 73 42 67 43 69 44
REMARK SMILES IDX 35 45 72 46 66 47 65 48 36 50 58 51 43 52 57 53 44 54 47 55
REMARK SMILES IDX 56 56 70 57 45 58 46 59 55 61 71 62 48 63 37 64 38 65 42 66
REMARK SMILES IDX 39 67 41 68 40 69 59 70 60 71 64 72 61 73 63 74 62 75 49 76
REMARK SMILES IDX 50 77 54 78 51 79 53 80 52 81
REMARK H PARENT 18 6 25 30 69 49 47 60
REMARK Flexibility Score: inf
ROOT
ATOM      1  C   UNL     1      -1.246  -0.832   9.434  1.00  0.00     0.021 C 
ENDROOT
BRANCH   1   2
ATOM      2  C   UNL     1      -0.941   0.394   8.583  1.00  0.00     0.116 C 
BRANCH   2   3
ATOM      3  N   UNL     1       0.116   1.202   9.163  1.00  0.00    -0.354 N 
ATOM      4  C   UNL     1       1.247   1.695   8.580  1.00  0.00     0.242 C 
ATOM      5  O   UNL     1       1.922   2.506   9.220  1.00  0.00    -0.273 OA
ATOM      6  H   UNL     1       0.001   1.427  10.115  1.00  0.00     0.163 HD
BRANCH   4   7
ATOM      7  C   UNL     1       1.606   1.284   7.142  1.00  0.00     0.174 C 
ATOM      8  N   UNL     1       1.235   2.318   6.175  1.00  0.00    -0.327 N 
ATOM      9  C   UNL     1       2.408   3.059   5.751  1.00  0.00     0.121 C 
ATOM     10  C   UNL     1       3.491   1.997   5.760  1.00  0.00     0.024 C 
ATOM     11  C   UNL     1       3.133   1.138   6.973  1.00  0.00     0.037 C 
BRANCH   8  12
ATOM     12  C   UNL     1      -0.071   2.462   5.750  1.00  0.00     0.254 C 
ATOM     13  O   UNL     1      -1.030   2.344   6.509  1.00  0.00    -0.269 OA
BRANCH  12  14
ATOM     14  C   UNL     1      -0.366   2.573   4.294  1.00  0.00     0.040 A 
ATOM     15  C   UNL     1      -1.070   2.466   1.580  1.00  0.00     0.119 A 
ATOM     16  C   UNL     1      -2.022   2.837   2.527  1.00  0.00     0.047 A 
ATOM     17  C   UNL     1       0.233   2.191   1.982  1.00  0.00     0.047 A 
ATOM     18  C   UNL     1      -1.671   2.891   3.882  1.00  0.00     0.017 A 
ATOM     19  C   UNL     1       0.569   2.194   3.330  1.00  0.00     0.017 A 
BRANCH  15  20
ATOM     20  O   UNL     1      -1.430   2.449   0.259  1.00  0.00    -0.490 OA
BRANCH  20  21
ATOM     21  C   UNL     1      -1.276   1.160  -0.361  1.00  0.00     0.257 C 
BRANCH  21  22
ATOM     22  C   UNL     1       0.117   0.963  -0.895  1.00  0.00     0.006 C 
ATOM     23  C   UNL     1       0.895  -0.090  -0.604  1.00  0.00     0.007 C 
ENDBRANCH  21  22
ENDBRANCH  20  21
ENDBRANCH  15  20
ENDBRANCH  12  14
ENDBRANCH   8  12
ENDBRANCH   4   7
ENDBRANCH   2   3
ENDBRANCH   1   2
BRANCH   1  24
ATOM     24  C   UNL     1      -1.758  -0.502  10.840  1.00  0.00     0.002 C 
BRANCH  24  25
ATOM     25  C   UNL     1      -2.997   0.399  10.886  1.00  0.00     0.002 C 
BRANCH  25  26
ATOM     26  C   UNL     1      -4.200  -0.111  10.092  1.00  0.00     0.021 C 
BRANCH  26  27
ATOM     27  C   UNL     1      -4.679  -1.499  10.496  1.00  0.00     0.116 C 
BRANCH  27  28
ATOM     28  N   UNL     1      -5.167  -1.540  11.866  1.00  0.00    -0.352 N 
ATOM     29  C   UNL     1      -6.352  -2.045  12.341  1.00  0.00     0.251 C 
ATOM     30  H   UNL     1      -4.567  -1.153  12.544  1.00  0.00     0.163 HD
ATOM     31  O   UNL     1      -6.696  -1.854  13.503  1.00  0.00    -0.269 OA
BRANCH  29  32
ATOM     32  C   UNL     1      -7.225  -2.807  11.426  1.00  0.00     0.039 A 
ATOM     33  C   UNL     1      -8.584  -2.489  11.358  1.00  0.00     0.014 A 
ATOM     34  C   UNL     1      -6.691  -3.813  10.618  1.00  0.00     0.014 A 
ATOM     35  C   UNL     1      -9.398  -3.141  10.429  1.00  0.00     0.010 A 
ATOM     36  C   UNL     1      -7.484  -4.405   9.643  1.00  0.00     0.010 A 
ATOM     37  C   UNL     1      -8.847  -4.079   9.542  1.00  0.00    -0.014 A 
BRANCH  37  38
ATOM     38  C   UNL     1      -9.668  -4.756   8.508  1.00  0.00     0.031 A 
ATOM     39  C   UNL     1      -9.841  -6.249   8.555  1.00  0.00     0.074 A 
ATOM     40  C   UNL     1     -10.181  -4.048   7.482  1.00  0.00     0.049 A 
ATOM     41  N   UNL     1     -10.401  -7.045   7.681  1.00  0.00    -0.248 NA
ATOM     42  C   UNL     1      -9.282  -6.941   9.729  1.00  0.00     0.031 C 
ATOM     43  C   UNL     1     -10.066  -2.599   7.307  1.00  0.00     0.029 A 
ATOM     44  N   UNL     1     -10.890  -4.460   6.381  1.00  0.00    -0.354 N 
ATOM     45  C   UNL     1     -10.238  -8.329   8.185  1.00  0.00     0.074 A 
ATOM     46  C   UNL     1      -9.486  -8.211   9.415  1.00  0.00     0.031 C 
ATOM     47  C   UNL     1     -10.697  -2.242   6.176  1.00  0.00     0.029 A 
ATOM     48  C   UNL     1     -11.216  -3.439   5.522  1.00  0.00     0.049 A 
ATOM     49  H   UNL     1     -11.141  -5.399   6.223  1.00  0.00     0.167 HD
ATOM     50  C   UNL     1     -10.687  -9.502   7.678  1.00  0.00     0.031 A 
ATOM     51  C   UNL     1     -11.846  -3.466   4.332  1.00  0.00     0.031 A 
ATOM     52  C   UNL     1     -11.445  -9.617   6.462  1.00  0.00     0.049 A 
ATOM     53  C   UNL     1     -12.311  -4.784   3.776  1.00  0.00     0.074 A 
ATOM     54  C   UNL     1     -11.990 -10.753   5.891  1.00  0.00     0.029 A 
ATOM     55  N   UNL     1     -11.766  -8.555   5.629  1.00  0.00    -0.354 N 
ATOM     56  N   UNL     1     -12.195  -5.985   4.289  1.00  0.00    -0.248 NA
ATOM     57  C   UNL     1     -13.002  -4.749   2.479  1.00  0.00     0.031 C 
ATOM     58  C   UNL     1     -12.593 -10.388   4.684  1.00  0.00     0.029 A 
ATOM     59  C   UNL     1     -12.481  -9.015   4.537  1.00  0.00     0.049 A 
ATOM     60  H   UNL     1     -11.521  -7.616   5.791  1.00  0.00     0.167 HD
ATOM     61  C   UNL     1     -12.832  -6.841   3.399  1.00  0.00     0.074 A 
ATOM     62  C   UNL     1     -13.337  -6.021   2.317  1.00  0.00     0.031 C 
ATOM     63  C   UNL     1     -12.988  -8.185   3.475  1.00  0.00     0.031 A 
BRANCH  50  64
ATOM     64  C   UNL     1     -10.356 -10.757   8.437  1.00  0.00    -0.014 A 
ATOM     65  C   UNL     1     -10.932 -11.027   9.689  1.00  0.00     0.009 A 
ATOM     66  C   UNL     1      -9.478 -11.698   7.877  1.00  0.00     0.009 A 
ATOM     67  C   UNL     1     -10.603 -12.194  10.382  1.00  0.00     0.001 A 
ATOM     68  C   UNL     1      -9.177 -12.879   8.558  1.00  0.00     0.001 A 
ATOM     69  C   UNL     1      -9.731 -13.121   9.814  1.00  0.00     0.000 A 
ENDBRANCH  50  64
BRANCH  51  70
ATOM     70  C   UNL     1     -12.082  -2.203   3.583  1.00  0.00    -0.014 A 
ATOM     71  C   UNL     1     -13.382  -1.695   3.437  1.00  0.00     0.009 A 
ATOM     72  C   UNL     1     -11.013  -1.505   2.999  1.00  0.00     0.009 A 
ATOM     73  C   UNL     1     -13.610  -0.532   2.697  1.00  0.00     0.001 A 
ATOM     74  C   UNL     1     -11.240  -0.326   2.286  1.00  0.00     0.001 A 
ATOM     75  C   UNL     1     -12.539   0.153   2.126  1.00  0.00     0.000 A 
ENDBRANCH  51  70
BRANCH  63  76
ATOM     76  C   UNL     1     -13.786  -8.854   2.390  1.00  0.00    -0.014 A 
ATOM     77  C   UNL     1     -13.273  -9.017   1.095  1.00  0.00     0.009 A 
ATOM     78  C   UNL     1     -15.049  -9.387   2.695  1.00  0.00     0.009 A 
ATOM     79  C   UNL     1     -14.021  -9.679   0.119  1.00  0.00     0.001 A 
ATOM     80  C   UNL     1     -15.780 -10.075   1.727  1.00  0.00     0.001 A 
ATOM     81  C   UNL     1     -15.270 -10.213   0.438  1.00  0.00     0.000 A 
ENDBRANCH  63  76
ENDBRANCH  37  38
ENDBRANCH  29  32
ENDBRANCH  27  28
ENDBRANCH  26  27
ENDBRANCH  25  26
ENDBRANCH  24  25
ENDBRANCH   1  24
TORSDOF 18
