REMARK SMILES COCCCC(=O)N[C@H]1CC[C@@H](C(=O)NCCCCCCNC(=O)c2ccc(-c3c4nc(c(-c5ccccc5)c5ccc([nH]5)c(-c5ccccc5)c5nc(c(-c6ccccc6)c6ccc3[nH]6)C=C5)C=C4)cc2)CC1
REMARK SMILES IDX 17 1 16 2 15 3 13 4 14 5 12 7 9 8 10 9 74 10 11 11 73 12
REMARK SMILES IDX 8 13 6 14 7 15 5 17 4 18 3 19 2 20 1 21 18 22 19 23 20 24
REMARK SMILES IDX 21 25 22 26 23 27 24 29 25 30 26 31 72 32 27 33 71 34 28 35
REMARK SMILES IDX 29 36 30 37 65 38 31 39 70 40 64 41 66 42 32 43 69 44 63 45
REMARK SMILES IDX 62 46 33 48 55 49 40 50 54 51 41 52 44 53 53 54 67 55 42 56
REMARK SMILES IDX 43 57 52 59 68 60 45 61 34 62 35 63 39 64 36 65 38 66 37 67
REMARK SMILES IDX 56 68 57 69 61 70 58 71 60 72 59 73 46 74 47 75 51 76 48 77
REMARK SMILES IDX 50 78 49 79
REMARK H PARENT 15 6 8 16 22 28 66 47 44 58
REMARK Flexibility Score: inf
ROOT
ATOM      1  C   UNL     1       0.734   0.304   2.308  1.00  0.00     0.021 C 
ENDROOT
BRANCH   1   2
ATOM      2  C   UNL     1       1.425  -0.840   1.567  1.00  0.00     0.116 C 
BRANCH   2   3
ATOM      3  N   UNL     1       0.483  -1.738   0.934  1.00  0.00    -0.356 N 
ATOM      4  C   UNL     1       0.439  -2.321  -0.288  1.00  0.00     0.223 C 
ATOM      5  O   UNL     1      -0.567  -3.008  -0.511  1.00  0.00    -0.275 OA
ATOM      6  H   UNL     1      -0.281  -1.972   1.508  1.00  0.00     0.163 HD
BRANCH   4   7
ATOM      7  C   UNL     1       1.474  -2.143  -1.416  1.00  0.00     0.078 C 
ATOM      8  C   UNL     1       2.997   0.455  -1.655  1.00  0.00     0.082 C 
ATOM      9  C   UNL     1       3.659  -0.754  -0.962  1.00  0.00     0.026 C 
ATOM     10  C   UNL     1       1.514   0.312  -1.940  1.00  0.00     0.026 C 
ATOM     11  C   UNL     1       2.966  -2.120  -1.090  1.00  0.00     0.015 C 
ATOM     12  C   UNL     1       1.090  -1.059  -2.416  1.00  0.00     0.015 C 
BRANCH   8  13
ATOM     13  N   UNL     1       3.402   1.715  -0.994  1.00  0.00    -0.353 N 
ATOM     14  C   UNL     1       2.821   2.790  -0.401  1.00  0.00     0.220 C 
ATOM     15  O   UNL     1       3.589   3.685  -0.026  1.00  0.00    -0.275 OA
ATOM     16  H   UNL     1       4.382   1.799  -0.980  1.00  0.00     0.163 HD
BRANCH  14  17
ATOM     17  C   UNL     1       1.337   2.952  -0.142  1.00  0.00     0.102 C 
BRANCH  17  18
ATOM     18  C   UNL     1       0.607   3.815  -1.172  1.00  0.00     0.038 C 
BRANCH  18  19
ATOM     19  C   UNL     1      -0.621   3.146  -1.796  1.00  0.00     0.160 C 
BRANCH  19  20
ATOM     20  O   UNL     1      -1.590   2.842  -0.795  1.00  0.00    -0.385 OA
ATOM     21  C   UNL     1      -1.921   1.460  -0.725  1.00  0.00     0.194 C 
ENDBRANCH  19  20
ENDBRANCH  18  19
ENDBRANCH  17  18
ENDBRANCH  14  17
ENDBRANCH   8  13
ENDBRANCH   4   7
ENDBRANCH   2   3
ENDBRANCH   1   2
BRANCH   1  22
ATOM     22  C   UNL     1       0.799   0.255   3.833  1.00  0.00     0.002 C 
BRANCH  22  23
ATOM     23  C   UNL     1       2.199   0.369   4.450  1.00  0.00     0.002 C 
BRANCH  23  24
ATOM     24  C   UNL     1       3.098   1.502   3.938  1.00  0.00     0.021 C 
BRANCH  24  25
ATOM     25  C   UNL     1       2.505   2.910   3.972  1.00  0.00     0.116 C 
BRANCH  25  26
ATOM     26  N   UNL     1       2.150   3.336   5.315  1.00  0.00    -0.352 N 
ATOM     27  C   UNL     1       2.673   4.329   6.104  1.00  0.00     0.251 C 
ATOM     28  H   UNL     1       1.414   2.828   5.727  1.00  0.00     0.163 HD
ATOM     29  O   UNL     1       2.331   4.410   7.280  1.00  0.00    -0.269 OA
BRANCH  27  30
ATOM     30  C   UNL     1       3.656   5.297   5.567  1.00  0.00     0.039 A 
ATOM     31  C   UNL     1       4.767   5.623   6.354  1.00  0.00     0.014 A 
ATOM     32  C   UNL     1       3.462   5.939   4.341  1.00  0.00     0.014 A 
ATOM     33  C   UNL     1       5.706   6.550   5.892  1.00  0.00     0.010 A 
ATOM     34  C   UNL     1       4.426   6.825   3.857  1.00  0.00     0.010 A 
ATOM     35  C   UNL     1       5.553   7.144   4.631  1.00  0.00    -0.014 A 
BRANCH  35  36
ATOM     36  C   UNL     1       6.552   8.113   4.110  1.00  0.00     0.031 A 
ATOM     37  C   UNL     1       6.181   9.559   3.927  1.00  0.00     0.074 A 
ATOM     38  C   UNL     1       7.776   7.685   3.747  1.00  0.00     0.049 A 
ATOM     39  N   UNL     1       6.886  10.534   3.410  1.00  0.00    -0.248 NA
ATOM     40  C   UNL     1       4.835   9.957   4.368  1.00  0.00     0.031 C 
ATOM     41  C   UNL     1       8.260   6.308   3.856  1.00  0.00     0.029 A 
ATOM     42  N   UNL     1       8.834   8.367   3.198  1.00  0.00    -0.354 N 
ATOM     43  C   UNL     1       6.064  11.653   3.443  1.00  0.00     0.074 A 
ATOM     44  C   UNL     1       4.797  11.230   4.002  1.00  0.00     0.031 C 
ATOM     45  C   UNL     1       9.521   6.249   3.398  1.00  0.00     0.029 A 
ATOM     46  C   UNL     1       9.921   7.572   2.928  1.00  0.00     0.049 A 
ATOM     47  H   UNL     1       8.815   9.334   3.015  1.00  0.00     0.167 HD
ATOM     48  C   UNL     1       6.339  12.921   3.053  1.00  0.00     0.031 A 
ATOM     49  C   UNL     1      11.102   7.870   2.354  1.00  0.00     0.031 A 
ATOM     50  C   UNL     1       7.598  13.349   2.505  1.00  0.00     0.049 A 
ATOM     51  C   UNL     1      11.377   9.280   1.912  1.00  0.00     0.074 A 
ATOM     52  C   UNL     1       7.984  14.623   2.123  1.00  0.00     0.029 A 
ATOM     53  N   UNL     1       8.676  12.513   2.260  1.00  0.00    -0.354 N 
ATOM     54  N   UNL     1      10.606  10.336   1.995  1.00  0.00    -0.248 NA
ATOM     55  C   UNL     1      12.690   9.539   1.304  1.00  0.00     0.031 C 
ATOM     56  C   UNL     1       9.283  14.550   1.609  1.00  0.00     0.029 A 
ATOM     57  C   UNL     1       9.722  13.240   1.716  1.00  0.00     0.049 A 
ATOM     58  H   UNL     1       8.695  11.546   2.444  1.00  0.00     0.167 HD
ATOM     59  C   UNL     1      11.350  11.389   1.480  1.00  0.00     0.074 A 
ATOM     60  C   UNL     1      12.636  10.847   1.094  1.00  0.00     0.031 C 
ATOM     61  C   UNL     1      10.999  12.691   1.345  1.00  0.00     0.031 A 
BRANCH  48  62
ATOM     62  C   UNL     1       5.243  13.940   3.193  1.00  0.00    -0.014 A 
ATOM     63  C   UNL     1       4.857  14.422   4.454  1.00  0.00     0.009 A 
ATOM     64  C   UNL     1       4.615  14.452   2.047  1.00  0.00     0.009 A 
ATOM     65  C   UNL     1       3.838  15.371   4.566  1.00  0.00     0.001 A 
ATOM     66  C   UNL     1       3.615  15.419   2.161  1.00  0.00     0.001 A 
ATOM     67  C   UNL     1       3.221  15.871   3.419  1.00  0.00     0.000 A 
ENDBRANCH  48  62
BRANCH  49  68
ATOM     68  C   UNL     1      12.125   6.809   2.170  1.00  0.00    -0.014 A 
ATOM     69  C   UNL     1      13.283   6.794   2.962  1.00  0.00     0.009 A 
ATOM     70  C   UNL     1      11.951   5.809   1.201  1.00  0.00     0.009 A 
ATOM     71  C   UNL     1      14.258   5.813   2.771  1.00  0.00     0.001 A 
ATOM     72  C   UNL     1      12.916   4.815   1.029  1.00  0.00     0.001 A 
ATOM     73  C   UNL     1      14.072   4.822   1.808  1.00  0.00     0.000 A 
ENDBRANCH  49  68
BRANCH  61  74
ATOM     74  C   UNL     1      12.034  13.631   0.799  1.00  0.00    -0.014 A 
ATOM     75  C   UNL     1      12.363  13.643  -0.565  1.00  0.00     0.009 A 
ATOM     76  C   UNL     1      12.652  14.554   1.657  1.00  0.00     0.009 A 
ATOM     77  C   UNL     1      13.310  14.546  -1.054  1.00  0.00     0.001 A 
ATOM     78  C   UNL     1      13.580  15.471   1.162  1.00  0.00     0.001 A 
ATOM     79  C   UNL     1      13.913  15.461  -0.192  1.00  0.00     0.000 A 
ENDBRANCH  61  74
ENDBRANCH  35  36
ENDBRANCH  27  30
ENDBRANCH  25  26
ENDBRANCH  24  25
ENDBRANCH  23  24
ENDBRANCH  22  23
ENDBRANCH   1  22
TORSDOF 18
