REMARK SMILES CC(=O)NS(=O)(=O)c1ccc(-c2ccn(C(F)F)c(=O)c2)cc1C(=O)NCCCCCCNC(=O)c1ccc(-c2c3nc(c(-c4ccccc4)c4ccc([nH]4)c(-c4ccccc4)c4nc(c(-c5ccccc5)c5ccc2[nH]5)C=C4)C=C3)cc1
REMARK SMILES IDX 29 1 28 2 27 3 26 4 24 5 25 6 23 8 8 9 9 10 10 11 22 12
REMARK SMILES IDX 11 13 5 14 6 15 7 16 4 17 1 18 2 19 3 20 12 22 13 23 21 24
REMARK SMILES IDX 14 25 19 26 15 27 20 28 16 29 17 30 18 31 30 32 31 33 32 34
REMARK SMILES IDX 33 35 34 36 35 38 36 39 37 40 83 41 38 42 82 43 39 44 40 45
REMARK SMILES IDX 41 46 76 47 42 48 81 49 75 50 77 51 43 52 80 53 74 54 73 55
REMARK SMILES IDX 44 57 66 58 51 59 65 60 52 61 55 62 64 63 78 64 53 65 54 66
REMARK SMILES IDX 63 68 79 69 56 70 45 71 46 72 50 73 47 74 49 75 48 76 67 77
REMARK SMILES IDX 68 78 72 79 69 80 71 81 70 82 57 83 58 84 62 85 59 86 61 87
REMARK SMILES IDX 60 88
REMARK H PARENT 26 7 4 21 33 37 77 56 55 67
REMARK Flexibility Score: inf
ROOT
ATOM      1  C   UNL     1       4.179   5.008   2.562  1.00  0.00     0.002 C 
ENDROOT
BRANCH   1   2
ATOM      2  C   UNL     1       3.697   3.586   2.841  1.00  0.00     0.021 C 
BRANCH   2   3
ATOM      3  C   UNL     1       3.446   2.762   1.573  1.00  0.00     0.116 C 
BRANCH   3   4
ATOM      4  N   UNL     1       4.307   1.607   1.554  1.00  0.00    -0.352 N 
ATOM      5  C   UNL     1       4.273   0.272   1.789  1.00  0.00     0.252 C 
ATOM      6  O   UNL     1       5.412  -0.222   1.800  1.00  0.00    -0.269 OA
ATOM      7  H   UNL     1       5.215   1.873   1.282  1.00  0.00     0.163 HD
BRANCH   5   8
ATOM      8  C   UNL     1       3.140  -0.703   1.928  1.00  0.00     0.060 A 
ATOM      9  C   UNL     1       1.880  -0.678   2.545  1.00  0.00     0.100 A 
ATOM     10  C   UNL     1       1.160  -1.891   2.735  1.00  0.00     0.024 A 
ATOM     11  C   UNL     1       1.611  -3.109   2.251  1.00  0.00     0.010 A 
ATOM     12  C   UNL     1       3.532  -1.968   1.386  1.00  0.00     0.024 A 
ATOM     13  C   UNL     1       2.790  -3.148   1.530  1.00  0.00    -0.017 A 
BRANCH   9  14
ATOM     14  S   UNL     1       1.051   0.707   3.244  1.00  0.00     0.264 S 
ATOM     15  O   UNL     1       2.036   1.483   3.954  1.00  0.00    -0.201 OA
ATOM     16  O   UNL     1      -0.111   0.231   3.969  1.00  0.00    -0.201 OA
BRANCH  14  17
ATOM     17  N   UNL     1       0.426   1.635   2.029  1.00  0.00    -0.249 N 
ATOM     18  C   UNL     1       0.340   0.134  -0.005  1.00  0.00     0.115 C 
ATOM     19  C   UNL     1       0.097   1.441   0.680  1.00  0.00     0.230 C 
ATOM     20  O   UNL     1      -0.308   2.413   0.054  1.00  0.00    -0.274 OA
ATOM     21  H   UNL     1       0.239   2.555   2.326  1.00  0.00     0.183 HD
ENDBRANCH  14  17
ENDBRANCH   9  14
BRANCH  13  22
ATOM     22  C   UNL     1       3.243  -4.412   0.934  1.00  0.00    -0.011 A 
ATOM     23  C   UNL     1       4.427  -5.124   1.367  1.00  0.00     0.027 A 
ATOM     24  C   UNL     1       2.495  -4.918  -0.060  1.00  0.00     0.080 A 
ATOM     25  C   UNL     1       4.767  -6.281   0.785  1.00  0.00     0.095 A 
ATOM     26  C   UNL     1       2.859  -6.200  -0.715  1.00  0.00     0.255 A 
ATOM     27  N   UNL     1       4.003  -6.817  -0.236  1.00  0.00    -0.258 N 
ATOM     28  O   UNL     1       2.136  -6.618  -1.613  1.00  0.00    -0.269 OA
BRANCH  27  29
ATOM     29  C   UNL     1       4.380  -8.054  -0.867  1.00  0.00     0.451 C 
ATOM     30  F   UNL     1       3.394  -8.978  -0.755  1.00  0.00    -0.185 F 
ATOM     31  F   UNL     1       4.631  -7.866  -2.186  1.00  0.00    -0.185 F 
ENDBRANCH  27  29
ENDBRANCH  13  22
ENDBRANCH   5   8
ENDBRANCH   3   4
ENDBRANCH   2   3
ENDBRANCH   1   2
BRANCH   1  32
ATOM     32  C   UNL     1       3.141   5.888   1.862  1.00  0.00     0.002 C 
BRANCH  32  33
ATOM     33  C   UNL     1       1.795   6.013   2.583  1.00  0.00     0.021 C 
BRANCH  33  34
ATOM     34  C   UNL     1       1.887   6.463   4.040  1.00  0.00     0.116 C 
BRANCH  34  35
ATOM     35  N   UNL     1       2.575   7.738   4.166  1.00  0.00    -0.352 N 
ATOM     36  C   UNL     1       2.104   8.949   4.600  1.00  0.00     0.251 C 
ATOM     37  H   UNL     1       3.523   7.729   3.899  1.00  0.00     0.163 HD
ATOM     38  O   UNL     1       2.751   9.972   4.396  1.00  0.00    -0.269 OA
BRANCH  36  39
ATOM     39  C   UNL     1       0.814   9.025   5.313  1.00  0.00     0.039 A 
ATOM     40  C   UNL     1      -0.072  10.060   5.002  1.00  0.00     0.014 A 
ATOM     41  C   UNL     1       0.494   8.101   6.312  1.00  0.00     0.014 A 
ATOM     42  C   UNL     1      -1.300  10.138   5.659  1.00  0.00     0.010 A 
ATOM     43  C   UNL     1      -0.760   8.136   6.912  1.00  0.00     0.010 A 
ATOM     44  C   UNL     1      -1.665   9.161   6.600  1.00  0.00    -0.014 A 
BRANCH  44  45
ATOM     45  C   UNL     1      -2.988   9.198   7.271  1.00  0.00     0.031 A 
ATOM     46  C   UNL     1      -3.077   9.400   8.758  1.00  0.00     0.074 A 
ATOM     47  C   UNL     1      -4.105   8.992   6.547  1.00  0.00     0.049 A 
ATOM     48  N   UNL     1      -4.137   9.415   9.526  1.00  0.00    -0.248 NA
ATOM     49  C   UNL     1      -1.809   9.586   9.481  1.00  0.00     0.031 C 
ATOM     50  C   UNL     1      -4.147   8.747   5.104  1.00  0.00     0.029 A 
ATOM     51  N   UNL     1      -5.421   8.948   6.931  1.00  0.00    -0.354 N 
ATOM     52  C   UNL     1      -3.662   9.594  10.820  1.00  0.00     0.074 A 
ATOM     53  C   UNL     1      -2.219   9.630  10.739  1.00  0.00     0.031 C 
ATOM     54  C   UNL     1      -5.426   8.608   4.720  1.00  0.00     0.029 A 
ATOM     55  C   UNL     1      -6.288   8.710   5.892  1.00  0.00     0.049 A 
ATOM     56  H   UNL     1      -5.716   9.076   7.861  1.00  0.00     0.167 HD
ATOM     57  C   UNL     1      -4.365   9.733  11.969  1.00  0.00     0.031 A 
ATOM     58  C   UNL     1      -7.628   8.580   5.886  1.00  0.00     0.031 A 
ATOM     59  C   UNL     1      -5.801   9.699  12.046  1.00  0.00     0.049 A 
ATOM     60  C   UNL     1      -8.384   8.716   7.178  1.00  0.00     0.074 A 
ATOM     61  C   UNL     1      -6.610   9.886  13.154  1.00  0.00     0.029 A 
ATOM     62  N   UNL     1      -6.643   9.455  10.972  1.00  0.00    -0.354 N 
ATOM     63  N   UNL     1      -7.925   8.957   8.382  1.00  0.00    -0.248 NA
ATOM     64  C   UNL     1      -9.845   8.575   7.106  1.00  0.00     0.031 C 
ATOM     65  C   UNL     1      -7.939   9.695  12.760  1.00  0.00     0.029 A 
ATOM     66  C   UNL     1      -7.962   9.456  11.396  1.00  0.00     0.049 A 
ATOM     67  H   UNL     1      -6.347   9.303  10.045  1.00  0.00     0.167 HD
ATOM     68  C   UNL     1      -9.041   9.024   9.206  1.00  0.00     0.074 A 
ATOM     69  C   UNL     1     -10.199   8.816   8.360  1.00  0.00     0.031 C 
ATOM     70  C   UNL     1      -9.102   9.242  10.542  1.00  0.00     0.031 A 
BRANCH  57  71
ATOM     71  C   UNL     1      -3.582   9.922  13.241  1.00  0.00    -0.014 A 
ATOM     72  C   UNL     1      -2.855  11.099  13.484  1.00  0.00     0.009 A 
ATOM     73  C   UNL     1      -3.593   8.919  14.222  1.00  0.00     0.009 A 
ATOM     74  C   UNL     1      -2.122  11.249  14.663  1.00  0.00     0.001 A 
ATOM     75  C   UNL     1      -2.886   9.085  15.415  1.00  0.00     0.001 A 
ATOM     76  C   UNL     1      -2.142  10.244  15.629  1.00  0.00     0.000 A 
ENDBRANCH  57  71
BRANCH  58  77
ATOM     77  C   UNL     1      -8.342   8.319   4.609  1.00  0.00    -0.014 A 
ATOM     78  C   UNL     1      -9.155   9.307   4.032  1.00  0.00     0.009 A 
ATOM     79  C   UNL     1      -8.216   7.081   3.958  1.00  0.00     0.009 A 
ATOM     80  C   UNL     1      -9.846   9.052   2.845  1.00  0.00     0.001 A 
ATOM     81  C   UNL     1      -8.883   6.840   2.756  1.00  0.00     0.001 A 
ATOM     82  C   UNL     1      -9.705   7.822   2.205  1.00  0.00     0.000 A 
ENDBRANCH  58  77
BRANCH  70  83
ATOM     83  C   UNL     1     -10.469   9.300  11.167  1.00  0.00    -0.014 A 
ATOM     84  C   UNL     1     -11.255   8.148  11.316  1.00  0.00     0.009 A 
ATOM     85  C   UNL     1     -10.957  10.524  11.651  1.00  0.00     0.009 A 
ATOM     86  C   UNL     1     -12.519   8.227  11.905  1.00  0.00     0.001 A 
ATOM     87  C   UNL     1     -12.207  10.595  12.268  1.00  0.00     0.001 A 
ATOM     88  C   UNL     1     -12.991   9.449  12.385  1.00  0.00     0.000 A 
ENDBRANCH  70  83
ENDBRANCH  44  45
ENDBRANCH  36  39
ENDBRANCH  34  35
ENDBRANCH  33  34
ENDBRANCH  32  33
ENDBRANCH   1  32
TORSDOF 17
