REMARK SMILES O=C(NCCCCCCNC(=O)c1cc(Cl)cc(Cl)c1NC(=S)NC(=O)c1cccc2ccccc12)c1ccc(-c2c3nc(c(-c4ccccc4)c4ccc([nH]4)c(-c4ccccc4)c4nc(c(-c5ccccc5)c5ccc2[nH]5)C=C4)C=C3)cc1
REMARK SMILES IDX 7 1 6 2 5 3 4 4 3 5 1 6 2 7 37 9 38 10 84 11 39 12 83 13
REMARK SMILES IDX 40 14 41 15 42 16 77 17 43 18 82 19 76 20 78 21 44 22 81 23
REMARK SMILES IDX 75 24 74 25 45 27 67 28 52 29 66 30 53 31 56 32 65 33 79 34
REMARK SMILES IDX 54 35 55 36 64 38 80 39 57 40 46 41 47 42 51 43 48 44 50 45
REMARK SMILES IDX 49 46 68 47 69 48 73 49 70 50 72 51 71 52 58 53 59 54 63 55
REMARK SMILES IDX 60 56 62 57 61 58 8 59 9 60 10 61 11 62 12 64 13 65 14 66
REMARK SMILES IDX 20 67 15 68 18 69 16 70 17 71 19 72 21 73 22 75 23 76 24 77
REMARK SMILES IDX 25 78 26 80 27 81 28 82 36 83 29 84 31 85 35 86 30 87 32 88
REMARK SMILES IDX 34 89 33 90
REMARK H PARENT 3 8 78 26 56 37 10 63 21 74 24 79
REMARK Flexibility Score: inf
ROOT
ATOM      1  C   UNL     1       4.605  -4.499  -0.041  1.00  0.00     0.002 C 
ENDROOT
BRANCH   1   2
ATOM      2  C   UNL     1       4.130  -3.856   1.266  1.00  0.00     0.002 C 
BRANCH   2   3
ATOM      3  C   UNL     1       4.650  -2.449   1.574  1.00  0.00     0.021 C 
BRANCH   3   4
ATOM      4  C   UNL     1       4.442  -1.396   0.490  1.00  0.00     0.116 C 
BRANCH   4   5
ATOM      5  N   UNL     1       3.045  -1.137   0.205  1.00  0.00    -0.352 N 
ATOM      6  O   UNL     1       1.183   0.073  -0.150  1.00  0.00    -0.269 OA
ATOM      7  C   UNL     1       2.404   0.057  -0.019  1.00  0.00     0.251 C 
ATOM      8  H   UNL     1       2.469  -1.935   0.166  1.00  0.00     0.163 HD
BRANCH   7   9
ATOM      9  C   UNL     1       3.158   1.334  -0.071  1.00  0.00     0.039 A 
ATOM     10  C   UNL     1       4.365   1.455  -0.766  1.00  0.00     0.014 A 
ATOM     11  C   UNL     1       2.604   2.458   0.555  1.00  0.00     0.014 A 
ATOM     12  C   UNL     1       5.061   2.665  -0.752  1.00  0.00     0.010 A 
ATOM     13  C   UNL     1       3.277   3.683   0.528  1.00  0.00     0.010 A 
ATOM     14  C   UNL     1       4.523   3.789  -0.105  1.00  0.00    -0.014 A 
BRANCH  14  15
ATOM     15  C   UNL     1       5.253   5.080  -0.137  1.00  0.00     0.031 A 
ATOM     16  C   UNL     1       5.922   5.621   1.094  1.00  0.00     0.074 A 
ATOM     17  C   UNL     1       5.328   5.764  -1.294  1.00  0.00     0.049 A 
ATOM     18  N   UNL     1       6.636   6.711   1.229  1.00  0.00    -0.248 NA
ATOM     19  C   UNL     1       5.769   4.844   2.333  1.00  0.00     0.031 C 
ATOM     20  C   UNL     1       4.712   5.358  -2.558  1.00  0.00     0.029 A 
ATOM     21  N   UNL     1       5.970   6.938  -1.595  1.00  0.00    -0.354 N 
ATOM     22  C   UNL     1       7.005   6.760   2.567  1.00  0.00     0.074 A 
ATOM     23  C   UNL     1       6.427   5.596   3.206  1.00  0.00     0.031 C 
ATOM     24  C   UNL     1       5.038   6.249  -3.509  1.00  0.00     0.029 A 
ATOM     25  C   UNL     1       5.860   7.298  -2.914  1.00  0.00     0.049 A 
ATOM     26  H   UNL     1       6.462   7.471  -0.929  1.00  0.00     0.167 HD
ATOM     27  C   UNL     1       7.758   7.686   3.206  1.00  0.00     0.031 A 
ATOM     28  C   UNL     1       6.367   8.354  -3.577  1.00  0.00     0.031 A 
ATOM     29  C   UNL     1       8.347   8.840   2.583  1.00  0.00     0.049 A 
ATOM     30  C   UNL     1       7.196   9.365  -2.846  1.00  0.00     0.074 A 
ATOM     31  C   UNL     1       9.158   9.808   3.150  1.00  0.00     0.029 A 
ATOM     32  N   UNL     1       8.187   9.183   1.251  1.00  0.00    -0.354 N 
ATOM     33  N   UNL     1       7.559   9.376  -1.588  1.00  0.00    -0.248 NA
ATOM     34  C   UNL     1       7.681  10.511  -3.629  1.00  0.00     0.031 C 
ATOM     35  C   UNL     1       9.471  10.752   2.164  1.00  0.00     0.029 A 
ATOM     36  C   UNL     1       8.869  10.357   0.981  1.00  0.00     0.049 A 
ATOM     37  H   UNL     1       7.664   8.668   0.594  1.00  0.00     0.167 HD
ATOM     38  C   UNL     1       8.315  10.528  -1.426  1.00  0.00     0.074 A 
ATOM     39  C   UNL     1       8.371  11.183  -2.717  1.00  0.00     0.031 C 
ATOM     40  C   UNL     1       8.906  11.002  -0.303  1.00  0.00     0.031 A 
BRANCH  27  41
ATOM     41  C   UNL     1       7.980   7.490   4.676  1.00  0.00    -0.014 A 
ATOM     42  C   UNL     1       8.964   6.606   5.142  1.00  0.00     0.009 A 
ATOM     43  C   UNL     1       7.222   8.225   5.601  1.00  0.00     0.009 A 
ATOM     44  C   UNL     1       9.173   6.447   6.514  1.00  0.00     0.001 A 
ATOM     45  C   UNL     1       7.441   8.071   6.971  1.00  0.00     0.001 A 
ATOM     46  C   UNL     1       8.413   7.180   7.426  1.00  0.00     0.000 A 
ENDBRANCH  27  41
BRANCH  28  47
ATOM     47  C   UNL     1       6.106   8.497  -5.028  1.00  0.00    -0.014 A 
ATOM     48  C   UNL     1       7.087   8.125  -5.960  1.00  0.00     0.009 A 
ATOM     49  C   UNL     1       4.871   8.981  -5.485  1.00  0.00     0.009 A 
ATOM     50  C   UNL     1       6.836   8.243  -7.328  1.00  0.00     0.001 A 
ATOM     51  C   UNL     1       4.620   9.085  -6.854  1.00  0.00     0.001 A 
ATOM     52  C   UNL     1       5.603   8.719  -7.774  1.00  0.00     0.000 A 
ENDBRANCH  28  47
BRANCH  40  53
ATOM     53  C   UNL     1       9.660  12.290  -0.429  1.00  0.00    -0.014 A 
ATOM     54  C   UNL     1       8.982  13.518  -0.397  1.00  0.00     0.009 A 
ATOM     55  C   UNL     1      11.056  12.278  -0.560  1.00  0.00     0.009 A 
ATOM     56  C   UNL     1       9.691  14.715  -0.516  1.00  0.00     0.001 A 
ATOM     57  C   UNL     1      11.762  13.477  -0.668  1.00  0.00     0.001 A 
ATOM     58  C   UNL     1      11.079  14.693  -0.651  1.00  0.00     0.000 A 
ENDBRANCH  40  53
ENDBRANCH  14  15
ENDBRANCH   7   9
ENDBRANCH   4   5
ENDBRANCH   3   4
ENDBRANCH   2   3
ENDBRANCH   1   2
BRANCH   1  59
ATOM     59  C   UNL     1       6.114  -4.486  -0.307  1.00  0.00     0.021 C 
BRANCH  59  60
ATOM     60  C   UNL     1       6.995  -5.010   0.822  1.00  0.00     0.116 C 
BRANCH  60  61
ATOM     61  N   UNL     1       6.835  -6.428   1.063  1.00  0.00    -0.352 N 
ATOM     62  C   UNL     1       7.724  -7.451   1.333  1.00  0.00     0.253 C 
ATOM     63  H   UNL     1       5.898  -6.726   1.027  1.00  0.00     0.163 HD
ATOM     64  O   UNL     1       7.224  -8.570   1.498  1.00  0.00    -0.269 OA
BRANCH  62  65
ATOM     65  C   UNL     1       9.493  -7.261   1.233  1.00  0.00     0.066 A 
ATOM     66  C   UNL     1      10.850  -7.000   2.750  1.00  0.00     0.036 A 
ATOM     67  C   UNL     1       9.426  -7.537  -0.030  1.00  0.00     0.072 A 
ATOM     68  C   UNL     1      12.080  -7.033   3.136  1.00  0.00     0.043 A 
ATOM     69  C   UNL     1      10.236  -6.728   0.560  1.00  0.00     0.066 A 
ATOM     70  Cl  UNL     1      12.850  -6.368   4.480  1.00  0.00    -0.084 Cl
ATOM     71  C   UNL     1      11.536  -6.474   2.119  1.00  0.00     0.043 A 
ATOM     72  Cl  UNL     1       9.918  -5.446  -1.114  1.00  0.00    -0.082 Cl
BRANCH  67  73
ATOM     73  N   UNL     1       9.423  -8.849  -0.541  1.00  0.00    -0.330 N 
ATOM     74  H   UNL     1       8.522  -9.245  -0.536  1.00  0.00     0.169 HD
BRANCH  73  75
ATOM     75  C   UNL     1      10.348  -9.702  -1.036  1.00  0.00     0.177 C 
ATOM     76  S   UNL     1       9.787 -11.045  -1.868  1.00  0.00    -0.040 S 
BRANCH  75  77
ATOM     77  N   UNL     1      11.698  -9.559  -0.926  1.00  0.00    -0.299 N 
ATOM     78  C   UNL     1      12.524  -8.706  -0.229  1.00  0.00     0.258 C 
ATOM     79  H   UNL     1      12.195 -10.214  -1.468  1.00  0.00     0.172 HD
ATOM     80  O   UNL     1      13.723  -8.590  -0.433  1.00  0.00    -0.269 OA
BRANCH  78  81
ATOM     81  C   UNL     1      11.849  -7.886   0.755  1.00  0.00     0.048 A 
ATOM     82  C   UNL     1      10.598  -8.788   1.969  1.00  0.00     0.014 A 
ATOM     83  C   UNL     1      11.931  -5.931   0.404  1.00  0.00    -0.006 A 
ATOM     84  C   UNL     1       9.228  -7.822   3.007  1.00  0.00     0.001 A 
ATOM     85  C   UNL     1      10.533  -4.946   1.434  1.00  0.00    -0.018 A 
ATOM     86  C   UNL     1      12.821  -5.129  -0.338  1.00  0.00     0.009 A 
ATOM     87  C   UNL     1       9.270  -5.860   2.640  1.00  0.00     0.009 A 
ATOM     88  C   UNL     1      10.637  -3.562   1.291  1.00  0.00     0.009 A 
ATOM     89  C   UNL     1      12.670  -3.728  -0.269  1.00  0.00     0.001 A 
ATOM     90  C   UNL     1      11.664  -3.010   0.481  1.00  0.00     0.001 A 
ENDBRANCH  78  81
ENDBRANCH  75  77
ENDBRANCH  73  75
ENDBRANCH  67  73
ENDBRANCH  62  65
ENDBRANCH  60  61
ENDBRANCH  59  60
ENDBRANCH   1  59
TORSDOF 17
