REMARK SMILES Cc1cc(C(=O)N[C@](C)(C(=O)NCCCCCCNC(=O)c2ccc(-c3c4nc(c(-c5ccccc5)c5ccc([nH]5)c(-c5ccccc5)c5nc(c(-c6ccccc6)c6ccc3[nH]6)C=C5)C=C4)cc2)C(F)(F)F)no1
REMARK SMILES IDX 15 1 14 2 13 3 12 4 10 5 11 6 8 8 9 9 7 10 5 11 6 12 4 14
REMARK SMILES IDX 1 15 2 16 3 17 75 18 74 19 70 20 71 21 72 22 73 23 16 24
REMARK SMILES IDX 17 25 18 26 19 27 20 28 21 30 22 31 23 32 69 33 24 34 68 35
REMARK SMILES IDX 25 36 26 37 27 38 62 39 28 40 67 41 61 42 63 43 29 44 66 45
REMARK SMILES IDX 60 46 59 47 30 49 52 50 37 51 51 52 38 53 41 54 50 55 64 56
REMARK SMILES IDX 39 57 40 58 49 60 65 61 42 62 31 63 32 64 36 65 33 66 35 67
REMARK SMILES IDX 34 68 53 69 54 70 58 71 55 72 57 73 56 74 43 75 44 76 48 77
REMARK SMILES IDX 45 78 47 79 46 80
REMARK H PARENT 12 7 7 13 19 29 63 48 41 59
REMARK Flexibility Score: inf
ROOT
ATOM      1  C   UNL     1      -4.868  -6.725  -2.433  1.00  0.00     0.002 C 
ENDROOT
BRANCH   1   2
ATOM      2  C   UNL     1      -5.010  -5.631  -1.367  1.00  0.00     0.021 C 
BRANCH   2   3
ATOM      3  C   UNL     1      -3.704  -5.279  -0.660  1.00  0.00     0.116 C 
BRANCH   3   4
ATOM      4  N   UNL     1      -2.807  -4.579  -1.563  1.00  0.00    -0.354 N 
ATOM      5  C   UNL     1      -1.711  -3.808  -1.312  1.00  0.00     0.254 C 
ATOM      6  O   UNL     1      -1.174  -3.300  -2.299  1.00  0.00    -0.272 OA
ATOM      7  H   UNL     1      -3.028  -4.678  -2.518  1.00  0.00     0.163 HD
BRANCH   5   8
ATOM      8  C   UNL     1      -1.256  -3.499   0.122  1.00  0.00     0.212 C 
ATOM      9  C   UNL     1      -2.300  -2.513   0.714  1.00  0.00     0.056 C 
BRANCH   8  10
ATOM     10  N   UNL     1      -1.177  -4.693   1.034  1.00  0.00    -0.329 N 
ATOM     11  C   UNL     1      -0.439  -5.859   0.935  1.00  0.00     0.274 C 
ATOM     12  O   UNL     1       0.004  -6.312   1.991  1.00  0.00    -0.267 OA
ATOM     13  H   UNL     1      -1.746  -4.634   1.836  1.00  0.00     0.165 HD
BRANCH  11  14
ATOM     14  C   UNL     1      -0.412  -6.618  -0.315  1.00  0.00     0.171 A 
ATOM     15  C   UNL     1      -0.795  -7.393  -3.869  1.00  0.00     0.091 C 
ATOM     16  C   UNL     1      -0.553  -7.247  -2.423  1.00  0.00     0.134 A 
ATOM     17  C   UNL     1      -0.028  -6.255  -1.631  1.00  0.00     0.082 A 
ATOM     18  O   UNL     1      -0.990  -8.258  -1.633  1.00  0.00    -0.361 OA
ATOM     19  N   UNL     1      -0.897  -7.874  -0.312  1.00  0.00    -0.074 NA
ENDBRANCH  11  14
ENDBRANCH   8  10
BRANCH   8  20
ATOM     20  C   UNL     1       0.103  -2.765   0.052  1.00  0.00     0.420 C 
ATOM     21  F   UNL     1       0.062  -1.619  -0.658  1.00  0.00    -0.168 F 
ATOM     22  F   UNL     1       0.492  -2.422   1.311  1.00  0.00    -0.168 F 
ATOM     23  F   UNL     1       1.081  -3.549  -0.454  1.00  0.00    -0.168 F 
ENDBRANCH   8  20
ENDBRANCH   5   8
ENDBRANCH   3   4
ENDBRANCH   2   3
ENDBRANCH   1   2
BRANCH   1  24
ATOM     24  C   UNL     1      -4.470  -8.104  -1.900  1.00  0.00     0.002 C 
BRANCH  24  25
ATOM     25  C   UNL     1      -5.370  -8.676  -0.808  1.00  0.00     0.021 C 
BRANCH  25  26
ATOM     26  C   UNL     1      -6.851  -8.694  -1.152  1.00  0.00     0.116 C 
BRANCH  26  27
ATOM     27  N   UNL     1      -7.150  -9.494  -2.329  1.00  0.00    -0.352 N 
ATOM     28  C   UNL     1      -8.210 -10.341  -2.533  1.00  0.00     0.251 C 
ATOM     29  H   UNL     1      -6.511  -9.417  -3.075  1.00  0.00     0.163 HD
ATOM     30  O   UNL     1      -8.271 -11.045  -3.537  1.00  0.00    -0.269 OA
BRANCH  28  31
ATOM     31  C   UNL     1      -9.265 -10.423  -1.503  1.00  0.00     0.039 A 
ATOM     32  C   UNL     1      -9.645 -11.677  -1.023  1.00  0.00     0.014 A 
ATOM     33  C   UNL     1      -9.832  -9.258  -0.978  1.00  0.00     0.014 A 
ATOM     34  C   UNL     1     -10.553 -11.761   0.033  1.00  0.00     0.010 A 
ATOM     35  C   UNL     1     -10.674  -9.341   0.125  1.00  0.00     0.010 A 
ATOM     36  C   UNL     1     -11.047 -10.593   0.637  1.00  0.00    -0.014 A 
BRANCH  36  37
ATOM     37  C   UNL     1     -11.967 -10.658   1.799  1.00  0.00     0.031 A 
ATOM     38  C   UNL     1     -13.368 -10.124   1.675  1.00  0.00     0.074 A 
ATOM     39  C   UNL     1     -11.528 -11.143   2.976  1.00  0.00     0.049 A 
ATOM     40  N   UNL     1     -14.301 -10.035   2.589  1.00  0.00    -0.248 NA
ATOM     41  C   UNL     1     -13.764  -9.595   0.359  1.00  0.00     0.031 C 
ATOM     42  C   UNL     1     -10.180 -11.657   3.235  1.00  0.00     0.029 A 
ATOM     43  N   UNL     1     -12.171 -11.281   4.180  1.00  0.00    -0.354 N 
ATOM     44  C   UNL     1     -15.383  -9.431   1.963  1.00  0.00     0.074 A 
ATOM     45  C   UNL     1     -14.975  -9.122   0.611  1.00  0.00     0.031 C 
ATOM     46  C   UNL     1     -10.110 -12.084   4.506  1.00  0.00     0.029 A 
ATOM     47  C   UNL     1     -11.389 -11.837   5.163  1.00  0.00     0.049 A 
ATOM     48  H   UNL     1     -13.106 -11.007   4.326  1.00  0.00     0.167 HD
ATOM     49  C   UNL     1     -16.617  -9.178   2.459  1.00  0.00     0.031 A 
ATOM     50  C   UNL     1     -11.671 -12.113   6.450  1.00  0.00     0.031 A 
ATOM     51  C   UNL     1     -17.029  -9.498   3.799  1.00  0.00     0.049 A 
ATOM     52  C   UNL     1     -13.043 -11.803   6.982  1.00  0.00     0.074 A 
ATOM     53  C   UNL     1     -18.271  -9.324   4.384  1.00  0.00     0.029 A 
ATOM     54  N   UNL     1     -16.207 -10.064   4.761  1.00  0.00    -0.354 N 
ATOM     55  N   UNL     1     -14.074 -11.285   6.359  1.00  0.00    -0.248 NA
ATOM     56  C   UNL     1     -13.292 -12.126   8.394  1.00  0.00     0.031 C 
ATOM     57  C   UNL     1     -18.188  -9.742   5.716  1.00  0.00     0.029 A 
ATOM     58  C   UNL     1     -16.910 -10.227   5.942  1.00  0.00     0.049 A 
ATOM     59  H   UNL     1     -15.265 -10.312   4.625  1.00  0.00     0.167 HD
ATOM     60  C   UNL     1     -15.102 -11.251   7.293  1.00  0.00     0.074 A 
ATOM     61  C   UNL     1     -14.574 -11.815   8.519  1.00  0.00     0.031 C 
ATOM     62  C   UNL     1     -16.370 -10.796   7.149  1.00  0.00     0.031 A 
BRANCH  49  63
ATOM     63  C   UNL     1     -17.611  -8.523   1.541  1.00  0.00    -0.014 A 
ATOM     64  C   UNL     1     -18.160  -9.220   0.452  1.00  0.00     0.009 A 
ATOM     65  C   UNL     1     -18.031  -7.207   1.786  1.00  0.00     0.009 A 
ATOM     66  C   UNL     1     -19.082  -8.599  -0.393  1.00  0.00     0.001 A 
ATOM     67  C   UNL     1     -18.976  -6.599   0.958  1.00  0.00     0.001 A 
ATOM     68  C   UNL     1     -19.493  -7.292  -0.136  1.00  0.00     0.000 A 
ENDBRANCH  49  63
BRANCH  50  69
ATOM     69  C   UNL     1     -10.644 -12.732   7.329  1.00  0.00    -0.014 A 
ATOM     70  C   UNL     1     -10.794 -14.055   7.774  1.00  0.00     0.009 A 
ATOM     71  C   UNL     1      -9.522 -12.000   7.747  1.00  0.00     0.009 A 
ATOM     72  C   UNL     1      -9.861 -14.620   8.647  1.00  0.00     0.001 A 
ATOM     73  C   UNL     1      -8.575 -12.577   8.596  1.00  0.00     0.001 A 
ATOM     74  C   UNL     1      -8.751 -13.882   9.055  1.00  0.00     0.000 A 
ENDBRANCH  50  69
BRANCH  62  75
ATOM     75  C   UNL     1     -17.285 -10.927   8.333  1.00  0.00    -0.014 A 
ATOM     76  C   UNL     1     -17.137 -10.111   9.465  1.00  0.00     0.009 A 
ATOM     77  C   UNL     1     -18.337 -11.856   8.295  1.00  0.00     0.009 A 
ATOM     78  C   UNL     1     -18.005 -10.248  10.550  1.00  0.00     0.001 A 
ATOM     79  C   UNL     1     -19.220 -11.970   9.368  1.00  0.00     0.001 A 
ATOM     80  C   UNL     1     -19.048 -11.173  10.499  1.00  0.00     0.000 A 
ENDBRANCH  62  75
ENDBRANCH  36  37
ENDBRANCH  28  31
ENDBRANCH  26  27
ENDBRANCH  25  26
ENDBRANCH  24  25
ENDBRANCH   1  24
TORSDOF 16
