REMARK SMILES CCc1cc(C(=O)N2CCO[C@@H](CC(=O)NCCCCCCNC(=O)c3ccc(-c4c5nc(c(-c6ccccc6)c6ccc([nH]6)c(-c6ccccc6)c6nc(c(-c7ccccc7)c7ccc4[nH]7)C=C6)C=C5)cc3)C2)sc1C
REMARK SMILES IDX 18 1 17 2 16 3 14 4 15 5 13 7 12 8 8 9 9 10 74 11 10 12
REMARK SMILES IDX 11 13 6 14 7 15 5 16 3 17 4 18 76 19 75 20 77 21 2 22 1 23
REMARK SMILES IDX 19 24 20 25 21 26 22 27 23 28 24 29 25 31 26 32 27 33 73 34
REMARK SMILES IDX 28 35 72 36 29 37 30 38 31 39 66 40 32 41 71 42 65 43 67 44
REMARK SMILES IDX 33 45 70 46 64 47 63 48 34 50 56 51 41 52 55 53 42 54 45 55
REMARK SMILES IDX 54 56 68 57 43 58 44 59 53 61 69 62 46 63 35 64 36 65 40 66
REMARK SMILES IDX 37 67 39 68 38 69 57 70 58 71 62 72 59 73 61 74 60 75 47 76
REMARK SMILES IDX 48 77 52 78 49 79 51 80 50 81
REMARK H PARENT 16 6 23 30 67 49 45 60
REMARK Flexibility Score: inf
ROOT
ATOM      1  C   UNL     1       1.008   0.070   9.566  1.00  0.00     0.021 C 
ENDROOT
BRANCH   1   2
ATOM      2  C   UNL     1       1.281  -1.322  10.145  1.00  0.00     0.116 C 
BRANCH   2   3
ATOM      3  N   UNL     1       0.331  -2.297   9.630  1.00  0.00    -0.356 N 
ATOM      4  C   UNL     1       0.509  -3.359   8.794  1.00  0.00     0.222 C 
ATOM      5  O   UNL     1      -0.487  -3.977   8.415  1.00  0.00    -0.275 OA
ATOM      6  H   UNL     1      -0.596  -2.168   9.937  1.00  0.00     0.163 HD
BRANCH   4   7
ATOM      7  C   UNL     1       1.890  -3.749   8.312  1.00  0.00     0.133 C 
BRANCH   7   8
ATOM      8  C   UNL     1       2.160  -3.215   6.907  1.00  0.00     0.147 C 
ATOM      9  N   UNL     1       2.671  -1.176   5.609  1.00  0.00    -0.333 N 
ATOM     10  C   UNL     1       3.809  -1.847   4.990  1.00  0.00     0.148 C 
ATOM     11  C   UNL     1       2.307  -1.691   6.914  1.00  0.00     0.152 C 
ATOM     12  C   UNL     1       3.647  -3.369   5.059  1.00  0.00     0.182 C 
ATOM     13  O   UNL     1       3.379  -3.810   6.405  1.00  0.00    -0.374 OA
BRANCH   9  14
ATOM     14  C   UNL     1       2.412   0.173   5.377  1.00  0.00     0.264 C 
ATOM     15  O   UNL     1       2.518   0.988   6.296  1.00  0.00    -0.268 OA
BRANCH  14  16
ATOM     16  C   UNL     1       1.847   0.480   4.070  1.00  0.00     0.093 A 
ATOM     17  C   UNL     1       0.767   0.287   1.985  1.00  0.00    -0.034 A 
ATOM     18  C   UNL     1       1.459  -0.374   3.055  1.00  0.00     0.029 A 
ATOM     19  C   UNL     1       0.663   1.646   2.234  1.00  0.00     0.005 A 
ATOM     20  S   UNL     1       1.450   2.097   3.686  1.00  0.00    -0.135 S 
ATOM     21  C   UNL     1      -0.021   2.706   1.434  1.00  0.00     0.056 C 
BRANCH  17  22
ATOM     22  C   UNL     1       0.205  -0.443   0.798  1.00  0.00     0.033 C 
ATOM     23  C   UNL     1       1.039  -0.242  -0.457  1.00  0.00     0.009 C 
ENDBRANCH  17  22
ENDBRANCH  14  16
ENDBRANCH   9  14
ENDBRANCH   7   8
ENDBRANCH   4   7
ENDBRANCH   2   3
ENDBRANCH   1   2
BRANCH   1  24
ATOM     24  C   UNL     1       0.197   0.995  10.476  1.00  0.00     0.002 C 
BRANCH  24  25
ATOM     25  C   UNL     1       0.934   1.506  11.717  1.00  0.00     0.002 C 
BRANCH  25  26
ATOM     26  C   UNL     1       2.292   2.173  11.468  1.00  0.00     0.021 C 
BRANCH  26  27
ATOM     27  C   UNL     1       2.309   3.283  10.416  1.00  0.00     0.116 C 
BRANCH  27  28
ATOM     28  N   UNL     1       1.464   4.407  10.780  1.00  0.00    -0.352 N 
ATOM     29  C   UNL     1       1.787   5.722  10.998  1.00  0.00     0.251 C 
ATOM     30  H   UNL     1       0.509   4.192  10.887  1.00  0.00     0.163 HD
ATOM     31  O   UNL     1       0.944   6.494  11.450  1.00  0.00    -0.269 OA
BRANCH  29  32
ATOM     32  C   UNL     1       3.151   6.223  10.719  1.00  0.00     0.039 A 
ATOM     33  C   UNL     1       3.770   7.040  11.671  1.00  0.00     0.014 A 
ATOM     34  C   UNL     1       3.801   5.940   9.514  1.00  0.00     0.014 A 
ATOM     35  C   UNL     1       5.061   7.524  11.444  1.00  0.00     0.010 A 
ATOM     36  C   UNL     1       5.107   6.387   9.306  1.00  0.00     0.010 A 
ATOM     37  C   UNL     1       5.749   7.181  10.270  1.00  0.00    -0.014 A 
BRANCH  37  38
ATOM     38  C   UNL     1       7.136   7.651  10.033  1.00  0.00     0.031 A 
ATOM     39  C   UNL     1       7.419   8.671   8.966  1.00  0.00     0.074 A 
ATOM     40  C   UNL     1       8.151   7.128  10.747  1.00  0.00     0.049 A 
ATOM     41  N   UNL     1       8.572   9.142   8.560  1.00  0.00    -0.248 NA
ATOM     42  C   UNL     1       6.256   9.225   8.255  1.00  0.00     0.031 C 
ATOM     43  C   UNL     1       8.018   6.122  11.802  1.00  0.00     0.029 A 
ATOM     44  N   UNL     1       9.501   7.370  10.684  1.00  0.00    -0.354 N 
ATOM     45  C   UNL     1       8.275  10.033   7.537  1.00  0.00     0.074 A 
ATOM     46  C   UNL     1       6.838  10.021   7.367  1.00  0.00     0.031 C 
ATOM     47  C   UNL     1       9.236   5.841  12.296  1.00  0.00     0.029 A 
ATOM     48  C   UNL     1      10.234   6.624  11.574  1.00  0.00     0.049 A 
ATOM     49  H   UNL     1       9.905   8.016  10.061  1.00  0.00     0.167 HD
ATOM     50  C   UNL     1       9.121  10.801   6.809  1.00  0.00     0.031 A 
ATOM     51  C   UNL     1      11.563   6.569  11.780  1.00  0.00     0.031 A 
ATOM     52  C   UNL     1      10.549  10.830   6.976  1.00  0.00     0.049 A 
ATOM     53  C   UNL     1      12.479   7.429  10.957  1.00  0.00     0.074 A 
ATOM     54  C   UNL     1      11.483  11.588   6.291  1.00  0.00     0.029 A 
ATOM     55  N   UNL     1      11.248  10.073   7.902  1.00  0.00    -0.354 N 
ATOM     56  N   UNL     1      12.180   8.276  10.003  1.00  0.00    -0.248 NA
ATOM     57  C   UNL     1      13.917   7.330  11.247  1.00  0.00     0.031 C 
ATOM     58  C   UNL     1      12.752  11.275   6.791  1.00  0.00     0.029 A 
ATOM     59  C   UNL     1      12.602  10.345   7.806  1.00  0.00     0.049 A 
ATOM     60  H   UNL     1      10.842   9.437   8.534  1.00  0.00     0.167 HD
ATOM     61  C   UNL     1      13.387   8.825   9.595  1.00  0.00     0.074 A 
ATOM     62  C   UNL     1      14.423   8.224  10.409  1.00  0.00     0.031 C 
ATOM     63  C   UNL     1      13.617   9.746   8.629  1.00  0.00     0.031 A 
BRANCH  50  64
ATOM     64  C   UNL     1       8.514  11.679   5.755  1.00  0.00    -0.014 A 
ATOM     65  C   UNL     1       7.859  12.871   6.103  1.00  0.00     0.009 A 
ATOM     66  C   UNL     1       8.630  11.332   4.401  1.00  0.00     0.009 A 
ATOM     67  C   UNL     1       7.310  13.687   5.112  1.00  0.00     0.001 A 
ATOM     68  C   UNL     1       8.095  12.159   3.413  1.00  0.00     0.001 A 
ATOM     69  C   UNL     1       7.431  13.333   3.769  1.00  0.00     0.000 A 
ENDBRANCH  50  64
BRANCH  51  70
ATOM     70  C   UNL     1      12.118   5.667  12.819  1.00  0.00    -0.014 A 
ATOM     71  C   UNL     1      12.587   6.191  14.033  1.00  0.00     0.009 A 
ATOM     72  C   UNL     1      12.198   4.285  12.595  1.00  0.00     0.009 A 
ATOM     73  C   UNL     1      13.149   5.349  14.994  1.00  0.00     0.001 A 
ATOM     74  C   UNL     1      12.742   3.443  13.567  1.00  0.00     0.001 A 
ATOM     75  C   UNL     1      13.224   3.976  14.761  1.00  0.00     0.000 A 
ENDBRANCH  51  70
BRANCH  63  76
ATOM     76  C   UNL     1      15.036  10.185   8.429  1.00  0.00    -0.014 A 
ATOM     77  C   UNL     1      15.948   9.384   7.725  1.00  0.00     0.009 A 
ATOM     78  C   UNL     1      15.456  11.428   8.925  1.00  0.00     0.009 A 
ATOM     79  C   UNL     1      17.264   9.812   7.543  1.00  0.00     0.001 A 
ATOM     80  C   UNL     1      16.768  11.860   8.727  1.00  0.00     0.001 A 
ATOM     81  C   UNL     1      17.672  11.049   8.042  1.00  0.00     0.000 A 
ENDBRANCH  63  76
ENDBRANCH  37  38
ENDBRANCH  29  32
ENDBRANCH  27  28
ENDBRANCH  26  27
ENDBRANCH  25  26
ENDBRANCH  24  25
ENDBRANCH   1  24
TORSDOF 17
