REMARK SMILES CC(C)(CC(=O)NCCCCCCNC(=O)c1ccc(-c2c3nc(c(-c4ccccc4)c4ccc([nH]4)c(-c4ccccc4)c4nc(c(-c5ccccc5)c5ccc2[nH]5)C=C4)C=C3)cc1)NC(=O)c1nc(C(C)(C)C)n[nH]1
REMARK SMILES IDX 9 1 8 2 7 3 5 4 6 5 4 7 2 8 1 9 3 10 65 11 66 12 67 14 68 15
REMARK SMILES IDX 69 16 76 17 70 18 75 19 71 21 72 22 73 23 74 24 10 25 11 26
REMARK SMILES IDX 12 27 13 28 14 29 15 30 16 32 17 33 18 34 64 35 19 36 63 37
REMARK SMILES IDX 20 38 21 39 22 40 57 41 23 42 62 43 56 44 58 45 24 46 61 47
REMARK SMILES IDX 55 48 54 49 25 51 47 52 32 53 46 54 33 55 36 56 45 57 59 58
REMARK SMILES IDX 34 59 35 60 44 62 60 63 37 64 26 65 27 66 31 67 28 68 30 69
REMARK SMILES IDX 29 70 48 71 49 72 53 73 50 74 52 75 51 76 38 77 39 78 43 79
REMARK SMILES IDX 40 80 42 81 41 82
REMARK H PARENT 7 6 65 13 76 20 14 31 58 50 36 61
REMARK Flexibility Score: inf
ROOT
ATOM      1  C   UNL     1      -0.099   2.473   0.697  1.00  0.00     0.021 C 
ENDROOT
BRANCH   1   2
ATOM      2  C   UNL     1      -1.263   1.489   0.607  1.00  0.00     0.116 C 
BRANCH   2   3
ATOM      3  N   UNL     1      -1.511   1.113  -0.772  1.00  0.00    -0.356 N 
ATOM      4  C   UNL     1      -1.224  -0.033  -1.443  1.00  0.00     0.222 C 
ATOM      5  O   UNL     1      -1.471  -0.081  -2.649  1.00  0.00    -0.275 OA
ATOM      6  H   UNL     1      -1.962   1.802  -1.311  1.00  0.00     0.163 HD
BRANCH   4   7
ATOM      7  C   UNL     1      -0.681  -1.248  -0.725  1.00  0.00     0.127 C 
BRANCH   7   8
ATOM      8  C   UNL     1       0.853  -1.477  -0.767  1.00  0.00     0.044 C 
ATOM      9  C   UNL     1       1.571  -0.734   0.361  1.00  0.00     0.035 C 
ATOM     10  C   UNL     1       1.073  -2.983  -0.454  1.00  0.00     0.035 C 
BRANCH   8  11
ATOM     11  N   UNL     1       1.425  -1.260  -2.118  1.00  0.00    -0.344 N 
ATOM     12  C   UNL     1       1.846  -0.181  -2.865  1.00  0.00     0.289 C 
ATOM     13  H   UNL     1       1.531  -2.107  -2.609  1.00  0.00     0.164 HD
ATOM     14  O   UNL     1       1.909  -0.377  -4.081  1.00  0.00    -0.266 OA
BRANCH  12  15
ATOM     15  C   UNL     1       2.307   1.047  -2.262  1.00  0.00     0.214 A 
ATOM     16  N   UNL     1       1.982   2.269  -2.653  1.00  0.00    -0.207 NA
ATOM     17  N   UNL     1       3.363   1.149  -1.406  1.00  0.00    -0.255 N 
ATOM     18  C   UNL     1       2.866   3.086  -1.987  1.00  0.00     0.156 A 
ATOM     19  N   UNL     1       3.697   2.428  -1.164  1.00  0.00    -0.158 NA
ATOM     20  H   UNL     1       3.827   0.376  -1.012  1.00  0.00     0.192 HD
BRANCH  18  21
ATOM     21  C   UNL     1       2.953   4.581  -2.221  1.00  0.00     0.024 C 
ATOM     22  C   UNL     1       4.018   4.884  -3.292  1.00  0.00     0.019 C 
ATOM     23  C   UNL     1       1.612   5.155  -2.720  1.00  0.00     0.019 C 
ATOM     24  C   UNL     1       3.351   5.317  -0.928  1.00  0.00     0.019 C 
ENDBRANCH  18  21
ENDBRANCH  12  15
ENDBRANCH   8  11
ENDBRANCH   7   8
ENDBRANCH   4   7
ENDBRANCH   2   3
ENDBRANCH   1   2
BRANCH   1  25
ATOM     25  C   UNL     1      -0.448   3.896   0.275  1.00  0.00     0.002 C 
BRANCH  25  26
ATOM     26  C   UNL     1      -1.183   4.722   1.326  1.00  0.00     0.002 C 
BRANCH  26  27
ATOM     27  C   UNL     1      -0.381   5.030   2.596  1.00  0.00     0.021 C 
BRANCH  27  28
ATOM     28  C   UNL     1       1.022   5.607   2.394  1.00  0.00     0.116 C 
BRANCH  28  29
ATOM     29  N   UNL     1       1.058   6.766   1.515  1.00  0.00    -0.352 N 
ATOM     30  C   UNL     1       1.930   7.827   1.534  1.00  0.00     0.251 C 
ATOM     31  H   UNL     1       0.367   6.793   0.814  1.00  0.00     0.163 HD
ATOM     32  O   UNL     1       1.820   8.749   0.734  1.00  0.00    -0.269 OA
BRANCH  30  33
ATOM     33  C   UNL     1       2.983   7.870   2.566  1.00  0.00     0.039 A 
ATOM     34  C   UNL     1       2.990   8.939   3.464  1.00  0.00     0.014 A 
ATOM     35  C   UNL     1       3.923   6.841   2.672  1.00  0.00     0.014 A 
ATOM     36  C   UNL     1       3.895   8.938   4.526  1.00  0.00     0.010 A 
ATOM     37  C   UNL     1       4.805   6.826   3.751  1.00  0.00     0.010 A 
ATOM     38  C   UNL     1       4.780   7.861   4.699  1.00  0.00    -0.014 A 
BRANCH  38  39
ATOM     39  C   UNL     1       5.619   7.762   5.917  1.00  0.00     0.031 A 
ATOM     40  C   UNL     1       7.107   7.929   5.846  1.00  0.00     0.074 A 
ATOM     41  C   UNL     1       5.028   7.453   7.088  1.00  0.00     0.049 A 
ATOM     42  N   UNL     1       7.989   7.853   6.810  1.00  0.00    -0.248 NA
ATOM     43  C   UNL     1       7.682   8.199   4.519  1.00  0.00     0.031 C 
ATOM     44  C   UNL     1       3.593   7.223   7.276  1.00  0.00     0.029 A 
ATOM     45  N   UNL     1       5.561   7.269   8.338  1.00  0.00    -0.354 N 
ATOM     46  C   UNL     1       9.223   8.062   6.209  1.00  0.00     0.074 A 
ATOM     47  C   UNL     1       8.979   8.229   4.792  1.00  0.00     0.031 C 
ATOM     48  C   UNL     1       3.359   6.947   8.569  1.00  0.00     0.029 A 
ATOM     49  C   UNL     1       4.626   6.951   9.293  1.00  0.00     0.049 A 
ATOM     50  H   UNL     1       6.522   7.357   8.533  1.00  0.00     0.167 HD
ATOM     51  C   UNL     1      10.447   8.121   6.788  1.00  0.00     0.031 A 
ATOM     52  C   UNL     1       4.772   6.688  10.604  1.00  0.00     0.031 A 
ATOM     53  C   UNL     1      10.689   7.946   8.197  1.00  0.00     0.049 A 
ATOM     54  C   UNL     1       6.141   6.747  11.219  1.00  0.00     0.074 A 
ATOM     55  C   UNL     1      11.888   8.040   8.884  1.00  0.00     0.029 A 
ATOM     56  N   UNL     1       9.716   7.633   9.133  1.00  0.00    -0.354 N 
ATOM     57  N   UNL     1       7.289   7.023  10.650  1.00  0.00    -0.248 NA
ATOM     58  C   UNL     1       6.231   6.471  12.659  1.00  0.00     0.031 C 
ATOM     59  C   UNL     1      11.647   7.737  10.228  1.00  0.00     0.029 A 
ATOM     60  C   UNL     1      10.290   7.505  10.387  1.00  0.00     0.049 A 
ATOM     61  H   UNL     1       8.758   7.518   8.935  1.00  0.00     0.167 HD
ATOM     62  C   UNL     1       8.234   6.980  11.666  1.00  0.00     0.074 A 
ATOM     63  C   UNL     1       7.523   6.665  12.888  1.00  0.00     0.031 C 
ATOM     64  C   UNL     1       9.571   7.186  11.592  1.00  0.00     0.031 A 
BRANCH  51  65
ATOM     65  C   UNL     1      11.624   8.378   5.891  1.00  0.00    -0.014 A 
ATOM     66  C   UNL     1      11.836   9.642   5.319  1.00  0.00     0.009 A 
ATOM     67  C   UNL     1      12.555   7.357   5.647  1.00  0.00     0.009 A 
ATOM     68  C   UNL     1      12.940   9.869   4.494  1.00  0.00     0.001 A 
ATOM     69  C   UNL     1      13.671   7.593   4.842  1.00  0.00     0.001 A 
ATOM     70  C   UNL     1      13.858   8.846   4.260  1.00  0.00     0.000 A 
ENDBRANCH  51  65
BRANCH  52  71
ATOM     71  C   UNL     1       3.582   6.365  11.432  1.00  0.00    -0.014 A 
ATOM     72  C   UNL     1       3.092   7.293  12.363  1.00  0.00     0.009 A 
ATOM     73  C   UNL     1       2.933   5.128  11.297  1.00  0.00     0.009 A 
ATOM     74  C   UNL     1       1.989   6.979  13.160  1.00  0.00     0.001 A 
ATOM     75  C   UNL     1       1.815   4.827  12.077  1.00  0.00     0.001 A 
ATOM     76  C   UNL     1       1.349   5.749  13.014  1.00  0.00     0.000 A 
ENDBRANCH  52  71
BRANCH  64  77
ATOM     77  C   UNL     1      10.346   7.105  12.876  1.00  0.00    -0.014 A 
ATOM     78  C   UNL     1      10.604   5.871  13.493  1.00  0.00     0.009 A 
ATOM     79  C   UNL     1      10.853   8.277  13.457  1.00  0.00     0.009 A 
ATOM     80  C   UNL     1      11.328   5.818  14.686  1.00  0.00     0.001 A 
ATOM     81  C   UNL     1      11.598   8.218  14.635  1.00  0.00     0.001 A 
ATOM     82  C   UNL     1      11.828   6.990  15.253  1.00  0.00     0.000 A 
ENDBRANCH  64  77
ENDBRANCH  38  39
ENDBRANCH  30  33
ENDBRANCH  28  29
ENDBRANCH  27  28
ENDBRANCH  26  27
ENDBRANCH  25  26
ENDBRANCH   1  25
TORSDOF 17
