REMARK SMILES Cn1ccc(-c2n[nH]c(=O)n2-c2ccc(C(=O)NCCCCCCNC(=O)c3ccc(-c4c5nc(c(-c6ccccc6)c6ccc([nH]6)c(-c6ccccc6)c6nc(c(-c7ccccc7)c7ccc4[nH]7)C=C6)C=C5)cc3)cc2)n1
REMARK SMILES IDX 21 1 20 2 19 3 18 4 16 5 17 6 15 8 12 9 13 10 77 11 14 12
REMARK SMILES IDX 76 13 11 14 6 15 7 16 8 17 9 18 10 20 5 21 1 22 2 23 3 24
REMARK SMILES IDX 78 25 4 26 22 27 23 28 24 29 25 30 26 31 27 33 28 34 29 35
REMARK SMILES IDX 75 36 30 37 74 38 31 39 32 40 33 41 68 42 34 43 73 44 67 45
REMARK SMILES IDX 69 46 35 47 72 48 66 49 65 50 36 52 58 53 43 54 57 55 44 56
REMARK SMILES IDX 47 57 56 58 70 59 45 60 46 61 55 63 71 64 48 65 37 66 38 67
REMARK SMILES IDX 42 68 39 69 41 70 40 71 59 72 60 73 64 74 61 75 63 76 62 77
REMARK SMILES IDX 49 78 50 79 54 80 51 81 53 82 52 83
REMARK H PARENT 18 7 8 19 25 32 69 51 47 62
REMARK Flexibility Score: inf
ROOT
ATOM      1  C   UNL     1       0.258   0.555   8.877  1.00  0.00     0.002 C 
ENDROOT
BRANCH   1   2
ATOM      2  C   UNL     1       0.831   0.624   7.454  1.00  0.00     0.021 C 
BRANCH   2   3
ATOM      3  C   UNL     1      -0.177   1.141   6.423  1.00  0.00     0.116 C 
BRANCH   3   4
ATOM      4  N   UNL     1      -0.242   2.589   6.476  1.00  0.00    -0.352 N 
ATOM      5  C   UNL     1       0.260   3.582   5.674  1.00  0.00     0.251 C 
ATOM      6  O   UNL     1       0.038   4.745   6.013  1.00  0.00    -0.269 OA
ATOM      7  H   UNL     1      -0.752   2.929   7.246  1.00  0.00     0.163 HD
BRANCH   5   8
ATOM      8  C   UNL     1       0.989   3.326   4.400  1.00  0.00     0.039 A 
ATOM      9  C   UNL     1       2.142   2.935   1.861  1.00  0.00     0.052 A 
ATOM     10  C   UNL     1       1.569   4.164   2.180  1.00  0.00     0.028 A 
ATOM     11  C   UNL     1       2.219   1.939   2.840  1.00  0.00     0.028 A 
ATOM     12  C   UNL     1       0.965   4.343   3.430  1.00  0.00     0.016 A 
ATOM     13  C   UNL     1       1.700   2.160   4.118  1.00  0.00     0.016 A 
BRANCH   9  14
ATOM     14  N   UNL     1       2.710   2.705   0.603  1.00  0.00    -0.242 N 
ATOM     15  C   UNL     1       2.586   1.609  -0.197  1.00  0.00     0.189 A 
ATOM     16  N   UNL     1       3.494   1.503  -1.131  1.00  0.00    -0.150 NA
ATOM     17  N   UNL     1       4.255   2.630  -0.965  1.00  0.00    -0.226 N 
ATOM     18  C   UNL     1       3.788   3.401   0.104  1.00  0.00     0.348 A 
ATOM     19  H   UNL     1       5.030   2.867  -1.525  1.00  0.00     0.195 HD
ATOM     20  O   UNL     1       4.317   4.414   0.518  1.00  0.00    -0.246 OA
BRANCH  15  21
ATOM     21  C   UNL     1       1.490   0.660  -0.089  1.00  0.00     0.130 A 
ATOM     22  C   UNL     1      -1.951   0.023   0.035  1.00  0.00     0.173 C 
ATOM     23  N   UNL     1      -0.509  -0.060   0.025  1.00  0.00    -0.275 N 
ATOM     24  C   UNL     1       0.246  -1.184  -0.124  1.00  0.00     0.109 A 
ATOM     25  N   UNL     1       0.222   1.065   0.117  1.00  0.00    -0.170 NA
ATOM     26  C   UNL     1       1.546  -0.750  -0.238  1.00  0.00     0.054 A 
ENDBRANCH  15  21
ENDBRANCH   9  14
ENDBRANCH   5   8
ENDBRANCH   3   4
ENDBRANCH   2   3
ENDBRANCH   1   2
BRANCH   1  27
ATOM     27  C   UNL     1      -0.968  -0.357   9.043  1.00  0.00     0.002 C 
BRANCH  27  28
ATOM     28  C   UNL     1      -0.802  -1.792   8.521  1.00  0.00     0.021 C 
BRANCH  28  29
ATOM     29  C   UNL     1       0.184  -2.616   9.337  1.00  0.00     0.116 C 
BRANCH  29  30
ATOM     30  N   UNL     1      -0.328  -2.880  10.677  1.00  0.00    -0.352 N 
ATOM     31  C   UNL     1       0.267  -3.556  11.714  1.00  0.00     0.251 C 
ATOM     32  H   UNL     1      -1.226  -2.523  10.865  1.00  0.00     0.163 HD
ATOM     33  O   UNL     1      -0.406  -3.987  12.643  1.00  0.00    -0.269 OA
BRANCH  31  34
ATOM     34  C   UNL     1       1.723  -3.775  11.697  1.00  0.00     0.039 A 
ATOM     35  C   UNL     1       2.244  -5.010  12.094  1.00  0.00     0.014 A 
ATOM     36  C   UNL     1       2.568  -2.740  11.297  1.00  0.00     0.014 A 
ATOM     37  C   UNL     1       3.615  -5.228  12.009  1.00  0.00     0.010 A 
ATOM     38  C   UNL     1       3.914  -2.984  11.127  1.00  0.00     0.010 A 
ATOM     39  C   UNL     1       4.445  -4.218  11.502  1.00  0.00    -0.014 A 
BRANCH  39  40
ATOM     40  C   UNL     1       5.851  -4.504  11.225  1.00  0.00     0.031 A 
ATOM     41  C   UNL     1       6.103  -5.638  10.291  1.00  0.00     0.074 A 
ATOM     42  C   UNL     1       6.857  -3.679  11.581  1.00  0.00     0.049 A 
ATOM     43  N   UNL     1       6.779  -6.714  10.523  1.00  0.00    -0.248 NA
ATOM     44  C   UNL     1       5.459  -5.614   8.967  1.00  0.00     0.031 C 
ATOM     45  C   UNL     1       6.761  -2.378  12.248  1.00  0.00     0.029 A 
ATOM     46  N   UNL     1       8.184  -3.772  11.285  1.00  0.00    -0.354 N 
ATOM     47  C   UNL     1       6.794  -7.435   9.331  1.00  0.00     0.074 A 
ATOM     48  C   UNL     1       5.857  -6.779   8.453  1.00  0.00     0.031 C 
ATOM     49  C   UNL     1       7.918  -1.702  12.078  1.00  0.00     0.029 A 
ATOM     50  C   UNL     1       8.878  -2.576  11.427  1.00  0.00     0.049 A 
ATOM     51  H   UNL     1       8.613  -4.610  10.996  1.00  0.00     0.167 HD
ATOM     52  C   UNL     1       7.732  -8.393   9.087  1.00  0.00     0.031 A 
ATOM     53  C   UNL     1      10.136  -2.304  11.002  1.00  0.00     0.031 A 
ATOM     54  C   UNL     1       8.428  -8.775  10.288  1.00  0.00     0.049 A 
ATOM     55  C   UNL     1      10.829  -3.597  10.803  1.00  0.00     0.074 A 
ATOM     56  C   UNL     1       8.052  -9.300  11.508  1.00  0.00     0.029 A 
ATOM     57  N   UNL     1       9.694  -8.269  10.469  1.00  0.00    -0.354 N 
ATOM     58  N   UNL     1      11.172  -4.380  11.783  1.00  0.00    -0.248 NA
ATOM     59  C   UNL     1      10.774  -4.228   9.493  1.00  0.00     0.031 C 
ATOM     60  C   UNL     1       8.888  -8.646  12.459  1.00  0.00     0.029 A 
ATOM     61  C   UNL     1       9.767  -7.818  11.760  1.00  0.00     0.049 A 
ATOM     62  H   UNL     1      10.412  -8.236   9.797  1.00  0.00     0.167 HD
ATOM     63  C   UNL     1      10.913  -5.658  11.313  1.00  0.00     0.074 A 
ATOM     64  C   UNL     1      10.803  -5.512   9.863  1.00  0.00     0.031 C 
ATOM     65  C   UNL     1      10.519  -6.652  12.164  1.00  0.00     0.031 A 
BRANCH  52  66
ATOM     66  C   UNL     1       8.302  -8.697   7.722  1.00  0.00    -0.014 A 
ATOM     67  C   UNL     1       9.271  -9.714   7.609  1.00  0.00     0.009 A 
ATOM     68  C   UNL     1       8.157  -7.840   6.616  1.00  0.00     0.009 A 
ATOM     69  C   UNL     1      10.113  -9.801   6.494  1.00  0.00     0.001 A 
ATOM     70  C   UNL     1       8.967  -7.953   5.482  1.00  0.00     0.001 A 
ATOM     71  C   UNL     1       9.968  -8.912   5.436  1.00  0.00     0.000 A 
ENDBRANCH  52  66
BRANCH  53  72
ATOM     72  C   UNL     1      10.733  -1.015  10.598  1.00  0.00    -0.014 A 
ATOM     73  C   UNL     1      12.125  -0.875  10.480  1.00  0.00     0.009 A 
ATOM     74  C   UNL     1       9.928   0.018  10.083  1.00  0.00     0.009 A 
ATOM     75  C   UNL     1      12.687   0.232   9.830  1.00  0.00     0.001 A 
ATOM     76  C   UNL     1      10.488   1.128   9.443  1.00  0.00     0.001 A 
ATOM     77  C   UNL     1      11.868   1.226   9.300  1.00  0.00     0.000 A 
ENDBRANCH  53  72
BRANCH  65  78
ATOM     78  C   UNL     1      10.604  -6.392  13.648  1.00  0.00    -0.014 A 
ATOM     79  C   UNL     1       9.927  -5.335  14.281  1.00  0.00     0.009 A 
ATOM     80  C   UNL     1      11.256  -7.337  14.454  1.00  0.00     0.009 A 
ATOM     81  C   UNL     1       9.934  -5.207  15.673  1.00  0.00     0.001 A 
ATOM     82  C   UNL     1      11.242  -7.224  15.846  1.00  0.00     0.001 A 
ATOM     83  C   UNL     1      10.587  -6.156  16.454  1.00  0.00     0.000 A 
ENDBRANCH  65  78
ENDBRANCH  39  40
ENDBRANCH  31  34
ENDBRANCH  29  30
ENDBRANCH  28  29
ENDBRANCH  27  28
ENDBRANCH   1  27
TORSDOF 15
