REMARK SMILES CC(C)CCc1cc2c(cc1Cl)C=C(C(=O)NCCCCCCNC(=O)c1ccc(-c3c4nc(c(-c5ccccc5)c5ccc([nH]5)c(-c5ccccc5)c5nc(c(-c6ccccc6)c6ccc3[nH]6)C=C5)C=C4)cc1)[C@H](C(F)(F)F)O2
REMARK SMILES IDX 20 1 19 2 18 3 17 4 15 5 16 6 14 8 6 9 7 10 11 11 8 12 10 13
REMARK SMILES IDX 12 14 9 15 80 16 13 17 75 18 5 19 4 20 2 21 1 22 3 23 76 24
REMARK SMILES IDX 77 25 78 26 79 27 21 28 22 29 23 30 24 31 25 32 26 34 27 35
REMARK SMILES IDX 28 36 74 37 29 38 73 39 30 40 31 41 32 42 67 43 33 44 72 45
REMARK SMILES IDX 66 46 68 47 34 48 71 49 65 50 64 51 35 53 57 54 42 55 56 56
REMARK SMILES IDX 43 57 46 58 55 59 69 60 44 61 45 62 54 64 70 65 47 66 36 67
REMARK SMILES IDX 37 68 41 69 38 70 40 71 39 72 58 73 59 74 63 75 60 76 62 77
REMARK SMILES IDX 61 78 48 79 49 80 53 81 50 82 52 83 51 84
REMARK H PARENT 17 7 24 33 68 52 46 63
REMARK Flexibility Score: inf
ROOT
ATOM      1  C   UNL     1      -2.421  12.757   1.040  1.00  0.00     0.002 C 
ENDROOT
BRANCH   1   2
ATOM      2  C   UNL     1      -2.669  11.246   1.059  1.00  0.00     0.021 C 
BRANCH   2   3
ATOM      3  C   UNL     1      -2.308  10.536  -0.242  1.00  0.00     0.116 C 
BRANCH   3   4
ATOM      4  N   UNL     1      -0.891  10.245  -0.317  1.00  0.00    -0.352 N 
ATOM      5  C   UNL     1      -0.101   9.150  -0.274  1.00  0.00     0.251 C 
ATOM      6  O   UNL     1       1.111   9.381  -0.343  1.00  0.00    -0.270 OA
ATOM      7  H   UNL     1      -0.360  11.067  -0.431  1.00  0.00     0.163 HD
BRANCH   5   8
ATOM      8  C   UNL     1      -0.576   7.740  -0.162  1.00  0.00     0.067 C 
ATOM      9  C   UNL     1      -0.755   2.707   0.198  1.00  0.00    -0.026 A 
ATOM     10  C   UNL     1      -1.668   3.694  -0.218  1.00  0.00     0.052 A 
ATOM     11  C   UNL     1       0.531   3.120   0.590  1.00  0.00     0.045 A 
ATOM     12  C   UNL     1      -1.298   5.037  -0.244  1.00  0.00     0.128 A 
ATOM     13  C   UNL     1       0.922   4.457   0.474  1.00  0.00     0.032 A 
ATOM     14  Cl  UNL     1       1.690   2.046   1.286  1.00  0.00    -0.084 Cl
ATOM     15  C   UNL     1       0.007   5.418   0.054  1.00  0.00     0.019 A 
ATOM     16  O   UNL     1      -2.257   5.948  -0.588  1.00  0.00    -0.475 OA
ATOM     17  C   UNL     1       0.395   6.813  -0.089  1.00  0.00     0.025 C 
ATOM     18  C   UNL     1      -2.015   7.303  -0.101  1.00  0.00     0.314 C 
BRANCH   9  19
ATOM     19  C   UNL     1      -1.210   1.263   0.189  1.00  0.00     0.037 C 
BRANCH  19  20
ATOM     20  C   UNL     1      -0.949   0.534  -1.143  1.00  0.00     0.008 C 
BRANCH  20  21
ATOM     21  C   UNL     1       0.519   0.148  -1.414  1.00  0.00    -0.017 C 
ATOM     22  C   UNL     1       1.030  -0.912  -0.434  1.00  0.00     0.007 C 
ATOM     23  C   UNL     1       0.685  -0.376  -2.843  1.00  0.00     0.007 C 
ENDBRANCH  20  21
ENDBRANCH  19  20
ENDBRANCH   9  19
BRANCH  18  24
ATOM     24  C   UNL     1      -2.633   7.497   1.302  1.00  0.00     0.429 C 
ATOM     25  F   UNL     1      -1.947   8.392   2.053  1.00  0.00    -0.167 F 
ATOM     26  F   UNL     1      -3.901   7.974   1.202  1.00  0.00    -0.167 F 
ATOM     27  F   UNL     1      -2.693   6.353   2.019  1.00  0.00    -0.167 F 
ENDBRANCH  18  24
ENDBRANCH   5   8
ENDBRANCH   3   4
ENDBRANCH   2   3
ENDBRANCH   1   2
BRANCH   1  28
ATOM     28  C   UNL     1      -3.140  13.529  -0.073  1.00  0.00     0.002 C 
BRANCH  28  29
ATOM     29  C   UNL     1      -4.629  13.214  -0.234  1.00  0.00     0.021 C 
BRANCH  29  30
ATOM     30  C   UNL     1      -5.462  13.434   1.023  1.00  0.00     0.116 C 
BRANCH  30  31
ATOM     31  N   UNL     1      -5.495  14.830   1.424  1.00  0.00    -0.352 N 
ATOM     32  C   UNL     1      -6.579  15.659   1.595  1.00  0.00     0.251 C 
ATOM     33  H   UNL     1      -4.618  15.241   1.599  1.00  0.00     0.163 HD
ATOM     34  O   UNL     1      -6.425  16.861   1.757  1.00  0.00    -0.269 OA
BRANCH  32  35
ATOM     35  C   UNL     1      -7.940  15.084   1.550  1.00  0.00     0.039 A 
ATOM     36  C   UNL     1      -8.237  13.916   2.256  1.00  0.00     0.014 A 
ATOM     37  C   UNL     1      -8.917  15.705   0.769  1.00  0.00     0.014 A 
ATOM     38  C   UNL     1      -9.455  13.281   2.050  1.00  0.00     0.010 A 
ATOM     39  C   UNL     1     -10.173  15.109   0.632  1.00  0.00     0.010 A 
ATOM     40  C   UNL     1     -10.436  13.868   1.234  1.00  0.00    -0.014 A 
BRANCH  40  41
ATOM     41  C   UNL     1     -11.728  13.166   1.025  1.00  0.00     0.031 A 
ATOM     42  C   UNL     1     -12.117  12.659  -0.337  1.00  0.00     0.074 A 
ATOM     43  C   UNL     1     -12.528  12.938   2.084  1.00  0.00     0.049 A 
ATOM     44  N   UNL     1     -13.195  12.006  -0.693  1.00  0.00    -0.248 NA
ATOM     45  C   UNL     1     -11.181  12.914  -1.445  1.00  0.00     0.031 C 
ATOM     46  C   UNL     1     -12.245  13.359   3.458  1.00  0.00     0.029 A 
ATOM     47  N   UNL     1     -13.724  12.272   2.180  1.00  0.00    -0.354 N 
ATOM     48  C   UNL     1     -13.075  11.788  -2.060  1.00  0.00     0.074 A 
ATOM     49  C   UNL     1     -11.834  12.401  -2.479  1.00  0.00     0.031 C 
ATOM     50  C   UNL     1     -13.206  12.892   4.266  1.00  0.00     0.029 A 
ATOM     51  C   UNL     1     -14.210  12.201   3.463  1.00  0.00     0.049 A 
ATOM     52  H   UNL     1     -14.188  11.883   1.404  1.00  0.00     0.167 HD
ATOM     53  C   UNL     1     -13.919  11.127  -2.886  1.00  0.00     0.031 A 
ATOM     54  C   UNL     1     -15.342  11.655   3.944  1.00  0.00     0.031 A 
ATOM     55  C   UNL     1     -15.147  10.508  -2.462  1.00  0.00     0.049 A 
ATOM     56  C   UNL     1     -16.287  10.976   2.996  1.00  0.00     0.074 A 
ATOM     57  C   UNL     1     -16.058   9.800  -3.228  1.00  0.00     0.029 A 
ATOM     58  N   UNL     1     -15.635  10.520  -1.165  1.00  0.00    -0.354 N 
ATOM     59  N   UNL     1     -16.154  10.774   1.708  1.00  0.00    -0.248 NA
ATOM     60  C   UNL     1     -17.538  10.452   3.563  1.00  0.00     0.031 C 
ATOM     61  C   UNL     1     -17.127   9.436  -2.406  1.00  0.00     0.029 A 
ATOM     62  C   UNL     1     -16.849   9.855  -1.115  1.00  0.00     0.049 A 
ATOM     63  H   UNL     1     -15.186  10.938  -0.395  1.00  0.00     0.167 HD
ATOM     64  C   UNL     1     -17.295  10.089   1.312  1.00  0.00     0.074 A 
ATOM     65  C   UNL     1     -18.100   9.892   2.500  1.00  0.00     0.031 C 
ATOM     66  C   UNL     1     -17.642   9.666   0.072  1.00  0.00     0.031 A 
BRANCH  53  67
ATOM     67  C   UNL     1     -13.561  11.037  -4.344  1.00  0.00    -0.014 A 
ATOM     68  C   UNL     1     -14.339  11.718  -5.295  1.00  0.00     0.009 A 
ATOM     69  C   UNL     1     -12.528  10.198  -4.789  1.00  0.00     0.009 A 
ATOM     70  C   UNL     1     -14.101  11.550  -6.660  1.00  0.00     0.001 A 
ATOM     71  C   UNL     1     -12.274  10.053  -6.155  1.00  0.00     0.001 A 
ATOM     72  C   UNL     1     -13.066  10.720  -7.089  1.00  0.00     0.000 A 
ENDBRANCH  53  67
BRANCH  54  73
ATOM     73  C   UNL     1     -15.627  11.734   5.401  1.00  0.00    -0.014 A 
ATOM     74  C   UNL     1     -15.888  12.973   6.011  1.00  0.00     0.009 A 
ATOM     75  C   UNL     1     -15.580  10.583   6.201  1.00  0.00     0.009 A 
ATOM     76  C   UNL     1     -16.063  13.062   7.393  1.00  0.00     0.001 A 
ATOM     77  C   UNL     1     -15.789  10.671   7.580  1.00  0.00     0.001 A 
ATOM     78  C   UNL     1     -16.018  11.911   8.176  1.00  0.00     0.000 A 
ENDBRANCH  54  73
BRANCH  66  79
ATOM     79  C   UNL     1     -18.945   8.933  -0.081  1.00  0.00    -0.014 A 
ATOM     80  C   UNL     1     -18.940   7.567  -0.405  1.00  0.00     0.009 A 
ATOM     81  C   UNL     1     -20.170   9.614  -0.016  1.00  0.00     0.009 A 
ATOM     82  C   UNL     1     -20.135   6.900  -0.681  1.00  0.00     0.001 A 
ATOM     83  C   UNL     1     -21.366   8.937  -0.264  1.00  0.00     0.001 A 
ATOM     84  C   UNL     1     -21.346   7.585  -0.607  1.00  0.00     0.000 A 
ENDBRANCH  66  79
ENDBRANCH  40  41
ENDBRANCH  32  35
ENDBRANCH  30  31
ENDBRANCH  29  30
ENDBRANCH  28  29
ENDBRANCH   1  28
TORSDOF 17
