REMARK SMILES Cc1ccc([C@@H]2[C@H](C(=O)NCCCCCCNC(=O)c3ccc(-c4c5nc(c(-c6ccccc6)c6ccc([nH]6)c(-c6ccccc6)c6nc(c(-c7ccccc7)c7ccc4[nH]7)C=C6)C=C5)cc3)c3ccccc3C(=O)N2c2ccccc2)cc1
REMARK SMILES IDX 14 1 13 2 12 3 11 4 10 5 8 6 9 7 7 9 6 10 76 11 68 12 74 13
REMARK SMILES IDX 69 14 73 15 75 16 70 17 72 18 71 19 5 20 1 21 2 22 3 23
REMARK SMILES IDX 84 24 4 25 83 26 77 27 78 28 82 29 79 30 81 31 80 32 15 33
REMARK SMILES IDX 16 34 17 35 18 36 19 38 20 39 21 40 67 41 22 42 66 43 23 44
REMARK SMILES IDX 24 45 25 46 60 47 26 48 65 49 59 50 61 51 27 52 64 53 58 54
REMARK SMILES IDX 57 55 28 57 50 58 35 59 49 60 36 61 39 62 48 63 62 64 37 65
REMARK SMILES IDX 38 66 47 68 63 69 40 70 29 71 30 72 34 73 31 74 33 75 32 76
REMARK SMILES IDX 51 77 52 78 56 79 53 80 55 81 54 82 41 83 42 84 46 85 43 86
REMARK SMILES IDX 45 87 44 88
REMARK H PARENT 10 8 17 37 61 56 39 67
REMARK Flexibility Score: inf
ROOT
ATOM      1  C   UNL     1      -2.707  -6.342   6.811  1.00  0.00     0.002 C 
ENDROOT
BRANCH   1   2
ATOM      2  C   UNL     1      -3.866  -5.700   6.027  1.00  0.00     0.002 C 
BRANCH   2   3
ATOM      3  C   UNL     1      -3.979  -4.171   6.091  1.00  0.00     0.021 C 
BRANCH   3   4
ATOM      4  C   UNL     1      -2.730  -3.407   5.649  1.00  0.00     0.116 C 
BRANCH   4   5
ATOM      5  N   UNL     1      -2.830  -2.992   4.269  1.00  0.00    -0.355 N 
ATOM      6  C   UNL     1      -2.104  -1.914   3.815  1.00  0.00     0.230 C 
ATOM      7  O   UNL     1      -0.875  -1.938   3.828  1.00  0.00    -0.274 OA
ATOM      8  H   UNL     1      -3.419  -3.482   3.650  1.00  0.00     0.163 HD
BRANCH   6   9
ATOM      9  C   UNL     1      -2.897  -0.701   3.309  1.00  0.00     0.137 C 
ATOM     10  C   UNL     1      -2.872  -0.554   1.757  1.00  0.00     0.138 C 
ATOM     11  N   UNL     1      -3.896  -1.435   1.170  1.00  0.00    -0.300 N 
ATOM     12  C   UNL     1      -4.351  -0.630   3.803  1.00  0.00    -0.020 A 
ATOM     13  C   UNL     1      -5.182  -0.925   1.427  1.00  0.00     0.259 C 
ATOM     14  C   UNL     1      -4.637  -0.518   5.172  1.00  0.00     0.005 A 
ATOM     15  C   UNL     1      -5.428  -0.678   2.889  1.00  0.00     0.044 A 
ATOM     16  O   UNL     1      -6.073  -0.807   0.596  1.00  0.00    -0.269 OA
ATOM     17  C   UNL     1      -5.959  -0.510   5.621  1.00  0.00     0.000 A 
ATOM     18  C   UNL     1      -6.750  -0.620   3.342  1.00  0.00     0.014 A 
ATOM     19  C   UNL     1      -7.013  -0.553   4.709  1.00  0.00     0.001 A 
BRANCH  10  20
ATOM     20  C   UNL     1      -1.540  -0.282   1.065  1.00  0.00    -0.024 A 
ATOM     21  C   UNL     1       2.489   0.378  -0.378  1.00  0.00     0.044 C 
ATOM     22  C   UNL     1       1.052   0.235   0.026  1.00  0.00    -0.051 A 
ATOM     23  C   UNL     1       0.234  -0.746  -0.539  1.00  0.00     0.004 A 
ATOM     24  C   UNL     1       0.529   1.038   1.038  1.00  0.00     0.004 A 
ATOM     25  C   UNL     1      -1.067  -0.959  -0.063  1.00  0.00     0.006 A 
ATOM     26  C   UNL     1      -0.745   0.778   1.550  1.00  0.00     0.006 A 
ENDBRANCH  10  20
BRANCH  11  27
ATOM     27  C   UNL     1      -3.785  -2.881   1.120  1.00  0.00     0.045 A 
ATOM     28  C   UNL     1      -4.954  -3.670   1.177  1.00  0.00     0.026 A 
ATOM     29  C   UNL     1      -2.566  -3.568   1.145  1.00  0.00     0.026 A 
ATOM     30  C   UNL     1      -4.905  -5.059   1.337  1.00  0.00     0.002 A 
ATOM     31  C   UNL     1      -2.513  -4.966   1.254  1.00  0.00     0.002 A 
ATOM     32  C   UNL     1      -3.681  -5.708   1.377  1.00  0.00     0.000 A 
ENDBRANCH  11  27
ENDBRANCH   6   9
ENDBRANCH   4   5
ENDBRANCH   3   4
ENDBRANCH   2   3
ENDBRANCH   1   2
BRANCH   1  33
ATOM     33  C   UNL     1      -2.472  -5.815   8.227  1.00  0.00     0.021 C 
BRANCH  33  34
ATOM     34  C   UNL     1      -3.541  -6.217   9.236  1.00  0.00     0.116 C 
BRANCH  34  35
ATOM     35  N   UNL     1      -3.213  -7.415   9.997  1.00  0.00    -0.352 N 
ATOM     36  C   UNL     1      -3.912  -8.073  10.999  1.00  0.00     0.251 C 
ATOM     37  H   UNL     1      -2.351  -7.827   9.760  1.00  0.00     0.163 HD
ATOM     38  O   UNL     1      -3.403  -9.018  11.562  1.00  0.00    -0.269 OA
BRANCH  36  39
ATOM     39  C   UNL     1      -5.337  -7.729  11.270  1.00  0.00     0.039 A 
ATOM     40  C   UNL     1      -6.209  -8.794  11.546  1.00  0.00     0.014 A 
ATOM     41  C   UNL     1      -5.854  -6.461  11.039  1.00  0.00     0.014 A 
ATOM     42  C   UNL     1      -7.571  -8.646  11.302  1.00  0.00     0.010 A 
ATOM     43  C   UNL     1      -7.181  -6.337  10.691  1.00  0.00     0.010 A 
ATOM     44  C   UNL     1      -8.017  -7.452  10.744  1.00  0.00    -0.014 A 
BRANCH  44  45
ATOM     45  C   UNL     1      -9.300  -7.302  10.079  1.00  0.00     0.031 A 
ATOM     46  C   UNL     1     -10.407  -6.607  10.762  1.00  0.00     0.074 A 
ATOM     47  C   UNL     1      -9.427  -7.710   8.795  1.00  0.00     0.049 A 
ATOM     48  N   UNL     1     -11.655  -6.800  10.500  1.00  0.00    -0.248 NA
ATOM     49  C   UNL     1     -10.186  -5.651  11.843  1.00  0.00     0.031 C 
ATOM     50  C   UNL     1     -10.531  -7.417   7.884  1.00  0.00     0.029 A 
ATOM     51  N   UNL     1      -8.669  -8.656   8.098  1.00  0.00    -0.354 N 
ATOM     52  C   UNL     1     -12.361  -5.796  11.122  1.00  0.00     0.074 A 
ATOM     53  C   UNL     1     -11.421  -5.172  12.022  1.00  0.00     0.031 C 
ATOM     54  C   UNL     1     -10.562  -8.363   6.930  1.00  0.00     0.029 A 
ATOM     55  C   UNL     1      -9.580  -9.368   7.303  1.00  0.00     0.049 A 
ATOM     56  H   UNL     1      -7.696  -8.795   8.155  1.00  0.00     0.167 HD
ATOM     57  C   UNL     1     -13.619  -5.496  10.692  1.00  0.00     0.031 A 
ATOM     58  C   UNL     1      -9.848 -10.698   7.462  1.00  0.00     0.031 A 
ATOM     59  C   UNL     1     -14.050  -6.393   9.622  1.00  0.00     0.049 A 
ATOM     60  C   UNL     1     -11.317 -10.975   7.719  1.00  0.00     0.074 A 
ATOM     61  C   UNL     1     -14.096  -6.252   8.245  1.00  0.00     0.029 A 
ATOM     62  N   UNL     1     -14.212  -7.747   9.887  1.00  0.00    -0.354 N 
ATOM     63  N   UNL     1     -12.155 -10.081   8.168  1.00  0.00    -0.248 NA
ATOM     64  C   UNL     1     -11.948 -12.279   7.529  1.00  0.00     0.031 C 
ATOM     65  C   UNL     1     -14.226  -7.545   7.677  1.00  0.00     0.029 A 
ATOM     66  C   UNL     1     -14.289  -8.464   8.710  1.00  0.00     0.049 A 
ATOM     67  H   UNL     1     -14.264  -8.140  10.788  1.00  0.00     0.167 HD
ATOM     68  C   UNL     1     -13.401 -10.639   8.299  1.00  0.00     0.074 A 
ATOM     69  C   UNL     1     -13.218 -12.020   7.892  1.00  0.00     0.031 C 
ATOM     70  C   UNL     1     -14.471  -9.909   8.733  1.00  0.00     0.031 A 
BRANCH  57  71
ATOM     71  C   UNL     1     -14.331  -4.206  11.026  1.00  0.00    -0.014 A 
ATOM     72  C   UNL     1     -15.273  -3.679  10.122  1.00  0.00     0.009 A 
ATOM     73  C   UNL     1     -14.092  -3.438  12.178  1.00  0.00     0.009 A 
ATOM     74  C   UNL     1     -15.861  -2.420  10.305  1.00  0.00     0.001 A 
ATOM     75  C   UNL     1     -14.647  -2.161  12.351  1.00  0.00     0.001 A 
ATOM     76  C   UNL     1     -15.523  -1.646  11.406  1.00  0.00     0.000 A 
ENDBRANCH  57  71
BRANCH  58  77
ATOM     77  C   UNL     1      -8.735 -11.490   8.051  1.00  0.00    -0.014 A 
ATOM     78  C   UNL     1      -7.573 -11.687   7.281  1.00  0.00     0.009 A 
ATOM     79  C   UNL     1      -8.666 -11.707   9.435  1.00  0.00     0.009 A 
ATOM     80  C   UNL     1      -6.349 -11.975   7.893  1.00  0.00     0.001 A 
ATOM     81  C   UNL     1      -7.439 -12.005  10.042  1.00  0.00     0.001 A 
ATOM     82  C   UNL     1      -6.277 -12.100   9.277  1.00  0.00     0.000 A 
ENDBRANCH  58  77
BRANCH  70  83
ATOM     83  C   UNL     1     -15.823 -10.441   9.153  1.00  0.00    -0.014 A 
ATOM     84  C   UNL     1     -16.089 -11.775   9.483  1.00  0.00     0.009 A 
ATOM     85  C   UNL     1     -16.881  -9.523   9.361  1.00  0.00     0.009 A 
ATOM     86  C   UNL     1     -17.348 -12.175   9.957  1.00  0.00     0.001 A 
ATOM     87  C   UNL     1     -18.120  -9.907   9.878  1.00  0.00     0.001 A 
ATOM     88  C   UNL     1     -18.358 -11.241  10.166  1.00  0.00     0.000 A 
ENDBRANCH  70  83
ENDBRANCH  44  45
ENDBRANCH  36  39
ENDBRANCH  34  35
ENDBRANCH  33  34
ENDBRANCH   1  33
TORSDOF 15
