REMARK SMILES C[C@@H](C(=O)NCCCCCCNC(=O)c1ccc(-c2c3nc(c(-c4ccccc4)c4ccc([nH]4)c(-c4ccccc4)c4nc(c(-c5ccccc5)c5ccc2[nH]5)C=C4)C=C3)cc1)N1C(=O)/C(=C/c2ccc(F)cc2)SC1=S
REMARK SMILES IDX 8 1 7 2 6 3 5 4 3 5 4 6 2 8 1 9 63 10 64 11 76 12 65 13
REMARK SMILES IDX 66 14 75 15 77 16 67 17 68 18 69 19 74 20 70 21 73 22 71 23
REMARK SMILES IDX 72 24 9 25 10 26 11 27 12 28 13 29 14 31 15 32 16 33 62 34
REMARK SMILES IDX 17 35 61 36 18 37 19 38 20 39 55 40 21 41 60 42 54 43 56 44
REMARK SMILES IDX 22 45 59 46 53 47 52 48 23 50 45 51 30 52 44 53 31 54 34 55
REMARK SMILES IDX 43 56 57 57 32 58 33 59 42 61 58 62 35 63 24 64 25 65 29 66
REMARK SMILES IDX 26 67 28 68 27 69 46 70 47 71 51 72 48 73 50 74 49 75 36 76
REMARK SMILES IDX 37 77 41 78 38 79 40 80 39 81
REMARK H PARENT 5 7 12 30 56 49 34 60
REMARK Flexibility Score: inf
ROOT
ATOM      1  C   UNL     1       4.862  -1.341   2.418  1.00  0.00     0.002 C 
ENDROOT
BRANCH   1   2
ATOM      2  C   UNL     1       4.077  -0.865   1.187  1.00  0.00     0.021 C 
BRANCH   2   3
ATOM      3  C   UNL     1       3.187  -1.954   0.583  1.00  0.00     0.116 C 
BRANCH   3   4
ATOM      4  N   UNL     1       2.039  -2.175   1.441  1.00  0.00    -0.354 N 
ATOM      5  C   UNL     1       0.768  -1.685   1.343  1.00  0.00     0.242 C 
ATOM      6  O   UNL     1       0.030  -1.813   2.324  1.00  0.00    -0.273 OA
ATOM      7  H   UNL     1       2.200  -2.767   2.210  1.00  0.00     0.163 HD
BRANCH   5   8
ATOM      8  C   UNL     1       0.283  -1.035   0.027  1.00  0.00     0.178 C 
ATOM      9  C   UNL     1       0.965   0.300  -0.262  1.00  0.00     0.042 C 
BRANCH   8  10
ATOM     10  N   UNL     1      -1.203  -1.027   0.065  1.00  0.00    -0.281 N 
ATOM     11  C   UNL     1      -1.816  -2.262  -0.144  1.00  0.00     0.266 C 
ATOM     12  C   UNL     1      -2.051   0.002   0.430  1.00  0.00     0.149 C 
ATOM     13  O   UNL     1      -1.244  -3.309  -0.425  1.00  0.00    -0.268 OA
ATOM     14  C   UNL     1      -3.290  -2.156  -0.001  1.00  0.00     0.081 C 
ATOM     15  S   UNL     1      -3.724  -0.536   0.349  1.00  0.00    -0.054 SA
ATOM     16  S   UNL     1      -1.737   1.583   0.860  1.00  0.00    -0.052 S 
ATOM     17  C   UNL     1      -4.122  -3.197  -0.151  1.00  0.00     0.029 C 
BRANCH  17  18
ATOM     18  C   UNL     1      -5.585  -3.074  -0.154  1.00  0.00    -0.024 A 
ATOM     19  C   UNL     1      -6.358  -3.566   0.904  1.00  0.00     0.011 A 
ATOM     20  C   UNL     1      -6.214  -2.419  -1.225  1.00  0.00     0.011 A 
ATOM     21  C   UNL     1      -7.744  -3.380   0.899  1.00  0.00     0.040 A 
ATOM     22  C   UNL     1      -7.595  -2.228  -1.224  1.00  0.00     0.040 A 
ATOM     23  C   UNL     1      -8.347  -2.708  -0.160  1.00  0.00     0.123 A 
ATOM     24  F   UNL     1      -9.672  -2.516  -0.153  1.00  0.00    -0.207 F 
ENDBRANCH  17  18
ENDBRANCH   8  10
ENDBRANCH   5   8
ENDBRANCH   3   4
ENDBRANCH   2   3
ENDBRANCH   1   2
BRANCH   1  25
ATOM     25  C   UNL     1       5.866  -2.466   2.142  1.00  0.00     0.002 C 
BRANCH  25  26
ATOM     26  C   UNL     1       6.907  -2.143   1.069  1.00  0.00     0.021 C 
BRANCH  26  27
ATOM     27  C   UNL     1       7.796  -0.952   1.407  1.00  0.00     0.116 C 
BRANCH  27  28
ATOM     28  N   UNL     1       8.651  -1.222   2.554  1.00  0.00    -0.352 N 
ATOM     29  C   UNL     1      10.019  -1.161   2.641  1.00  0.00     0.251 C 
ATOM     30  H   UNL     1       8.184  -1.485   3.380  1.00  0.00     0.163 HD
ATOM     31  O   UNL     1      10.608  -1.622   3.615  1.00  0.00    -0.269 OA
BRANCH  29  32
ATOM     32  C   UNL     1      10.783  -0.547   1.538  1.00  0.00     0.039 A 
ATOM     33  C   UNL     1      11.893  -1.216   1.017  1.00  0.00     0.014 A 
ATOM     34  C   UNL     1      10.378   0.679   1.004  1.00  0.00     0.014 A 
ATOM     35  C   UNL     1      12.560  -0.685  -0.088  1.00  0.00     0.010 A 
ATOM     36  C   UNL     1      10.993   1.165  -0.143  1.00  0.00     0.010 A 
ATOM     37  C   UNL     1      12.092   0.490  -0.698  1.00  0.00    -0.014 A 
BRANCH  37  38
ATOM     38  C   UNL     1      12.730   1.046  -1.917  1.00  0.00     0.031 A 
ATOM     39  C   UNL     1      13.357   2.410  -1.874  1.00  0.00     0.074 A 
ATOM     40  C   UNL     1      12.651   0.375  -3.082  1.00  0.00     0.049 A 
ATOM     41  N   UNL     1      13.841   3.129  -2.854  1.00  0.00    -0.248 NA
ATOM     42  C   UNL     1      13.412   3.067  -0.558  1.00  0.00     0.031 C 
ATOM     43  C   UNL     1      12.034  -0.940  -3.263  1.00  0.00     0.029 A 
ATOM     44  N   UNL     1      13.070   0.724  -4.341  1.00  0.00    -0.354 N 
ATOM     45  C   UNL     1      14.231   4.332  -2.279  1.00  0.00     0.074 A 
ATOM     46  C   UNL     1      13.880   4.264  -0.877  1.00  0.00     0.031 C 
ATOM     47  C   UNL     1      12.120  -1.289  -4.556  1.00  0.00     0.029 A 
ATOM     48  C   UNL     1      12.752  -0.205  -5.302  1.00  0.00     0.049 A 
ATOM     49  H   UNL     1      13.553   1.559  -4.537  1.00  0.00     0.167 HD
ATOM     50  C   UNL     1      14.838   5.393  -2.861  1.00  0.00     0.031 A 
ATOM     51  C   UNL     1      12.925  -0.179  -6.637  1.00  0.00     0.031 A 
ATOM     52  C   UNL     1      15.186   5.454  -4.256  1.00  0.00     0.049 A 
ATOM     53  C   UNL     1      13.585   1.013  -7.271  1.00  0.00     0.074 A 
ATOM     54  C   UNL     1      15.864   6.453  -4.931  1.00  0.00     0.029 A 
ATOM     55  N   UNL     1      14.872   4.478  -5.190  1.00  0.00    -0.354 N 
ATOM     56  N   UNL     1      14.019   2.113  -6.703  1.00  0.00    -0.248 NA
ATOM     57  C   UNL     1      13.790   0.966  -8.726  1.00  0.00     0.031 C 
ATOM     58  C   UNL     1      15.900   6.113  -6.287  1.00  0.00     0.029 A 
ATOM     59  C   UNL     1      15.310   4.868  -6.444  1.00  0.00     0.049 A 
ATOM     60  H   UNL     1      14.407   3.633  -4.991  1.00  0.00     0.167 HD
ATOM     61  C   UNL     1      14.572   2.875  -7.724  1.00  0.00     0.074 A 
ATOM     62  C   UNL     1      14.425   2.109  -8.945  1.00  0.00     0.031 C 
ATOM     63  C   UNL     1      15.156   4.096  -7.652  1.00  0.00     0.031 A 
BRANCH  50  64
ATOM     64  C   UNL     1      15.131   6.583  -1.989  1.00  0.00    -0.014 A 
ATOM     65  C   UNL     1      16.068   6.517  -0.944  1.00  0.00     0.009 A 
ATOM     66  C   UNL     1      14.456   7.793  -2.215  1.00  0.00     0.009 A 
ATOM     67  C   UNL     1      16.278   7.617  -0.110  1.00  0.00     0.001 A 
ATOM     68  C   UNL     1      14.695   8.902  -1.403  1.00  0.00     0.001 A 
ATOM     69  C   UNL     1      15.593   8.809  -0.341  1.00  0.00     0.000 A 
ENDBRANCH  50  64
BRANCH  51  70
ATOM     70  C   UNL     1      12.456  -1.326  -7.457  1.00  0.00    -0.014 A 
ATOM     71  C   UNL     1      13.373  -2.214  -8.038  1.00  0.00     0.009 A 
ATOM     72  C   UNL     1      11.082  -1.562  -7.629  1.00  0.00     0.009 A 
ATOM     73  C   UNL     1      12.925  -3.307  -8.785  1.00  0.00     0.001 A 
ATOM     74  C   UNL     1      10.636  -2.671  -8.351  1.00  0.00     0.001 A 
ATOM     75  C   UNL     1      11.558  -3.539  -8.934  1.00  0.00     0.000 A 
ENDBRANCH  51  70
BRANCH  63  76
ATOM     76  C   UNL     1      15.721   4.677  -8.919  1.00  0.00    -0.014 A 
ATOM     77  C   UNL     1      14.888   5.183  -9.928  1.00  0.00     0.009 A 
ATOM     78  C   UNL     1      17.113   4.795  -9.062  1.00  0.00     0.009 A 
ATOM     79  C   UNL     1      15.441   5.782 -11.062  1.00  0.00     0.001 A 
ATOM     80  C   UNL     1      17.661   5.420 -10.182  1.00  0.00     0.001 A 
ATOM     81  C   UNL     1      16.825   5.909 -11.184  1.00  0.00     0.000 A 
ENDBRANCH  63  76
ENDBRANCH  37  38
ENDBRANCH  29  32
ENDBRANCH  27  28
ENDBRANCH  26  27
ENDBRANCH  25  26
ENDBRANCH   1  25
TORSDOF 15
