REMARK SMILES O=C(NCCCCCCNC(=O)c1cccnc1SCC(=O)c1ccccc1Cl)c1ccc(-c2c3nc(c(-c4ccccc4)c4ccc([nH]4)c(-c4ccccc4)c4nc(c(-c5ccccc5)c5ccc2[nH]5)C=C4)C=C3)cc1
REMARK SMILES IDX 7 1 6 2 5 3 4 4 3 5 1 6 2 7 30 9 31 10 77 11 32 12 76 13
REMARK SMILES IDX 33 14 34 15 35 16 70 17 36 18 75 19 69 20 71 21 37 22 74 23
REMARK SMILES IDX 68 24 67 25 38 27 60 28 45 29 59 30 46 31 49 32 58 33 72 34
REMARK SMILES IDX 47 35 48 36 57 38 73 39 50 40 39 41 40 42 44 43 41 44 43 45
REMARK SMILES IDX 42 46 61 47 62 48 66 49 63 50 65 51 64 52 51 53 52 54 56 55
REMARK SMILES IDX 53 56 55 57 54 58 8 59 9 60 10 61 11 62 12 64 13 65 14 66
REMARK SMILES IDX 18 67 15 68 17 69 16 70 19 71 20 72 21 73 22 74 23 75 24 76
REMARK SMILES IDX 28 77 25 78 27 79 29 80 26 81
REMARK H PARENT 3 8 71 26 49 37 10 63
REMARK Flexibility Score: inf
ROOT
ATOM      1  C   UNL     1       4.633   2.993  -3.421  1.00  0.00     0.002 C 
ENDROOT
BRANCH   1   2
ATOM      2  C   UNL     1       4.081   1.601  -3.740  1.00  0.00     0.002 C 
BRANCH   2   3
ATOM      3  C   UNL     1       4.509   0.454  -2.826  1.00  0.00     0.021 C 
BRANCH   3   4
ATOM      4  C   UNL     1       4.289   0.665  -1.336  1.00  0.00     0.116 C 
BRANCH   4   5
ATOM      5  N   UNL     1       2.888   0.674  -0.952  1.00  0.00    -0.352 N 
ATOM      6  O   UNL     1       1.040   0.047   0.187  1.00  0.00    -0.269 OA
ATOM      7  C   UNL     1       2.267  -0.001   0.071  1.00  0.00     0.251 C 
ATOM      8  H   UNL     1       2.302   1.243  -1.501  1.00  0.00     0.163 HD
BRANCH   7   9
ATOM      9  C   UNL     1       3.057  -0.819   1.021  1.00  0.00     0.039 A 
ATOM     10  C   UNL     1       4.255  -0.344   1.558  1.00  0.00     0.014 A 
ATOM     11  C   UNL     1       2.586  -2.084   1.389  1.00  0.00     0.014 A 
ATOM     12  C   UNL     1       5.046  -1.181   2.339  1.00  0.00     0.010 A 
ATOM     13  C   UNL     1       3.343  -2.896   2.242  1.00  0.00     0.010 A 
ATOM     14  C   UNL     1       4.596  -2.463   2.698  1.00  0.00    -0.014 A 
BRANCH  14  15
ATOM     15  C   UNL     1       5.438  -3.290   3.601  1.00  0.00     0.031 A 
ATOM     16  C   UNL     1       6.091  -4.559   3.129  1.00  0.00     0.074 A 
ATOM     17  C   UNL     1       5.667  -2.843   4.852  1.00  0.00     0.049 A 
ATOM     18  N   UNL     1       6.941  -5.329   3.764  1.00  0.00    -0.248 NA
ATOM     19  C   UNL     1       5.749  -5.030   1.779  1.00  0.00     0.031 C 
ATOM     20  C   UNL     1       5.073  -1.637   5.437  1.00  0.00     0.029 A 
ATOM     21  N   UNL     1       6.489  -3.322   5.839  1.00  0.00    -0.354 N 
ATOM     22  C   UNL     1       7.224  -6.379   2.900  1.00  0.00     0.074 A 
ATOM     23  C   UNL     1       6.440  -6.160   1.702  1.00  0.00     0.031 C 
ATOM     24  C   UNL     1       5.602  -1.434   6.652  1.00  0.00     0.029 A 
ATOM     25  C   UNL     1       6.534  -2.515   6.949  1.00  0.00     0.049 A 
ATOM     26  H   UNL     1       6.996  -4.162   5.760  1.00  0.00     0.167 HD
ATOM     27  C   UNL     1       8.064  -7.426   3.084  1.00  0.00     0.031 A 
ATOM     28  C   UNL     1       7.251  -2.624   8.082  1.00  0.00     0.031 A 
ATOM     29  C   UNL     1       8.846  -7.649   4.273  1.00  0.00     0.049 A 
ATOM     30  C   UNL     1       8.188  -3.781   8.250  1.00  0.00     0.074 A 
ATOM     31  C   UNL     1       9.727  -8.682   4.546  1.00  0.00     0.029 A 
ATOM     32  N   UNL     1       8.843  -6.823   5.385  1.00  0.00    -0.354 N 
ATOM     33  N   UNL     1       8.456  -4.752   7.412  1.00  0.00    -0.248 NA
ATOM     34  C   UNL     1       8.923  -3.855   9.521  1.00  0.00     0.031 C 
ATOM     35  C   UNL     1      10.236  -8.496   5.837  1.00  0.00     0.029 A 
ATOM     36  C   UNL     1       9.699  -7.327   6.350  1.00  0.00     0.049 A 
ATOM     37  H   UNL     1       8.311  -5.999   5.476  1.00  0.00     0.167 HD
ATOM     38  C   UNL     1       9.385  -5.557   8.055  1.00  0.00     0.074 A 
ATOM     39  C   UNL     1       9.662  -4.940   9.336  1.00  0.00     0.031 C 
ATOM     40  C   UNL     1       9.949  -6.711   7.626  1.00  0.00     0.031 A 
BRANCH  27  41
ATOM     41  C   UNL     1       8.174  -8.431   1.972  1.00  0.00    -0.014 A 
ATOM     42  C   UNL     1       8.912  -8.147   0.812  1.00  0.00     0.009 A 
ATOM     43  C   UNL     1       7.580  -9.695   2.109  1.00  0.00     0.009 A 
ATOM     44  C   UNL     1       9.036  -9.104  -0.198  1.00  0.00     0.001 A 
ATOM     45  C   UNL     1       7.722 -10.656   1.106  1.00  0.00     0.001 A 
ATOM     46  C   UNL     1       8.444 -10.358  -0.048  1.00  0.00     0.000 A 
ENDBRANCH  27  41
BRANCH  28  47
ATOM     47  C   UNL     1       7.107  -1.597   9.144  1.00  0.00    -0.014 A 
ATOM     48  C   UNL     1       8.128  -0.666   9.380  1.00  0.00     0.009 A 
ATOM     49  C   UNL     1       5.934  -1.534   9.912  1.00  0.00     0.009 A 
ATOM     50  C   UNL     1       7.983   0.302  10.376  1.00  0.00     0.001 A 
ATOM     51  C   UNL     1       5.781  -0.550  10.889  1.00  0.00     0.001 A 
ATOM     52  C   UNL     1       6.808   0.362  11.126  1.00  0.00     0.000 A 
ENDBRANCH  28  47
BRANCH  40  53
ATOM     53  C   UNL     1      10.915  -7.375   8.562  1.00  0.00    -0.014 A 
ATOM     54  C   UNL     1      10.457  -8.072   9.691  1.00  0.00     0.009 A 
ATOM     55  C   UNL     1      12.293  -7.308   8.311  1.00  0.00     0.009 A 
ATOM     56  C   UNL     1      11.366  -8.659  10.573  1.00  0.00     0.001 A 
ATOM     57  C   UNL     1      13.198  -7.914   9.184  1.00  0.00     0.001 A 
ATOM     58  C   UNL     1      12.735  -8.580  10.318  1.00  0.00     0.000 A 
ENDBRANCH  40  53
ENDBRANCH  14  15
ENDBRANCH   7   9
ENDBRANCH   4   5
ENDBRANCH   3   4
ENDBRANCH   2   3
ENDBRANCH   1   2
BRANCH   1  59
ATOM     59  C   UNL     1       6.144   3.127  -3.205  1.00  0.00     0.021 C 
BRANCH  59  60
ATOM     60  C   UNL     1       7.053   2.479  -4.241  1.00  0.00     0.116 C 
BRANCH  60  61
ATOM     61  N   UNL     1       6.779   2.862  -5.611  1.00  0.00    -0.352 N 
ATOM     62  C   UNL     1       7.711   2.933  -6.608  1.00  0.00     0.254 C 
ATOM     63  H   UNL     1       5.849   3.089  -5.842  1.00  0.00     0.163 HD
ATOM     64  O   UNL     1       7.444   2.651  -7.781  1.00  0.00    -0.269 OA
BRANCH  62  65
ATOM     65  C   UNL     1       9.093   3.253  -6.289  1.00  0.00     0.072 A 
ATOM     66  C   UNL     1      10.002   2.191  -6.428  1.00  0.00     0.018 A 
ATOM     67  C   UNL     1       9.533   4.490  -5.834  1.00  0.00     0.109 A 
ATOM     68  C   UNL     1      11.330   2.368  -6.077  1.00  0.00     0.021 A 
ATOM     69  N   UNL     1      10.848   4.658  -5.505  1.00  0.00    -0.249 NA
ATOM     70  C   UNL     1      11.706   3.617  -5.630  1.00  0.00     0.112 A 
BRANCH  67  71
ATOM     71  S   UNL     1       8.575   5.886  -5.301  1.00  0.00    -0.097 SA
BRANCH  71  72
ATOM     72  C   UNL     1       7.369   6.468  -6.517  1.00  0.00     0.157 C 
BRANCH  72  73
ATOM     73  C   UNL     1       7.015   5.769  -7.796  1.00  0.00     0.174 C 
ATOM     74  O   UNL     1       6.069   4.974  -7.804  1.00  0.00    -0.293 OA
BRANCH  73  75
ATOM     75  C   UNL     1       7.498   6.263  -9.127  1.00  0.00     0.037 A 
ATOM     76  C   UNL     1       6.518   6.302 -10.143  1.00  0.00     0.013 A 
ATOM     77  C   UNL     1       8.794   6.674  -9.452  1.00  0.00     0.051 A 
ATOM     78  C   UNL     1       6.817   6.734 -11.438  1.00  0.00     0.001 A 
ATOM     79  C   UNL     1       9.093   7.098 -10.760  1.00  0.00     0.021 A 
ATOM     80  Cl  UNL     1      10.116   6.670  -8.355  1.00  0.00    -0.084 Cl
ATOM     81  C   UNL     1       8.110   7.129 -11.749  1.00  0.00     0.002 A 
ENDBRANCH  73  75
ENDBRANCH  72  73
ENDBRANCH  71  72
ENDBRANCH  67  71
ENDBRANCH  62  65
ENDBRANCH  60  61
ENDBRANCH  59  60
ENDBRANCH   1  59
TORSDOF 17
