REMARK SMILES CC[NH2+][C@@]1(C(=O)NCCCCCCNC(=O)c2ccc(-c3c4nc(c(-c5ccccc5)c5ccc([nH]5)c(-c5ccccc5)c5nc(c(-c6ccccc6)c6ccc3[nH]6)C=C5)C=C4)cc2)CCC[C@@H]1CC[N@@H+](C)C1CCCC1
REMARK SMILES IDX 9 1 8 2 7 3 5 4 6 5 4 7 65 8 68 9 66 10 67 11 3 12 2 15 1 16
REMARK SMILES IDX 69 17 70 18 71 19 72 20 73 22 74 23 77 24 75 25 76 26 10 27
REMARK SMILES IDX 11 28 12 29 13 30 14 31 15 32 16 34 17 35 18 36 64 37 19 38
REMARK SMILES IDX 63 39 20 40 21 41 22 42 57 43 23 44 62 45 56 46 58 47 24 48
REMARK SMILES IDX 61 49 55 50 54 51 25 53 47 54 32 55 46 56 33 57 36 58 45 59
REMARK SMILES IDX 59 60 34 61 35 62 44 64 60 65 37 66 26 67 27 68 31 69 28 70
REMARK SMILES IDX 30 71 29 72 48 73 49 74 53 75 50 76 52 77 51 78 38 79 39 80
REMARK SMILES IDX 43 81 40 82 42 83 41 84
REMARK H PARENT 7 6 3 13 3 14 71 21 14 33 58 52 36 63
REMARK Flexibility Score: inf
ROOT
ATOM      1  C   UNL     1      -2.496   2.126  -6.428  1.00  0.00     0.021 C 
ENDROOT
BRANCH   1   2
ATOM      2  C   UNL     1      -2.564   2.428  -4.927  1.00  0.00     0.116 C 
BRANCH   2   3
ATOM      3  N   UNL     1      -2.371   1.229  -4.141  1.00  0.00    -0.351 N 
ATOM      4  C   UNL     1      -1.405   0.713  -3.344  1.00  0.00     0.281 C 
ATOM      5  O   UNL     1      -1.724  -0.396  -2.885  1.00  0.00    -0.268 OA
ATOM      6  H   UNL     1      -3.148   0.628  -4.202  1.00  0.00     0.163 HD
BRANCH   4   7
ATOM      7  C   UNL     1      -0.002   1.379  -2.995  1.00  0.00     0.178 C 
ATOM      8  C   UNL     1      -0.128   2.815  -2.440  1.00  0.00     0.079 C 
ATOM      9  C   UNL     1       0.985   1.534  -4.202  1.00  0.00     0.066 C 
ATOM     10  C   UNL     1       0.313   3.788  -3.518  1.00  0.00     0.008 C 
ATOM     11  C   UNL     1       0.773   2.959  -4.701  1.00  0.00     0.011 C 
BRANCH   7  12
ATOM     12  N   UNL     1       0.678   0.487  -1.993  1.00  0.00    -0.334 N 
ATOM     13  H   UNL     1       0.593  -0.475  -2.320  1.00  0.00     0.347 HD
ATOM     14  H   UNL     1       1.641   0.818  -1.932  1.00  0.00     0.347 HD
BRANCH  12  15
ATOM     15  C   UNL     1       0.145   0.550  -0.629  1.00  0.00     0.257 C 
ATOM     16  C   UNL     1       0.846  -0.476   0.251  1.00  0.00     0.071 C 
ENDBRANCH  12  15
ENDBRANCH   7  12
BRANCH   9  17
ATOM     17  C   UNL     1       1.052   0.348  -5.213  1.00  0.00     0.072 C 
BRANCH  17  18
ATOM     18  C   UNL     1       0.892   0.570  -6.738  1.00  0.00     0.262 C 
BRANCH  18  19
ATOM     19  N   UNL     1       2.010   0.980  -7.634  1.00  0.00    -0.335 N 
ATOM     20  C   UNL     1       1.450   1.168  -8.983  1.00  0.00     0.332 C 
ATOM     21  H   UNL     1       2.716   0.243  -7.625  1.00  0.00     0.348 HD
BRANCH  19  22
ATOM     22  C   UNL     1       2.723   2.174  -7.187  1.00  0.00     0.183 C 
ATOM     23  C   UNL     1       3.841   1.851  -6.191  1.00  0.00     0.065 C 
ATOM     24  C   UNL     1       3.514   3.049  -8.174  1.00  0.00     0.065 C 
ATOM     25  C   UNL     1       4.544   3.187  -5.972  1.00  0.00     0.006 C 
ATOM     26  C   UNL     1       4.257   4.002  -7.232  1.00  0.00     0.006 C 
ENDBRANCH  19  22
ENDBRANCH  18  19
ENDBRANCH  17  18
ENDBRANCH   9  17
ENDBRANCH   4   7
ENDBRANCH   2   3
ENDBRANCH   1   2
BRANCH   1  27
ATOM     27  C   UNL     1      -3.828   2.321  -7.156  1.00  0.00     0.002 C 
BRANCH  27  28
ATOM     28  C   UNL     1      -4.314   3.773  -7.219  1.00  0.00     0.002 C 
BRANCH  28  29
ATOM     29  C   UNL     1      -3.398   4.741  -7.973  1.00  0.00     0.021 C 
BRANCH  29  30
ATOM     30  C   UNL     1      -3.066   4.330  -9.406  1.00  0.00     0.116 C 
BRANCH  30  31
ATOM     31  N   UNL     1      -4.262   4.138 -10.210  1.00  0.00    -0.352 N 
ATOM     32  C   UNL     1      -4.708   4.844 -11.299  1.00  0.00     0.251 C 
ATOM     33  H   UNL     1      -4.839   3.389  -9.931  1.00  0.00     0.163 HD
ATOM     34  O   UNL     1      -5.853   4.696 -11.711  1.00  0.00    -0.269 OA
BRANCH  32  35
ATOM     35  C   UNL     1      -3.799   5.788 -11.977  1.00  0.00     0.039 A 
ATOM     36  C   UNL     1      -4.263   7.061 -12.316  1.00  0.00     0.014 A 
ATOM     37  C   UNL     1      -2.496   5.400 -12.298  1.00  0.00     0.014 A 
ATOM     38  C   UNL     1      -3.399   7.970 -12.932  1.00  0.00     0.010 A 
ATOM     39  C   UNL     1      -1.618   6.326 -12.850  1.00  0.00     0.010 A 
ATOM     40  C   UNL     1      -2.064   7.615 -13.180  1.00  0.00    -0.014 A 
BRANCH  40  41
ATOM     41  C   UNL     1      -1.112   8.558 -13.816  1.00  0.00     0.031 A 
ATOM     42  C   UNL     1      -0.539   8.235 -15.168  1.00  0.00     0.074 A 
ATOM     43  C   UNL     1      -0.698   9.650 -13.146  1.00  0.00     0.049 A 
ATOM     44  N   UNL     1       0.404   8.850 -15.835  1.00  0.00    -0.248 NA
ATOM     45  C   UNL     1      -1.077   7.043 -15.845  1.00  0.00     0.031 C 
ATOM     46  C   UNL     1      -1.157  10.057 -11.817  1.00  0.00     0.029 A 
ATOM     47  N   UNL     1       0.221  10.609 -13.489  1.00  0.00    -0.354 N 
ATOM     48  C   UNL     1       0.589   8.106 -16.994  1.00  0.00     0.074 A 
ATOM     49  C   UNL     1      -0.305   6.972 -16.919  1.00  0.00     0.031 C 
ATOM     50  C   UNL     1      -0.525  11.187 -11.461  1.00  0.00     0.029 A 
ATOM     51  C   UNL     1       0.411  11.560 -12.517  1.00  0.00     0.049 A 
ATOM     52  H   UNL     1       0.699  10.615 -14.350  1.00  0.00     0.167 HD
ATOM     53  C   UNL     1       1.416   8.355 -18.036  1.00  0.00     0.031 A 
ATOM     54  C   UNL     1       1.257  12.607 -12.475  1.00  0.00     0.031 A 
ATOM     55  C   UNL     1       2.292   9.492 -18.117  1.00  0.00     0.049 A 
ATOM     56  C   UNL     1       2.170  12.861 -13.642  1.00  0.00     0.074 A 
ATOM     57  C   UNL     1       3.137   9.859 -19.149  1.00  0.00     0.029 A 
ATOM     58  N   UNL     1       2.429  10.450 -17.125  1.00  0.00    -0.354 N 
ATOM     59  N   UNL     1       2.300  12.175 -14.752  1.00  0.00    -0.248 NA
ATOM     60  C   UNL     1       3.044  14.039 -13.556  1.00  0.00     0.031 C 
ATOM     61  C   UNL     1       3.816  11.019 -18.765  1.00  0.00     0.029 A 
ATOM     62  C   UNL     1       3.355  11.402 -17.515  1.00  0.00     0.049 A 
ATOM     63  H   UNL     1       1.942  10.453 -16.269  1.00  0.00     0.167 HD
ATOM     64  C   UNL     1       3.245  12.856 -15.509  1.00  0.00     0.074 A 
ATOM     65  C   UNL     1       3.648  14.012 -14.736  1.00  0.00     0.031 C 
ATOM     66  C   UNL     1       3.733  12.552 -16.736  1.00  0.00     0.031 A 
BRANCH  53  67
ATOM     67  C   UNL     1       1.412   7.369 -19.171  1.00  0.00    -0.014 A 
ATOM     68  C   UNL     1       0.310   7.261 -20.035  1.00  0.00     0.009 A 
ATOM     69  C   UNL     1       2.532   6.555 -19.396  1.00  0.00     0.009 A 
ATOM     70  C   UNL     1       0.314   6.330 -21.075  1.00  0.00     0.001 A 
ATOM     71  C   UNL     1       2.546   5.646 -20.455  1.00  0.00     0.001 A 
ATOM     72  C   UNL     1       1.434   5.526 -21.287  1.00  0.00     0.000 A 
ENDBRANCH  53  67
BRANCH  54  73
ATOM     73  C   UNL     1       1.274  13.502 -11.289  1.00  0.00    -0.014 A 
ATOM     74  C   UNL     1       0.764  14.807 -11.375  1.00  0.00     0.009 A 
ATOM     75  C   UNL     1       1.804  13.060 -10.067  1.00  0.00     0.009 A 
ATOM     76  C   UNL     1       0.808  15.658 -10.268  1.00  0.00     0.001 A 
ATOM     77  C   UNL     1       1.821  13.904  -8.954  1.00  0.00     0.001 A 
ATOM     78  C   UNL     1       1.332  15.206  -9.059  1.00  0.00     0.000 A 
ENDBRANCH  54  73
BRANCH  66  79
ATOM     79  C   UNL     1       4.721  13.507 -17.341  1.00  0.00    -0.014 A 
ATOM     80  C   UNL     1       6.046  13.574 -16.887  1.00  0.00     0.009 A 
ATOM     81  C   UNL     1       4.329  14.310 -18.424  1.00  0.00     0.009 A 
ATOM     82  C   UNL     1       6.954  14.447 -17.490  1.00  0.00     0.001 A 
ATOM     83  C   UNL     1       5.245  15.162 -19.041  1.00  0.00     0.001 A 
ATOM     84  C   UNL     1       6.554  15.235 -18.569  1.00  0.00     0.000 A 
ENDBRANCH  66  79
ENDBRANCH  40  41
ENDBRANCH  32  35
ENDBRANCH  30  31
ENDBRANCH  29  30
ENDBRANCH  28  29
ENDBRANCH  27  28
ENDBRANCH   1  27
TORSDOF 19
