REMARK SMILES C[C@@H](C(=O)NCCCCCCNC(=O)c1ccc(-c2c3nc(c(-c4ccccc4)c4ccc([nH]4)c(-c4ccccc4)c4nc(c(-c5ccccc5)c5ccc2[nH]5)C=C4)C=C3)cc1)c1ccc(C[C@H]2CCC[C@H]2O)cc1
REMARK SMILES IDX 7 1 6 2 5 3 3 4 4 5 2 7 1 8 63 9 64 10 75 11 65 12 74 13
REMARK SMILES IDX 66 14 67 15 68 16 69 17 72 18 70 19 71 20 73 21 8 23 9 24
REMARK SMILES IDX 10 25 11 26 12 27 13 28 14 30 15 31 16 32 62 33 17 34 61 35
REMARK SMILES IDX 18 36 19 37 20 38 55 39 21 40 60 41 54 42 56 43 22 44 59 45
REMARK SMILES IDX 53 46 52 47 23 49 45 50 30 51 44 52 31 53 34 54 43 55 57 56
REMARK SMILES IDX 32 57 33 58 42 60 58 61 35 62 24 63 25 64 29 65 26 66 28 67
REMARK SMILES IDX 27 68 46 69 47 70 51 71 48 72 50 73 49 74 36 75 37 76 41 77
REMARK SMILES IDX 38 78 40 79 39 80
REMARK H PARENT 5 6 73 22 12 29 56 48 34 59
REMARK Flexibility Score: inf
ROOT
ATOM      1  C   UNL     1       4.364   0.792  -1.336  1.00  0.00     0.021 C 
ENDROOT
BRANCH   1   2
ATOM      2  C   UNL     1       3.480   1.873  -0.705  1.00  0.00     0.116 C 
BRANCH   2   3
ATOM      3  N   UNL     1       2.402   2.210  -1.610  1.00  0.00    -0.356 N 
ATOM      4  C   UNL     1       1.139   1.694  -1.672  1.00  0.00     0.227 C 
ATOM      5  O   UNL     1       0.538   1.830  -2.739  1.00  0.00    -0.274 OA
ATOM      6  H   UNL     1       2.607   2.908  -2.272  1.00  0.00     0.163 HD
BRANCH   4   7
ATOM      7  C   UNL     1       0.520   1.041  -0.422  1.00  0.00     0.105 C 
ATOM      8  C   UNL     1       1.045  -0.386  -0.240  1.00  0.00     0.023 C 
BRANCH   7   9
ATOM      9  C   UNL     1      -1.007   1.147  -0.412  1.00  0.00    -0.036 A 
ATOM     10  C   UNL     1      -1.609   2.390  -0.668  1.00  0.00     0.005 A 
ATOM     11  C   UNL     1      -1.848   0.066  -0.108  1.00  0.00     0.005 A 
ATOM     12  C   UNL     1      -2.994   2.547  -0.616  1.00  0.00     0.004 A 
ATOM     13  C   UNL     1      -3.231   0.234  -0.016  1.00  0.00     0.004 A 
ATOM     14  C   UNL     1      -3.814   1.487  -0.230  1.00  0.00    -0.048 A 
BRANCH  14  15
ATOM     15  C   UNL     1      -5.289   1.696  -0.001  1.00  0.00     0.041 C 
BRANCH  15  16
ATOM     16  C   UNL     1      -5.710   2.186   1.397  1.00  0.00     0.022 C 
ATOM     17  C   UNL     1      -5.138   1.409   2.597  1.00  0.00     0.007 C 
ATOM     18  C   UNL     1      -5.470   3.664   1.746  1.00  0.00     0.117 C 
ATOM     19  C   UNL     1      -5.056   2.412   3.752  1.00  0.00     0.003 C 
ATOM     20  C   UNL     1      -5.718   3.691   3.250  1.00  0.00     0.032 C 
BRANCH  18  21
ATOM     21  O   UNL     1      -4.154   4.130   1.502  1.00  0.00    -0.393 OA
ATOM     22  H   UNL     1      -3.523   3.604   2.017  1.00  0.00     0.210 HD
ENDBRANCH  18  21
ENDBRANCH  15  16
ENDBRANCH  14  15
ENDBRANCH   7   9
ENDBRANCH   4   7
ENDBRANCH   2   3
ENDBRANCH   1   2
BRANCH   1  23
ATOM     23  C   UNL     1       5.099   1.251  -2.602  1.00  0.00     0.002 C 
BRANCH  23  24
ATOM     24  C   UNL     1       6.050   2.432  -2.400  1.00  0.00     0.002 C 
BRANCH  24  25
ATOM     25  C   UNL     1       7.107   2.224  -1.314  1.00  0.00     0.021 C 
BRANCH  25  26
ATOM     26  C   UNL     1       8.001   1.006  -1.523  1.00  0.00     0.116 C 
BRANCH  26  27
ATOM     27  N   UNL     1       8.795   1.113  -2.735  1.00  0.00    -0.352 N 
ATOM     28  C   UNL     1      10.147   0.959  -2.907  1.00  0.00     0.251 C 
ATOM     29  H   UNL     1       8.289   1.328  -3.552  1.00  0.00     0.163 HD
ATOM     30  O   UNL     1      10.673   1.277  -3.969  1.00  0.00    -0.269 OA
BRANCH  28  31
ATOM     31  C   UNL     1      10.978   0.425  -1.807  1.00  0.00     0.039 A 
ATOM     32  C   UNL     1      12.207   1.035  -1.541  1.00  0.00     0.014 A 
ATOM     33  C   UNL     1      10.568  -0.683  -1.059  1.00  0.00     0.014 A 
ATOM     34  C   UNL     1      13.002   0.562  -0.496  1.00  0.00     0.010 A 
ATOM     35  C   UNL     1      11.331  -1.111   0.025  1.00  0.00     0.010 A 
ATOM     36  C   UNL     1      12.559  -0.498   0.313  1.00  0.00    -0.014 A 
BRANCH  36  37
ATOM     37  C   UNL     1      13.378  -0.971   1.456  1.00  0.00     0.031 A 
ATOM     38  C   UNL     1      13.977  -2.350   1.447  1.00  0.00     0.074 A 
ATOM     39  C   UNL     1      13.559  -0.165   2.521  1.00  0.00     0.049 A 
ATOM     40  N   UNL     1      14.717  -2.933   2.356  1.00  0.00    -0.248 NA
ATOM     41  C   UNL     1      13.693  -3.192   0.274  1.00  0.00     0.031 C 
ATOM     42  C   UNL     1      12.994   1.178   2.673  1.00  0.00     0.029 A 
ATOM     43  N   UNL     1      14.272  -0.359   3.677  1.00  0.00    -0.354 N 
ATOM     44  C   UNL     1      14.986  -4.205   1.866  1.00  0.00     0.074 A 
ATOM     45  C   UNL     1      14.282  -4.331   0.608  1.00  0.00     0.031 C 
ATOM     46  C   UNL     1      13.405   1.697   3.842  1.00  0.00     0.029 A 
ATOM     47  C   UNL     1      14.235   0.715   4.533  1.00  0.00     0.049 A 
ATOM     48  H   UNL     1      14.764  -1.188   3.874  1.00  0.00     0.167 HD
ATOM     49  C   UNL     1      15.767  -5.174   2.400  1.00  0.00     0.031 A 
ATOM     50  C   UNL     1      14.806   0.890   5.739  1.00  0.00     0.031 A 
ATOM     51  C   UNL     1      16.469  -5.054   3.650  1.00  0.00     0.049 A 
ATOM     52  C   UNL     1      15.664  -0.203   6.312  1.00  0.00     0.074 A 
ATOM     53  C   UNL     1      17.308  -5.970   4.261  1.00  0.00     0.029 A 
ATOM     54  N   UNL     1      16.414  -3.945   4.481  1.00  0.00    -0.354 N 
ATOM     55  N   UNL     1      15.954  -1.376   5.806  1.00  0.00    -0.248 NA
ATOM     56  C   UNL     1      16.287   0.063   7.616  1.00  0.00     0.031 C 
ATOM     57  C   UNL     1      17.730  -5.431   5.481  1.00  0.00     0.029 A 
ATOM     58  C   UNL     1      17.195  -4.159   5.605  1.00  0.00     0.049 A 
ATOM     59  H   UNL     1      15.897  -3.127   4.298  1.00  0.00     0.167 HD
ATOM     60  C   UNL     1      16.812  -1.978   6.717  1.00  0.00     0.074 A 
ATOM     61  C   UNL     1      17.013  -1.031   7.794  1.00  0.00     0.031 C 
ATOM     62  C   UNL     1      17.381  -3.207   6.668  1.00  0.00     0.031 A 
BRANCH  49  63
ATOM     63  C   UNL     1      15.911  -6.452   1.621  1.00  0.00    -0.014 A 
ATOM     64  C   UNL     1      16.648  -6.490   0.427  1.00  0.00     0.009 A 
ATOM     65  C   UNL     1      15.338  -7.639   2.103  1.00  0.00     0.009 A 
ATOM     66  C   UNL     1      16.781  -7.683  -0.286  1.00  0.00     0.001 A 
ATOM     67  C   UNL     1      15.496  -8.836   1.402  1.00  0.00     0.001 A 
ATOM     68  C   UNL     1      16.210  -8.856   0.205  1.00  0.00     0.000 A 
ENDBRANCH  49  63
BRANCH  50  69
ATOM     69  C   UNL     1      14.598   2.159   6.485  1.00  0.00    -0.014 A 
ATOM     70  C   UNL     1      15.651   3.072   6.651  1.00  0.00     0.009 A 
ATOM     71  C   UNL     1      13.348   2.453   7.052  1.00  0.00     0.009 A 
ATOM     72  C   UNL     1      15.465   4.238   7.397  1.00  0.00     0.001 A 
ATOM     73  C   UNL     1      13.158   3.634   7.773  1.00  0.00     0.001 A 
ATOM     74  C   UNL     1      14.219   4.519   7.955  1.00  0.00     0.000 A 
ENDBRANCH  50  69
BRANCH  62  75
ATOM     75  C   UNL     1      18.297  -3.580   7.799  1.00  0.00    -0.014 A 
ATOM     76  C   UNL     1      17.795  -3.869   9.077  1.00  0.00     0.009 A 
ATOM     77  C   UNL     1      19.680  -3.664   7.574  1.00  0.00     0.009 A 
ATOM     78  C   UNL     1      18.666  -4.197  10.119  1.00  0.00     0.001 A 
ATOM     79  C   UNL     1      20.545  -4.019   8.610  1.00  0.00     0.001 A 
ATOM     80  C   UNL     1      20.038  -4.274   9.884  1.00  0.00     0.000 A 
ENDBRANCH  62  75
ENDBRANCH  36  37
ENDBRANCH  28  31
ENDBRANCH  26  27
ENDBRANCH  25  26
ENDBRANCH  24  25
ENDBRANCH  23  24
ENDBRANCH   1  23
TORSDOF 17
