REMARK SMILES CCc1ccccc1NC(=O)CCN1C[C@H](C(=O)NCCCCCCNC(=O)c2ccc(-c3c4nc(c(-c5ccccc5)c5ccc([nH]5)c(-c5ccccc5)c5nc(c(-c6ccccc6)c6ccc3[nH]6)C=C5)C=C4)cc2)CC1=O
REMARK SMILES IDX 21 1 20 2 19 3 17 4 18 5 16 7 14 8 15 9 78 10 77 11 79 12
REMARK SMILES IDX 13 13 12 14 10 15 9 16 11 18 8 19 3 20 4 21 5 22 7 23 6 24
REMARK SMILES IDX 2 25 1 26 22 27 23 28 24 29 25 30 26 31 27 32 28 34 29 35
REMARK SMILES IDX 30 36 76 37 31 38 75 39 32 40 33 41 34 42 69 43 35 44 74 45
REMARK SMILES IDX 68 46 70 47 36 48 73 49 67 50 66 51 37 53 59 54 44 55 58 56
REMARK SMILES IDX 45 57 48 58 57 59 71 60 46 61 47 62 56 64 72 65 49 66 38 67
REMARK SMILES IDX 39 68 43 69 40 70 42 71 41 72 60 73 61 74 65 75 62 76 64 77
REMARK SMILES IDX 63 78 50 79 51 80 55 81 52 82 54 83 53 84
REMARK H PARENT 19 6 9 17 26 33 70 52 48 63
REMARK Flexibility Score: inf
ROOT
ATOM      1  C   UNL     1       2.935  -2.712   5.196  1.00  0.00     0.021 C 
ENDROOT
BRANCH   1   2
ATOM      2  C   UNL     1       2.642  -1.280   5.621  1.00  0.00     0.116 C 
BRANCH   2   3
ATOM      3  N   UNL     1       2.724  -0.302   4.511  1.00  0.00    -0.356 N 
ATOM      4  C   UNL     1       2.035   0.840   3.936  1.00  0.00     0.225 C 
ATOM      5  O   UNL     1       3.041   1.132   3.185  1.00  0.00    -0.275 OA
ATOM      6  H   UNL     1       3.527  -0.494   3.975  1.00  0.00     0.163 HD
BRANCH   4   7
ATOM      7  C   UNL     1       0.047   1.754   4.075  1.00  0.00     0.107 C 
ATOM      8  N   UNL     1      -1.153   3.652   2.934  1.00  0.00    -0.341 N 
ATOM      9  C   UNL     1      -0.475   3.376   4.171  1.00  0.00     0.133 C 
ATOM     10  C   UNL     1      -1.779   2.541   2.410  1.00  0.00     0.223 C 
ATOM     11  C   UNL     1      -1.479   1.377   3.312  1.00  0.00     0.115 C 
ATOM     12  O   UNL     1      -2.445   2.485   1.390  1.00  0.00    -0.275 OA
BRANCH   8  13
ATOM     13  C   UNL     1      -0.914   4.857   2.172  1.00  0.00     0.129 C 
BRANCH  13  14
ATOM     14  C   UNL     1       0.472   4.905   1.529  1.00  0.00     0.122 C 
BRANCH  14  15
ATOM     15  C   UNL     1       0.769   3.757   0.584  1.00  0.00     0.226 C 
ATOM     16  N   UNL     1       1.050   2.487   1.007  1.00  0.00    -0.326 N 
ATOM     17  H   UNL     1       1.181   1.840   0.277  1.00  0.00     0.169 HD
ATOM     18  O   UNL     1       0.697   3.950  -0.636  1.00  0.00    -0.275 OA
BRANCH  16  19
ATOM     19  C   UNL     1       1.187   1.936   2.292  1.00  0.00     0.044 A 
ATOM     20  C   UNL     1       0.582   0.270   2.601  1.00  0.00    -0.025 A 
ATOM     21  C   UNL     1       0.345  -0.289   4.316  1.00  0.00     0.006 A 
ATOM     22  C   UNL     1       0.930   0.747   5.710  1.00  0.00     0.000 A 
ATOM     23  C   UNL     1       1.812   2.914   3.665  1.00  0.00     0.026 A 
ATOM     24  C   UNL     1       1.688   2.323   5.356  1.00  0.00     0.002 A 
BRANCH  20  25
ATOM     25  C   UNL     1       0.345  -0.776   1.526  1.00  0.00     0.034 C 
ATOM     26  C   UNL     1       1.062  -0.611   0.195  1.00  0.00     0.009 C 
ENDBRANCH  20  25
ENDBRANCH  16  19
ENDBRANCH  14  15
ENDBRANCH  13  14
ENDBRANCH   8  13
ENDBRANCH   4   7
ENDBRANCH   2   3
ENDBRANCH   1   2
BRANCH   1  27
ATOM     27  C   UNL     1       4.414  -3.067   5.089  1.00  0.00     0.002 C 
BRANCH  27  28
ATOM     28  C   UNL     1       5.279  -2.677   6.292  1.00  0.00     0.002 C 
BRANCH  28  29
ATOM     29  C   UNL     1       4.753  -3.100   7.668  1.00  0.00     0.021 C 
BRANCH  29  30
ATOM     30  C   UNL     1       4.434  -4.583   7.811  1.00  0.00     0.116 C 
BRANCH  30  31
ATOM     31  N   UNL     1       5.572  -5.419   7.473  1.00  0.00    -0.352 N 
ATOM     32  C   UNL     1       6.216  -6.359   8.234  1.00  0.00     0.251 C 
ATOM     33  H   UNL     1       5.932  -5.293   6.566  1.00  0.00     0.163 HD
ATOM     34  O   UNL     1       7.298  -6.812   7.876  1.00  0.00    -0.269 OA
BRANCH  32  35
ATOM     35  C   UNL     1       5.607  -6.811   9.499  1.00  0.00     0.039 A 
ATOM     36  C   UNL     1       6.409  -6.897  10.639  1.00  0.00     0.014 A 
ATOM     37  C   UNL     1       4.250  -7.143   9.559  1.00  0.00     0.014 A 
ATOM     38  C   UNL     1       5.834  -7.261  11.856  1.00  0.00     0.010 A 
ATOM     39  C   UNL     1       3.665  -7.433  10.786  1.00  0.00     0.010 A 
ATOM     40  C   UNL     1       4.452  -7.494  11.946  1.00  0.00    -0.014 A 
BRANCH  40  41
ATOM     41  C   UNL     1       3.812  -7.772  13.254  1.00  0.00     0.031 A 
ATOM     42  C   UNL     1       3.147  -9.095  13.511  1.00  0.00     0.074 A 
ATOM     43  C   UNL     1       3.781  -6.803  14.190  1.00  0.00     0.049 A 
ATOM     44  N   UNL     1       2.508  -9.501  14.579  1.00  0.00    -0.248 NA
ATOM     45  C   UNL     1       3.186 -10.084  12.421  1.00  0.00     0.031 C 
ATOM     46  C   UNL     1       4.356  -5.464  14.040  1.00  0.00     0.029 A 
ATOM     47  N   UNL     1       3.242  -6.794  15.451  1.00  0.00    -0.354 N 
ATOM     48  C   UNL     1       2.061 -10.783  14.286  1.00  0.00     0.074 A 
ATOM     49  C   UNL     1       2.457 -11.069  12.924  1.00  0.00     0.031 C 
ATOM     50  C   UNL     1       4.164  -4.774  15.176  1.00  0.00     0.029 A 
ATOM     51  C   UNL     1       3.413  -5.602  16.113  1.00  0.00     0.049 A 
ATOM     52  H   UNL     1       2.777  -7.567  15.844  1.00  0.00     0.167 HD
ATOM     53  C   UNL     1       1.394 -11.649  15.085  1.00  0.00     0.031 A 
ATOM     54  C   UNL     1       3.000  -5.213  17.334  1.00  0.00     0.031 A 
ATOM     55  C   UNL     1       1.002 -11.358  16.439  1.00  0.00     0.049 A 
ATOM     56  C   UNL     1       2.233  -6.184  18.188  1.00  0.00     0.074 A 
ATOM     57  C   UNL     1       0.378 -12.191  17.352  1.00  0.00     0.029 A 
ATOM     58  N   UNL     1       1.184 -10.137  17.070  1.00  0.00    -0.354 N 
ATOM     59  N   UNL     1       1.892  -7.423  17.927  1.00  0.00    -0.248 NA
ATOM     60  C   UNL     1       1.798  -5.704  19.506  1.00  0.00     0.031 C 
ATOM     61  C   UNL     1       0.120 -11.452  18.510  1.00  0.00     0.029 A 
ATOM     62  C   UNL     1       0.645 -10.181  18.345  1.00  0.00     0.049 A 
ATOM     63  H   UNL     1       1.630  -9.356  16.671  1.00  0.00     0.167 HD
ATOM     64  C   UNL     1       1.222  -7.877  19.055  1.00  0.00     0.074 A 
ATOM     65  C   UNL     1       1.228  -6.788  20.012  1.00  0.00     0.031 C 
ATOM     66  C   UNL     1       0.649  -9.084  19.279  1.00  0.00     0.031 A 
BRANCH  53  67
ATOM     67  C   UNL     1       1.029 -12.990  14.509  1.00  0.00    -0.014 A 
ATOM     68  C   UNL     1       2.009 -13.953  14.220  1.00  0.00     0.009 A 
ATOM     69  C   UNL     1      -0.320 -13.313  14.298  1.00  0.00     0.009 A 
ATOM     70  C   UNL     1       1.648 -15.197  13.698  1.00  0.00     0.001 A 
ATOM     71  C   UNL     1      -0.681 -14.569  13.807  1.00  0.00     0.001 A 
ATOM     72  C   UNL     1       0.303 -15.507  13.498  1.00  0.00     0.000 A 
ENDBRANCH  53  67
BRANCH  54  73
ATOM     73  C   UNL     1       3.294  -3.839  17.819  1.00  0.00    -0.014 A 
ATOM     74  C   UNL     1       4.180  -3.629  18.887  1.00  0.00     0.009 A 
ATOM     75  C   UNL     1       2.682  -2.726  17.219  1.00  0.00     0.009 A 
ATOM     76  C   UNL     1       4.421  -2.339  19.364  1.00  0.00     0.001 A 
ATOM     77  C   UNL     1       2.951  -1.435  17.676  1.00  0.00     0.001 A 
ATOM     78  C   UNL     1       3.812  -1.243  18.755  1.00  0.00     0.000 A 
ENDBRANCH  54  73
BRANCH  66  79
ATOM     79  C   UNL     1      -0.005  -9.297  20.616  1.00  0.00    -0.014 A 
ATOM     80  C   UNL     1      -1.203  -8.647  20.952  1.00  0.00     0.009 A 
ATOM     81  C   UNL     1       0.564 -10.191  21.536  1.00  0.00     0.009 A 
ATOM     82  C   UNL     1      -1.799  -8.864  22.196  1.00  0.00     0.001 A 
ATOM     83  C   UNL     1      -0.052 -10.432  22.765  1.00  0.00     0.001 A 
ATOM     84  C   UNL     1      -1.227  -9.761  23.098  1.00  0.00     0.000 A 
ENDBRANCH  66  79
ENDBRANCH  40  41
ENDBRANCH  32  35
ENDBRANCH  30  31
ENDBRANCH  29  30
ENDBRANCH  28  29
ENDBRANCH  27  28
ENDBRANCH   1  27
TORSDOF 18
