REMARK SMILES O=C(Cc1ccn(-c2ccccc2F)c1)NCCCCCCNC(=O)c1ccc(-c2c3nc(c(-c4ccccc4)c4ccc([nH]4)c(-c4ccccc4)c4nc(c(-c5ccccc5)c5ccc2[nH]5)C=C4)C=C3)cc1
REMARK SMILES IDX 19 1 18 2 17 3 16 4 1 5 2 6 3 8 4 9 5 10 15 11 6 12 7 13
REMARK SMILES IDX 8 14 9 15 13 16 10 17 12 18 14 19 11 20 20 21 21 22 22 23
REMARK SMILES IDX 23 24 24 25 25 27 26 28 27 29 73 30 28 31 72 32 29 33 30 34
REMARK SMILES IDX 31 35 66 36 32 37 71 38 65 39 67 40 33 41 70 42 64 43 63 44
REMARK SMILES IDX 34 46 56 47 41 48 55 49 42 50 45 51 54 52 68 53 43 54 44 55
REMARK SMILES IDX 53 57 69 58 46 59 35 60 36 61 40 62 37 63 39 64 38 65 57 66
REMARK SMILES IDX 58 67 62 68 59 69 61 70 60 71 47 72 48 73 52 74 49 75 51 76
REMARK SMILES IDX 50 77
REMARK H PARENT 16 7 23 26 67 45 45 56
REMARK Flexibility Score: inf
ROOT
ATOM      1  C   UNL     1       4.142  -3.292  -1.636  1.00  0.00     0.002 C 
ENDROOT
BRANCH   1   2
ATOM      2  C   UNL     1       2.646  -2.963  -1.747  1.00  0.00     0.021 C 
BRANCH   2   3
ATOM      3  C   UNL     1       2.074  -2.167  -0.576  1.00  0.00     0.116 C 
BRANCH   3   4
ATOM      4  N   UNL     1       2.717  -0.879  -0.449  1.00  0.00    -0.356 N 
ATOM      5  O   UNL     1       0.855   0.309   0.184  1.00  0.00    -0.275 OA
ATOM      6  C   UNL     1       2.065   0.257  -0.013  1.00  0.00     0.224 C 
ATOM      7  H   UNL     1       3.670  -0.808  -0.686  1.00  0.00     0.163 HD
BRANCH   6   8
ATOM      8  C   UNL     1       2.991   1.453   0.183  1.00  0.00     0.137 C 
BRANCH   8   9
ATOM      9  C   UNL     1       3.842   1.340   1.415  1.00  0.00    -0.021 A 
ATOM     10  C   UNL     1       4.199   2.398   2.298  1.00  0.00     0.024 A 
ATOM     11  C   UNL     1       4.452   0.209   1.926  1.00  0.00     0.095 A 
ATOM     12  C   UNL     1       4.905   1.854   3.351  1.00  0.00     0.091 A 
ATOM     13  N   UNL     1       5.072   0.508   3.118  1.00  0.00    -0.321 N 
BRANCH  13  14
ATOM     14  C   UNL     1       5.677  -0.441   3.968  1.00  0.00     0.081 A 
ATOM     15  C   UNL     1       5.444  -0.390   5.346  1.00  0.00     0.030 A 
ATOM     16  C   UNL     1       6.435  -1.482   3.425  1.00  0.00     0.147 A 
ATOM     17  C   UNL     1       5.938  -1.413   6.161  1.00  0.00     0.002 A 
ATOM     18  C   UNL     1       6.965  -2.472   4.245  1.00  0.00     0.041 A 
ATOM     19  F   UNL     1       6.712  -1.529   2.113  1.00  0.00    -0.205 F 
ATOM     20  C   UNL     1       6.701  -2.448   5.613  1.00  0.00     0.003 A 
ENDBRANCH  13  14
ENDBRANCH   8   9
ENDBRANCH   6   8
ENDBRANCH   3   4
ENDBRANCH   2   3
ENDBRANCH   1   2
BRANCH   1  21
ATOM     21  C   UNL     1       4.544  -4.147  -0.429  1.00  0.00     0.002 C 
BRANCH  21  22
ATOM     22  C   UNL     1       3.837  -5.505  -0.322  1.00  0.00     0.021 C 
BRANCH  22  23
ATOM     23  C   UNL     1       4.086  -6.434  -1.510  1.00  0.00     0.116 C 
BRANCH  23  24
ATOM     24  N   UNL     1       5.475  -6.857  -1.568  1.00  0.00    -0.352 N 
ATOM     25  C   UNL     1       6.087  -7.738  -2.422  1.00  0.00     0.251 C 
ATOM     26  H   UNL     1       6.065  -6.450  -0.893  1.00  0.00     0.163 HD
ATOM     27  O   UNL     1       7.147  -8.258  -2.093  1.00  0.00    -0.269 OA
BRANCH  25  28
ATOM     28  C   UNL     1       5.492  -8.076  -3.732  1.00  0.00     0.039 A 
ATOM     29  C   UNL     1       5.624  -9.391  -4.197  1.00  0.00     0.014 A 
ATOM     30  C   UNL     1       4.911  -7.097  -4.546  1.00  0.00     0.014 A 
ATOM     31  C   UNL     1       5.125  -9.737  -5.448  1.00  0.00     0.010 A 
ATOM     32  C   UNL     1       4.386  -7.443  -5.786  1.00  0.00     0.010 A 
ATOM     33  C   UNL     1       4.484  -8.766  -6.229  1.00  0.00    -0.014 A 
BRANCH  33  34
ATOM     34  C   UNL     1       3.761  -9.194  -7.446  1.00  0.00     0.031 A 
ATOM     35  C   UNL     1       2.398  -9.824  -7.101  1.00  0.00     0.074 A 
ATOM     36  C   UNL     1       4.396  -9.000  -8.643  1.00  0.00     0.049 A 
ATOM     37  N   UNL     1       1.671 -10.651  -7.784  1.00  0.00    -0.248 NA
ATOM     38  C   UNL     1       1.765  -9.528  -5.783  1.00  0.00     0.031 C 
ATOM     39  C   UNL     1       5.702  -8.318  -8.799  1.00  0.00     0.029 A 
ATOM     40  N   UNL     1       4.103  -9.322  -9.954  1.00  0.00    -0.354 N 
ATOM     41  C   UNL     1       0.464 -10.860  -7.077  1.00  0.00     0.074 A 
ATOM     42  C   UNL     1       0.612 -10.201  -5.817  1.00  0.00     0.031 C 
ATOM     43  C   UNL     1       6.117  -8.351 -10.085  1.00  0.00     0.029 A 
ATOM     44  C   UNL     1       5.134  -9.044 -10.892  1.00  0.00     0.049 A 
ATOM     45  H   UNL     1       3.241  -9.716 -10.220  1.00  0.00     0.167 HD
ATOM     46  C   UNL     1      -0.626 -11.472  -7.630  1.00  0.00     0.031 A 
ATOM     47  C   UNL     1       5.220  -9.391 -12.214  1.00  0.00     0.031 A 
ATOM     48  C   UNL     1      -0.303 -11.964  -8.924  1.00  0.00     0.049 A 
ATOM     49  C   UNL     1       3.924  -9.986 -12.562  1.00  0.00     0.074 A 
ATOM     50  C   UNL     1       0.490 -12.997  -9.348  1.00  0.00     0.029 A 
ATOM     51  N   UNL     1      -0.532 -11.107  -9.971  1.00  0.00    -0.354 N 
ATOM     52  N   UNL     1       2.821  -9.323 -12.726  1.00  0.00    -0.248 NA
ATOM     53  C   UNL     1       3.824 -11.447 -12.676  1.00  0.00     0.031 C 
ATOM     54  C   UNL     1       1.136 -12.454 -10.478  1.00  0.00     0.029 A 
ATOM     55  C   UNL     1       0.535 -11.237 -10.820  1.00  0.00     0.049 A 
ATOM     56  H   UNL     1      -1.311 -10.516 -10.089  1.00  0.00     0.167 HD
ATOM     57  C   UNL     1       1.874 -10.299 -12.549  1.00  0.00     0.074 A 
ATOM     58  C   UNL     1       2.512 -11.558 -12.867  1.00  0.00     0.031 C 
ATOM     59  C   UNL     1       0.882 -10.106 -11.642  1.00  0.00     0.031 A 
BRANCH  46  60
ATOM     60  C   UNL     1      -2.078 -11.489  -7.239  1.00  0.00    -0.014 A 
ATOM     61  C   UNL     1      -2.925 -12.395  -7.927  1.00  0.00     0.009 A 
ATOM     62  C   UNL     1      -2.694 -10.461  -6.519  1.00  0.00     0.009 A 
ATOM     63  C   UNL     1      -4.306 -12.205  -8.006  1.00  0.00     0.001 A 
ATOM     64  C   UNL     1      -4.087 -10.293  -6.566  1.00  0.00     0.001 A 
ATOM     65  C   UNL     1      -4.885 -11.136  -7.339  1.00  0.00     0.000 A 
ENDBRANCH  46  60
BRANCH  47  66
ATOM     66  C   UNL     1       6.255  -9.406 -13.313  1.00  0.00    -0.014 A 
ATOM     67  C   UNL     1       7.516  -8.809 -13.270  1.00  0.00     0.009 A 
ATOM     68  C   UNL     1       5.978 -10.152 -14.496  1.00  0.00     0.009 A 
ATOM     69  C   UNL     1       8.464  -9.032 -14.296  1.00  0.00     0.001 A 
ATOM     70  C   UNL     1       6.923 -10.415 -15.489  1.00  0.00     0.001 A 
ATOM     71  C   UNL     1       8.183  -9.863 -15.381  1.00  0.00     0.000 A 
ENDBRANCH  47  66
BRANCH  59  72
ATOM     72  C   UNL     1       0.574  -8.652 -11.315  1.00  0.00    -0.014 A 
ATOM     73  C   UNL     1       0.177  -7.777 -12.338  1.00  0.00     0.009 A 
ATOM     74  C   UNL     1       0.774  -8.093 -10.039  1.00  0.00     0.009 A 
ATOM     75  C   UNL     1       0.008  -6.406 -12.106  1.00  0.00     0.001 A 
ATOM     76  C   UNL     1       0.603  -6.720  -9.800  1.00  0.00     0.001 A 
ATOM     77  C   UNL     1       0.223  -5.875 -10.837  1.00  0.00     0.000 A 
ENDBRANCH  59  72
ENDBRANCH  33  34
ENDBRANCH  25  28
ENDBRANCH  23  24
ENDBRANCH  22  23
ENDBRANCH  21  22
ENDBRANCH   1  21
TORSDOF 15
