REMARK SMILES Cc1ccc(S(=O)(=O)Nc2ccc(C(=O)CCC(=O)NCCCCCCNC(=O)c3ccc(-c4c5nc(c(-c6ccccc6)c6ccc([nH]6)c(-c6ccccc6)c6nc(c(-c7ccccc7)c7ccc4[nH]7)C=C6)C=C5)cc3)cc2)c(C)c1
REMARK SMILES IDX 21 1 20 2 18 3 19 4 17 6 16 7 14 8 15 9 13 10 10 11 11 12
REMARK SMILES IDX 79 13 12 14 78 15 9 16 6 18 7 19 8 20 5 21 1 22 2 23 3 24
REMARK SMILES IDX 82 25 4 26 80 27 81 28 22 29 23 30 24 31 25 32 26 33 27 34
REMARK SMILES IDX 28 35 29 37 30 38 31 39 77 40 32 41 76 42 33 43 34 44 35 45
REMARK SMILES IDX 70 46 36 47 75 48 69 49 71 50 37 51 74 52 68 53 67 54 38 56
REMARK SMILES IDX 60 57 45 58 59 59 46 60 49 61 58 62 72 63 47 64 48 65 57 67
REMARK SMILES IDX 73 68 50 69 39 70 40 71 44 72 41 73 43 74 42 75 61 76 62 77
REMARK SMILES IDX 66 78 63 79 65 80 64 81 51 82 52 83 56 84 53 85 55 86 54 87
REMARK H PARENT 20 5 9 17 27 36 71 55 49 66
REMARK Flexibility Score: inf
ROOT
ATOM      1  C   UNL     1       2.064  -3.070  -0.739  1.00  0.00     0.116 C 
ENDROOT
BRANCH   1   2
ATOM      2  N   UNL     1       2.927  -2.404   0.263  1.00  0.00    -0.356 N 
ATOM      3  C   UNL     1       3.775  -3.008   1.168  1.00  0.00     0.220 C 
ATOM      4  O   UNL     1       4.061  -2.394   2.197  1.00  0.00    -0.275 OA
ATOM      5  H   UNL     1       2.893  -1.420   0.285  1.00  0.00     0.163 HD
BRANCH   3   6
ATOM      6  C   UNL     1       4.333  -4.419   0.906  1.00  0.00     0.108 C 
BRANCH   6   7
ATOM      7  C   UNL     1       3.712  -5.566   1.754  1.00  0.00     0.091 C 
BRANCH   7   8
ATOM      8  C   UNL     1       2.875  -6.631   0.987  1.00  0.00     0.163 C 
ATOM      9  O   UNL     1       3.360  -7.663   0.536  1.00  0.00    -0.294 OA
BRANCH   8  10
ATOM     10  C   UNL     1       1.458  -6.280   0.603  1.00  0.00     0.018 A 
ATOM     11  C   UNL     1      -0.611  -3.491  -0.515  1.00  0.00     0.049 A 
ATOM     12  C   UNL     1       0.288  -4.516  -1.732  1.00  0.00     0.027 A 
ATOM     13  C   UNL     1      -0.503  -3.893   1.223  1.00  0.00     0.027 A 
ATOM     14  C   UNL     1       1.299  -5.921  -1.181  1.00  0.00     0.014 A 
ATOM     15  C   UNL     1       0.525  -5.292   1.777  1.00  0.00     0.014 A 
BRANCH  11  16
ATOM     16  N   UNL     1      -1.670  -2.672  -1.051  1.00  0.00    -0.280 N 
ATOM     17  H   UNL     1      -2.071  -2.970  -1.899  1.00  0.00     0.180 HD
BRANCH  16  18
ATOM     18  S   UNL     1      -2.288  -1.269  -0.384  1.00  0.00     0.262 S 
ATOM     19  O   UNL     1      -2.424  -1.481   1.040  1.00  0.00    -0.201 OA
ATOM     20  O   UNL     1      -3.434  -0.950  -1.208  1.00  0.00    -0.201 OA
BRANCH  18  21
ATOM     21  C   UNL     1      -1.079  -0.022  -0.672  1.00  0.00     0.090 A 
ATOM     22  C   UNL     1       2.558   2.046   0.066  1.00  0.00     0.044 C 
ATOM     23  C   UNL     1       1.250   1.418  -0.299  1.00  0.00    -0.051 A 
ATOM     24  C   UNL     1       1.221   0.379  -1.229  1.00  0.00     0.005 A 
ATOM     25  C   UNL     1       0.046   1.871   0.259  1.00  0.00     0.008 A 
ATOM     26  C   UNL     1       0.042  -0.326  -1.438  1.00  0.00     0.023 A 
ATOM     27  C   UNL     1      -1.143   1.161   0.068  1.00  0.00    -0.030 A 
ATOM     28  C   UNL     1      -2.455   1.740   0.520  1.00  0.00     0.046 C 
ENDBRANCH  18  21
ENDBRANCH  16  18
ENDBRANCH  11  16
ENDBRANCH   8  10
ENDBRANCH   7   8
ENDBRANCH   6   7
ENDBRANCH   3   6
ENDBRANCH   1   2
BRANCH   1  29
ATOM     29  C   UNL     1       1.239  -4.234   0.070  1.00  0.00     0.021 C 
BRANCH  29  30
ATOM     30  C   UNL     1      -0.465  -5.564  -0.120  1.00  0.00     0.002 C 
BRANCH  30  31
ATOM     31  C   UNL     1      -1.793  -5.711  -1.197  1.00  0.00     0.002 C 
BRANCH  31  32
ATOM     32  C   UNL     1      -1.666  -6.517  -2.483  1.00  0.00     0.021 C 
BRANCH  32  33
ATOM     33  C   UNL     1      -2.443  -7.803  -2.372  1.00  0.00     0.116 C 
BRANCH  33  34
ATOM     34  N   UNL     1      -3.885  -7.556  -2.262  1.00  0.00    -0.352 N 
ATOM     35  C   UNL     1      -4.883  -7.955  -3.117  1.00  0.00     0.251 C 
ATOM     36  H   UNL     1      -4.173  -7.039  -1.475  1.00  0.00     0.163 HD
ATOM     37  O   UNL     1      -6.014  -7.493  -3.051  1.00  0.00    -0.269 OA
BRANCH  35  38
ATOM     38  C   UNL     1      -4.527  -8.952  -4.135  1.00  0.00     0.039 A 
ATOM     39  C   UNL     1      -4.823  -8.719  -5.477  1.00  0.00     0.014 A 
ATOM     40  C   UNL     1      -3.745 -10.040  -3.739  1.00  0.00     0.014 A 
ATOM     41  C   UNL     1      -4.257  -9.550  -6.441  1.00  0.00     0.010 A 
ATOM     42  C   UNL     1      -3.064 -10.756  -4.699  1.00  0.00     0.010 A 
ATOM     43  C   UNL     1      -3.341 -10.543  -6.056  1.00  0.00    -0.014 A 
BRANCH  43  44
ATOM     44  C   UNL     1      -2.690 -11.436  -7.034  1.00  0.00     0.031 A 
ATOM     45  C   UNL     1      -2.920 -12.916  -6.917  1.00  0.00     0.074 A 
ATOM     46  C   UNL     1      -1.825 -10.932  -7.932  1.00  0.00     0.049 A 
ATOM     47  N   UNL     1      -2.362 -13.893  -7.582  1.00  0.00    -0.248 NA
ATOM     48  C   UNL     1      -3.865 -13.362  -5.876  1.00  0.00     0.031 C 
ATOM     49  C   UNL     1      -1.479  -9.516  -8.081  1.00  0.00     0.029 A 
ATOM     50  N   UNL     1      -1.063 -11.562  -8.880  1.00  0.00    -0.354 N 
ATOM     51  C   UNL     1      -2.861 -15.058  -7.013  1.00  0.00     0.074 A 
ATOM     52  C   UNL     1      -3.704 -14.673  -5.907  1.00  0.00     0.031 C 
ATOM     53  C   UNL     1      -0.593  -9.384  -9.082  1.00  0.00     0.029 A 
ATOM     54  C   UNL     1      -0.275 -10.707  -9.610  1.00  0.00     0.049 A 
ATOM     55  H   UNL     1      -1.079 -12.536  -9.024  1.00  0.00     0.167 HD
ATOM     56  C   UNL     1      -2.657 -16.337  -7.399  1.00  0.00     0.031 A 
ATOM     57  C   UNL     1       0.614 -10.967 -10.585  1.00  0.00     0.031 A 
ATOM     58  C   UNL     1      -1.835 -16.699  -8.518  1.00  0.00     0.049 A 
ATOM     59  C   UNL     1       0.822 -12.395 -11.006  1.00  0.00     0.074 A 
ATOM     60  C   UNL     1      -1.627 -17.950  -9.065  1.00  0.00     0.029 A 
ATOM     61  N   UNL     1      -1.076 -15.801  -9.254  1.00  0.00    -0.354 N 
ATOM     62  N   UNL     1       0.259 -13.483 -10.535  1.00  0.00    -0.248 NA
ATOM     63  C   UNL     1       1.780 -12.633 -12.093  1.00  0.00     0.031 C 
ATOM     64  C   UNL     1      -0.685 -17.819 -10.090  1.00  0.00     0.029 A 
ATOM     65  C   UNL     1      -0.357 -16.477 -10.223  1.00  0.00     0.049 A 
ATOM     66  H   UNL     1      -1.053 -14.828  -9.109  1.00  0.00     0.167 HD
ATOM     67  C   UNL     1       0.788 -14.534 -11.271  1.00  0.00     0.074 A 
ATOM     68  C   UNL     1       1.696 -13.948 -12.239  1.00  0.00     0.031 C 
ATOM     69  C   UNL     1       0.552 -15.865 -11.157  1.00  0.00     0.031 A 
BRANCH  56  70
ATOM     70  C   UNL     1      -3.319 -17.417  -6.590  1.00  0.00    -0.014 A 
ATOM     71  C   UNL     1      -4.717 -17.560  -6.555  1.00  0.00     0.009 A 
ATOM     72  C   UNL     1      -2.530 -18.303  -5.841  1.00  0.00     0.009 A 
ATOM     73  C   UNL     1      -5.310 -18.534  -5.749  1.00  0.00     0.001 A 
ATOM     74  C   UNL     1      -3.125 -19.300  -5.065  1.00  0.00     0.001 A 
ATOM     75  C   UNL     1      -4.513 -19.406  -5.009  1.00  0.00     0.000 A 
ENDBRANCH  56  70
BRANCH  57  76
ATOM     76  C   UNL     1       1.364  -9.851 -11.218  1.00  0.00    -0.014 A 
ATOM     77  C   UNL     1       1.087  -9.458 -12.536  1.00  0.00     0.009 A 
ATOM     78  C   UNL     1       2.338  -9.146 -10.492  1.00  0.00     0.009 A 
ATOM     79  C   UNL     1       1.780  -8.393 -13.118  1.00  0.00     0.001 A 
ATOM     80  C   UNL     1       3.008  -8.063 -11.066  1.00  0.00     0.001 A 
ATOM     81  C   UNL     1       2.733  -7.692 -12.380  1.00  0.00     0.000 A 
ENDBRANCH  57  76
BRANCH  69  82
ATOM     82  C   UNL     1       1.291 -16.774 -12.096  1.00  0.00    -0.014 A 
ATOM     83  C   UNL     1       2.664 -17.015 -11.935  1.00  0.00     0.009 A 
ATOM     84  C   UNL     1       0.591 -17.452 -13.106  1.00  0.00     0.009 A 
ATOM     85  C   UNL     1       3.327 -17.901 -12.785  1.00  0.00     0.001 A 
ATOM     86  C   UNL     1       1.250 -18.361 -13.933  1.00  0.00     0.001 A 
ATOM     87  C   UNL     1       2.618 -18.579 -13.777  1.00  0.00     0.000 A 
ENDBRANCH  69  82
ENDBRANCH  43  44
ENDBRANCH  35  38
ENDBRANCH  33  34
ENDBRANCH  32  33
ENDBRANCH  31  32
ENDBRANCH  30  31
ENDBRANCH  29  30
ENDBRANCH   1  29
TORSDOF 19
