REMARK SMILES COc1cc(-c2nnc(S)n2-c2ccc(C(=O)NCCCCCCNC(=O)c3ccc(-c4c5nc(c(-c6ccccc6)c6ccc([nH]6)c(-c6ccccc6)c6nc(c(-c7ccccc7)c7ccc4[nH]7)C=C6)C=C5)cc3)cc2)cc(OC)c1OC
REMARK SMILES IDX 21 1 20 2 19 3 18 4 16 5 17 6 15 8 12 9 13 10 77 11 14 12
REMARK SMILES IDX 76 13 11 14 6 15 7 16 8 17 9 18 5 19 3 20 4 21 82 22 79 23
REMARK SMILES IDX 78 24 2 25 1 26 83 27 84 28 80 29 81 30 10 31 22 33 23 34
REMARK SMILES IDX 24 35 25 36 26 37 27 39 28 40 29 41 75 42 30 43 74 44 31 45
REMARK SMILES IDX 32 46 33 47 68 48 34 49 73 50 67 51 69 52 35 53 72 54 66 55
REMARK SMILES IDX 65 56 36 58 58 59 43 60 57 61 44 62 47 63 56 64 70 65 45 66
REMARK SMILES IDX 46 67 55 69 71 70 48 71 37 72 38 73 42 74 39 75 41 76 40 77
REMARK SMILES IDX 59 78 60 79 64 80 61 81 63 82 62 83 49 84 50 85 54 86 51 87
REMARK SMILES IDX 53 88 52 89
REMARK H PARENT 18 7 10 32 25 38 69 57 47 68
REMARK Flexibility Score: inf
ROOT
ATOM      1  C   UNL     1       4.203   3.465   8.195  1.00  0.00     0.002 C 
ENDROOT
BRANCH   1   2
ATOM      2  C   UNL     1       3.232   2.400   7.667  1.00  0.00     0.021 C 
BRANCH   2   3
ATOM      3  C   UNL     1       3.943   1.206   7.023  1.00  0.00     0.116 C 
BRANCH   3   4
ATOM      4  N   UNL     1       4.391   0.285   8.050  1.00  0.00    -0.352 N 
ATOM      5  C   UNL     1       3.921  -0.929   8.479  1.00  0.00     0.251 C 
ATOM      6  O   UNL     1       4.518  -1.482   9.403  1.00  0.00    -0.269 OA
ATOM      7  H   UNL     1       5.191   0.593   8.535  1.00  0.00     0.163 HD
BRANCH   5   8
ATOM      8  C   UNL     1       2.772  -1.629   7.841  1.00  0.00     0.039 A 
ATOM      9  C   UNL     1       0.777  -3.094   6.546  1.00  0.00     0.050 A 
ATOM     10  C   UNL     1       1.753  -3.775   7.276  1.00  0.00     0.027 A 
ATOM     11  C   UNL     1       0.748  -1.699   6.508  1.00  0.00     0.027 A 
ATOM     12  C   UNL     1       2.760  -3.035   7.903  1.00  0.00     0.016 A 
ATOM     13  C   UNL     1       1.713  -0.976   7.207  1.00  0.00     0.016 A 
BRANCH   9  14
ATOM     14  N   UNL     1      -0.235  -3.798   5.863  1.00  0.00    -0.270 N 
ATOM     15  C   UNL     1      -0.507  -3.741   4.499  1.00  0.00     0.169 A 
ATOM     16  N   UNL     1      -1.655  -4.352   4.271  1.00  0.00    -0.129 NA
ATOM     17  N   UNL     1      -2.127  -4.850   5.467  1.00  0.00    -0.123 NA
ATOM     18  C   UNL     1      -1.275  -4.515   6.409  1.00  0.00     0.193 A 
BRANCH  15  19
ATOM     19  C   UNL     1       0.394  -3.168   3.496  1.00  0.00     0.027 A 
ATOM     20  C   UNL     1       0.997  -1.412   1.924  1.00  0.00     0.165 A 
ATOM     21  C   UNL     1       0.043  -2.044   2.745  1.00  0.00     0.062 A 
ATOM     22  C   UNL     1       2.315  -1.904   1.826  1.00  0.00     0.203 A 
ATOM     23  C   UNL     1       2.640  -3.079   2.532  1.00  0.00     0.165 A 
ATOM     24  C   UNL     1       1.678  -3.699   3.343  1.00  0.00     0.062 A 
BRANCH  20  25
ATOM     25  O   UNL     1       0.648  -0.186   1.410  1.00  0.00    -0.493 OA
ATOM     26  C   UNL     1      -0.069  -0.288   0.178  1.00  0.00     0.278 C 
ENDBRANCH  20  25
BRANCH  22  27
ATOM     27  O   UNL     1       3.348  -1.283   1.181  1.00  0.00    -0.490 OA
ATOM     28  C   UNL     1       3.099  -0.420   0.087  1.00  0.00     0.278 C 
ENDBRANCH  22  27
BRANCH  23  29
ATOM     29  O   UNL     1       3.838  -3.748   2.588  1.00  0.00    -0.493 OA
ATOM     30  C   UNL     1       4.976  -3.202   1.939  1.00  0.00     0.278 C 
ENDBRANCH  23  29
ENDBRANCH  15  19
BRANCH  18  31
ATOM     31  S   UNL     1      -1.521  -4.784   8.105  1.00  0.00    -0.103 SA
ATOM     32  H   UNL     1      -2.642  -5.532   8.288  1.00  0.00     0.111 HD
ENDBRANCH  18  31
ENDBRANCH   9  14
ENDBRANCH   5   8
ENDBRANCH   3   4
ENDBRANCH   2   3
ENDBRANCH   1   2
BRANCH   1  33
ATOM     33  C   UNL     1       5.129   4.083   7.135  1.00  0.00     0.002 C 
BRANCH  33  34
ATOM     34  C   UNL     1       4.431   4.629   5.881  1.00  0.00     0.021 C 
BRANCH  34  35
ATOM     35  C   UNL     1       3.558   5.845   6.159  1.00  0.00     0.116 C 
BRANCH  35  36
ATOM     36  N   UNL     1       4.361   7.000   6.544  1.00  0.00    -0.352 N 
ATOM     37  C   UNL     1       3.946   8.261   6.911  1.00  0.00     0.251 C 
ATOM     38  H   UNL     1       5.335   6.858   6.542  1.00  0.00     0.163 HD
ATOM     39  O   UNL     1       4.710   9.210   6.837  1.00  0.00    -0.269 OA
BRANCH  37  40
ATOM     40  C   UNL     1       2.566   8.456   7.392  1.00  0.00     0.039 A 
ATOM     41  C   UNL     1       1.853   9.596   7.015  1.00  0.00     0.014 A 
ATOM     42  C   UNL     1       1.992   7.505   8.237  1.00  0.00     0.014 A 
ATOM     43  C   UNL     1       0.531   9.731   7.426  1.00  0.00     0.010 A 
ATOM     44  C   UNL     1       0.655   7.588   8.562  1.00  0.00     0.010 A 
ATOM     45  C   UNL     1      -0.075   8.708   8.177  1.00  0.00    -0.014 A 
BRANCH  45  46
ATOM     46  C   UNL     1      -1.524   8.720   8.379  1.00  0.00     0.031 A 
ATOM     47  C   UNL     1      -2.288   8.823   7.109  1.00  0.00     0.074 A 
ATOM     48  C   UNL     1      -2.142   8.460   9.552  1.00  0.00     0.049 A 
ATOM     49  N   UNL     1      -2.957   9.843   6.686  1.00  0.00    -0.248 NA
ATOM     50  C   UNL     1      -2.166   7.739   6.119  1.00  0.00     0.031 C 
ATOM     51  C   UNL     1      -1.520   8.051  10.816  1.00  0.00     0.029 A 
ATOM     52  N   UNL     1      -3.477   8.405   9.841  1.00  0.00    -0.354 N 
ATOM     53  C   UNL     1      -3.542   9.442   5.489  1.00  0.00     0.074 A 
ATOM     54  C   UNL     1      -2.864   8.235   5.094  1.00  0.00     0.031 C 
ATOM     55  C   UNL     1      -2.467   7.575  11.656  1.00  0.00     0.029 A 
ATOM     56  C   UNL     1      -3.772   7.802  11.062  1.00  0.00     0.049 A 
ATOM     57  H   UNL     1      -4.170   8.760   9.239  1.00  0.00     0.167 HD
ATOM     58  C   UNL     1      -4.745   9.956   5.109  1.00  0.00     0.031 A 
ATOM     59  C   UNL     1      -5.000   7.518  11.562  1.00  0.00     0.031 A 
ATOM     60  C   UNL     1      -5.091  11.101   5.916  1.00  0.00     0.049 A 
ATOM     61  C   UNL     1      -5.969   8.397  10.883  1.00  0.00     0.074 A 
ATOM     62  C   UNL     1      -4.673  12.404   6.054  1.00  0.00     0.029 A 
ATOM     63  N   UNL     1      -5.781  10.769   7.052  1.00  0.00    -0.354 N 
ATOM     64  N   UNL     1      -6.021   9.680  11.087  1.00  0.00    -0.248 NA
ATOM     65  C   UNL     1      -6.705   7.915   9.721  1.00  0.00     0.031 C 
ATOM     66  C   UNL     1      -4.961  12.767   7.406  1.00  0.00     0.029 A 
ATOM     67  C   UNL     1      -5.595  11.698   8.036  1.00  0.00     0.049 A 
ATOM     68  H   UNL     1      -6.340   9.964   7.147  1.00  0.00     0.167 HD
ATOM     69  C   UNL     1      -6.368  10.197   9.856  1.00  0.00     0.074 A 
ATOM     70  C   UNL     1      -6.974   9.085   9.134  1.00  0.00     0.031 C 
ATOM     71  C   UNL     1      -5.826  11.372   9.426  1.00  0.00     0.031 A 
BRANCH  58  72
ATOM     72  C   UNL     1      -5.843   9.133   4.456  1.00  0.00    -0.014 A 
ATOM     73  C   UNL     1      -7.084   9.757   4.217  1.00  0.00     0.009 A 
ATOM     74  C   UNL     1      -5.824   7.729   4.366  1.00  0.00     0.009 A 
ATOM     75  C   UNL     1      -8.250   9.013   3.992  1.00  0.00     0.001 A 
ATOM     76  C   UNL     1      -6.980   6.984   4.108  1.00  0.00     0.001 A 
ATOM     77  C   UNL     1      -8.199   7.625   3.949  1.00  0.00     0.000 A 
ENDBRANCH  58  72
BRANCH  59  78
ATOM     78  C   UNL     1      -5.466   6.506  12.531  1.00  0.00    -0.014 A 
ATOM     79  C   UNL     1      -6.676   6.690  13.223  1.00  0.00     0.009 A 
ATOM     80  C   UNL     1      -4.892   5.225  12.539  1.00  0.00     0.009 A 
ATOM     81  C   UNL     1      -7.328   5.614  13.837  1.00  0.00     0.001 A 
ATOM     82  C   UNL     1      -5.543   4.149  13.156  1.00  0.00     0.001 A 
ATOM     83  C   UNL     1      -6.771   4.339  13.784  1.00  0.00     0.000 A 
ENDBRANCH  59  78
BRANCH  71  84
ATOM     84  C   UNL     1      -5.277  12.296  10.476  1.00  0.00    -0.014 A 
ATOM     85  C   UNL     1      -4.202  11.972  11.322  1.00  0.00     0.009 A 
ATOM     86  C   UNL     1      -5.852  13.570  10.584  1.00  0.00     0.009 A 
ATOM     87  C   UNL     1      -3.750  12.886  12.280  1.00  0.00     0.001 A 
ATOM     88  C   UNL     1      -5.384  14.490  11.522  1.00  0.00     0.001 A 
ATOM     89  C   UNL     1      -4.341  14.144  12.378  1.00  0.00     0.000 A 
ENDBRANCH  71  84
ENDBRANCH  45  46
ENDBRANCH  37  40
ENDBRANCH  35  36
ENDBRANCH  34  35
ENDBRANCH  33  34
ENDBRANCH   1  33
TORSDOF 19
