REMARK SMILES Cc1onc(-c2cccc(Br)c2)c1C(=O)NCCCCCCNC(=O)c1ccc(-c2c3nc(c(-c4ccccc4)c4ccc([nH]4)c(-c4ccccc4)c4nc(c(-c5ccccc5)c5ccc2[nH]5)C=C4)C=C3)cc1
REMARK SMILES IDX 20 1 19 2 18 3 17 4 16 5 14 6 15 7 13 9 1 10 2 11 3 12 4 13
REMARK SMILES IDX 5 14 6 15 7 16 12 17 8 18 10 19 9 20 11 21 21 22 22 23 23 24
REMARK SMILES IDX 24 25 25 27 26 28 27 29 73 30 28 31 72 32 29 33 30 34 31 35
REMARK SMILES IDX 66 36 32 37 71 38 65 39 67 40 33 41 70 42 64 43 63 44 34 46
REMARK SMILES IDX 56 47 41 48 55 49 42 50 45 51 54 52 68 53 43 54 44 55 53 57
REMARK SMILES IDX 69 58 46 59 35 60 36 61 40 62 37 63 39 64 38 65 57 66 58 67
REMARK SMILES IDX 62 68 59 69 61 70 60 71 47 72 48 73 52 74 49 75 51 76 50 77
REMARK H PARENT 16 8 23 26 67 45 45 56
REMARK Flexibility Score: inf
ROOT
ATOM      1  C   UNL     1       5.308  -4.152  -0.030  1.00  0.00     0.002 C 
ENDROOT
BRANCH   1   2
ATOM      2  C   UNL     1       4.287  -3.845   1.073  1.00  0.00     0.002 C 
BRANCH   2   3
ATOM      3  C   UNL     1       3.592  -2.480   0.944  1.00  0.00     0.021 C 
BRANCH   3   4
ATOM      4  C   UNL     1       2.816  -2.319  -0.365  1.00  0.00     0.116 C 
BRANCH   4   5
ATOM      5  N   UNL     1       1.513  -2.909  -0.241  1.00  0.00    -0.352 N 
ATOM      6  C   UNL     1       0.246  -2.442  -0.065  1.00  0.00     0.257 C 
ATOM      7  O   UNL     1      -0.581  -3.358  -0.019  1.00  0.00    -0.269 OA
ATOM      8  H   UNL     1       1.543  -3.891  -0.299  1.00  0.00     0.163 HD
BRANCH   6   9
ATOM      9  C   UNL     1      -0.171  -1.045   0.035  1.00  0.00     0.110 A 
ATOM     10  C   UNL     1       1.841   0.735   0.272  1.00  0.00     0.092 C 
ATOM     11  C   UNL     1       0.479   0.180   0.144  1.00  0.00     0.147 A 
ATOM     12  O   UNL     1      -0.442   1.184   0.132  1.00  0.00    -0.360 OA
ATOM     13  N   UNL     1      -1.705   0.679   0.076  1.00  0.00    -0.079 NA
ATOM     14  C   UNL     1      -1.569  -0.650   0.058  1.00  0.00     0.126 A 
BRANCH  14  15
ATOM     15  C   UNL     1      -2.768  -1.480   0.057  1.00  0.00     0.006 A 
ATOM     16  C   UNL     1      -3.036  -2.340   1.132  1.00  0.00     0.010 A 
ATOM     17  C   UNL     1      -3.667  -1.409  -1.013  1.00  0.00     0.026 A 
ATOM     18  C   UNL     1      -4.170  -3.152   1.120  1.00  0.00     0.002 A 
ATOM     19  C   UNL     1      -4.802  -2.218  -1.013  1.00  0.00     0.018 A 
ATOM     20  C   UNL     1      -5.055  -3.092   0.044  1.00  0.00     0.016 A 
ATOM     21  Br  UNL     1      -6.010  -2.133  -2.466  1.00  0.00    -0.051 Br
ENDBRANCH  14  15
ENDBRANCH   6   9
ENDBRANCH   4   5
ENDBRANCH   3   4
ENDBRANCH   2   3
ENDBRANCH   1   2
BRANCH   1  22
ATOM     22  C   UNL     1       6.370  -3.069  -0.238  1.00  0.00     0.021 C 
BRANCH  22  23
ATOM     23  C   UNL     1       7.249  -2.824   0.984  1.00  0.00     0.116 C 
BRANCH  23  24
ATOM     24  N   UNL     1       8.020  -4.008   1.330  1.00  0.00    -0.352 N 
ATOM     25  C   UNL     1       9.377  -4.166   1.404  1.00  0.00     0.251 C 
ATOM     26  H   UNL     1       7.490  -4.810   1.542  1.00  0.00     0.163 HD
ATOM     27  O   UNL     1       9.868  -5.295   1.457  1.00  0.00    -0.269 OA
BRANCH  25  28
ATOM     28  C   UNL     1      10.256  -2.982   1.415  1.00  0.00     0.039 A 
ATOM     29  C   UNL     1      11.420  -2.990   0.643  1.00  0.00     0.014 A 
ATOM     30  C   UNL     1       9.938  -1.871   2.202  1.00  0.00     0.014 A 
ATOM     31  C   UNL     1      12.241  -1.863   0.623  1.00  0.00     0.010 A 
ATOM     32  C   UNL     1      10.716  -0.721   2.121  1.00  0.00     0.010 A 
ATOM     33  C   UNL     1      11.880  -0.709   1.338  1.00  0.00    -0.014 A 
BRANCH  33  34
ATOM     34  C   UNL     1      12.710   0.518   1.284  1.00  0.00     0.031 A 
ATOM     35  C   UNL     1      13.384   1.030   2.526  1.00  0.00     0.074 A 
ATOM     36  C   UNL     1      12.806   1.204   0.129  1.00  0.00     0.049 A 
ATOM     37  N   UNL     1      14.108   2.109   2.687  1.00  0.00    -0.248 NA
ATOM     38  C   UNL     1      13.200   0.241   3.755  1.00  0.00     0.031 C 
ATOM     39  C   UNL     1      12.167   0.830  -1.135  1.00  0.00     0.029 A 
ATOM     40  N   UNL     1      13.476   2.363  -0.167  1.00  0.00    -0.354 N 
ATOM     41  C   UNL     1      14.451   2.135   4.032  1.00  0.00     0.074 A 
ATOM     42  C   UNL     1      13.813   0.996   4.655  1.00  0.00     0.031 C 
ATOM     43  C   UNL     1      12.502   1.726  -2.077  1.00  0.00     0.029 A 
ATOM     44  C   UNL     1      13.340   2.757  -1.476  1.00  0.00     0.049 A 
ATOM     45  H   UNL     1      14.003   2.865   0.495  1.00  0.00     0.167 HD
ATOM     46  C   UNL     1      15.243   3.017   4.688  1.00  0.00     0.031 A 
ATOM     47  C   UNL     1      13.832   3.833  -2.119  1.00  0.00     0.031 A 
ATOM     48  C   UNL     1      15.880   4.147   4.066  1.00  0.00     0.049 A 
ATOM     49  C   UNL     1      14.688   4.810  -1.364  1.00  0.00     0.074 A 
ATOM     50  C   UNL     1      16.746   5.067   4.631  1.00  0.00     0.029 A 
ATOM     51  N   UNL     1      15.716   4.513   2.739  1.00  0.00    -0.354 N 
ATOM     52  N   UNL     1      15.062   4.782  -0.107  1.00  0.00    -0.248 NA
ATOM     53  C   UNL     1      15.200   5.961  -2.120  1.00  0.00     0.031 C 
ATOM     54  C   UNL     1      17.059   6.024   3.660  1.00  0.00     0.029 A 
ATOM     55  C   UNL     1      16.439   5.663   2.474  1.00  0.00     0.049 A 
ATOM     56  H   UNL     1      15.166   4.027   2.083  1.00  0.00     0.167 HD
ATOM     57  C   UNL     1      15.874   5.894   0.071  1.00  0.00     0.074 A 
ATOM     58  C   UNL     1      15.952   6.565  -1.211  1.00  0.00     0.031 C 
ATOM     59  C   UNL     1      16.501   6.322   1.194  1.00  0.00     0.031 A 
BRANCH  46  60
ATOM     60  C   UNL     1      15.451   2.796   6.162  1.00  0.00    -0.014 A 
ATOM     61  C   UNL     1      16.192   1.702   6.639  1.00  0.00     0.009 A 
ATOM     62  C   UNL     1      14.921   3.709   7.086  1.00  0.00     0.009 A 
ATOM     63  C   UNL     1      16.361   1.505   8.011  1.00  0.00     0.001 A 
ATOM     64  C   UNL     1      15.118   3.527   8.457  1.00  0.00     0.001 A 
ATOM     65  C   UNL     1      15.828   2.419   8.918  1.00  0.00     0.000 A 
ENDBRANCH  46  60
BRANCH  47  66
ATOM     66  C   UNL     1      13.538   4.035  -3.562  1.00  0.00    -0.014 A 
ATOM     67  C   UNL     1      14.551   3.890  -4.521  1.00  0.00     0.009 A 
ATOM     68  C   UNL     1      12.243   4.372  -3.988  1.00  0.00     0.009 A 
ATOM     69  C   UNL     1      14.281   4.106  -5.875  1.00  0.00     0.001 A 
ATOM     70  C   UNL     1      11.969   4.557  -5.344  1.00  0.00     0.001 A 
ATOM     71  C   UNL     1      12.990   4.434  -6.285  1.00  0.00     0.000 A 
ENDBRANCH  47  66
BRANCH  59  72
ATOM     72  C   UNL     1      17.352   7.556   1.078  1.00  0.00    -0.014 A 
ATOM     73  C   UNL     1      16.779   8.826   0.913  1.00  0.00     0.009 A 
ATOM     74  C   UNL     1      18.748   7.447   1.175  1.00  0.00     0.009 A 
ATOM     75  C   UNL     1      17.590   9.958   0.812  1.00  0.00     0.001 A 
ATOM     76  C   UNL     1      19.555   8.583   1.105  1.00  0.00     0.001 A 
ATOM     77  C   UNL     1      18.975   9.836   0.914  1.00  0.00     0.000 A 
ENDBRANCH  59  72
ENDBRANCH  33  34
ENDBRANCH  25  28
ENDBRANCH  23  24
ENDBRANCH  22  23
ENDBRANCH   1  22
TORSDOF 14
