REMARK SMILES CCNC(=O)C[NH2+][C@@H](C)[C@@H](C)C(=O)NCCCCCCNC(=O)c1ccc(-c2c3nc(c(-c4ccccc4)c4ccc([nH]4)c(-c4ccccc4)c4nc(c(-c5ccccc5)c5ccc2[nH]5)C=C4)C=C3)cc1
REMARK SMILES IDX 16 1 15 2 14 3 12 4 13 5 10 7 11 8 8 9 9 10 7 11 6 14 4 15
REMARK SMILES IDX 3 16 5 18 2 19 1 20 17 21 18 22 19 23 20 24 21 25 22 26
REMARK SMILES IDX 23 28 24 29 25 30 71 31 26 32 70 33 27 34 28 35 29 36 64 37
REMARK SMILES IDX 30 38 69 39 63 40 65 41 31 42 68 43 62 44 61 45 32 47 54 48
REMARK SMILES IDX 39 49 53 50 40 51 43 52 52 53 66 54 41 55 42 56 51 58 67 59
REMARK SMILES IDX 44 60 33 61 34 62 38 63 35 64 37 65 36 66 55 67 56 68 60 69
REMARK SMILES IDX 57 70 59 71 58 72 45 73 46 74 50 75 47 76 49 77 48 78
REMARK H PARENT 14 6 7 12 7 13 3 17 21 27 65 46 43 57
REMARK Flexibility Score: inf
ROOT
ATOM      1  C   UNL     1      -5.607  -0.160  -2.080  1.00  0.00     0.021 C 
ENDROOT
BRANCH   1   2
ATOM      2  C   UNL     1      -4.953   0.500  -0.867  1.00  0.00     0.116 C 
BRANCH   2   3
ATOM      3  N   UNL     1      -5.529   0.010   0.370  1.00  0.00    -0.356 N 
ATOM      4  C   UNL     1      -5.014  -0.768   1.358  1.00  0.00     0.228 C 
ATOM      5  O   UNL     1      -5.772  -1.084   2.280  1.00  0.00    -0.275 OA
ATOM      6  H   UNL     1      -6.460   0.291   0.521  1.00  0.00     0.163 HD
BRANCH   4   7
ATOM      7  C   UNL     1      -3.559  -1.229   1.365  1.00  0.00     0.133 C 
ATOM      8  C   UNL     1      -2.638  -0.017   1.549  1.00  0.00     0.024 C 
BRANCH   7   9
ATOM      9  C   UNL     1      -3.215  -2.162   0.175  1.00  0.00     0.191 C 
ATOM     10  C   UNL     1      -4.066  -3.440   0.231  1.00  0.00     0.076 C 
BRANCH   9  11
ATOM     11  N   UNL     1      -1.776  -2.477   0.173  1.00  0.00    -0.336 N 
ATOM     12  H   UNL     1      -1.253  -1.619   0.349  1.00  0.00     0.346 HD
ATOM     13  H   UNL     1      -1.612  -3.174   0.899  1.00  0.00     0.346 HD
BRANCH  11  14
ATOM     14  C   UNL     1      -1.321  -3.051  -1.105  1.00  0.00     0.362 C 
BRANCH  14  15
ATOM     15  C   UNL     1       0.201  -3.206  -1.106  1.00  0.00     0.275 C 
ATOM     16  N   UNL     1       0.994  -2.098  -1.212  1.00  0.00    -0.351 N 
ATOM     17  H   UNL     1       1.959  -2.270  -1.304  1.00  0.00     0.163 HD
ATOM     18  O   UNL     1       0.734  -4.316  -1.036  1.00  0.00    -0.269 OA
BRANCH  16  19
ATOM     19  C   UNL     1       0.600  -0.703  -1.209  1.00  0.00     0.112 C 
ATOM     20  C   UNL     1       1.034  -0.024   0.078  1.00  0.00     0.027 C 
ENDBRANCH  16  19
ENDBRANCH  14  15
ENDBRANCH  11  14
ENDBRANCH   9  11
ENDBRANCH   7   9
ENDBRANCH   4   7
ENDBRANCH   2   3
ENDBRANCH   1   2
BRANCH   1  21
ATOM     21  C   UNL     1      -7.063   0.262  -2.312  1.00  0.00     0.002 C 
BRANCH  21  22
ATOM     22  C   UNL     1      -7.286   1.772  -2.452  1.00  0.00     0.002 C 
BRANCH  22  23
ATOM     23  C   UNL     1      -6.418   2.459  -3.508  1.00  0.00     0.021 C 
BRANCH  23  24
ATOM     24  C   UNL     1      -6.586   1.910  -4.920  1.00  0.00     0.116 C 
BRANCH  24  25
ATOM     25  N   UNL     1      -7.932   2.119  -5.430  1.00  0.00    -0.352 N 
ATOM     26  C   UNL     1      -8.334   2.740  -6.584  1.00  0.00     0.251 C 
ATOM     27  H   UNL     1      -8.657   1.764  -4.867  1.00  0.00     0.163 HD
ATOM     28  O   UNL     1      -9.520   3.010  -6.763  1.00  0.00    -0.269 OA
BRANCH  26  29
ATOM     29  C   UNL     1      -7.334   3.106  -7.608  1.00  0.00     0.039 A 
ATOM     30  C   UNL     1      -7.389   4.376  -8.186  1.00  0.00     0.014 A 
ATOM     31  C   UNL     1      -6.347   2.196  -7.998  1.00  0.00     0.014 A 
ATOM     32  C   UNL     1      -6.416   4.756  -9.113  1.00  0.00     0.010 A 
ATOM     33  C   UNL     1      -5.337   2.601  -8.866  1.00  0.00     0.010 A 
ATOM     34  C   UNL     1      -5.363   3.884  -9.435  1.00  0.00    -0.014 A 
BRANCH  34  35
ATOM     35  C   UNL     1      -4.277   4.295 -10.361  1.00  0.00     0.031 A 
ATOM     36  C   UNL     1      -4.080   3.568 -11.664  1.00  0.00     0.074 A 
ATOM     37  C   UNL     1      -3.423   5.272  -9.997  1.00  0.00     0.049 A 
ATOM     38  N   UNL     1      -3.141   3.727 -12.563  1.00  0.00    -0.248 NA
ATOM     39  C   UNL     1      -5.047   2.506 -11.990  1.00  0.00     0.031 C 
ATOM     40  C   UNL     1      -3.481   6.029  -8.743  1.00  0.00     0.029 A 
ATOM     41  N   UNL     1      -2.327   5.790 -10.643  1.00  0.00    -0.354 N 
ATOM     42  C   UNL     1      -3.390   2.773 -13.542  1.00  0.00     0.074 A 
ATOM     43  C   UNL     1      -4.544   2.014 -13.113  1.00  0.00     0.031 C 
ATOM     44  C   UNL     1      -2.478   6.922  -8.720  1.00  0.00     0.029 A 
ATOM     45  C   UNL     1      -1.681   6.774  -9.933  1.00  0.00     0.049 A 
ATOM     46  H   UNL     1      -2.032   5.485 -11.531  1.00  0.00     0.167 HD
ATOM     47  C   UNL     1      -2.724   2.557 -14.700  1.00  0.00     0.031 A 
ATOM     48  C   UNL     1      -0.561   7.466 -10.218  1.00  0.00     0.031 A 
ATOM     49  C   UNL     1      -1.594   3.330 -15.141  1.00  0.00     0.049 A 
ATOM     50  C   UNL     1       0.159   7.197 -11.512  1.00  0.00     0.074 A 
ATOM     51  C   UNL     1      -0.906   3.239 -16.339  1.00  0.00     0.029 A 
ATOM     52  N   UNL     1      -0.986   4.332 -14.403  1.00  0.00    -0.354 N 
ATOM     53  N   UNL     1      -0.144   6.353 -12.467  1.00  0.00    -0.248 NA
ATOM     54  C   UNL     1       1.373   7.986 -11.770  1.00  0.00     0.031 C 
ATOM     55  C   UNL     1       0.159   4.142 -16.300  1.00  0.00     0.029 A 
ATOM     56  C   UNL     1       0.092   4.842 -15.106  1.00  0.00     0.049 A 
ATOM     57  H   UNL     1      -1.276   4.635 -13.513  1.00  0.00     0.167 HD
ATOM     58  C   UNL     1       0.817   6.535 -13.453  1.00  0.00     0.074 A 
ATOM     59  C   UNL     1       1.703   7.581 -12.988  1.00  0.00     0.031 C 
ATOM     60  C   UNL     1       0.956   5.893 -14.637  1.00  0.00     0.031 A 
BRANCH  47  61
ATOM     61  C   UNL     1      -3.186   1.431 -15.583  1.00  0.00    -0.014 A 
ATOM     62  C   UNL     1      -4.382   1.518 -16.311  1.00  0.00     0.009 A 
ATOM     63  C   UNL     1      -2.366   0.305 -15.755  1.00  0.00     0.009 A 
ATOM     64  C   UNL     1      -4.756   0.490 -17.180  1.00  0.00     0.001 A 
ATOM     65  C   UNL     1      -2.728  -0.708 -16.644  1.00  0.00     0.001 A 
ATOM     66  C   UNL     1      -3.925  -0.617 -17.352  1.00  0.00     0.000 A 
ENDBRANCH  47  61
BRANCH  48  67
ATOM     67  C   UNL     1      -0.031   8.476  -9.261  1.00  0.00    -0.014 A 
ATOM     68  C   UNL     1      -0.017   9.840  -9.594  1.00  0.00     0.009 A 
ATOM     69  C   UNL     1       0.513   8.075  -8.031  1.00  0.00     0.009 A 
ATOM     70  C   UNL     1       0.573  10.772  -8.737  1.00  0.00     0.001 A 
ATOM     71  C   UNL     1       1.071   9.014  -7.161  1.00  0.00     0.001 A 
ATOM     72  C   UNL     1       1.115  10.359  -7.521  1.00  0.00     0.000 A 
ENDBRANCH  48  67
BRANCH  60  73
ATOM     73  C   UNL     1       2.074   6.335 -15.538  1.00  0.00    -0.014 A 
ATOM     74  C   UNL     1       3.415   6.051 -15.236  1.00  0.00     0.009 A 
ATOM     75  C   UNL     1       1.773   7.004 -16.735  1.00  0.00     0.009 A 
ATOM     76  C   UNL     1       4.433   6.459 -16.099  1.00  0.00     0.001 A 
ATOM     77  C   UNL     1       2.791   7.381 -17.612  1.00  0.00     0.001 A 
ATOM     78  C   UNL     1       4.120   7.117 -17.289  1.00  0.00     0.000 A 
ENDBRANCH  60  73
ENDBRANCH  34  35
ENDBRANCH  26  29
ENDBRANCH  24  25
ENDBRANCH  23  24
ENDBRANCH  22  23
ENDBRANCH  21  22
ENDBRANCH   1  21
TORSDOF 18
