REMARK SMILES CCc1cc(N2CCC[C@H](C(=O)NCCCCCCNC(=O)c3ccc(-c4c5nc(c(-c6ccccc6)c6ccc([nH]6)c(-c6ccccc6)c6nc(c(-c7ccccc7)c7ccc4[nH]7)C=C6)C=C5)cc3)C2)nc(-c2ccc(Cl)cc2)n1
REMARK SMILES IDX 16 1 15 2 14 3 13 4 11 5 12 6 10 8 6 9 7 10 71 11 8 12 9 13
REMARK SMILES IDX 5 14 3 15 4 16 81 17 73 18 72 19 2 20 1 21 74 22 75 23 80 24
REMARK SMILES IDX 76 25 79 26 77 27 78 28 17 29 18 30 19 31 20 32 21 33 22 35
REMARK SMILES IDX 23 36 24 37 70 38 25 39 69 40 26 41 27 42 28 43 63 44 29 45
REMARK SMILES IDX 68 46 62 47 64 48 30 49 67 50 61 51 60 52 31 54 53 55 38 56
REMARK SMILES IDX 52 57 39 58 42 59 51 60 65 61 40 62 41 63 50 65 66 66 43 67
REMARK SMILES IDX 32 68 33 69 37 70 34 71 36 72 35 73 54 74 55 75 59 76 56 77
REMARK SMILES IDX 58 78 57 79 44 80 45 81 49 82 46 83 48 84 47 85
REMARK H PARENT 13 7 20 34 64 53 42 64
REMARK Flexibility Score: inf
ROOT
ATOM      1  C   UNL     1       2.759   6.827   6.073  1.00  0.00     0.002 C 
ENDROOT
BRANCH   1   2
ATOM      2  C   UNL     1       1.893   7.248   4.883  1.00  0.00     0.021 C 
BRANCH   2   3
ATOM      3  C   UNL     1       0.889   6.185   4.445  1.00  0.00     0.116 C 
BRANCH   3   4
ATOM      4  N   UNL     1      -0.483   6.486   4.771  1.00  0.00    -0.356 N 
ATOM      5  C   UNL     1      -1.596   6.289   4.016  1.00  0.00     0.224 C 
ATOM      6  O   UNL     1      -2.660   6.139   4.630  1.00  0.00    -0.275 OA
ATOM      7  H   UNL     1      -0.634   6.886   5.657  1.00  0.00     0.163 HD
BRANCH   5   8
ATOM      8  C   UNL     1      -1.607   6.253   2.484  1.00  0.00     0.098 C 
ATOM      9  N   UNL     1       0.118   4.713   1.702  1.00  0.00    -0.356 N 
ATOM     10  C   UNL     1       0.805   5.640   0.817  1.00  0.00     0.118 C 
ATOM     11  C   UNL     1      -1.309   4.879   1.903  1.00  0.00     0.131 C 
ATOM     12  C   UNL     1       0.502   7.103   1.190  1.00  0.00     0.022 C 
ATOM     13  C   UNL     1      -0.894   7.397   1.756  1.00  0.00     0.017 C 
BRANCH   9  14
ATOM     14  C   UNL     1       0.658   3.477   1.997  1.00  0.00     0.132 A 
ATOM     15  C   UNL     1       0.727   1.126   1.765  1.00  0.00     0.046 A 
ATOM     16  C   UNL     1       0.277   2.349   1.299  1.00  0.00     0.070 A 
ATOM     17  N   UNL     1       1.510   1.015   2.852  1.00  0.00    -0.233 NA
ATOM     18  C   UNL     1       1.815   2.157   3.482  1.00  0.00     0.161 A 
ATOM     19  N   UNL     1       1.440   3.388   3.087  1.00  0.00    -0.211 NA
BRANCH  15  20
ATOM     20  C   UNL     1       0.307  -0.159   1.107  1.00  0.00     0.053 C 
ATOM     21  C   UNL     1       0.923  -0.324  -0.271  1.00  0.00     0.011 C 
ENDBRANCH  15  20
BRANCH  18  22
ATOM     22  C   UNL     1       2.511   2.031   4.765  1.00  0.00     0.019 A 
ATOM     23  C   UNL     1       3.847   1.601   4.829  1.00  0.00     0.013 A 
ATOM     24  C   UNL     1       1.855   2.344   5.971  1.00  0.00     0.013 A 
ATOM     25  C   UNL     1       4.523   1.538   6.053  1.00  0.00     0.021 A 
ATOM     26  C   UNL     1       2.528   2.280   7.197  1.00  0.00     0.021 A 
ATOM     27  C   UNL     1       3.864   1.890   7.229  1.00  0.00     0.041 A 
ATOM     28  Cl  UNL     1       4.710   1.863   8.726  1.00  0.00    -0.084 Cl
ENDBRANCH  18  22
ENDBRANCH   9  14
ENDBRANCH   5   8
ENDBRANCH   3   4
ENDBRANCH   2   3
ENDBRANCH   1   2
BRANCH   1  29
ATOM     29  C   UNL     1       3.502   5.501   5.896  1.00  0.00     0.002 C 
BRANCH  29  30
ATOM     30  C   UNL     1       4.454   5.404   4.708  1.00  0.00     0.021 C 
BRANCH  30  31
ATOM     31  C   UNL     1       5.618   6.379   4.769  1.00  0.00     0.116 C 
BRANCH  31  32
ATOM     32  N   UNL     1       6.357   6.263   6.018  1.00  0.00    -0.352 N 
ATOM     33  C   UNL     1       7.691   6.040   6.238  1.00  0.00     0.251 C 
ATOM     34  H   UNL     1       5.814   6.361   6.833  1.00  0.00     0.163 HD
ATOM     35  O   UNL     1       8.094   5.750   7.358  1.00  0.00    -0.269 OA
BRANCH  33  36
ATOM     36  C   UNL     1       8.643   6.150   5.118  1.00  0.00     0.039 A 
ATOM     37  C   UNL     1       9.690   5.229   5.025  1.00  0.00     0.014 A 
ATOM     38  C   UNL     1       8.516   7.174   4.177  1.00  0.00     0.014 A 
ATOM     39  C   UNL     1      10.581   5.309   3.956  1.00  0.00     0.010 A 
ATOM     40  C   UNL     1       9.345   7.196   3.066  1.00  0.00     0.010 A 
ATOM     41  C   UNL     1      10.397   6.276   2.954  1.00  0.00    -0.014 A 
BRANCH  41  42
ATOM     42  C   UNL     1      11.303   6.357   1.787  1.00  0.00     0.031 A 
ATOM     43  C   UNL     1      12.131   7.592   1.566  1.00  0.00     0.074 A 
ATOM     44  C   UNL     1      11.316   5.356   0.888  1.00  0.00     0.049 A 
ATOM     45  N   UNL     1      12.928   7.883   0.570  1.00  0.00    -0.248 NA
ATOM     46  C   UNL     1      12.023   8.654   2.580  1.00  0.00     0.031 C 
ATOM     47  C   UNL     1      10.511   4.134   0.968  1.00  0.00     0.029 A 
ATOM     48  N   UNL     1      12.023   5.214  -0.278  1.00  0.00    -0.354 N 
ATOM     49  C   UNL     1      13.393   9.167   0.826  1.00  0.00     0.074 A 
ATOM     50  C   UNL     1      12.748   9.620   2.038  1.00  0.00     0.031 C 
ATOM     51  C   UNL     1      10.788   3.358  -0.091  1.00  0.00     0.029 A 
ATOM     52  C   UNL     1      11.754   4.043  -0.943  1.00  0.00     0.049 A 
ATOM     53  H   UNL     1      12.662   5.887  -0.607  1.00  0.00     0.167 HD
ATOM     54  C   UNL     1      14.292   9.897   0.124  1.00  0.00     0.031 A 
ATOM     55  C   UNL     1      12.226   3.579  -2.114  1.00  0.00     0.031 A 
ATOM     56  C   UNL     1      14.938   9.434  -1.074  1.00  0.00     0.049 A 
ATOM     57  C   UNL     1      13.229   4.401  -2.872  1.00  0.00     0.074 A 
ATOM     58  C   UNL     1      15.919  10.059  -1.822  1.00  0.00     0.029 A 
ATOM     59  N   UNL     1      14.661   8.229  -1.703  1.00  0.00    -0.354 N 
ATOM     60  N   UNL     1      13.727   5.577  -2.574  1.00  0.00    -0.248 NA
ATOM     61  C   UNL     1      13.747   3.825  -4.120  1.00  0.00     0.031 C 
ATOM     62  C   UNL     1      16.192   9.260  -2.937  1.00  0.00     0.029 A 
ATOM     63  C   UNL     1      15.428   8.107  -2.848  1.00  0.00     0.049 A 
ATOM     64  H   UNL     1      14.014   7.559  -1.382  1.00  0.00     0.167 HD
ATOM     65  C   UNL     1      14.633   5.872  -3.583  1.00  0.00     0.074 A 
ATOM     66  C   UNL     1      14.629   4.743  -4.491  1.00  0.00     0.031 C 
ATOM     67  C   UNL     1      15.401   6.978  -3.744  1.00  0.00     0.031 A 
BRANCH  54  68
ATOM     68  C   UNL     1      14.609  11.277   0.631  1.00  0.00    -0.014 A 
ATOM     69  C   UNL     1      15.296  11.474   1.841  1.00  0.00     0.009 A 
ATOM     70  C   UNL     1      14.225  12.399  -0.118  1.00  0.00     0.009 A 
ATOM     71  C   UNL     1      15.546  12.765   2.312  1.00  0.00     0.001 A 
ATOM     72  C   UNL     1      14.507  13.689   0.338  1.00  0.00     0.001 A 
ATOM     73  C   UNL     1      15.155  13.871   1.558  1.00  0.00     0.000 A 
ENDBRANCH  54  68
BRANCH  55  74
ATOM     74  C   UNL     1      11.758   2.266  -2.629  1.00  0.00    -0.014 A 
ATOM     75  C   UNL     1      12.616   1.156  -2.640  1.00  0.00     0.009 A 
ATOM     76  C   UNL     1      10.442   2.111  -3.093  1.00  0.00     0.009 A 
ATOM     77  C   UNL     1      12.171  -0.076  -3.125  1.00  0.00     0.001 A 
ATOM     78  C   UNL     1       9.992   0.871  -3.549  1.00  0.00     0.001 A 
ATOM     79  C   UNL     1      10.859  -0.219  -3.573  1.00  0.00     0.000 A 
ENDBRANCH  55  74
BRANCH  67  80
ATOM     80  C   UNL     1      16.319   7.008  -4.934  1.00  0.00    -0.014 A 
ATOM     81  C   UNL     1      15.821   7.165  -6.237  1.00  0.00     0.009 A 
ATOM     82  C   UNL     1      17.707   6.922  -4.741  1.00  0.00     0.009 A 
ATOM     83  C   UNL     1      16.695   7.202  -7.325  1.00  0.00     0.001 A 
ATOM     84  C   UNL     1      18.579   6.991  -5.827  1.00  0.00     0.001 A 
ATOM     85  C   UNL     1      18.072   7.121  -7.119  1.00  0.00     0.000 A 
ENDBRANCH  67  80
ENDBRANCH  41  42
ENDBRANCH  33  36
ENDBRANCH  31  32
ENDBRANCH  30  31
ENDBRANCH  29  30
ENDBRANCH   1  29
TORSDOF 16
