REMARK SMILES N#CCOc1ccc2[nH]cc([C@H](C(=O)NCCCCCCNC(=O)c3ccc(-c4c5nc(c(-c6ccccc6)c6ccc([nH]6)c(-c6ccccc6)c6nc(c(-c7ccccc7)c7ccc4[nH]7)C=C6)C=C5)cc3)[NH+]3CC[NH+]([C@@H]4CCS(=O)(=O)C4)CC3)c2c1
REMARK SMILES IDX 17 1 16 2 15 3 13 4 14 5 12 7 11 8 5 9 6 10 87 11 7 12 86 13
REMARK SMILES IDX 8 14 9 15 10 16 4 18 3 19 2 20 1 21 73 22 74 23 85 24 75 26
REMARK SMILES IDX 84 27 76 28 77 30 78 31 83 32 79 33 80 34 81 35 82 36 18 37
REMARK SMILES IDX 19 38 20 39 21 40 22 41 23 42 24 44 25 45 26 46 72 47 27 48
REMARK SMILES IDX 71 49 28 50 29 51 30 52 65 53 31 54 70 55 64 56 66 57 32 58
REMARK SMILES IDX 69 59 63 60 62 61 33 63 55 64 40 65 54 66 41 67 44 68 53 69
REMARK SMILES IDX 67 70 42 71 43 72 52 74 68 75 45 76 34 77 35 78 39 79 36 80
REMARK SMILES IDX 38 81 37 82 56 83 57 84 61 85 58 86 60 87 59 88 46 89 47 90
REMARK SMILES IDX 51 91 48 92 50 93 49 94
REMARK H PARENT 15 6 9 17 73 25 76 29 22 43 66 62 44 73
REMARK Flexibility Score: inf
ROOT
ATOM      1  C   UNL     1       5.018  -0.118  -2.655  1.00  0.00     0.021 C 
ENDROOT
BRANCH   1   2
ATOM      2  C   UNL     1       5.859  -1.380  -2.862  1.00  0.00     0.116 C 
BRANCH   2   3
ATOM      3  N   UNL     1       5.146  -2.320  -3.699  1.00  0.00    -0.351 N 
ATOM      4  C   UNL     1       5.349  -2.662  -4.997  1.00  0.00     0.283 C 
ATOM      5  O   UNL     1       4.363  -3.119  -5.581  1.00  0.00    -0.268 OA
ATOM      6  H   UNL     1       4.398  -2.784  -3.258  1.00  0.00     0.163 HD
BRANCH   4   7
ATOM      7  C   UNL     1       6.722  -2.443  -5.654  1.00  0.00     0.308 C 
BRANCH   7   8
ATOM      8  C   UNL     1       7.508  -3.721  -5.868  1.00  0.00     0.045 A 
ATOM      9  C   UNL     1       5.664  -7.095  -5.929  1.00  0.00     0.121 A 
ATOM     10  C   UNL     1       6.786  -7.886  -6.117  1.00  0.00     0.048 A 
ATOM     11  C   UNL     1       5.788  -5.717  -5.789  1.00  0.00     0.057 A 
ATOM     12  C   UNL     1       8.059  -7.304  -6.181  1.00  0.00     0.030 A 
ATOM     13  C   UNL     1       7.046  -5.085  -5.886  1.00  0.00     0.013 A 
ATOM     14  C   UNL     1       8.155  -5.907  -6.091  1.00  0.00     0.046 A 
ATOM     15  N   UNL     1       9.251  -5.086  -6.210  1.00  0.00    -0.361 N 
ATOM     16  C   UNL     1       8.878  -3.777  -6.086  1.00  0.00     0.094 A 
ATOM     17  H   UNL     1      10.173  -5.396  -6.363  1.00  0.00     0.166 HD
BRANCH   9  18
ATOM     18  O   UNL     1       4.387  -7.570  -6.056  1.00  0.00    -0.479 OA
BRANCH  18  19
ATOM     19  C   UNL     1       3.973  -8.419  -4.981  1.00  0.00     0.349 C 
BRANCH  19  20
ATOM     20  C   UNL     1       4.188  -9.832  -5.314  1.00  0.00     0.104 C 
ATOM     21  N   UNL     1       4.377 -10.948  -5.583  1.00  0.00    -0.195 NA
ENDBRANCH  19  20
ENDBRANCH  18  19
ENDBRANCH   9  18
ENDBRANCH   7   8
BRANCH   7  22
ATOM     22  N   UNL     1       6.659  -1.591  -6.864  1.00  0.00    -0.312 N 
ATOM     23  C   UNL     1       6.181  -2.228  -8.102  1.00  0.00     0.325 C 
ATOM     24  C   UNL     1       5.988  -0.309  -6.593  1.00  0.00     0.325 C 
ATOM     25  H   UNL     1       7.640  -1.409  -7.078  1.00  0.00     0.349 HD
ATOM     26  C   UNL     1       4.712  -1.995  -8.540  1.00  0.00     0.324 C 
ATOM     27  C   UNL     1       4.479  -0.256  -6.900  1.00  0.00     0.324 C 
ATOM     28  N   UNL     1       4.143  -0.667  -8.258  1.00  0.00    -0.322 N 
ATOM     29  H   UNL     1       3.126  -0.746  -8.260  1.00  0.00     0.348 HD
BRANCH  28  30
ATOM     30  C   UNL     1       4.207   0.318  -9.341  1.00  0.00     0.200 C 
ATOM     31  C   UNL     1       5.565   0.772  -9.908  1.00  0.00     0.082 C 
ATOM     32  C   UNL     1       3.397   1.594  -9.061  1.00  0.00     0.201 C 
ATOM     33  C   UNL     1       6.014   2.081  -9.276  1.00  0.00     0.143 C 
ATOM     34  S   UNL     1       4.567   2.859  -8.605  1.00  0.00     0.156 S 
ATOM     35  O   UNL     1       4.709   2.907  -7.163  1.00  0.00    -0.229 OA
ATOM     36  O   UNL     1       4.283   4.053  -9.373  1.00  0.00    -0.229 OA
ENDBRANCH  28  30
ENDBRANCH   7  22
ENDBRANCH   4   7
ENDBRANCH   2   3
ENDBRANCH   1   2
BRANCH   1  37
ATOM     37  C   UNL     1       3.590  -0.387  -2.157  1.00  0.00     0.002 C 
BRANCH  37  38
ATOM     38  C   UNL     1       3.495  -1.342  -0.963  1.00  0.00     0.002 C 
BRANCH  38  39
ATOM     39  C   UNL     1       4.358  -0.945   0.233  1.00  0.00     0.021 C 
BRANCH  39  40
ATOM     40  C   UNL     1       4.061   0.448   0.763  1.00  0.00     0.116 C 
BRANCH  40  41
ATOM     41  N   UNL     1       2.708   0.542   1.281  1.00  0.00    -0.352 N 
ATOM     42  C   UNL     1       2.291   0.914   2.531  1.00  0.00     0.251 C 
ATOM     43  H   UNL     1       1.993   0.306   0.647  1.00  0.00     0.163 HD
ATOM     44  O   UNL     1       1.137   0.701   2.887  1.00  0.00    -0.269 OA
BRANCH  42  45
ATOM     45  C   UNL     1       3.248   1.556   3.455  1.00  0.00     0.039 A 
ATOM     46  C   UNL     1       3.236   1.181   4.799  1.00  0.00     0.014 A 
ATOM     47  C   UNL     1       4.151   2.523   3.001  1.00  0.00     0.014 A 
ATOM     48  C   UNL     1       4.157   1.748   5.678  1.00  0.00     0.010 A 
ATOM     49  C   UNL     1       5.131   3.013   3.856  1.00  0.00     0.010 A 
ATOM     50  C   UNL     1       5.133   2.645   5.208  1.00  0.00    -0.014 A 
BRANCH  50  51
ATOM     51  C   UNL     1       6.153   3.201   6.130  1.00  0.00     0.031 A 
ATOM     52  C   UNL     1       6.220   4.681   6.392  1.00  0.00     0.074 A 
ATOM     53  C   UNL     1       7.037   2.370   6.717  1.00  0.00     0.049 A 
ATOM     54  N   UNL     1       7.027   5.341   7.184  1.00  0.00    -0.248 NA
ATOM     55  C   UNL     1       5.273   5.535   5.656  1.00  0.00     0.031 C 
ATOM     56  C   UNL     1       7.103   0.921   6.510  1.00  0.00     0.029 A 
ATOM     57  N   UNL     1       8.042   2.623   7.615  1.00  0.00    -0.354 N 
ATOM     58  C   UNL     1       6.691   6.681   7.035  1.00  0.00     0.074 A 
ATOM     59  C   UNL     1       5.651   6.747   6.034  1.00  0.00     0.031 C 
ATOM     60  C   UNL     1       8.063   0.409   7.294  1.00  0.00     0.029 A 
ATOM     61  C   UNL     1       8.714   1.495   8.019  1.00  0.00     0.049 A 
ATOM     62  H   UNL     1       8.261   3.526   7.939  1.00  0.00     0.167 HD
ATOM     63  C   UNL     1       7.189   7.758   7.688  1.00  0.00     0.031 A 
ATOM     64  C   UNL     1       9.744   1.350   8.874  1.00  0.00     0.031 A 
ATOM     65  C   UNL     1       8.229   7.689   8.681  1.00  0.00     0.049 A 
ATOM     66  C   UNL     1      10.299   2.566   9.561  1.00  0.00     0.074 A 
ATOM     67  C   UNL     1       8.766   8.717   9.436  1.00  0.00     0.029 A 
ATOM     68  N   UNL     1       8.898   6.531   9.047  1.00  0.00    -0.354 N 
ATOM     69  N   UNL     1       9.915   3.817   9.469  1.00  0.00    -0.248 NA
ATOM     70  C   UNL     1      11.421   2.347  10.483  1.00  0.00     0.031 C 
ATOM     71  C   UNL     1       9.812   8.194  10.203  1.00  0.00     0.029 A 
ATOM     72  C   UNL     1       9.869   6.826   9.990  1.00  0.00     0.049 A 
ATOM     73  H   UNL     1       8.710   5.633   8.690  1.00  0.00     0.167 HD
ATOM     74  C   UNL     1      10.727   4.528  10.343  1.00  0.00     0.074 A 
ATOM     75  C   UNL     1      11.605   3.564  10.974  1.00  0.00     0.031 C 
ATOM     76  C   UNL     1      10.744   5.859  10.602  1.00  0.00     0.031 A 
BRANCH  63  77
ATOM     77  C   UNL     1       6.627   9.109   7.335  1.00  0.00    -0.014 A 
ATOM     78  C   UNL     1       5.302   9.457   7.646  1.00  0.00     0.009 A 
ATOM     79  C   UNL     1       7.449  10.065   6.718  1.00  0.00     0.009 A 
ATOM     80  C   UNL     1       4.803  10.719   7.313  1.00  0.00     0.001 A 
ATOM     81  C   UNL     1       6.959  11.338   6.419  1.00  0.00     0.001 A 
ATOM     82  C   UNL     1       5.634  11.660   6.707  1.00  0.00     0.000 A 
ENDBRANCH  63  77
BRANCH  64  83
ATOM     83  C   UNL     1      10.320   0.002   9.129  1.00  0.00    -0.014 A 
ATOM     84  C   UNL     1      10.207  -0.602  10.392  1.00  0.00     0.009 A 
ATOM     85  C   UNL     1      11.004  -0.682   8.112  1.00  0.00     0.009 A 
ATOM     86  C   UNL     1      10.800  -1.842  10.639  1.00  0.00     0.001 A 
ATOM     87  C   UNL     1      11.562  -1.940   8.351  1.00  0.00     0.001 A 
ATOM     88  C   UNL     1      11.472  -2.512   9.618  1.00  0.00     0.000 A 
ENDBRANCH  64  83
BRANCH  76  89
ATOM     89  C   UNL     1      11.720   6.343  11.641  1.00  0.00    -0.014 A 
ATOM     90  C   UNL     1      13.106   6.310  11.424  1.00  0.00     0.009 A 
ATOM     91  C   UNL     1      11.237   6.863  12.854  1.00  0.00     0.009 A 
ATOM     92  C   UNL     1      13.989   6.738  12.418  1.00  0.00     0.001 A 
ATOM     93  C   UNL     1      12.119   7.328  13.829  1.00  0.00     0.001 A 
ATOM     94  C   UNL     1      13.494   7.251  13.617  1.00  0.00     0.000 A 
ENDBRANCH  76  89
ENDBRANCH  50  51
ENDBRANCH  42  45
ENDBRANCH  40  41
ENDBRANCH  39  40
ENDBRANCH  38  39
ENDBRANCH  37  38
ENDBRANCH   1  37
TORSDOF 19
