REMARK SMILES CC(C)(C)OC(=O)N1CCN(N[C@@H](C(=O)NCCCCCCNC(=O)c2ccc(-c3c4nc(c(-c5ccccc5)c5ccc([nH]5)c(-c5ccccc5)c5nc(c(-c6ccccc6)c6ccc3[nH]6)C=C5)C=C4)cc2)c2ccccc2Cl)CC1
REMARK SMILES IDX 18 1 17 2 16 3 14 4 15 5 13 7 12 8 11 10 6 11 7 12 8 13 9 14
REMARK SMILES IDX 82 15 10 16 81 17 5 18 2 19 1 20 3 21 4 22 74 23 75 24 79 25
REMARK SMILES IDX 76 26 78 27 80 28 77 29 19 30 20 31 21 32 22 33 23 34 24 35
REMARK SMILES IDX 25 37 26 38 27 39 73 40 28 41 72 42 29 43 30 44 31 45 66 46
REMARK SMILES IDX 32 47 71 48 65 49 67 50 33 51 70 52 64 53 63 54 34 56 56 57
REMARK SMILES IDX 41 58 55 59 42 60 45 61 54 62 68 63 43 64 44 65 53 67 69 68
REMARK SMILES IDX 46 69 35 70 36 71 40 72 37 73 39 74 38 75 57 76 58 77 62 78
REMARK SMILES IDX 59 79 61 80 60 81 47 82 48 83 52 84 49 85 51 86 50 87
REMARK H PARENT 16 6 12 9 23 36 67 55 45 66
REMARK Flexibility Score: inf
ROOT
ATOM      1  C   UNL     1       0.829  -3.535   7.050  1.00  0.00     0.021 C 
ENDROOT
BRANCH   1   2
ATOM      2  C   UNL     1       0.097  -2.921   8.253  1.00  0.00     0.116 C 
BRANCH   2   3
ATOM      3  N   UNL     1       1.003  -2.836   9.384  1.00  0.00    -0.354 N 
ATOM      4  C   UNL     1       1.903  -1.825   9.617  1.00  0.00     0.243 C 
ATOM      5  O   UNL     1       3.007  -2.167  10.058  1.00  0.00    -0.273 OA
ATOM      6  H   UNL     1       0.969  -3.568  10.042  1.00  0.00     0.163 HD
BRANCH   4   7
ATOM      7  C   UNL     1       1.523  -0.331   9.327  1.00  0.00     0.190 C 
BRANCH   7   8
ATOM      8  N   UNL     1       2.219   0.095   8.058  1.00  0.00    -0.238 NA
ATOM      9  H   UNL     1       2.217   1.114   8.005  1.00  0.00     0.143 HD
BRANCH   8  10
ATOM     10  N   UNL     1       1.545  -0.447   6.873  1.00  0.00    -0.240 NA
ATOM     11  C   UNL     1       0.653   1.632   3.394  1.00  0.00     0.410 C 
ATOM     12  O   UNL     1      -0.341   2.336   3.307  1.00  0.00    -0.224 OA
ATOM     13  N   UNL     1       1.283   1.378   4.592  1.00  0.00    -0.306 N 
ATOM     14  C   UNL     1       0.578   1.656   5.826  1.00  0.00     0.140 C 
ATOM     15  C   UNL     1       2.570   0.720   4.790  1.00  0.00     0.140 C 
ATOM     16  C   UNL     1       0.320   0.326   6.542  1.00  0.00     0.124 C 
ATOM     17  C   UNL     1       2.448  -0.531   5.692  1.00  0.00     0.124 C 
BRANCH  11  18
ATOM     18  O   UNL     1       1.217   0.972   2.349  1.00  0.00    -0.444 OA
BRANCH  18  19
ATOM     19  C   UNL     1       0.658   1.127   1.014  1.00  0.00     0.106 C 
ATOM     20  C   UNL     1       1.345   0.046   0.166  1.00  0.00     0.056 C 
ATOM     21  C   UNL     1       1.027   2.509   0.467  1.00  0.00     0.056 C 
ATOM     22  C   UNL     1      -0.858   0.876   0.944  1.00  0.00     0.056 C 
ENDBRANCH  18  19
ENDBRANCH  11  18
ENDBRANCH   8  10
ENDBRANCH   7   8
BRANCH   7  23
ATOM     23  C   UNL     1       1.857   0.649  10.479  1.00  0.00    -0.002 A 
ATOM     24  C   UNL     1       2.481   0.226  11.672  1.00  0.00     0.007 A 
ATOM     25  C   UNL     1       1.516   2.018  10.411  1.00  0.00     0.046 A 
ATOM     26  C   UNL     1       2.808   1.121  12.700  1.00  0.00     0.000 A 
ATOM     27  C   UNL     1       1.869   2.917  11.430  1.00  0.00     0.021 A 
ATOM     28  Cl  UNL     1       0.575   2.698   9.133  1.00  0.00    -0.084 Cl
ATOM     29  C   UNL     1       2.522   2.471  12.571  1.00  0.00     0.002 A 
ENDBRANCH   7  23
ENDBRANCH   4   7
ENDBRANCH   2   3
ENDBRANCH   1   2
BRANCH   1  30
ATOM     30  C   UNL     1       0.820  -5.067   7.043  1.00  0.00     0.002 C 
BRANCH  30  31
ATOM     31  C   UNL     1      -0.542  -5.689   6.718  1.00  0.00     0.002 C 
BRANCH  31  32
ATOM     32  C   UNL     1      -1.131  -5.296   5.359  1.00  0.00     0.021 C 
BRANCH  32  33
ATOM     33  C   UNL     1      -0.255  -5.651   4.158  1.00  0.00     0.116 C 
BRANCH  33  34
ATOM     34  N   UNL     1      -0.077  -7.090   4.026  1.00  0.00    -0.352 N 
ATOM     35  C   UNL     1      -0.506  -7.933   3.030  1.00  0.00     0.251 C 
ATOM     36  H   UNL     1       0.422  -7.521   4.756  1.00  0.00     0.163 HD
ATOM     37  O   UNL     1      -0.482  -9.149   3.189  1.00  0.00    -0.269 OA
BRANCH  35  38
ATOM     38  C   UNL     1      -1.009  -7.367   1.762  1.00  0.00     0.039 A 
ATOM     39  C   UNL     1      -2.217  -7.834   1.238  1.00  0.00     0.014 A 
ATOM     40  C   UNL     1      -0.283  -6.377   1.094  1.00  0.00     0.014 A 
ATOM     41  C   UNL     1      -2.738  -7.251   0.081  1.00  0.00     0.010 A 
ATOM     42  C   UNL     1      -0.831  -5.758  -0.025  1.00  0.00     0.010 A 
ATOM     43  C   UNL     1      -2.068  -6.181  -0.535  1.00  0.00    -0.014 A 
BRANCH  43  44
ATOM     44  C   UNL     1      -2.653  -5.461  -1.692  1.00  0.00     0.031 A 
ATOM     45  C   UNL     1      -1.976  -5.504  -3.032  1.00  0.00     0.074 A 
ATOM     46  C   UNL     1      -3.745  -4.692  -1.510  1.00  0.00     0.049 A 
ATOM     47  N   UNL     1      -2.266  -4.843  -4.124  1.00  0.00    -0.248 NA
ATOM     48  C   UNL     1      -0.807  -6.390  -3.155  1.00  0.00     0.031 C 
ATOM     49  C   UNL     1      -4.479  -4.546  -0.251  1.00  0.00     0.029 A 
ATOM     50  N   UNL     1      -4.416  -3.873  -2.382  1.00  0.00    -0.354 N 
ATOM     51  C   UNL     1      -1.310  -5.221  -5.058  1.00  0.00     0.074 A 
ATOM     52  C   UNL     1      -0.408  -6.137  -4.394  1.00  0.00     0.031 C 
ATOM     53  C   UNL     1      -5.505  -3.701  -0.436  1.00  0.00     0.029 A 
ATOM     54  C   UNL     1      -5.474  -3.210  -1.810  1.00  0.00     0.049 A 
ATOM     55  H   UNL     1      -4.164  -3.771  -3.328  1.00  0.00     0.167 HD
ATOM     56  C   UNL     1      -1.202  -4.848  -6.355  1.00  0.00     0.031 A 
ATOM     57  C   UNL     1      -6.313  -2.292  -2.325  1.00  0.00     0.031 A 
ATOM     58  C   UNL     1      -2.102  -3.942  -7.016  1.00  0.00     0.049 A 
ATOM     59  C   UNL     1      -6.139  -1.857  -3.753  1.00  0.00     0.074 A 
ATOM     60  C   UNL     1      -2.108  -3.548  -8.343  1.00  0.00     0.029 A 
ATOM     61  N   UNL     1      -3.154  -3.284  -6.397  1.00  0.00    -0.354 N 
ATOM     62  N   UNL     1      -5.265  -2.269  -4.640  1.00  0.00    -0.248 NA
ATOM     63  C   UNL     1      -7.065  -0.829  -4.250  1.00  0.00     0.031 C 
ATOM     64  C   UNL     1      -3.133  -2.612  -8.515  1.00  0.00     0.029 A 
ATOM     65  C   UNL     1      -3.794  -2.461  -7.307  1.00  0.00     0.049 A 
ATOM     66  H   UNL     1      -3.407  -3.387  -5.452  1.00  0.00     0.167 HD
ATOM     67  C   UNL     1      -5.548  -1.565  -5.803  1.00  0.00     0.074 A 
ATOM     68  C   UNL     1      -6.683  -0.714  -5.515  1.00  0.00     0.031 C 
ATOM     69  C   UNL     1      -4.920  -1.617  -7.002  1.00  0.00     0.031 A 
BRANCH  56  70
ATOM     70  C   UNL     1      -0.060  -5.418  -7.148  1.00  0.00    -0.014 A 
ATOM     71  C   UNL     1      -0.051  -6.766  -7.540  1.00  0.00     0.009 A 
ATOM     72  C   UNL     1       0.997  -4.586  -7.549  1.00  0.00     0.009 A 
ATOM     73  C   UNL     1       1.009  -7.276  -8.293  1.00  0.00     0.001 A 
ATOM     74  C   UNL     1       2.043  -5.093  -8.323  1.00  0.00     0.001 A 
ATOM     75  C   UNL     1       2.052  -6.438  -8.687  1.00  0.00     0.000 A 
ENDBRANCH  56  70
BRANCH  57  76
ATOM     76  C   UNL     1      -7.389  -1.707  -1.484  1.00  0.00    -0.014 A 
ATOM     77  C   UNL     1      -8.733  -2.030  -1.725  1.00  0.00     0.009 A 
ATOM     78  C   UNL     1      -7.081  -0.816  -0.444  1.00  0.00     0.009 A 
ATOM     79  C   UNL     1      -9.748  -1.454  -0.958  1.00  0.00     0.001 A 
ATOM     80  C   UNL     1      -8.096  -0.263   0.339  1.00  0.00     0.001 A 
ATOM     81  C   UNL     1      -9.428  -0.575   0.076  1.00  0.00     0.000 A 
ENDBRANCH  57  76
BRANCH  69  82
ATOM     82  C   UNL     1      -5.456  -0.742  -8.097  1.00  0.00    -0.014 A 
ATOM     83  C   UNL     1      -5.224   0.642  -8.095  1.00  0.00     0.009 A 
ATOM     84  C   UNL     1      -6.156  -1.315  -9.170  1.00  0.00     0.009 A 
ATOM     85  C   UNL     1      -5.702   1.438  -9.137  1.00  0.00     0.001 A 
ATOM     86  C   UNL     1      -6.611  -0.521 -10.223  1.00  0.00     0.001 A 
ATOM     87  C   UNL     1      -6.389   0.856 -10.202  1.00  0.00     0.000 A 
ENDBRANCH  69  82
ENDBRANCH  43  44
ENDBRANCH  35  38
ENDBRANCH  33  34
ENDBRANCH  32  33
ENDBRANCH  31  32
ENDBRANCH  30  31
ENDBRANCH   1  30
TORSDOF 18
