REMARK SMILES Cc1cc(OCC(=O)NCCCCCCNC(=O)c2ccc(-c3c4nc(c(-c5ccccc5)c5ccc([nH]5)c(-c5ccccc5)c5nc(c(-c6ccccc6)c6ccc3[nH]6)C=C5)C=C4)cc2)ccc1NC(=O)c1ccc(N2C(=O)[C@@H]3[C@H](C2=O)[C@H]2C=C[C@@H]3C2)cc1
REMARK SMILES IDX 11 1 10 2 9 3 7 4 8 5 6 7 5 8 4 9 1 10 2 11 3 12 69 13 68 14
REMARK SMILES IDX 67 15 70 16 71 17 72 19 73 20 74 21 90 22 75 23 89 24 76 25
REMARK SMILES IDX 77 26 78 27 82 28 79 29 80 30 81 31 83 32 87 33 84 34 86 35
REMARK SMILES IDX 88 36 85 37 12 38 13 39 14 40 15 41 16 42 17 43 18 45 19 46
REMARK SMILES IDX 20 47 66 48 21 49 65 50 22 51 23 52 24 53 59 54 25 55 64 56
REMARK SMILES IDX 58 57 60 58 26 59 63 60 57 61 56 62 27 64 49 65 34 66 48 67
REMARK SMILES IDX 35 68 38 69 47 70 61 71 36 72 37 73 46 75 62 76 39 77 28 78
REMARK SMILES IDX 29 79 33 80 30 81 32 82 31 83 50 84 51 85 55 86 52 87 54 88
REMARK SMILES IDX 53 89 40 90 41 91 45 92 42 93 44 94 43 95
REMARK H PARENT 9 6 70 18 16 44 60 63 38 74
REMARK Flexibility Score: inf
ROOT
ATOM      1  C   UNL     1      -1.516  -3.021   3.524  1.00  0.00     0.021 C 
ENDROOT
BRANCH   1   2
ATOM      2  C   UNL     1      -2.637  -3.432   2.570  1.00  0.00     0.116 C 
BRANCH   2   3
ATOM      3  N   UNL     1      -3.542  -2.345   2.265  1.00  0.00    -0.353 N 
ATOM      4  C   UNL     1      -3.896  -1.860   1.039  1.00  0.00     0.257 C 
ATOM      5  O   UNL     1      -4.778  -1.001   0.977  1.00  0.00    -0.271 OA
ATOM      6  H   UNL     1      -3.954  -1.899   3.039  1.00  0.00     0.163 HD
BRANCH   4   7
ATOM      7  C   UNL     1      -3.223  -2.415  -0.225  1.00  0.00     0.329 C 
BRANCH   7   8
ATOM      8  O   UNL     1      -1.806  -2.339  -0.280  1.00  0.00    -0.484 OA
BRANCH   8   9
ATOM      9  C   UNL     1      -1.238  -1.097  -0.310  1.00  0.00     0.120 A 
ATOM     10  C   UNL     1       2.371   0.024   0.034  1.00  0.00     0.047 C 
ATOM     11  C   UNL     1       0.879   0.130  -0.135  1.00  0.00    -0.024 A 
ATOM     12  C   UNL     1       0.152  -1.079  -0.173  1.00  0.00     0.052 A 
ATOM     13  C   UNL     1       0.177   1.343  -0.227  1.00  0.00     0.044 A 
ATOM     14  C   UNL     1      -1.209   1.312  -0.424  1.00  0.00     0.030 A 
ATOM     15  C   UNL     1      -1.912   0.106  -0.466  1.00  0.00     0.048 A 
BRANCH  13  16
ATOM     16  N   UNL     1       0.865   2.572  -0.179  1.00  0.00    -0.322 N 
ATOM     17  C   UNL     1       0.411   3.825   0.175  1.00  0.00     0.255 C 
ATOM     18  H   UNL     1       1.815   2.529  -0.437  1.00  0.00     0.170 HD
ATOM     19  O   UNL     1       1.025   4.832  -0.174  1.00  0.00    -0.269 OA
BRANCH  17  20
ATOM     20  C   UNL     1      -0.753   3.978   1.082  1.00  0.00     0.040 A 
ATOM     21  C   UNL     1      -1.712   4.955   0.811  1.00  0.00     0.016 A 
ATOM     22  C   UNL     1      -0.871   3.196   2.233  1.00  0.00     0.016 A 
ATOM     23  C   UNL     1      -2.815   5.111   1.662  1.00  0.00     0.027 A 
ATOM     24  C   UNL     1      -1.960   3.375   3.093  1.00  0.00     0.027 A 
ATOM     25  C   UNL     1      -2.953   4.330   2.822  1.00  0.00     0.052 A 
BRANCH  25  26
ATOM     26  N   UNL     1      -4.055   4.506   3.706  1.00  0.00    -0.250 N 
ATOM     27  C   UNL     1      -5.311   4.909   3.297  1.00  0.00     0.238 C 
ATOM     28  C   UNL     1      -3.998   4.255   5.062  1.00  0.00     0.238 C 
ATOM     29  O   UNL     1      -5.706   5.151   2.163  1.00  0.00    -0.274 OA
ATOM     30  C   UNL     1      -6.230   4.942   4.486  1.00  0.00     0.099 C 
ATOM     31  C   UNL     1      -5.332   4.565   5.677  1.00  0.00     0.099 C 
ATOM     32  O   UNL     1      -3.054   3.860   5.734  1.00  0.00    -0.274 OA
ATOM     33  C   UNL     1      -7.297   3.823   4.496  1.00  0.00     0.025 C 
ATOM     34  C   UNL     1      -6.012   3.308   6.255  1.00  0.00     0.025 C 
ATOM     35  C   UNL     1      -8.133   4.038   5.742  1.00  0.00    -0.027 C 
ATOM     36  C   UNL     1      -6.504   2.602   4.984  1.00  0.00     0.017 C 
ATOM     37  C   UNL     1      -7.358   3.737   6.798  1.00  0.00    -0.027 C 
ENDBRANCH  25  26
ENDBRANCH  17  20
ENDBRANCH  13  16
ENDBRANCH   8   9
ENDBRANCH   7   8
ENDBRANCH   4   7
ENDBRANCH   2   3
ENDBRANCH   1   2
BRANCH   1  38
ATOM     38  C   UNL     1      -1.950  -2.531   4.912  1.00  0.00     0.002 C 
BRANCH  38  39
ATOM     39  C   UNL     1      -2.954  -3.399   5.688  1.00  0.00     0.002 C 
BRANCH  39  40
ATOM     40  C   UNL     1      -2.666  -4.900   5.760  1.00  0.00     0.021 C 
BRANCH  40  41
ATOM     41  C   UNL     1      -1.384  -5.273   6.491  1.00  0.00     0.116 C 
BRANCH  41  42
ATOM     42  N   UNL     1      -1.590  -5.837   7.817  1.00  0.00    -0.352 N 
ATOM     43  C   UNL     1      -0.655  -6.201   8.783  1.00  0.00     0.251 C 
ATOM     44  H   UNL     1      -2.530  -5.982   8.069  1.00  0.00     0.163 HD
ATOM     45  O   UNL     1      -1.012  -6.678   9.828  1.00  0.00    -0.269 OA
BRANCH  43  46
ATOM     46  C   UNL     1       0.779  -5.860   8.559  1.00  0.00     0.039 A 
ATOM     47  C   UNL     1       1.466  -5.257   9.619  1.00  0.00     0.014 A 
ATOM     48  C   UNL     1       1.366  -5.933   7.300  1.00  0.00     0.014 A 
ATOM     49  C   UNL     1       2.602  -4.497   9.350  1.00  0.00     0.010 A 
ATOM     50  C   UNL     1       2.435  -5.108   7.011  1.00  0.00     0.010 A 
ATOM     51  C   UNL     1       3.001  -4.331   8.023  1.00  0.00    -0.014 A 
BRANCH  51  52
ATOM     52  C   UNL     1       3.879  -3.251   7.594  1.00  0.00     0.031 A 
ATOM     53  C   UNL     1       5.291  -3.510   7.254  1.00  0.00     0.074 A 
ATOM     54  C   UNL     1       3.392  -1.994   7.501  1.00  0.00     0.049 A 
ATOM     55  N   UNL     1       6.237  -2.642   7.396  1.00  0.00    -0.248 NA
ATOM     56  C   UNL     1       5.756  -4.799   6.752  1.00  0.00     0.031 C 
ATOM     57  C   UNL     1       4.041  -0.826   6.909  1.00  0.00     0.029 A 
ATOM     58  N   UNL     1       2.253  -1.454   8.066  1.00  0.00    -0.354 N 
ATOM     59  C   UNL     1       7.342  -3.135   6.747  1.00  0.00     0.074 A 
ATOM     60  C   UNL     1       7.022  -4.510   6.432  1.00  0.00     0.031 C 
ATOM     61  C   UNL     1       3.448   0.285   7.381  1.00  0.00     0.029 A 
ATOM     62  C   UNL     1       2.495  -0.125   8.399  1.00  0.00     0.049 A 
ATOM     63  H   UNL     1       1.405  -1.934   8.210  1.00  0.00     0.167 HD
ATOM     64  C   UNL     1       8.360  -2.299   6.402  1.00  0.00     0.031 A 
ATOM     65  C   UNL     1       2.499   0.319   9.692  1.00  0.00     0.031 A 
ATOM     66  C   UNL     1       8.125  -0.929   6.843  1.00  0.00     0.049 A 
ATOM     67  C   UNL     1       3.850   0.844  10.149  1.00  0.00     0.074 A 
ATOM     68  C   UNL     1       7.638   0.197   6.198  1.00  0.00     0.029 A 
ATOM     69  N   UNL     1       8.095  -0.647   8.202  1.00  0.00    -0.354 N 
ATOM     70  N   UNL     1       4.966   0.649   9.501  1.00  0.00    -0.248 NA
ATOM     71  C   UNL     1       4.061   1.575  11.399  1.00  0.00     0.031 C 
ATOM     72  C   UNL     1       7.225   1.125   7.189  1.00  0.00     0.029 A 
ATOM     73  C   UNL     1       7.495   0.577   8.430  1.00  0.00     0.049 A 
ATOM     74  H   UNL     1       8.451  -1.237   8.906  1.00  0.00     0.167 HD
ATOM     75  C   UNL     1       6.013   1.172  10.213  1.00  0.00     0.074 A 
ATOM     76  C   UNL     1       5.393   1.762  11.385  1.00  0.00     0.031 C 
ATOM     77  C   UNL     1       7.305   1.055   9.791  1.00  0.00     0.031 A 
BRANCH  64  78
ATOM     78  C   UNL     1       9.400  -2.697   5.391  1.00  0.00    -0.014 A 
ATOM     79  C   UNL     1       9.856  -1.759   4.448  1.00  0.00     0.009 A 
ATOM     80  C   UNL     1       9.924  -3.997   5.286  1.00  0.00     0.009 A 
ATOM     81  C   UNL     1      10.704  -2.123   3.395  1.00  0.00     0.001 A 
ATOM     82  C   UNL     1      10.739  -4.378   4.211  1.00  0.00     0.001 A 
ATOM     83  C   UNL     1      11.120  -3.441   3.258  1.00  0.00     0.000 A 
ENDBRANCH  64  78
BRANCH  65  84
ATOM     84  C   UNL     1       1.528  -0.382  10.577  1.00  0.00    -0.014 A 
ATOM     85  C   UNL     1       0.153  -0.198  10.332  1.00  0.00     0.009 A 
ATOM     86  C   UNL     1       1.925  -1.458  11.382  1.00  0.00     0.009 A 
ATOM     87  C   UNL     1      -0.787  -1.132  10.778  1.00  0.00     0.001 A 
ATOM     88  C   UNL     1       0.978  -2.385  11.838  1.00  0.00     0.001 A 
ATOM     89  C   UNL     1      -0.369  -2.242  11.505  1.00  0.00     0.000 A 
ENDBRANCH  65  84
BRANCH  77  90
ATOM     90  C   UNL     1       8.525   1.424  10.592  1.00  0.00    -0.014 A 
ATOM     91  C   UNL     1       8.586   1.382  11.991  1.00  0.00     0.009 A 
ATOM     92  C   UNL     1       9.731   1.692   9.907  1.00  0.00     0.009 A 
ATOM     93  C   UNL     1       9.784   1.639  12.672  1.00  0.00     0.001 A 
ATOM     94  C   UNL     1      10.935   1.905  10.581  1.00  0.00     0.001 A 
ATOM     95  C   UNL     1      10.959   1.889  11.968  1.00  0.00     0.000 A 
ENDBRANCH  77  90
ENDBRANCH  51  52
ENDBRANCH  43  46
ENDBRANCH  41  42
ENDBRANCH  40  41
ENDBRANCH  39  40
ENDBRANCH  38  39
ENDBRANCH   1  38
TORSDOF 18
