REMARK SMILES COc1ccc(-n2c(SCC(=O)NCCCCCCNC(=O)c3ccc(-c4c5nc(c(-c6ccccc6)c6ccc([nH]6)c(-c6ccccc6)c6nc(c(-c7ccccc7)c7ccc4[nH]7)C=C6)C=C5)cc3)nc3sc4c(c3c2=O)CC[N@H+](C)C4)cc1
REMARK SMILES IDX 15 1 14 2 13 3 11 4 12 5 10 7 9 8 8 9 7 10 77 11 71 12 76 13
REMARK SMILES IDX 78 14 72 15 75 16 73 17 74 18 79 19 83 20 80 21 81 22 82 23
REMARK SMILES IDX 6 25 3 26 4 27 85 28 5 29 84 30 2 31 1 32 16 33 17 34 18 35
REMARK SMILES IDX 19 36 20 37 21 38 22 40 23 41 24 42 70 43 25 44 69 45 26 46
REMARK SMILES IDX 27 47 28 48 63 49 29 50 68 51 62 52 64 53 30 54 67 55 61 56
REMARK SMILES IDX 60 57 31 59 53 60 38 61 52 62 39 63 42 64 51 65 65 66 40 67
REMARK SMILES IDX 41 68 50 70 66 71 43 72 32 73 33 74 37 75 34 76 36 77 35 78
REMARK SMILES IDX 54 79 55 80 59 81 56 82 58 83 57 84 44 85 45 86 49 87 46 88
REMARK SMILES IDX 48 89 47 90
REMARK H PARENT 13 6 81 24 20 39 64 58 42 69
REMARK Flexibility Score: inf
ROOT
ATOM      1  C   UNL     1       6.325  -4.052  -3.658  1.00  0.00     0.021 C 
ENDROOT
BRANCH   1   2
ATOM      2  C   UNL     1       5.830  -4.541  -2.295  1.00  0.00     0.116 C 
BRANCH   2   3
ATOM      3  N   UNL     1       4.692  -3.801  -1.785  1.00  0.00    -0.355 N 
ATOM      4  C   UNL     1       3.442  -4.249  -1.480  1.00  0.00     0.230 C 
ATOM      5  O   UNL     1       2.853  -3.643  -0.577  1.00  0.00    -0.274 OA
ATOM      6  H   UNL     1       4.844  -2.839  -1.639  1.00  0.00     0.163 HD
BRANCH   4   7
ATOM      7  C   UNL     1       2.794  -5.471  -2.111  1.00  0.00     0.178 C 
BRANCH   7   8
ATOM      8  S   UNL     1       3.269  -5.892  -3.768  1.00  0.00    -0.077 SA
BRANCH   8   9
ATOM      9  C   UNL     1       2.395  -5.075  -5.041  1.00  0.00     0.177 A 
ATOM     10  N   UNL     1       1.498  -4.007  -4.910  1.00  0.00    -0.255 N 
ATOM     11  C   UNL     1       0.841  -3.466  -6.038  1.00  0.00     0.267 A 
ATOM     12  N   UNL     1       2.703  -5.615  -6.186  1.00  0.00    -0.212 NA
ATOM     13  C   UNL     1       1.227  -4.051  -7.300  1.00  0.00     0.081 A 
ATOM     14  O   UNL     1       0.012  -2.557  -6.000  1.00  0.00    -0.268 OA
ATOM     15  C   UNL     1       2.122  -5.087  -7.282  1.00  0.00     0.132 A 
ATOM     16  C   UNL     1       0.822  -3.706  -8.623  1.00  0.00    -0.008 A 
ATOM     17  S   UNL     1       2.450  -5.680  -8.850  1.00  0.00    -0.114 S 
ATOM     18  C   UNL     1       1.392  -4.551  -9.556  1.00  0.00     0.065 A 
ATOM     19  C   UNL     1      -0.135  -2.630  -9.040  1.00  0.00     0.099 C 
ATOM     20  C   UNL     1       1.135  -4.485 -11.034  1.00  0.00     0.310 C 
ATOM     21  C   UNL     1      -0.157  -2.468 -10.578  1.00  0.00     0.267 C 
ATOM     22  N   UNL     1      -0.105  -3.733 -11.349  1.00  0.00    -0.333 N 
ATOM     23  C   UNL     1      -1.297  -4.552 -11.122  1.00  0.00     0.333 C 
ATOM     24  H   UNL     1      -0.091  -3.495 -12.341  1.00  0.00     0.348 HD
BRANCH  10  25
ATOM     25  C   UNL     1       1.231  -3.305  -3.716  1.00  0.00     0.052 A 
ATOM     26  C   UNL     1       0.501  -1.627  -1.593  1.00  0.00     0.119 A 
ATOM     27  C   UNL     1      -0.320  -2.694  -1.966  1.00  0.00     0.048 A 
ATOM     28  C   UNL     1       1.675  -1.381  -2.310  1.00  0.00     0.048 A 
ATOM     29  C   UNL     1       0.029  -3.522  -3.035  1.00  0.00     0.030 A 
ATOM     30  C   UNL     1       2.039  -2.215  -3.373  1.00  0.00     0.030 A 
BRANCH  26  31
ATOM     31  O   UNL     1       0.044  -0.902  -0.527  1.00  0.00    -0.497 OA
ATOM     32  C   UNL     1       0.879   0.151  -0.065  1.00  0.00     0.278 C 
ENDBRANCH  26  31
ENDBRANCH  10  25
ENDBRANCH   8   9
ENDBRANCH   7   8
ENDBRANCH   4   7
ENDBRANCH   2   3
ENDBRANCH   1   2
BRANCH   1  33
ATOM     33  C   UNL     1       6.937  -2.647  -3.682  1.00  0.00     0.002 C 
BRANCH  33  34
ATOM     34  C   UNL     1       8.051  -2.383  -2.666  1.00  0.00     0.002 C 
BRANCH  34  35
ATOM     35  C   UNL     1       9.231  -3.370  -2.686  1.00  0.00     0.021 C 
BRANCH  35  36
ATOM     36  C   UNL     1      10.120  -3.313  -3.937  1.00  0.00     0.116 C 
BRANCH  36  37
ATOM     37  N   UNL     1      10.794  -2.031  -4.020  1.00  0.00    -0.352 N 
ATOM     38  C   UNL     1      12.105  -1.707  -4.225  1.00  0.00     0.251 C 
ATOM     39  H   UNL     1      10.200  -1.254  -3.908  1.00  0.00     0.163 HD
ATOM     40  O   UNL     1      12.478  -0.582  -3.894  1.00  0.00    -0.269 OA
BRANCH  38  41
ATOM     41  C   UNL     1      13.083  -2.628  -4.851  1.00  0.00     0.039 A 
ATOM     42  C   UNL     1      14.425  -2.472  -4.479  1.00  0.00     0.014 A 
ATOM     43  C   UNL     1      12.756  -3.495  -5.900  1.00  0.00     0.014 A 
ATOM     44  C   UNL     1      15.430  -3.168  -5.146  1.00  0.00     0.010 A 
ATOM     45  C   UNL     1      13.767  -4.206  -6.563  1.00  0.00     0.010 A 
ATOM     46  C   UNL     1      15.109  -4.042  -6.193  1.00  0.00    -0.014 A 
BRANCH  46  47
ATOM     47  C   UNL     1      16.228  -4.796  -6.794  1.00  0.00     0.031 A 
ATOM     48  C   UNL     1      16.006  -6.274  -6.926  1.00  0.00     0.074 A 
ATOM     49  C   UNL     1      17.049  -4.191  -7.681  1.00  0.00     0.049 A 
ATOM     50  N   UNL     1      15.380  -6.850  -7.912  1.00  0.00    -0.248 NA
ATOM     51  C   UNL     1      16.282  -7.169  -5.801  1.00  0.00     0.031 C 
ATOM     52  C   UNL     1      16.573  -3.377  -8.805  1.00  0.00     0.029 A 
ATOM     53  N   UNL     1      18.390  -4.380  -7.938  1.00  0.00    -0.354 N 
ATOM     54  C   UNL     1      15.153  -8.169  -7.539  1.00  0.00     0.074 A 
ATOM     55  C   UNL     1      15.724  -8.315  -6.218  1.00  0.00     0.031 C 
ATOM     56  C   UNL     1      17.566  -3.269  -9.710  1.00  0.00     0.029 A 
ATOM     57  C   UNL     1      18.778  -3.900  -9.187  1.00  0.00     0.049 A 
ATOM     58  H   UNL     1      19.010  -4.808  -7.304  1.00  0.00     0.167 HD
ATOM     59  C   UNL     1      14.528  -9.082  -8.331  1.00  0.00     0.031 A 
ATOM     60  C   UNL     1      19.762  -4.456  -9.950  1.00  0.00     0.031 A 
ATOM     61  C   UNL     1      14.183  -8.624  -9.642  1.00  0.00     0.049 A 
ATOM     62  C   UNL     1      19.026  -5.627 -10.550  1.00  0.00     0.074 A 
ATOM     63  C   UNL     1      13.069  -8.188 -10.324  1.00  0.00     0.029 A 
ATOM     64  N   UNL     1      15.191  -8.588 -10.572  1.00  0.00    -0.354 N 
ATOM     65  N   UNL     1      18.198  -5.599 -11.558  1.00  0.00    -0.248 NA
ATOM     66  C   UNL     1      18.943  -6.834  -9.723  1.00  0.00     0.031 C 
ATOM     67  C   UNL     1      13.575  -7.486 -11.464  1.00  0.00     0.029 A 
ATOM     68  C   UNL     1      14.966  -7.505 -11.375  1.00  0.00     0.049 A 
ATOM     69  H   UNL     1      15.938  -9.224 -10.647  1.00  0.00     0.167 HD
ATOM     70  C   UNL     1      17.278  -6.620 -11.307  1.00  0.00     0.074 A 
ATOM     71  C   UNL     1      17.813  -7.358 -10.178  1.00  0.00     0.031 C 
ATOM     72  C   UNL     1      16.044  -6.691 -11.890  1.00  0.00     0.031 A 
BRANCH  59  73
ATOM     73  C   UNL     1      14.359 -10.522  -8.022  1.00  0.00    -0.014 A 
ATOM     74  C   UNL     1      15.169 -11.441  -8.713  1.00  0.00     0.009 A 
ATOM     75  C   UNL     1      13.283 -11.001  -7.269  1.00  0.00     0.009 A 
ATOM     76  C   UNL     1      14.877 -12.803  -8.705  1.00  0.00     0.001 A 
ATOM     77  C   UNL     1      13.001 -12.374  -7.249  1.00  0.00     0.001 A 
ATOM     78  C   UNL     1      13.785 -13.269  -7.980  1.00  0.00     0.000 A 
ENDBRANCH  59  73
BRANCH  60  79
ATOM     79  C   UNL     1      21.119  -4.580  -9.328  1.00  0.00    -0.014 A 
ATOM     80  C   UNL     1      21.688  -3.427  -8.749  1.00  0.00     0.009 A 
ATOM     81  C   UNL     1      21.885  -5.755  -9.295  1.00  0.00     0.009 A 
ATOM     82  C   UNL     1      22.916  -3.471  -8.079  1.00  0.00     0.001 A 
ATOM     83  C   UNL     1      23.101  -5.810  -8.598  1.00  0.00     0.001 A 
ATOM     84  C   UNL     1      23.608  -4.672  -7.979  1.00  0.00     0.000 A 
ENDBRANCH  60  79
BRANCH  72  85
ATOM     85  C   UNL     1      15.745  -5.694 -12.961  1.00  0.00    -0.014 A 
ATOM     86  C   UNL     1      16.408  -5.758 -14.192  1.00  0.00     0.009 A 
ATOM     87  C   UNL     1      14.739  -4.730 -12.780  1.00  0.00     0.009 A 
ATOM     88  C   UNL     1      16.047  -4.900 -15.232  1.00  0.00     0.001 A 
ATOM     89  C   UNL     1      14.365  -3.887 -13.827  1.00  0.00     0.001 A 
ATOM     90  C   UNL     1      15.016  -3.978 -15.055  1.00  0.00     0.000 A 
ENDBRANCH  72  85
ENDBRANCH  46  47
ENDBRANCH  38  41
ENDBRANCH  36  37
ENDBRANCH  35  36
ENDBRANCH  34  35
ENDBRANCH  33  34
ENDBRANCH   1  33
TORSDOF 17
