REMARK SMILES O=C(CCCc1nc(-c2ccc(Cl)c(Cl)c2)c(-c2ccccc2)o1)NCCCCCCNC(=O)c1ccc(-c2c3nc(c(-c4ccccc4)c4ccc([nH]4)c(-c4ccccc4)c4nc(c(-c5ccccc5)c5ccc2[nH]5)C=C4)C=C3)cc1
REMARK SMILES IDX 27 1 26 2 25 3 1 4 2 5 3 7 4 8 5 9 6 10 7 11 24 12 8 13
REMARK SMILES IDX 17 14 9 15 10 16 16 17 11 18 14 19 12 20 15 21 13 22 18 23
REMARK SMILES IDX 19 24 23 25 20 26 22 27 21 28 28 29 29 30 30 31 31 32 32 33
REMARK SMILES IDX 33 34 34 36 35 37 36 38 82 39 37 40 81 41 38 42 39 43 40 44
REMARK SMILES IDX 75 45 41 46 80 47 74 48 76 49 42 50 79 51 73 52 72 53 43 55
REMARK SMILES IDX 65 56 50 57 64 58 51 59 54 60 63 61 77 62 52 63 53 64 62 66
REMARK SMILES IDX 78 67 55 68 44 69 45 70 49 71 46 72 48 73 47 74 66 75 67 76
REMARK SMILES IDX 71 77 68 78 70 79 69 80 56 81 57 82 61 83 58 84 60 85 59 86
REMARK H PARENT 25 6 32 35 76 54 54 65
REMARK Flexibility Score: inf
ROOT
ATOM      1  C   UNL     1       2.715  -1.305   3.190  1.00  0.00     0.021 C 
ENDROOT
BRANCH   1   2
ATOM      2  C   UNL     1       2.156  -0.205   2.292  1.00  0.00     0.116 C 
BRANCH   2   3
ATOM      3  N   UNL     1       2.710  -0.263   0.958  1.00  0.00    -0.356 N 
ATOM      4  O   UNL     1       1.044   0.959  -0.040  1.00  0.00    -0.275 OA
ATOM      5  C   UNL     1       2.113   0.364  -0.108  1.00  0.00     0.220 C 
ATOM      6  H   UNL     1       3.543  -0.767   0.809  1.00  0.00     0.163 HD
BRANCH   5   7
ATOM      7  C   UNL     1       2.917   0.290  -1.388  1.00  0.00     0.100 C 
BRANCH   7   8
ATOM      8  C   UNL     1       4.011   1.362  -1.465  1.00  0.00     0.020 C 
BRANCH   8   9
ATOM      9  C   UNL     1       5.120   1.321  -0.402  1.00  0.00     0.098 C 
BRANCH   9  10
ATOM     10  C   UNL     1       5.850   0.025  -0.358  1.00  0.00     0.195 A 
ATOM     11  N   UNL     1       5.346  -1.185  -0.198  1.00  0.00    -0.213 NA
ATOM     12  O   UNL     1       7.215   0.066  -0.475  1.00  0.00    -0.440 OA
ATOM     13  C   UNL     1       6.444  -2.003  -0.280  1.00  0.00     0.117 A 
ATOM     14  C   UNL     1       7.589  -1.252  -0.444  1.00  0.00     0.162 A 
BRANCH  13  15
ATOM     15  C   UNL     1       6.377  -3.445  -0.256  1.00  0.00     0.006 A 
ATOM     16  C   UNL     1       5.654  -4.115  -1.248  1.00  0.00     0.012 A 
ATOM     17  C   UNL     1       7.064  -4.178   0.719  1.00  0.00     0.032 A 
ATOM     18  C   UNL     1       5.644  -5.511  -1.285  1.00  0.00     0.023 A 
ATOM     19  C   UNL     1       7.045  -5.577   0.689  1.00  0.00     0.060 A 
ATOM     20  C   UNL     1       6.341  -6.245  -0.320  1.00  0.00     0.059 A 
ATOM     21  Cl  UNL     1       7.917  -6.417   1.921  1.00  0.00    -0.083 Cl
ATOM     22  Cl  UNL     1       6.299  -7.968  -0.436  1.00  0.00    -0.083 Cl
ENDBRANCH  13  15
BRANCH  14  23
ATOM     23  C   UNL     1       8.994  -1.555  -0.639  1.00  0.00     0.020 A 
ATOM     24  C   UNL     1       9.957  -1.094   0.265  1.00  0.00     0.012 A 
ATOM     25  C   UNL     1       9.392  -2.381  -1.699  1.00  0.00     0.012 A 
ATOM     26  C   UNL     1      11.295  -1.474   0.122  1.00  0.00     0.001 A 
ATOM     27  C   UNL     1      10.729  -2.752  -1.847  1.00  0.00     0.001 A 
ATOM     28  C   UNL     1      11.679  -2.304  -0.931  1.00  0.00     0.000 A 
ENDBRANCH  14  23
ENDBRANCH   9  10
ENDBRANCH   8   9
ENDBRANCH   7   8
ENDBRANCH   5   7
ENDBRANCH   2   3
ENDBRANCH   1   2
BRANCH   1  29
ATOM     29  C   UNL     1       4.218  -1.194   3.480  1.00  0.00     0.002 C 
BRANCH  29  30
ATOM     30  C   UNL     1       4.652   0.063   4.239  1.00  0.00     0.002 C 
BRANCH  30  31
ATOM     31  C   UNL     1       3.984   0.264   5.601  1.00  0.00     0.021 C 
BRANCH  31  32
ATOM     32  C   UNL     1       4.137  -0.902   6.572  1.00  0.00     0.116 C 
BRANCH  32  33
ATOM     33  N   UNL     1       5.523  -1.144   6.945  1.00  0.00    -0.352 N 
ATOM     34  C   UNL     1       6.072  -1.296   8.194  1.00  0.00     0.251 C 
ATOM     35  H   UNL     1       6.157  -1.207   6.194  1.00  0.00     0.163 HD
ATOM     36  O   UNL     1       7.293  -1.334   8.333  1.00  0.00    -0.269 OA
BRANCH  34  37
ATOM     37  C   UNL     1       5.194  -1.386   9.380  1.00  0.00     0.039 A 
ATOM     38  C   UNL     1       5.516  -0.641  10.518  1.00  0.00     0.014 A 
ATOM     39  C   UNL     1       4.055  -2.196   9.371  1.00  0.00     0.014 A 
ATOM     40  C   UNL     1       4.659  -0.655  11.620  1.00  0.00     0.010 A 
ATOM     41  C   UNL     1       3.164  -2.149  10.440  1.00  0.00     0.010 A 
ATOM     42  C   UNL     1       3.456  -1.379  11.576  1.00  0.00    -0.014 A 
BRANCH  42  43
ATOM     43  C   UNL     1       2.489  -1.336  12.703  1.00  0.00     0.031 A 
ATOM     44  C   UNL     1       2.164  -2.586  13.474  1.00  0.00     0.074 A 
ATOM     45  C   UNL     1       1.857  -0.183  12.996  1.00  0.00     0.049 A 
ATOM     46  N   UNL     1       1.313  -2.754  14.455  1.00  0.00    -0.248 NA
ATOM     47  C   UNL     1       2.870  -3.814  13.075  1.00  0.00     0.031 C 
ATOM     48  C   UNL     1       2.054   1.093  12.304  1.00  0.00     0.029 A 
ATOM     49  N   UNL     1       0.914   0.102  13.953  1.00  0.00    -0.354 N 
ATOM     50  C   UNL     1       1.371  -4.103  14.779  1.00  0.00     0.074 A 
ATOM     51  C   UNL     1       2.299  -4.720  13.856  1.00  0.00     0.031 C 
ATOM     52  C   UNL     1       1.283   2.029  12.880  1.00  0.00     0.029 A 
ATOM     53  C   UNL     1       0.502   1.413  13.948  1.00  0.00     0.049 A 
ATOM     54  H   UNL     1       0.566  -0.570  14.582  1.00  0.00     0.167 HD
ATOM     55  C   UNL     1       0.726  -4.769  15.767  1.00  0.00     0.031 A 
ATOM     56  C   UNL     1      -0.406   2.048  14.712  1.00  0.00     0.031 A 
ATOM     57  C   UNL     1      -0.197  -4.157  16.686  1.00  0.00     0.049 A 
ATOM     58  C   UNL     1      -1.135   1.279  15.779  1.00  0.00     0.074 A 
ATOM     59  C   UNL     1      -0.861  -4.736  17.754  1.00  0.00     0.029 A 
ATOM     60  N   UNL     1      -0.593  -2.829  16.641  1.00  0.00    -0.354 N 
ATOM     61  N   UNL     1      -1.015   0.019  16.120  1.00  0.00    -0.248 NA
ATOM     62  C   UNL     1      -2.120   2.026  16.575  1.00  0.00     0.031 C 
ATOM     63  C   UNL     1      -1.705  -3.773  18.317  1.00  0.00     0.029 A 
ATOM     64  C   UNL     1      -1.516  -2.578  17.643  1.00  0.00     0.049 A 
ATOM     65  H   UNL     1      -0.266  -2.164  15.993  1.00  0.00     0.167 HD
ATOM     66  C   UNL     1      -1.882  -0.170  17.188  1.00  0.00     0.074 A 
ATOM     67  C   UNL     1      -2.510   1.109  17.449  1.00  0.00     0.031 C 
ATOM     68  C   UNL     1      -2.134  -1.301  17.892  1.00  0.00     0.031 A 
BRANCH  55  69
ATOM     69  C   UNL     1       0.989  -6.245  15.894  1.00  0.00    -0.014 A 
ATOM     70  C   UNL     1       2.239  -6.731  16.313  1.00  0.00     0.009 A 
ATOM     71  C   UNL     1      -0.036  -7.163  15.618  1.00  0.00     0.009 A 
ATOM     72  C   UNL     1       2.468  -8.105  16.411  1.00  0.00     0.001 A 
ATOM     73  C   UNL     1       0.186  -8.536  15.749  1.00  0.00     0.001 A 
ATOM     74  C   UNL     1       1.441  -9.006  16.134  1.00  0.00     0.000 A 
ENDBRANCH  55  69
BRANCH  56  75
ATOM     75  C   UNL     1      -0.673   3.497  14.509  1.00  0.00    -0.014 A 
ATOM     76  C   UNL     1      -0.288   4.434  15.480  1.00  0.00     0.009 A 
ATOM     77  C   UNL     1      -1.324   3.950  13.351  1.00  0.00     0.009 A 
ATOM     78  C   UNL     1      -0.577   5.790  15.310  1.00  0.00     0.001 A 
ATOM     79  C   UNL     1      -1.583   5.310  13.169  1.00  0.00     0.001 A 
ATOM     80  C   UNL     1      -1.219   6.228  14.153  1.00  0.00     0.000 A 
ENDBRANCH  56  75
BRANCH  68  81
ATOM     81  C   UNL     1      -3.100  -1.197  19.040  1.00  0.00    -0.014 A 
ATOM     82  C   UNL     1      -4.476  -1.016  18.826  1.00  0.00     0.009 A 
ATOM     83  C   UNL     1      -2.628  -1.322  20.356  1.00  0.00     0.009 A 
ATOM     84  C   UNL     1      -5.352  -0.925  19.910  1.00  0.00     0.001 A 
ATOM     85  C   UNL     1      -3.510  -1.265  21.435  1.00  0.00     0.001 A 
ATOM     86  C   UNL     1      -4.870  -1.056  21.212  1.00  0.00     0.000 A 
ENDBRANCH  68  81
ENDBRANCH  42  43
ENDBRANCH  34  37
ENDBRANCH  32  33
ENDBRANCH  31  32
ENDBRANCH  30  31
ENDBRANCH  29  30
ENDBRANCH   1  29
TORSDOF 18
