REMARK SMILES CCCCN(c1ccccc1C(=O)NCCCCCCNC(=O)c1ccc(-c2c3nc(c(-c4ccccc4)c4ccc([nH]4)c(-c4ccccc4)c4nc(c(-c5ccccc5)c5ccc2[nH]5)C=C4)C=C3)cc1)S(=O)(=O)c1ccc2c(c1)oc(=O)n2C
REMARK SMILES IDX 16 1 15 2 14 3 12 4 13 5 11 7 6 8 7 9 8 10 10 11 9 12 5 13
REMARK SMILES IDX 4 14 3 15 2 16 1 17 72 18 73 19 74 20 75 21 76 22 80 23
REMARK SMILES IDX 77 24 79 25 78 26 81 27 84 28 82 29 85 30 83 31 17 32 18 33
REMARK SMILES IDX 19 34 20 35 21 36 22 37 23 39 24 40 25 41 71 42 26 43 70 44
REMARK SMILES IDX 27 45 28 46 29 47 64 48 30 49 69 50 63 51 65 52 31 53 68 54
REMARK SMILES IDX 62 55 61 56 32 58 54 59 39 60 53 61 40 62 43 63 52 64 66 65
REMARK SMILES IDX 41 66 42 67 51 69 67 70 44 71 33 72 34 73 38 74 35 75 37 76
REMARK SMILES IDX 36 77 55 78 56 79 60 80 57 81 59 82 58 83 45 84 46 85 50 86
REMARK SMILES IDX 47 87 49 88 48 89
REMARK H PARENT 14 6 21 38 65 57 43 68
REMARK Flexibility Score: inf
ROOT
ATOM      1  C   UNL     1       1.219   2.278  -2.062  1.00  0.00     0.021 C 
ENDROOT
BRANCH   1   2
ATOM      2  C   UNL     1       0.925   3.201  -0.891  1.00  0.00     0.116 C 
BRANCH   2   3
ATOM      3  N   UNL     1       0.607   4.568  -1.098  1.00  0.00    -0.352 N 
ATOM      4  C   UNL     1      -0.132   5.393  -0.279  1.00  0.00     0.253 C 
ATOM      5  O   UNL     1       0.178   6.587  -0.416  1.00  0.00    -0.269 OA
ATOM      6  H   UNL     1       0.956   4.974  -1.924  1.00  0.00     0.163 HD
BRANCH   4   7
ATOM      7  C   UNL     1      -1.266   5.066   0.713  1.00  0.00     0.064 A 
ATOM      8  C   UNL     1      -1.673   3.959   1.526  1.00  0.00     0.065 A 
ATOM      9  C   UNL     1      -2.715   4.154   2.477  1.00  0.00     0.028 A 
ATOM     10  C   UNL     1      -3.441   5.336   2.589  1.00  0.00     0.002 A 
ATOM     11  C   UNL     1      -2.064   6.250   0.863  1.00  0.00     0.016 A 
ATOM     12  C   UNL     1      -3.129   6.385   1.756  1.00  0.00     0.001 A 
BRANCH   8  13
ATOM     13  N   UNL     1      -1.299   2.539   1.526  1.00  0.00    -0.266 N 
BRANCH  13  14
ATOM     14  C   UNL     1       0.127   2.190   1.836  1.00  0.00     0.136 C 
BRANCH  14  15
ATOM     15  C   UNL     1       0.409   1.160   2.927  1.00  0.00     0.022 C 
BRANCH  15  16
ATOM     16  C   UNL     1       0.348  -0.353   2.619  1.00  0.00    -0.002 C 
ATOM     17  C   UNL     1       0.700  -0.875   1.229  1.00  0.00     0.004 C 
ENDBRANCH  15  16
ENDBRANCH  14  15
ENDBRANCH  13  14
BRANCH  13  18
ATOM     18  S   UNL     1      -2.144   1.579   0.355  1.00  0.00     0.264 S 
ATOM     19  O   UNL     1      -2.077   2.208  -0.944  1.00  0.00    -0.201 OA
ATOM     20  O   UNL     1      -1.685   0.216   0.511  1.00  0.00    -0.201 OA
BRANCH  18  21
ATOM     21  C   UNL     1      -3.886   1.508   0.760  1.00  0.00     0.091 A 
ATOM     22  C   UNL     1      -4.739   2.596   0.469  1.00  0.00     0.025 A 
ATOM     23  C   UNL     1      -4.425   0.251   1.079  1.00  0.00     0.071 A 
ATOM     24  C   UNL     1      -6.134   2.455   0.557  1.00  0.00     0.032 A 
ATOM     25  C   UNL     1      -5.796   0.133   1.111  1.00  0.00     0.157 A 
ATOM     26  C   UNL     1      -6.629   1.205   0.868  1.00  0.00     0.090 A 
ATOM     27  O   UNL     1      -6.479  -1.050   1.337  1.00  0.00    -0.408 OA
ATOM     28  N   UNL     1      -7.906   0.706   0.976  1.00  0.00    -0.277 N 
ATOM     29  C   UNL     1      -7.816  -0.648   1.236  1.00  0.00     0.419 A 
ATOM     30  C   UNL     1      -9.137   1.416   0.808  1.00  0.00     0.157 C 
ATOM     31  O   UNL     1      -8.756  -1.422   1.363  1.00  0.00    -0.223 OA
ENDBRANCH  18  21
ENDBRANCH  13  18
ENDBRANCH   8  13
ENDBRANCH   4   7
ENDBRANCH   2   3
ENDBRANCH   1   2
BRANCH   1  32
ATOM     32  C   UNL     1       2.691   1.965  -2.357  1.00  0.00     0.002 C 
BRANCH  32  33
ATOM     33  C   UNL     1       3.623   1.521  -1.217  1.00  0.00     0.002 C 
BRANCH  33  34
ATOM     34  C   UNL     1       3.516   0.123  -0.586  1.00  0.00     0.021 C 
BRANCH  34  35
ATOM     35  C   UNL     1       2.893  -1.022  -1.384  1.00  0.00     0.116 C 
BRANCH  35  36
ATOM     36  N   UNL     1       3.834  -1.622  -2.308  1.00  0.00    -0.352 N 
ATOM     37  C   UNL     1       4.284  -2.921  -2.360  1.00  0.00     0.251 C 
ATOM     38  H   UNL     1       4.203  -1.017  -2.992  1.00  0.00     0.163 HD
ATOM     39  O   UNL     1       5.294  -3.182  -3.009  1.00  0.00    -0.269 OA
BRANCH  37  40
ATOM     40  C   UNL     1       3.570  -4.026  -1.661  1.00  0.00     0.039 A 
ATOM     41  C   UNL     1       4.327  -5.050  -1.076  1.00  0.00     0.014 A 
ATOM     42  C   UNL     1       2.176  -4.136  -1.680  1.00  0.00     0.014 A 
ATOM     43  C   UNL     1       3.697  -6.174  -0.527  1.00  0.00     0.010 A 
ATOM     44  C   UNL     1       1.544  -5.235  -1.083  1.00  0.00     0.010 A 
ATOM     45  C   UNL     1       2.297  -6.285  -0.530  1.00  0.00    -0.014 A 
BRANCH  45  46
ATOM     46  C   UNL     1       1.629  -7.523  -0.031  1.00  0.00     0.031 A 
ATOM     47  C   UNL     1       0.881  -8.422  -0.988  1.00  0.00     0.074 A 
ATOM     48  C   UNL     1       1.687  -7.854   1.275  1.00  0.00     0.049 A 
ATOM     49  N   UNL     1       0.244  -9.542  -0.747  1.00  0.00    -0.248 NA
ATOM     50  C   UNL     1       0.833  -8.000  -2.397  1.00  0.00     0.031 C 
ATOM     51  C   UNL     1       2.361  -7.078   2.316  1.00  0.00     0.029 A 
ATOM     52  N   UNL     1       1.171  -8.936   1.949  1.00  0.00    -0.354 N 
ATOM     53  C   UNL     1      -0.290  -9.947  -1.966  1.00  0.00     0.074 A 
ATOM     54  C   UNL     1       0.056  -8.929  -2.934  1.00  0.00     0.031 C 
ATOM     55  C   UNL     1       2.240  -7.720   3.490  1.00  0.00     0.029 A 
ATOM     56  C   UNL     1       1.450  -8.933   3.295  1.00  0.00     0.049 A 
ATOM     57  H   UNL     1       0.651  -9.647   1.509  1.00  0.00     0.167 HD
ATOM     58  C   UNL     1      -0.988 -11.070  -2.264  1.00  0.00     0.031 A 
ATOM     59  C   UNL     1       1.106  -9.803   4.266  1.00  0.00     0.031 A 
ATOM     60  C   UNL     1      -1.331 -12.092  -1.310  1.00  0.00     0.049 A 
ATOM     61  C   UNL     1       0.303 -11.027   3.915  1.00  0.00     0.074 A 
ATOM     62  C   UNL     1      -1.999 -13.286  -1.529  1.00  0.00     0.029 A 
ATOM     63  N   UNL     1      -1.039 -12.040   0.043  1.00  0.00    -0.354 N 
ATOM     64  N   UNL     1      -0.138 -11.422   2.745  1.00  0.00    -0.248 NA
ATOM     65  C   UNL     1      -0.036 -11.936   5.021  1.00  0.00     0.031 C 
ATOM     66  C   UNL     1      -2.162 -13.928  -0.298  1.00  0.00     0.029 A 
ATOM     67  C   UNL     1      -1.533 -13.170   0.675  1.00  0.00     0.049 A 
ATOM     68  H   UNL     1      -0.552 -11.310   0.489  1.00  0.00     0.167 HD
ATOM     69  C   UNL     1      -0.767 -12.642   2.968  1.00  0.00     0.074 A 
ATOM     70  C   UNL     1      -0.639 -12.928   4.381  1.00  0.00     0.031 C 
ATOM     71  C   UNL     1      -1.392 -13.453   2.080  1.00  0.00     0.031 A 
BRANCH  58  72
ATOM     72  C   UNL     1      -1.444 -11.253  -3.688  1.00  0.00    -0.014 A 
ATOM     73  C   UNL     1      -0.528 -11.514  -4.720  1.00  0.00     0.009 A 
ATOM     74  C   UNL     1      -2.814 -11.217  -3.993  1.00  0.00     0.009 A 
ATOM     75  C   UNL     1      -0.971 -11.698  -6.032  1.00  0.00     0.001 A 
ATOM     76  C   UNL     1      -3.257 -11.434  -5.300  1.00  0.00     0.001 A 
ATOM     77  C   UNL     1      -2.335 -11.664  -6.319  1.00  0.00     0.000 A 
ENDBRANCH  58  72
BRANCH  59  78
ATOM     78  C   UNL     1       1.521  -9.559   5.675  1.00  0.00    -0.014 A 
ATOM     79  C   UNL     1       2.443 -10.407   6.310  1.00  0.00     0.009 A 
ATOM     80  C   UNL     1       0.968  -8.496   6.407  1.00  0.00     0.009 A 
ATOM     81  C   UNL     1       2.771 -10.220   7.655  1.00  0.00     0.001 A 
ATOM     82  C   UNL     1       1.325  -8.290   7.741  1.00  0.00     0.001 A 
ATOM     83  C   UNL     1       2.216  -9.159   8.368  1.00  0.00     0.000 A 
ENDBRANCH  59  78
BRANCH  71  84
ATOM     84  C   UNL     1      -1.935 -14.759   2.595  1.00  0.00    -0.014 A 
ATOM     85  C   UNL     1      -3.046 -14.813   3.449  1.00  0.00     0.009 A 
ATOM     86  C   UNL     1      -1.339 -15.962   2.182  1.00  0.00     0.009 A 
ATOM     87  C   UNL     1      -3.524 -16.041   3.912  1.00  0.00     0.001 A 
ATOM     88  C   UNL     1      -1.839 -17.190   2.617  1.00  0.00     0.001 A 
ATOM     89  C   UNL     1      -2.924 -17.228   3.491  1.00  0.00     0.000 A 
ENDBRANCH  71  84
ENDBRANCH  45  46
ENDBRANCH  37  40
ENDBRANCH  35  36
ENDBRANCH  34  35
ENDBRANCH  33  34
ENDBRANCH  32  33
ENDBRANCH   1  32
TORSDOF 19
