REMARK SMILES CC(C)COc1cccc(N2C[C@@H](C(=O)NCCCCCCNC(=O)c3ccc(-c4c5nc(c(-c6ccccc6)c6ccc([nH]6)c(-c6ccccc6)c6nc(c(-c7ccccc7)c7ccc4[nH]7)C=C6)C=C5)cc3)CC2=O)c1
REMARK SMILES IDX 18 1 17 2 16 3 14 4 15 5 13 7 11 8 12 9 75 10 74 11 76 12
REMARK SMILES IDX 10 13 6 14 7 15 77 16 8 17 9 18 5 19 4 20 2 21 1 22 3 23
REMARK SMILES IDX 19 24 20 25 21 26 22 27 23 28 24 29 25 31 26 32 27 33 73 34
REMARK SMILES IDX 28 35 72 36 29 37 30 38 31 39 66 40 32 41 71 42 65 43 67 44
REMARK SMILES IDX 33 45 70 46 64 47 63 48 34 50 56 51 41 52 55 53 42 54 45 55
REMARK SMILES IDX 54 56 68 57 43 58 44 59 53 61 69 62 46 63 35 64 36 65 40 66
REMARK SMILES IDX 37 67 39 68 38 69 57 70 58 71 62 72 59 73 61 74 60 75 47 76
REMARK SMILES IDX 48 77 52 78 49 79 51 80 50 81
REMARK H PARENT 16 6 23 30 67 49 45 60
REMARK Flexibility Score: inf
ROOT
ATOM      1  C   UNL     1       5.325   0.393   2.472  1.00  0.00     0.021 C 
ENDROOT
BRANCH   1   2
ATOM      2  C   UNL     1       4.191   1.405   2.661  1.00  0.00     0.116 C 
BRANCH   2   3
ATOM      3  N   UNL     1       4.699   2.715   3.027  1.00  0.00    -0.356 N 
ATOM      4  C   UNL     1       4.655   3.922   2.411  1.00  0.00     0.225 C 
ATOM      5  O   UNL     1       5.194   4.867   2.995  1.00  0.00    -0.275 OA
ATOM      6  H   UNL     1       5.167   2.730   3.893  1.00  0.00     0.163 HD
BRANCH   4   7
ATOM      7  C   UNL     1       3.962   4.167   1.087  1.00  0.00     0.107 C 
ATOM      8  N   UNL     1       2.067   3.415  -0.091  1.00  0.00    -0.311 N 
ATOM      9  C   UNL     1       2.457   4.002   1.170  1.00  0.00     0.139 C 
ATOM     10  C   UNL     1       3.170   2.962  -0.819  1.00  0.00     0.227 C 
ATOM     11  C   UNL     1       4.427   3.299  -0.066  1.00  0.00     0.116 C 
ATOM     12  O   UNL     1       3.190   2.369  -1.889  1.00  0.00    -0.274 OA
BRANCH   8  13
ATOM     13  C   UNL     1       0.710   3.106  -0.371  1.00  0.00     0.047 A 
ATOM     14  C   UNL     1      -0.900   1.458  -1.104  1.00  0.00     0.121 A 
ATOM     15  C   UNL     1      -1.952   2.207  -0.596  1.00  0.00     0.046 A 
ATOM     16  C   UNL     1       0.394   1.965  -1.107  1.00  0.00     0.072 A 
ATOM     17  C   UNL     1      -1.675   3.426   0.020  1.00  0.00     0.006 A 
ATOM     18  C   UNL     1      -0.346   3.847   0.178  1.00  0.00     0.026 A 
BRANCH  14  19
ATOM     19  O   UNL     1      -1.106   0.202  -1.602  1.00  0.00    -0.493 OA
BRANCH  19  20
ATOM     20  C   UNL     1      -0.841  -0.814  -0.608  1.00  0.00     0.232 C 
BRANCH  20  21
ATOM     21  C   UNL     1       0.640  -1.274  -0.558  1.00  0.00     0.020 C 
ATOM     22  C   UNL     1       1.440  -0.602   0.572  1.00  0.00     0.011 C 
ATOM     23  C   UNL     1       0.727  -2.789  -0.349  1.00  0.00     0.011 C 
ENDBRANCH  20  21
ENDBRANCH  19  20
ENDBRANCH  14  19
ENDBRANCH   8  13
ENDBRANCH   4   7
ENDBRANCH   2   3
ENDBRANCH   1   2
BRANCH   1  24
ATOM     24  C   UNL     1       6.138   0.086   3.739  1.00  0.00     0.002 C 
BRANCH  24  25
ATOM     25  C   UNL     1       5.333  -0.436   4.934  1.00  0.00     0.002 C 
BRANCH  25  26
ATOM     26  C   UNL     1       4.469  -1.665   4.652  1.00  0.00     0.021 C 
BRANCH  26  27
ATOM     27  C   UNL     1       5.237  -2.885   4.157  1.00  0.00     0.116 C 
BRANCH  27  28
ATOM     28  N   UNL     1       6.129  -3.429   5.169  1.00  0.00    -0.352 N 
ATOM     29  C   UNL     1       6.225  -4.721   5.629  1.00  0.00     0.251 C 
ATOM     30  H   UNL     1       6.749  -2.784   5.581  1.00  0.00     0.163 HD
ATOM     31  O   UNL     1       6.911  -4.986   6.610  1.00  0.00    -0.269 OA
BRANCH  29  32
ATOM     32  C   UNL     1       5.471  -5.791   4.943  1.00  0.00     0.039 A 
ATOM     33  C   UNL     1       4.720  -6.692   5.701  1.00  0.00     0.014 A 
ATOM     34  C   UNL     1       5.495  -5.889   3.550  1.00  0.00     0.014 A 
ATOM     35  C   UNL     1       3.938  -7.654   5.057  1.00  0.00     0.010 A 
ATOM     36  C   UNL     1       4.659  -6.796   2.909  1.00  0.00     0.010 A 
ATOM     37  C   UNL     1       3.876  -7.691   3.655  1.00  0.00    -0.014 A 
BRANCH  37  38
ATOM     38  C   UNL     1       3.026  -8.671   2.931  1.00  0.00     0.031 A 
ATOM     39  C   UNL     1       3.672  -9.689   2.031  1.00  0.00     0.074 A 
ATOM     40  C   UNL     1       1.684  -8.593   3.011  1.00  0.00     0.049 A 
ATOM     41  N   UNL     1       3.113 -10.535   1.205  1.00  0.00    -0.248 NA
ATOM     42  C   UNL     1       5.143  -9.740   2.041  1.00  0.00     0.031 C 
ATOM     43  C   UNL     1       0.933  -7.644   3.835  1.00  0.00     0.029 A 
ATOM     44  N   UNL     1       0.710  -9.320   2.372  1.00  0.00    -0.354 N 
ATOM     45  C   UNL     1       4.162 -11.199   0.581  1.00  0.00     0.074 A 
ATOM     46  C   UNL     1       5.389 -10.624   1.086  1.00  0.00     0.031 C 
ATOM     47  C   UNL     1      -0.382  -7.859   3.664  1.00  0.00     0.029 A 
ATOM     48  C   UNL     1      -0.569  -8.923   2.683  1.00  0.00     0.049 A 
ATOM     49  H   UNL     1       0.909 -10.057   1.749  1.00  0.00     0.167 HD
ATOM     50  C   UNL     1       4.111 -12.209  -0.319  1.00  0.00     0.031 A 
ATOM     51  C   UNL     1      -1.756  -9.355   2.216  1.00  0.00     0.031 A 
ATOM     52  C   UNL     1       2.891 -12.788  -0.812  1.00  0.00     0.049 A 
ATOM     53  C   UNL     1      -1.786 -10.453   1.187  1.00  0.00     0.074 A 
ATOM     54  C   UNL     1       2.733 -13.842  -1.694  1.00  0.00     0.029 A 
ATOM     55  N   UNL     1       1.619 -12.361  -0.463  1.00  0.00    -0.354 N 
ATOM     56  N   UNL     1      -0.787 -11.101   0.640  1.00  0.00    -0.248 NA
ATOM     57  C   UNL     1      -3.111 -10.883   0.715  1.00  0.00     0.031 C 
ATOM     58  C   UNL     1       1.365 -14.019  -1.920  1.00  0.00     0.029 A 
ATOM     59  C   UNL     1       0.671 -13.119  -1.127  1.00  0.00     0.049 A 
ATOM     60  H   UNL     1       1.420 -11.628   0.163  1.00  0.00     0.167 HD
ATOM     61  C   UNL     1      -1.361 -12.043  -0.204  1.00  0.00     0.074 A 
ATOM     62  C   UNL     1      -2.796 -11.884  -0.096  1.00  0.00     0.031 C 
ATOM     63  C   UNL     1      -0.754 -12.962  -0.992  1.00  0.00     0.031 A 
BRANCH  50  64
ATOM     64  C   UNL     1       5.417 -12.745  -0.836  1.00  0.00    -0.014 A 
ATOM     65  C   UNL     1       6.285 -13.473  -0.007  1.00  0.00     0.009 A 
ATOM     66  C   UNL     1       5.769 -12.550  -2.181  1.00  0.00     0.009 A 
ATOM     67  C   UNL     1       7.496 -13.959  -0.503  1.00  0.00     0.001 A 
ATOM     68  C   UNL     1       6.965 -13.066  -2.683  1.00  0.00     0.001 A 
ATOM     69  C   UNL     1       7.832 -13.760  -1.842  1.00  0.00     0.000 A 
ENDBRANCH  50  64
BRANCH  51  70
ATOM     70  C   UNL     1      -3.022  -8.757   2.719  1.00  0.00    -0.014 A 
ATOM     71  C   UNL     1      -3.897  -9.511   3.516  1.00  0.00     0.009 A 
ATOM     72  C   UNL     1      -3.373  -7.438   2.389  1.00  0.00     0.009 A 
ATOM     73  C   UNL     1      -5.111  -8.968   3.945  1.00  0.00     0.001 A 
ATOM     74  C   UNL     1      -4.572  -6.888   2.847  1.00  0.00     0.001 A 
ATOM     75  C   UNL     1      -5.445  -7.657   3.614  1.00  0.00     0.000 A 
ENDBRANCH  51  70
BRANCH  63  76
ATOM     76  C   UNL     1      -1.629 -13.918  -1.753  1.00  0.00    -0.014 A 
ATOM     77  C   UNL     1      -2.363 -13.509  -2.876  1.00  0.00     0.009 A 
ATOM     78  C   UNL     1      -1.653 -15.272  -1.379  1.00  0.00     0.009 A 
ATOM     79  C   UNL     1      -3.121 -14.435  -3.596  1.00  0.00     0.001 A 
ATOM     80  C   UNL     1      -2.386 -16.200  -2.119  1.00  0.00     0.001 A 
ATOM     81  C   UNL     1      -3.125 -15.780  -3.223  1.00  0.00     0.000 A 
ENDBRANCH  63  76
ENDBRANCH  37  38
ENDBRANCH  29  32
ENDBRANCH  27  28
ENDBRANCH  26  27
ENDBRANCH  25  26
ENDBRANCH  24  25
ENDBRANCH   1  24
TORSDOF 17
