REMARK SMILES COc1ccc(C(=O)NCCCCCCNC(=O)c2ccc(-c3c4nc(c(-c5ccccc5)c5ccc([nH]5)c(-c5ccccc5)c5nc(c(-c6ccccc6)c6ccc3[nH]6)C=C5)C=C4)cc2)cc1Oc1nc(C(C)(C)C)ns1
REMARK SMILES IDX 12 1 11 2 10 3 9 4 7 5 8 6 6 8 3 9 4 10 68 11 5 12 67 13
REMARK SMILES IDX 2 14 1 15 69 16 70 17 71 18 78 19 72 20 77 21 73 22 74 23
REMARK SMILES IDX 75 24 76 25 13 26 14 27 15 28 16 29 17 30 18 32 19 33 20 34
REMARK SMILES IDX 66 35 21 36 65 37 22 38 23 39 24 40 59 41 25 42 64 43 58 44
REMARK SMILES IDX 60 45 26 46 63 47 57 48 56 49 27 51 49 52 34 53 48 54 35 55
REMARK SMILES IDX 38 56 47 57 61 58 36 59 37 60 46 62 62 63 39 64 28 65 29 66
REMARK SMILES IDX 33 67 30 68 32 69 31 70 50 71 51 72 55 73 52 74 54 75 53 76
REMARK SMILES IDX 40 77 41 78 45 79 42 80 44 81 43 82
REMARK H PARENT 9 7 16 31 60 50 38 61
REMARK Flexibility Score: inf
ROOT
ATOM      1  C   UNL     1       6.262   3.664  -6.074  1.00  0.00     0.002 C 
ENDROOT
BRANCH   1   2
ATOM      2  C   UNL     1       5.571   2.800  -5.007  1.00  0.00     0.021 C 
BRANCH   2   3
ATOM      3  C   UNL     1       4.381   3.500  -4.346  1.00  0.00     0.116 C 
BRANCH   3   4
ATOM      4  N   UNL     1       3.241   3.451  -5.238  1.00  0.00    -0.352 N 
ATOM      5  C   UNL     1       2.085   2.722  -5.263  1.00  0.00     0.251 C 
ATOM      6  O   UNL     1       1.359   2.870  -6.249  1.00  0.00    -0.269 OA
ATOM      7  H   UNL     1       3.314   4.080  -5.991  1.00  0.00     0.163 HD
BRANCH   5   8
ATOM      8  C   UNL     1       1.613   1.847  -4.153  1.00  0.00     0.043 A 
ATOM      9  C   UNL     1       0.463   0.411  -2.033  1.00  0.00     0.161 A 
ATOM     10  C   UNL     1      -0.351   0.969  -3.017  1.00  0.00     0.051 A 
ATOM     11  C   UNL     1       1.856   0.477  -2.146  1.00  0.00     0.173 A 
ATOM     12  C   UNL     1       0.221   1.697  -4.056  1.00  0.00     0.018 A 
ATOM     13  C   UNL     1       2.423   1.176  -3.228  1.00  0.00     0.065 A 
BRANCH   9  14
ATOM     14  O   UNL     1      -0.159  -0.215  -0.988  1.00  0.00    -0.493 OA
ATOM     15  C   UNL     1      -0.579   0.759  -0.029  1.00  0.00     0.278 C 
ENDBRANCH   9  14
BRANCH  11  16
ATOM     16  O   UNL     1       2.768  -0.032  -1.243  1.00  0.00    -0.426 OA
BRANCH  16  17
ATOM     17  C   UNL     1       2.428  -0.961  -0.352  1.00  0.00     0.298 A 
ATOM     18  N   UNL     1       2.177  -0.694   0.913  1.00  0.00    -0.185 NA
ATOM     19  S   UNL     1       2.401  -2.639  -0.687  1.00  0.00     0.025 S 
ATOM     20  C   UNL     1       1.849  -1.893   1.554  1.00  0.00     0.151 A 
ATOM     21  N   UNL     1       1.962  -3.041   0.873  1.00  0.00    -0.172 NA
BRANCH  20  22
ATOM     22  C   UNL     1       1.412  -1.890   3.012  1.00  0.00     0.023 C 
ATOM     23  C   UNL     1       2.645  -1.780   3.925  1.00  0.00     0.019 C 
ATOM     24  C   UNL     1       0.478  -0.697   3.302  1.00  0.00     0.019 C 
ATOM     25  C   UNL     1       0.637  -3.175   3.379  1.00  0.00     0.019 C 
ENDBRANCH  20  22
ENDBRANCH  16  17
ENDBRANCH  11  16
ENDBRANCH   5   8
ENDBRANCH   3   4
ENDBRANCH   2   3
ENDBRANCH   1   2
BRANCH   1  26
ATOM     26  C   UNL     1       6.952   4.925  -5.535  1.00  0.00     0.002 C 
BRANCH  26  27
ATOM     27  C   UNL     1       7.969   4.681  -4.416  1.00  0.00     0.021 C 
BRANCH  27  28
ATOM     28  C   UNL     1       9.121   3.754  -4.795  1.00  0.00     0.116 C 
BRANCH  28  29
ATOM     29  N   UNL     1       9.963   4.331  -5.830  1.00  0.00    -0.352 N 
ATOM     30  C   UNL     1      11.322   4.492  -5.855  1.00  0.00     0.251 C 
ATOM     31  H   UNL     1       9.486   4.653  -6.629  1.00  0.00     0.163 HD
ATOM     32  O   UNL     1      11.841   5.190  -6.729  1.00  0.00    -0.269 OA
BRANCH  30  33
ATOM     33  C   UNL     1      12.176   3.850  -4.834  1.00  0.00     0.039 A 
ATOM     34  C   UNL     1      13.230   4.584  -4.283  1.00  0.00     0.014 A 
ATOM     35  C   UNL     1      11.974   2.519  -4.451  1.00  0.00     0.014 A 
ATOM     36  C   UNL     1      14.055   4.000  -3.321  1.00  0.00     0.010 A 
ATOM     37  C   UNL     1      12.763   1.956  -3.448  1.00  0.00     0.010 A 
ATOM     38  C   UNL     1      13.816   2.688  -2.880  1.00  0.00    -0.014 A 
BRANCH  38  39
ATOM     39  C   UNL     1      14.672   2.076  -1.834  1.00  0.00     0.031 A 
ATOM     40  C   UNL     1      15.585   0.929  -2.170  1.00  0.00     0.074 A 
ATOM     41  C   UNL     1      14.615   2.544  -0.572  1.00  0.00     0.049 A 
ATOM     42  N   UNL     1      16.408   0.274  -1.389  1.00  0.00    -0.248 NA
ATOM     43  C   UNL     1      15.562   0.444  -3.559  1.00  0.00     0.031 C 
ATOM     44  C   UNL     1      13.748   3.630  -0.108  1.00  0.00     0.029 A 
ATOM     45  N   UNL     1      15.307   2.168   0.552  1.00  0.00    -0.354 N 
ATOM     46  C   UNL     1      16.998  -0.696  -2.189  1.00  0.00     0.074 A 
ATOM     47  C   UNL     1      16.403  -0.579  -3.503  1.00  0.00     0.031 C 
ATOM     48  C   UNL     1      13.983   3.853   1.196  1.00  0.00     0.029 A 
ATOM     49  C   UNL     1      14.993   2.910   1.665  1.00  0.00     0.049 A 
ATOM     50  H   UNL     1      15.965   1.437   0.560  1.00  0.00     0.167 HD
ATOM     51  C   UNL     1      17.964  -1.589  -1.869  1.00  0.00     0.031 A 
ATOM     52  C   UNL     1      15.471   2.842   2.921  1.00  0.00     0.031 A 
ATOM     53  C   UNL     1      18.563  -1.707  -0.566  1.00  0.00     0.049 A 
ATOM     54  C   UNL     1      16.535   1.833   3.251  1.00  0.00     0.074 A 
ATOM     55  C   UNL     1      19.564  -2.569  -0.151  1.00  0.00     0.029 A 
ATOM     56  N   UNL     1      18.218  -0.935   0.531  1.00  0.00    -0.354 N 
ATOM     57  N   UNL     1      17.114   0.957   2.468  1.00  0.00    -0.248 NA
ATOM     58  C   UNL     1      17.021   1.818   4.639  1.00  0.00     0.031 C 
ATOM     59  C   UNL     1      19.804  -2.339   1.208  1.00  0.00     0.029 A 
ATOM     60  C   UNL     1      18.982  -1.305   1.626  1.00  0.00     0.049 A 
ATOM     61  H   UNL     1      17.533  -0.229   0.533  1.00  0.00     0.167 HD
ATOM     62  C   UNL     1      18.051   0.306   3.260  1.00  0.00     0.074 A 
ATOM     63  C   UNL     1      17.976   0.902   4.578  1.00  0.00     0.031 C 
ATOM     64  C   UNL     1      18.898  -0.698   2.927  1.00  0.00     0.031 A 
BRANCH  51  65
ATOM     65  C   UNL     1      18.447  -2.506  -2.956  1.00  0.00    -0.014 A 
ATOM     66  C   UNL     1      19.261  -2.023  -3.994  1.00  0.00     0.009 A 
ATOM     67  C   UNL     1      18.130  -3.872  -2.920  1.00  0.00     0.009 A 
ATOM     68  C   UNL     1      19.727  -2.887  -4.987  1.00  0.00     0.001 A 
ATOM     69  C   UNL     1      18.617  -4.737  -3.901  1.00  0.00     0.001 A 
ATOM     70  C   UNL     1      19.409  -4.243  -4.937  1.00  0.00     0.000 A 
ENDBRANCH  51  65
BRANCH  52  71
ATOM     71  C   UNL     1      14.966   3.769   3.967  1.00  0.00    -0.014 A 
ATOM     72  C   UNL     1      15.789   4.791   4.468  1.00  0.00     0.009 A 
ATOM     73  C   UNL     1      13.675   3.617   4.493  1.00  0.00     0.009 A 
ATOM     74  C   UNL     1      15.340   5.617   5.501  1.00  0.00     0.001 A 
ATOM     75  C   UNL     1      13.219   4.463   5.506  1.00  0.00     0.001 A 
ATOM     76  C   UNL     1      14.056   5.454   6.017  1.00  0.00     0.000 A 
ENDBRANCH  52  71
BRANCH  64  77
ATOM     77  C   UNL     1      19.831  -1.184   3.997  1.00  0.00    -0.014 A 
ATOM     78  C   UNL     1      19.367  -1.965   5.067  1.00  0.00     0.009 A 
ATOM     79  C   UNL     1      21.197  -0.870   3.923  1.00  0.00     0.009 A 
ATOM     80  C   UNL     1      20.248  -2.390   6.063  1.00  0.00     0.001 A 
ATOM     81  C   UNL     1      22.080  -1.318   4.907  1.00  0.00     0.001 A 
ATOM     82  C   UNL     1      21.603  -2.068   5.981  1.00  0.00     0.000 A 
ENDBRANCH  64  77
ENDBRANCH  38  39
ENDBRANCH  30  33
ENDBRANCH  28  29
ENDBRANCH  27  28
ENDBRANCH  26  27
ENDBRANCH   1  26
TORSDOF 17
