REMARK SMILES Cc1ccc(-c2c(C)sc(NC(=O)[C@H]3CC=CC[C@H]3C(=O)NCCCCCCNC(=O)c3ccc(-c4c5nc(c(-c6ccccc6)c6ccc([nH]6)c(-c6ccccc6)c6nc(c(-c7ccccc7)c7ccc4[nH]7)C=C6)C=C5)cc3)c2C(N)=O)cc1
REMARK SMILES IDX 25 1 24 2 23 3 22 4 20 5 21 6 19 8 14 9 15 10 16 11 18 12
REMARK SMILES IDX 17 13 12 14 11 15 13 17 10 18 6 19 7 20 80 21 8 22 9 23 5 24
REMARK SMILES IDX 1 25 2 26 3 27 85 28 4 29 84 30 81 31 82 32 83 33 26 36
REMARK SMILES IDX 27 37 28 38 29 39 30 40 31 42 32 43 33 44 79 45 34 46 78 47
REMARK SMILES IDX 35 48 36 49 37 50 72 51 38 52 77 53 71 54 73 55 39 56 76 57
REMARK SMILES IDX 70 58 69 59 40 61 62 62 47 63 61 64 48 65 51 66 60 67 74 68
REMARK SMILES IDX 49 69 50 70 59 72 75 73 52 74 41 75 42 76 46 77 43 78 45 79
REMARK SMILES IDX 44 80 63 81 64 82 68 83 65 84 67 85 66 86 53 87 54 88 58 89
REMARK SMILES IDX 55 90 57 91 56 92
REMARK H PARENT 22 7 11 16 82 34 82 35 29 41 73 60 51 71
REMARK Flexibility Score: inf
ROOT
ATOM      1  C   UNL     1      -9.112  -4.389   2.853  1.00  0.00     0.002 C 
ENDROOT
BRANCH   1   2
ATOM      2  C   UNL     1      -8.492  -3.061   2.406  1.00  0.00     0.021 C 
BRANCH   2   3
ATOM      3  C   UNL     1      -7.826  -3.130   1.033  1.00  0.00     0.116 C 
BRANCH   3   4
ATOM      4  N   UNL     1      -8.828  -3.132   0.010  1.00  0.00    -0.356 N 
ATOM      5  C   UNL     1      -9.197  -2.144  -0.829  1.00  0.00     0.224 C 
ATOM      6  O   UNL     1     -10.254  -2.309  -1.445  1.00  0.00    -0.275 OA
ATOM      7  H   UNL     1      -9.319  -3.978  -0.096  1.00  0.00     0.163 HD
BRANCH   5   8
ATOM      8  C   UNL     1      -8.335  -0.922  -1.099  1.00  0.00     0.095 C 
ATOM      9  C   UNL     1      -8.303   0.271  -0.122  1.00  0.00     0.095 C 
ATOM     10  C   UNL     1      -7.925   1.526  -0.936  1.00  0.00     0.041 C 
ATOM     11  C   UNL     1      -6.934   1.265  -2.057  1.00  0.00    -0.030 C 
ATOM     12  C   UNL     1      -6.984  -1.216  -1.739  1.00  0.00     0.041 C 
ATOM     13  C   UNL     1      -6.471   0.044  -2.380  1.00  0.00    -0.030 C 
BRANCH   9  14
ATOM     14  C   UNL     1      -7.683   0.151   1.303  1.00  0.00     0.229 C 
ATOM     15  N   UNL     1      -6.390  -0.034   1.705  1.00  0.00    -0.317 N 
ATOM     16  H   UNL     1      -6.316  -0.387   2.621  1.00  0.00     0.170 HD
ATOM     17  O   UNL     1      -8.483   0.114   2.257  1.00  0.00    -0.274 OA
BRANCH  15  18
ATOM     18  C   UNL     1      -5.169   0.167   1.099  1.00  0.00     0.109 A 
ATOM     19  C   UNL     1      -2.950   0.202   0.361  1.00  0.00     0.010 A 
ATOM     20  C   UNL     1      -3.587   1.092  -0.492  1.00  0.00     0.012 A 
ATOM     21  C   UNL     1      -3.896  -0.367   1.335  1.00  0.00     0.082 A 
ATOM     22  C   UNL     1      -3.181   1.704  -1.790  1.00  0.00     0.057 C 
ATOM     23  S   UNL     1      -4.994   1.642   0.280  1.00  0.00    -0.122 S 
BRANCH  19  24
ATOM     24  C   UNL     1      -1.501   0.033   0.245  1.00  0.00    -0.016 A 
ATOM     25  C   UNL     1       2.796  -0.194  -0.084  1.00  0.00     0.044 C 
ATOM     26  C   UNL     1       1.301  -0.115   0.002  1.00  0.00    -0.051 A 
ATOM     27  C   UNL     1       0.512  -1.274  -0.070  1.00  0.00     0.004 A 
ATOM     28  C   UNL     1       0.680   1.118   0.197  1.00  0.00     0.004 A 
ATOM     29  C   UNL     1      -0.885  -1.202   0.040  1.00  0.00     0.009 A 
ATOM     30  C   UNL     1      -0.703   1.186   0.334  1.00  0.00     0.009 A 
ENDBRANCH  19  24
BRANCH  21  31
ATOM     31  C   UNL     1      -3.514  -1.337   2.372  1.00  0.00     0.252 C 
ATOM     32  N   UNL     1      -4.512  -1.989   3.045  1.00  0.00    -0.365 N 
ATOM     33  O   UNL     1      -2.363  -1.605   2.673  1.00  0.00    -0.269 OA
ATOM     34  H   UNL     1      -5.455  -1.800   2.831  1.00  0.00     0.159 HD
ATOM     35  H   UNL     1      -4.288  -2.645   3.744  1.00  0.00     0.159 HD
ENDBRANCH  21  31
ENDBRANCH  15  18
ENDBRANCH   9  14
ENDBRANCH   5   8
ENDBRANCH   3   4
ENDBRANCH   2   3
ENDBRANCH   1   2
BRANCH   1  36
ATOM     36  C   UNL     1      -8.165  -5.597   2.810  1.00  0.00     0.002 C 
BRANCH  36  37
ATOM     37  C   UNL     1      -6.776  -5.357   3.399  1.00  0.00     0.021 C 
BRANCH  37  38
ATOM     38  C   UNL     1      -6.799  -5.058   4.884  1.00  0.00     0.116 C 
BRANCH  38  39
ATOM     39  N   UNL     1      -6.896  -6.253   5.697  1.00  0.00    -0.352 N 
ATOM     40  C   UNL     1      -6.785  -6.419   7.059  1.00  0.00     0.251 C 
ATOM     41  H   UNL     1      -7.069  -7.081   5.193  1.00  0.00     0.163 HD
ATOM     42  O   UNL     1      -6.697  -7.561   7.507  1.00  0.00    -0.269 OA
BRANCH  40  43
ATOM     43  C   UNL     1      -6.994  -5.276   7.988  1.00  0.00     0.039 A 
ATOM     44  C   UNL     1      -7.670  -5.579   9.180  1.00  0.00     0.014 A 
ATOM     45  C   UNL     1      -6.921  -3.960   7.550  1.00  0.00     0.014 A 
ATOM     46  C   UNL     1      -8.546  -4.649   9.716  1.00  0.00     0.010 A 
ATOM     47  C   UNL     1      -7.883  -3.087   7.978  1.00  0.00     0.010 A 
ATOM     48  C   UNL     1      -8.737  -3.472   9.008  1.00  0.00    -0.014 A 
BRANCH  48  49
ATOM     49  C   UNL     1      -9.786  -2.520   9.272  1.00  0.00     0.031 A 
ATOM     50  C   UNL     1      -9.473  -1.430  10.197  1.00  0.00     0.074 A 
ATOM     51  C   UNL     1     -10.908  -2.593   8.527  1.00  0.00     0.049 A 
ATOM     52  N   UNL     1     -10.339  -0.819  10.918  1.00  0.00    -0.248 NA
ATOM     53  C   UNL     1      -8.099  -0.988  10.437  1.00  0.00     0.031 C 
ATOM     54  C   UNL     1     -11.963  -1.607   8.355  1.00  0.00     0.029 A 
ATOM     55  N   UNL     1     -11.395  -3.726   7.882  1.00  0.00    -0.354 N 
ATOM     56  C   UNL     1      -9.711   0.310  11.394  1.00  0.00     0.074 A 
ATOM     57  C   UNL     1      -8.301   0.072  11.222  1.00  0.00     0.031 C 
ATOM     58  C   UNL     1     -13.067  -2.228   7.895  1.00  0.00     0.029 A 
ATOM     59  C   UNL     1     -12.797  -3.660   7.901  1.00  0.00     0.049 A 
ATOM     60  H   UNL     1     -10.854  -4.445   7.484  1.00  0.00     0.167 HD
ATOM     61  C   UNL     1     -10.471   1.406  11.664  1.00  0.00     0.031 A 
ATOM     62  C   UNL     1     -13.496  -4.581   8.634  1.00  0.00     0.031 A 
ATOM     63  C   UNL     1     -11.887   1.107  11.444  1.00  0.00     0.049 A 
ATOM     64  C   UNL     1     -14.166  -3.954   9.840  1.00  0.00     0.074 A 
ATOM     65  C   UNL     1     -12.723   1.358  10.368  1.00  0.00     0.029 A 
ATOM     66  N   UNL     1     -12.502   0.120  12.204  1.00  0.00    -0.354 N 
ATOM     67  N   UNL     1     -13.764  -2.847  10.402  1.00  0.00    -0.248 NA
ATOM     68  C   UNL     1     -15.344  -4.517  10.494  1.00  0.00     0.031 C 
ATOM     69  C   UNL     1     -13.808   0.444  10.441  1.00  0.00     0.029 A 
ATOM     70  C   UNL     1     -13.645  -0.334  11.574  1.00  0.00     0.049 A 
ATOM     71  H   UNL     1     -12.171  -0.209  13.071  1.00  0.00     0.167 HD
ATOM     72  C   UNL     1     -14.605  -2.525  11.433  1.00  0.00     0.074 A 
ATOM     73  C   UNL     1     -15.572  -3.608  11.460  1.00  0.00     0.031 C 
ATOM     74  C   UNL     1     -14.450  -1.389  12.175  1.00  0.00     0.031 A 
BRANCH  61  75
ATOM     75  C   UNL     1      -9.930   2.810  11.777  1.00  0.00    -0.014 A 
ATOM     76  C   UNL     1     -10.806   3.891  11.567  1.00  0.00     0.009 A 
ATOM     77  C   UNL     1      -8.591   3.148  12.034  1.00  0.00     0.009 A 
ATOM     78  C   UNL     1     -10.364   5.219  11.548  1.00  0.00     0.001 A 
ATOM     79  C   UNL     1      -8.134   4.474  11.996  1.00  0.00     0.001 A 
ATOM     80  C   UNL     1      -9.022   5.511  11.748  1.00  0.00     0.000 A 
ENDBRANCH  61  75
BRANCH  62  81
ATOM     81  C   UNL     1     -12.836  -5.926   8.624  1.00  0.00    -0.014 A 
ATOM     82  C   UNL     1     -12.751  -6.602   7.386  1.00  0.00     0.009 A 
ATOM     83  C   UNL     1     -11.939  -6.286   9.641  1.00  0.00     0.009 A 
ATOM     84  C   UNL     1     -11.687  -7.469   7.115  1.00  0.00     0.001 A 
ATOM     85  C   UNL     1     -10.891  -7.177   9.370  1.00  0.00     0.001 A 
ATOM     86  C   UNL     1     -10.733  -7.722   8.095  1.00  0.00     0.000 A 
ENDBRANCH  62  81
BRANCH  74  87
ATOM     87  C   UNL     1     -15.108  -1.111  13.505  1.00  0.00    -0.014 A 
ATOM     88  C   UNL     1     -15.667  -2.096  14.326  1.00  0.00     0.009 A 
ATOM     89  C   UNL     1     -15.043   0.196  14.042  1.00  0.00     0.009 A 
ATOM     90  C   UNL     1     -16.190  -1.783  15.587  1.00  0.00     0.001 A 
ATOM     91  C   UNL     1     -15.504   0.501  15.323  1.00  0.00     0.001 A 
ATOM     92  C   UNL     1     -16.099  -0.488  16.089  1.00  0.00     0.000 A 
ENDBRANCH  74  87
ENDBRANCH  48  49
ENDBRANCH  40  43
ENDBRANCH  38  39
ENDBRANCH  37  38
ENDBRANCH  36  37
ENDBRANCH   1  36
TORSDOF 17
