REMARK SMILES CC1=NN(c2ccc(Cl)c(C(=O)NCCCCCCNC(=O)c3ccc(-c4c5nc(c(-c6ccccc6)c6ccc([nH]6)c(-c6ccccc6)c6nc(c(-c7ccccc7)c7ccc4[nH]7)C=C6)C=C5)cc3)c2)C(=O)/C1=C\c1ccc(N(C)C)c(Br)c1
REMARK SMILES IDX 16 1 15 2 14 3 13 4 11 5 12 6 10 8 5 9 6 10 71 11 7 12 8 13
REMARK SMILES IDX 9 14 4 15 1 16 2 17 3 18 74 19 72 20 75 21 73 22 76 23 77 24
REMARK SMILES IDX 85 25 78 26 83 27 79 28 84 29 80 30 81 31 82 32 17 33 18 34
REMARK SMILES IDX 19 35 20 36 21 37 22 39 23 40 24 41 70 42 25 43 69 44 26 45
REMARK SMILES IDX 27 46 28 47 63 48 29 49 68 50 62 51 64 52 30 53 67 54 61 55
REMARK SMILES IDX 60 56 31 58 53 59 38 60 52 61 39 62 42 63 51 64 65 65 40 66
REMARK SMILES IDX 41 67 50 69 66 70 43 71 32 72 33 73 37 74 34 75 36 76 35 77
REMARK SMILES IDX 54 78 55 79 59 80 56 81 58 82 57 83 44 84 45 85 49 86 46 87
REMARK SMILES IDX 48 88 47 89
REMARK H PARENT 13 7 20 38 64 57 42 68
REMARK Flexibility Score: inf
ROOT
ATOM      1  C   UNL     1       2.601  10.000   1.871  1.00  0.00     0.002 C 
ENDROOT
BRANCH   1   2
ATOM      2  C   UNL     1       2.250   9.056   0.717  1.00  0.00     0.021 C 
BRANCH   2   3
ATOM      3  C   UNL     1       2.761   7.625   0.831  1.00  0.00     0.116 C 
BRANCH   3   4
ATOM      4  N   UNL     1       2.181   6.854   1.913  1.00  0.00    -0.352 N 
ATOM      5  C   UNL     1       1.901   5.507   1.995  1.00  0.00     0.252 C 
ATOM      6  O   UNL     1       1.437   5.071   3.049  1.00  0.00    -0.269 OA
ATOM      7  H   UNL     1       1.951   7.375   2.716  1.00  0.00     0.163 HD
BRANCH   5   8
ATOM      8  C   UNL     1       2.065   4.573   0.847  1.00  0.00     0.060 A 
ATOM      9  C   UNL     1       1.200   2.598  -0.295  1.00  0.00     0.070 A 
ATOM     10  C   UNL     1       2.249   2.695  -1.215  1.00  0.00     0.030 A 
ATOM     11  C   UNL     1       1.048   3.600   0.671  1.00  0.00     0.044 A 
ATOM     12  C   UNL     1       3.252   3.638  -1.049  1.00  0.00     0.023 A 
ATOM     13  C   UNL     1       3.216   4.499   0.046  1.00  0.00     0.053 A 
ATOM     14  Cl  UNL     1       4.729   5.241   0.432  1.00  0.00    -0.083 Cl
BRANCH   9  15
ATOM     15  N   UNL     1       0.483   1.386  -0.240  1.00  0.00    -0.196 N 
ATOM     16  C   UNL     1      -2.565  -0.483   0.179  1.00  0.00     0.069 C 
ATOM     17  C   UNL     1      -1.180   0.057   0.037  1.00  0.00     0.071 C 
ATOM     18  N   UNL     1      -0.873   1.333   0.044  1.00  0.00    -0.169 NA
ATOM     19  C   UNL     1       0.006  -0.809  -0.129  1.00  0.00     0.065 C 
ATOM     20  C   UNL     1       1.104   0.138  -0.399  1.00  0.00     0.280 C 
ATOM     21  C   UNL     1       0.109  -2.136   0.042  1.00  0.00     0.024 C 
ATOM     22  O   UNL     1       2.261  -0.136  -0.665  1.00  0.00    -0.267 OA
BRANCH  21  23
ATOM     23  C   UNL     1       1.413  -2.813   0.117  1.00  0.00    -0.024 A 
ATOM     24  C   UNL     1       1.904  -3.587  -0.918  1.00  0.00     0.010 A 
ATOM     25  C   UNL     1       2.227  -2.622   1.233  1.00  0.00     0.026 A 
ATOM     26  C   UNL     1       3.205  -4.125  -0.840  1.00  0.00     0.028 A 
ATOM     27  C   UNL     1       3.530  -3.168   1.313  1.00  0.00     0.041 A 
ATOM     28  C   UNL     1       4.083  -3.947   0.263  1.00  0.00     0.051 A 
ATOM     29  Br  UNL     1       4.368  -2.738   2.980  1.00  0.00    -0.049 Br
BRANCH  28  30
ATOM     30  N   UNL     1       5.353  -4.532   0.233  1.00  0.00    -0.377 N 
ATOM     31  C   UNL     1       5.796  -5.421  -0.843  1.00  0.00     0.143 C 
ATOM     32  C   UNL     1       6.432  -4.146   1.139  1.00  0.00     0.143 C 
ENDBRANCH  28  30
ENDBRANCH  21  23
ENDBRANCH   9  15
ENDBRANCH   5   8
ENDBRANCH   3   4
ENDBRANCH   2   3
ENDBRANCH   1   2
BRANCH   1  33
ATOM     33  C   UNL     1       4.068  10.067   2.311  1.00  0.00     0.002 C 
BRANCH  33  34
ATOM     34  C   UNL     1       5.117  10.299   1.220  1.00  0.00     0.021 C 
BRANCH  34  35
ATOM     35  C   UNL     1       4.884  11.492   0.302  1.00  0.00     0.116 C 
BRANCH  35  36
ATOM     36  N   UNL     1       4.847  12.760   1.009  1.00  0.00    -0.352 N 
ATOM     37  C   UNL     1       5.526  13.927   0.755  1.00  0.00     0.251 C 
ATOM     38  H   UNL     1       4.244  12.788   1.786  1.00  0.00     0.163 HD
ATOM     39  O   UNL     1       5.449  14.865   1.544  1.00  0.00    -0.269 OA
BRANCH  37  40
ATOM     40  C   UNL     1       6.377  14.055  -0.450  1.00  0.00     0.039 A 
ATOM     41  C   UNL     1       7.641  14.638  -0.317  1.00  0.00     0.014 A 
ATOM     42  C   UNL     1       5.936  13.625  -1.704  1.00  0.00     0.014 A 
ATOM     43  C   UNL     1       8.485  14.731  -1.427  1.00  0.00     0.010 A 
ATOM     44  C   UNL     1       6.805  13.655  -2.795  1.00  0.00     0.010 A 
ATOM     45  C   UNL     1       8.088  14.209  -2.668  1.00  0.00    -0.014 A 
BRANCH  45  46
ATOM     46  C   UNL     1       8.999  14.235  -3.841  1.00  0.00     0.031 A 
ATOM     47  C   UNL     1       8.648  15.047  -5.058  1.00  0.00     0.074 A 
ATOM     48  C   UNL     1      10.123  13.491  -3.832  1.00  0.00     0.049 A 
ATOM     49  N   UNL     1       9.287  15.150  -6.196  1.00  0.00    -0.248 NA
ATOM     50  C   UNL     1       7.404  15.833  -4.995  1.00  0.00     0.031 C 
ATOM     51  C   UNL     1      10.569  12.641  -2.726  1.00  0.00     0.029 A 
ATOM     52  N   UNL     1      11.094  13.327  -4.788  1.00  0.00    -0.354 N 
ATOM     53  C   UNL     1       8.523  16.001  -6.984  1.00  0.00     0.074 A 
ATOM     54  C   UNL     1       7.346  16.345  -6.216  1.00  0.00     0.031 C 
ATOM     55  C   UNL     1      11.740  12.070  -3.054  1.00  0.00     0.029 A 
ATOM     56  C   UNL     1      12.105  12.477  -4.407  1.00  0.00     0.049 A 
ATOM     57  H   UNL     1      11.070  13.776  -5.664  1.00  0.00     0.167 HD
ATOM     58  C   UNL     1       8.785  16.474  -8.226  1.00  0.00     0.031 A 
ATOM     59  C   UNL     1      13.199  12.065  -5.075  1.00  0.00     0.031 A 
ATOM     60  C   UNL     1       9.956  16.136  -8.992  1.00  0.00     0.049 A 
ATOM     61  C   UNL     1      13.443  12.571  -6.471  1.00  0.00     0.074 A 
ATOM     62  C   UNL     1      10.324  16.589 -10.248  1.00  0.00     0.029 A 
ATOM     63  N   UNL     1      10.947  15.264  -8.574  1.00  0.00    -0.354 N 
ATOM     64  N   UNL     1      12.734  13.414  -7.181  1.00  0.00    -0.248 NA
ATOM     65  C   UNL     1      14.646  12.072  -7.152  1.00  0.00     0.031 C 
ATOM     66  C   UNL     1      11.517  15.953 -10.609  1.00  0.00     0.029 A 
ATOM     67  C   UNL     1      11.919  15.150  -9.554  1.00  0.00     0.049 A 
ATOM     68  H   UNL     1      10.960  14.795  -7.708  1.00  0.00     0.167 HD
ATOM     69  C   UNL     1      13.423  13.574  -8.376  1.00  0.00     0.074 A 
ATOM     70  C   UNL     1      14.612  12.752  -8.289  1.00  0.00     0.031 C 
ATOM     71  C   UNL     1      13.100  14.334  -9.450  1.00  0.00     0.031 A 
BRANCH  58  72
ATOM     72  C   UNL     1       7.782  17.413  -8.836  1.00  0.00    -0.014 A 
ATOM     73  C   UNL     1       7.623  18.720  -8.347  1.00  0.00     0.009 A 
ATOM     74  C   UNL     1       7.015  17.004  -9.938  1.00  0.00     0.009 A 
ATOM     75  C   UNL     1       6.694  19.586  -8.927  1.00  0.00     0.001 A 
ATOM     76  C   UNL     1       6.108  17.882 -10.535  1.00  0.00     0.001 A 
ATOM     77  C   UNL     1       5.942  19.168 -10.024  1.00  0.00     0.000 A 
ENDBRANCH  58  72
BRANCH  59  78
ATOM     78  C   UNL     1      14.162  11.128  -4.437  1.00  0.00    -0.014 A 
ATOM     79  C   UNL     1      15.451  11.563  -4.088  1.00  0.00     0.009 A 
ATOM     80  C   UNL     1      13.812   9.790  -4.202  1.00  0.00     0.009 A 
ATOM     81  C   UNL     1      16.379  10.668  -3.551  1.00  0.00     0.001 A 
ATOM     82  C   UNL     1      14.732   8.905  -3.635  1.00  0.00     0.001 A 
ATOM     83  C   UNL     1      16.018   9.342  -3.322  1.00  0.00     0.000 A 
ENDBRANCH  59  78
BRANCH  71  84
ATOM     84  C   UNL     1      14.070  14.349 -10.598  1.00  0.00    -0.014 A 
ATOM     85  C   UNL     1      14.221  13.239 -11.444  1.00  0.00     0.009 A 
ATOM     86  C   UNL     1      14.819  15.508 -10.857  1.00  0.00     0.009 A 
ATOM     87  C   UNL     1      15.129  13.279 -12.504  1.00  0.00     0.001 A 
ATOM     88  C   UNL     1      15.702  15.556 -11.936  1.00  0.00     0.001 A 
ATOM     89  C   UNL     1      15.864  14.437 -12.752  1.00  0.00     0.000 A 
ENDBRANCH  71  84
ENDBRANCH  45  46
ENDBRANCH  37  40
ENDBRANCH  35  36
ENDBRANCH  34  35
ENDBRANCH  33  34
ENDBRANCH   1  33
TORSDOF 16
