REMARK SMILES NS(=O)(=O)c1ccc(-n2nc(C(=O)NCCCCCCNC(=O)c3ccc(-c4c5nc(c(-c6ccccc6)c6ccc([nH]6)c(-c6ccccc6)c6nc(c(-c7ccccc7)c7ccc4[nH]7)C=C6)C=C5)cc3)cc2-c2ccc(Cl)s2)cc1
REMARK SMILES IDX 17 1 16 2 15 3 14 4 12 5 13 6 11 8 9 9 10 10 73 11 72 12
REMARK SMILES IDX 8 13 5 14 6 15 81 16 7 17 80 18 2 19 3 20 4 21 1 22 74 25
REMARK SMILES IDX 75 26 79 27 76 28 77 29 78 30 18 31 19 32 20 33 21 34 22 35
REMARK SMILES IDX 23 37 24 38 25 39 71 40 26 41 70 42 27 43 28 44 29 45 64 46
REMARK SMILES IDX 30 47 69 48 63 49 65 50 31 51 68 52 62 53 61 54 32 56 54 57
REMARK SMILES IDX 39 58 53 59 40 60 43 61 52 62 66 63 41 64 42 65 51 67 67 68
REMARK SMILES IDX 44 69 33 70 34 71 38 72 35 73 37 74 36 75 55 76 56 77 60 78
REMARK SMILES IDX 57 79 59 80 58 81 45 82 46 83 50 84 47 85 49 86 48 87
REMARK H PARENT 14 7 1 23 1 24 21 36 65 55 43 66
REMARK Flexibility Score: inf
ROOT
ATOM      1  C   UNL     1       2.417  12.820  -5.285  1.00  0.00     0.002 C 
ENDROOT
BRANCH   1   2
ATOM      2  C   UNL     1       2.101  11.346  -5.536  1.00  0.00     0.021 C 
BRANCH   2   3
ATOM      3  C   UNL     1       3.134  10.367  -4.988  1.00  0.00     0.116 C 
BRANCH   3   4
ATOM      4  N   UNL     1       2.996  10.137  -3.566  1.00  0.00    -0.351 N 
ATOM      5  C   UNL     1       2.665   9.030  -2.814  1.00  0.00     0.271 C 
ATOM      6  O   UNL     1       2.562   9.227  -1.599  1.00  0.00    -0.267 OA
ATOM      7  H   UNL     1       3.176  10.938  -3.022  1.00  0.00     0.163 HD
BRANCH   5   8
ATOM      8  C   UNL     1       2.456   7.688  -3.409  1.00  0.00     0.151 A 
ATOM      9  N   UNL     1       1.910   5.604  -3.455  1.00  0.00    -0.231 N 
ATOM     10  N   UNL     1       1.809   6.728  -2.708  1.00  0.00    -0.162 NA
ATOM     11  C   UNL     1       2.345   5.887  -4.735  1.00  0.00     0.085 A 
ATOM     12  C   UNL     1       2.849   7.164  -4.667  1.00  0.00     0.066 A 
BRANCH   9  13
ATOM     13  C   UNL     1       1.620   4.328  -2.911  1.00  0.00     0.065 A 
ATOM     14  C   UNL     1       0.901   1.778  -2.080  1.00  0.00     0.082 A 
ATOM     15  C   UNL     1       2.036   1.944  -2.878  1.00  0.00     0.024 A 
ATOM     16  C   UNL     1       0.151   2.883  -1.658  1.00  0.00     0.024 A 
ATOM     17  C   UNL     1       2.393   3.221  -3.297  1.00  0.00     0.030 A 
ATOM     18  C   UNL     1       0.532   4.171  -2.046  1.00  0.00     0.030 A 
BRANCH  14  19
ATOM     19  S   UNL     1       0.371   0.139  -1.685  1.00  0.00     0.238 S 
ATOM     20  O   UNL     1       1.037  -0.799  -2.546  1.00  0.00    -0.207 OA
ATOM     21  O   UNL     1      -1.068   0.142  -1.503  1.00  0.00    -0.207 OA
BRANCH  19  22
ATOM     22  N   UNL     1       1.034  -0.079  -0.161  1.00  0.00    -0.225 NA
ATOM     23  H   UNL     1       0.794  -1.008   0.185  1.00  0.00     0.137 HD
ATOM     24  H   UNL     1       0.663   0.626   0.476  1.00  0.00     0.137 HD
ENDBRANCH  19  22
ENDBRANCH  14  19
ENDBRANCH   9  13
BRANCH  11  25
ATOM     25  C   UNL     1       2.223   5.059  -5.901  1.00  0.00     0.054 A 
ATOM     26  C   UNL     1       3.171   4.872  -6.889  1.00  0.00     0.024 A 
ATOM     27  S   UNL     1       0.742   4.280  -6.300  1.00  0.00    -0.122 S 
ATOM     28  C   UNL     1       2.678   4.082  -7.971  1.00  0.00     0.033 A 
ATOM     29  C   UNL     1       1.376   3.711  -7.758  1.00  0.00     0.094 A 
ATOM     30  Cl  UNL     1       0.389   2.785  -8.813  1.00  0.00    -0.072 Cl
ENDBRANCH  11  25
ENDBRANCH   5   8
ENDBRANCH   3   4
ENDBRANCH   2   3
ENDBRANCH   1   2
BRANCH   1  31
ATOM     31  C   UNL     1       3.803  13.302  -5.741  1.00  0.00     0.002 C 
BRANCH  31  32
ATOM     32  C   UNL     1       4.232  12.932  -7.169  1.00  0.00     0.021 C 
BRANCH  32  33
ATOM     33  C   UNL     1       3.375  13.553  -8.264  1.00  0.00     0.116 C 
BRANCH  33  34
ATOM     34  N   UNL     1       3.474  15.009  -8.284  1.00  0.00    -0.352 N 
ATOM     35  C   UNL     1       2.748  15.911  -9.031  1.00  0.00     0.251 C 
ATOM     36  H   UNL     1       4.149  15.399  -7.683  1.00  0.00     0.163 HD
ATOM     37  O   UNL     1       3.168  17.046  -9.223  1.00  0.00    -0.269 OA
BRANCH  35  38
ATOM     38  C   UNL     1       1.460  15.490  -9.609  1.00  0.00     0.039 A 
ATOM     39  C   UNL     1       1.115  15.853 -10.912  1.00  0.00     0.014 A 
ATOM     40  C   UNL     1       0.605  14.703  -8.841  1.00  0.00     0.014 A 
ATOM     41  C   UNL     1      -0.052  15.336 -11.468  1.00  0.00     0.010 A 
ATOM     42  C   UNL     1      -0.477  14.090  -9.431  1.00  0.00     0.010 A 
ATOM     43  C   UNL     1      -0.831  14.423 -10.735  1.00  0.00    -0.014 A 
BRANCH  43  44
ATOM     44  C   UNL     1      -1.921  13.699 -11.390  1.00  0.00     0.031 A 
ATOM     45  C   UNL     1      -1.534  13.047 -12.669  1.00  0.00     0.074 A 
ATOM     46  C   UNL     1      -3.126  13.449 -10.830  1.00  0.00     0.049 A 
ATOM     47  N   UNL     1      -1.913  13.377 -13.858  1.00  0.00    -0.248 NA
ATOM     48  C   UNL     1      -0.507  11.992 -12.640  1.00  0.00     0.031 C 
ATOM     49  C   UNL     1      -3.562  13.765  -9.464  1.00  0.00     0.029 A 
ATOM     50  N   UNL     1      -4.193  12.759 -11.334  1.00  0.00    -0.354 N 
ATOM     51  C   UNL     1      -1.352  12.433 -14.710  1.00  0.00     0.074 A 
ATOM     52  C   UNL     1      -0.360  11.727 -13.940  1.00  0.00     0.031 C 
ATOM     53  C   UNL     1      -4.686  13.075  -9.173  1.00  0.00     0.029 A 
ATOM     54  C   UNL     1      -5.155  12.429 -10.384  1.00  0.00     0.049 A 
ATOM     55  H   UNL     1      -4.274  12.517 -12.284  1.00  0.00     0.167 HD
ATOM     56  C   UNL     1      -1.964  12.107 -15.882  1.00  0.00     0.031 A 
ATOM     57  C   UNL     1      -6.283  11.705 -10.570  1.00  0.00     0.031 A 
ATOM     58  C   UNL     1      -3.004  13.048 -16.209  1.00  0.00     0.049 A 
ATOM     59  C   UNL     1      -6.626  11.770 -12.002  1.00  0.00     0.074 A 
ATOM     60  C   UNL     1      -3.085  14.343 -16.670  1.00  0.00     0.029 A 
ATOM     61  N   UNL     1      -4.219  12.732 -15.660  1.00  0.00    -0.354 N 
ATOM     62  N   UNL     1      -7.027  12.862 -12.583  1.00  0.00    -0.248 NA
ATOM     63  C   UNL     1      -6.244  10.686 -12.897  1.00  0.00     0.031 C 
ATOM     64  C   UNL     1      -4.325  14.858 -16.183  1.00  0.00     0.029 A 
ATOM     65  C   UNL     1      -4.984  13.852 -15.479  1.00  0.00     0.049 A 
ATOM     66  H   UNL     1      -4.504  11.819 -15.426  1.00  0.00     0.167 HD
ATOM     67  C   UNL     1      -6.516  12.767 -13.860  1.00  0.00     0.074 A 
ATOM     68  C   UNL     1      -6.236  11.351 -14.056  1.00  0.00     0.031 C 
ATOM     69  C   UNL     1      -6.056  13.875 -14.507  1.00  0.00     0.031 A 
BRANCH  56  70
ATOM     70  C   UNL     1      -2.007  10.700 -16.440  1.00  0.00    -0.014 A 
ATOM     71  C   UNL     1      -2.659  10.484 -17.670  1.00  0.00     0.009 A 
ATOM     72  C   UNL     1      -1.718   9.555 -15.673  1.00  0.00     0.009 A 
ATOM     73  C   UNL     1      -3.047   9.200 -18.077  1.00  0.00     0.001 A 
ATOM     74  C   UNL     1      -2.072   8.269 -16.093  1.00  0.00     0.001 A 
ATOM     75  C   UNL     1      -2.759   8.094 -17.285  1.00  0.00     0.000 A 
ENDBRANCH  56  70
BRANCH  57  76
ATOM     76  C   UNL     1      -7.084  10.896  -9.636  1.00  0.00    -0.014 A 
ATOM     77  C   UNL     1      -8.451  10.676  -9.872  1.00  0.00     0.009 A 
ATOM     78  C   UNL     1      -6.439  10.092  -8.681  1.00  0.00     0.009 A 
ATOM     79  C   UNL     1      -9.134   9.641  -9.224  1.00  0.00     0.001 A 
ATOM     80  C   UNL     1      -7.123   9.057  -8.034  1.00  0.00     0.001 A 
ATOM     81  C   UNL     1      -8.464   8.819  -8.322  1.00  0.00     0.000 A 
ENDBRANCH  57  76
BRANCH  69  82
ATOM     82  C   UNL     1      -6.563  15.207 -14.033  1.00  0.00    -0.014 A 
ATOM     83  C   UNL     1      -6.302  15.733 -12.756  1.00  0.00     0.009 A 
ATOM     84  C   UNL     1      -7.300  15.985 -14.938  1.00  0.00     0.009 A 
ATOM     85  C   UNL     1      -6.796  16.988 -12.387  1.00  0.00     0.001 A 
ATOM     86  C   UNL     1      -7.775  17.246 -14.577  1.00  0.00     0.001 A 
ATOM     87  C   UNL     1      -7.530  17.744 -13.300  1.00  0.00     0.000 A 
ENDBRANCH  69  82
ENDBRANCH  43  44
ENDBRANCH  35  38
ENDBRANCH  33  34
ENDBRANCH  32  33
ENDBRANCH  31  32
ENDBRANCH   1  31
TORSDOF 17
