REMARK SMILES CCC(=O)N1CCC[C@](C[C@H]2CC(c3ccc(C)cc3)=NO2)(C(=O)NCCCCCCNC(=O)c2ccc(-c3c4nc(c(-c5ccccc5)c5ccc([nH]5)c(-c5ccccc5)c5nc(c(-c6ccccc6)c6ccc3[nH]6)C=C5)C=C4)cc2)C1
REMARK SMILES IDX 28 1 27 2 26 3 25 4 23 5 24 6 9 8 5 9 6 10 83 11 7 12 8 13
REMARK SMILES IDX 3 14 4 15 2 16 1 17 10 18 11 19 12 20 22 21 13 22 21 23
REMARK SMILES IDX 14 24 15 25 20 26 16 27 19 28 17 29 18 30 29 31 30 32 31 33
REMARK SMILES IDX 32 34 33 35 34 37 35 38 36 39 82 40 37 41 81 42 38 43 39 44
REMARK SMILES IDX 40 45 75 46 41 47 80 48 74 49 76 50 42 51 79 52 73 53 72 54
REMARK SMILES IDX 43 56 65 57 50 58 64 59 51 60 54 61 63 62 77 63 52 64 53 65
REMARK SMILES IDX 62 67 78 68 55 69 44 70 45 71 49 72 46 73 48 74 47 75 66 76
REMARK SMILES IDX 67 77 71 78 68 79 70 80 69 81 56 82 57 83 61 84 58 85 60 86
REMARK SMILES IDX 59 87
REMARK H PARENT 25 7 32 36 76 55 54 66
REMARK Flexibility Score: inf
ROOT
ATOM      1  C   UNL     1      -1.076   3.847   3.277  1.00  0.00     0.002 C 
ENDROOT
BRANCH   1   2
ATOM      2  C   UNL     1       0.428   3.592   3.462  1.00  0.00     0.021 C 
BRANCH   2   3
ATOM      3  C   UNL     1       1.158   3.009   2.252  1.00  0.00     0.116 C 
BRANCH   3   4
ATOM      4  N   UNL     1       2.208   3.849   1.718  1.00  0.00    -0.356 N 
ATOM      5  C   UNL     1       3.455   3.594   1.245  1.00  0.00     0.228 C 
ATOM      6  O   UNL     1       3.908   4.520   0.554  1.00  0.00    -0.274 OA
ATOM      7  H   UNL     1       1.969   4.803   1.694  1.00  0.00     0.163 HD
BRANCH   5   8
ATOM      8  C   UNL     1       4.367   2.350   1.595  1.00  0.00     0.070 C 
ATOM      9  N   UNL     1       3.015   0.398   2.617  1.00  0.00    -0.342 N 
ATOM     10  C   UNL     1       3.732   0.599   3.878  1.00  0.00     0.119 C 
ATOM     11  C   UNL     1       3.628   0.998   1.422  1.00  0.00     0.136 C 
ATOM     12  C   UNL     1       4.040   2.065   4.126  1.00  0.00     0.023 C 
ATOM     13  C   UNL     1       4.919   2.599   3.012  1.00  0.00     0.021 C 
BRANCH   9  14
ATOM     14  C   UNL     1       1.901  -0.431   2.650  1.00  0.00     0.222 C 
ATOM     15  O   UNL     1       1.422  -0.781   3.740  1.00  0.00    -0.275 OA
BRANCH  14  16
ATOM     16  C   UNL     1       1.219  -1.015   1.409  1.00  0.00     0.097 C 
ATOM     17  C   UNL     1       1.193  -0.346   0.055  1.00  0.00     0.014 C 
ENDBRANCH  14  16
ENDBRANCH   9  14
BRANCH   8  18
ATOM     18  C   UNL     1       5.558   2.464   0.541  1.00  0.00     0.067 C 
BRANCH  18  19
ATOM     19  C   UNL     1       6.700   1.445   0.345  1.00  0.00     0.211 C 
ATOM     20  C   UNL     1       7.705   1.227   1.454  1.00  0.00     0.108 C 
ATOM     21  O   UNL     1       6.221   0.153  -0.033  1.00  0.00    -0.392 OA
ATOM     22  C   UNL     1       7.402  -0.191   1.775  1.00  0.00     0.091 C 
ATOM     23  N   UNL     1       6.614  -0.790   0.943  1.00  0.00    -0.090 NA
BRANCH  22  24
ATOM     24  C   UNL     1       8.062  -0.885   2.894  1.00  0.00    -0.001 A 
ATOM     25  C   UNL     1       8.248  -0.262   4.129  1.00  0.00     0.010 A 
ATOM     26  C   UNL     1       8.533  -2.185   2.687  1.00  0.00     0.010 A 
ATOM     27  C   UNL     1       8.923  -0.937   5.151  1.00  0.00     0.004 A 
ATOM     28  C   UNL     1       9.222  -2.848   3.703  1.00  0.00     0.004 A 
ATOM     29  C   UNL     1       9.424  -2.229   4.943  1.00  0.00    -0.051 A 
ATOM     30  C   UNL     1      10.200  -2.940   6.012  1.00  0.00     0.044 C 
ENDBRANCH  22  24
ENDBRANCH  18  19
ENDBRANCH   8  18
ENDBRANCH   5   8
ENDBRANCH   3   4
ENDBRANCH   2   3
ENDBRANCH   1   2
BRANCH   1  31
ATOM     31  C   UNL     1      -1.911   2.776   2.557  1.00  0.00     0.002 C 
BRANCH  31  32
ATOM     32  C   UNL     1      -1.716   1.332   3.011  1.00  0.00     0.021 C 
BRANCH  32  33
ATOM     33  C   UNL     1      -2.305   1.005   4.374  1.00  0.00     0.116 C 
BRANCH  33  34
ATOM     34  N   UNL     1      -3.747   0.775   4.360  1.00  0.00    -0.352 N 
ATOM     35  C   UNL     1      -4.613   0.491   5.405  1.00  0.00     0.251 C 
ATOM     36  H   UNL     1      -4.170   0.831   3.473  1.00  0.00     0.163 HD
ATOM     37  O   UNL     1      -5.800   0.308   5.183  1.00  0.00    -0.269 OA
BRANCH  35  38
ATOM     38  C   UNL     1      -4.124   0.560   6.805  1.00  0.00     0.039 A 
ATOM     39  C   UNL     1      -4.921   1.235   7.741  1.00  0.00     0.014 A 
ATOM     40  C   UNL     1      -2.826   0.189   7.135  1.00  0.00     0.014 A 
ATOM     41  C   UNL     1      -4.327   1.778   8.876  1.00  0.00     0.010 A 
ATOM     42  C   UNL     1      -2.209   0.824   8.190  1.00  0.00     0.010 A 
ATOM     43  C   UNL     1      -2.947   1.676   9.016  1.00  0.00    -0.014 A 
BRANCH  43  44
ATOM     44  C   UNL     1      -2.157   2.498   9.919  1.00  0.00     0.031 A 
ATOM     45  C   UNL     1      -1.518   1.891  11.100  1.00  0.00     0.074 A 
ATOM     46  C   UNL     1      -1.909   3.785   9.590  1.00  0.00     0.049 A 
ATOM     47  N   UNL     1      -1.021   2.567  12.078  1.00  0.00    -0.248 NA
ATOM     48  C   UNL     1      -1.465   0.447  11.316  1.00  0.00     0.031 C 
ATOM     49  C   UNL     1      -0.866   4.659  10.119  1.00  0.00     0.029 A 
ATOM     50  N   UNL     1      -2.720   4.635   8.842  1.00  0.00    -0.354 N 
ATOM     51  C   UNL     1      -0.328   1.689  12.874  1.00  0.00     0.074 A 
ATOM     52  C   UNL     1      -0.744   0.380  12.439  1.00  0.00     0.031 C 
ATOM     53  C   UNL     1      -1.205   5.937   9.884  1.00  0.00     0.029 A 
ATOM     54  C   UNL     1      -2.558   5.933   9.354  1.00  0.00     0.049 A 
ATOM     55  H   UNL     1      -3.302   4.373   8.092  1.00  0.00     0.167 HD
ATOM     56  C   UNL     1       0.627   2.179  13.711  1.00  0.00     0.031 A 
ATOM     57  C   UNL     1      -3.607   6.593   9.929  1.00  0.00     0.031 A 
ATOM     58  C   UNL     1       0.551   3.637  13.810  1.00  0.00     0.049 A 
ATOM     59  C   UNL     1      -3.400   6.915  11.395  1.00  0.00     0.074 A 
ATOM     60  C   UNL     1       1.308   4.670  13.285  1.00  0.00     0.029 A 
ATOM     61  N   UNL     1      -0.614   4.213  14.308  1.00  0.00    -0.354 N 
ATOM     62  N   UNL     1      -2.509   6.335  12.152  1.00  0.00    -0.248 NA
ATOM     63  C   UNL     1      -4.198   7.893  12.130  1.00  0.00     0.031 C 
ATOM     64  C   UNL     1       0.543   5.865  13.389  1.00  0.00     0.029 A 
ATOM     65  C   UNL     1      -0.653   5.562  14.018  1.00  0.00     0.049 A 
ATOM     66  H   UNL     1      -1.313   3.726  14.799  1.00  0.00     0.167 HD
ATOM     67  C   UNL     1      -2.599   6.823  13.429  1.00  0.00     0.074 A 
ATOM     68  C   UNL     1      -3.665   7.807  13.362  1.00  0.00     0.031 C 
ATOM     69  C   UNL     1      -1.797   6.364  14.435  1.00  0.00     0.031 A 
BRANCH  56  70
ATOM     70  C   UNL     1       1.777   1.367  14.265  1.00  0.00    -0.014 A 
ATOM     71  C   UNL     1       2.831   2.027  14.924  1.00  0.00     0.009 A 
ATOM     72  C   UNL     1       1.949  -0.018  14.084  1.00  0.00     0.009 A 
ATOM     73  C   UNL     1       3.989   1.353  15.342  1.00  0.00     0.001 A 
ATOM     74  C   UNL     1       3.095  -0.702  14.511  1.00  0.00     0.001 A 
ATOM     75  C   UNL     1       4.122  -0.013  15.132  1.00  0.00     0.000 A 
ENDBRANCH  56  70
BRANCH  57  76
ATOM     76  C   UNL     1      -4.921   6.267   9.307  1.00  0.00    -0.014 A 
ATOM     77  C   UNL     1      -5.163   6.718   7.994  1.00  0.00     0.009 A 
ATOM     78  C   UNL     1      -5.715   5.228   9.815  1.00  0.00     0.009 A 
ATOM     79  C   UNL     1      -6.086   6.066   7.171  1.00  0.00     0.001 A 
ATOM     80  C   UNL     1      -6.646   4.584   8.989  1.00  0.00     0.001 A 
ATOM     81  C   UNL     1      -6.803   4.977   7.660  1.00  0.00     0.000 A 
ENDBRANCH  57  76
BRANCH  69  82
ATOM     82  C   UNL     1      -1.964   6.645  15.911  1.00  0.00    -0.014 A 
ATOM     83  C   UNL     1      -3.156   7.069  16.511  1.00  0.00     0.009 A 
ATOM     84  C   UNL     1      -0.897   6.332  16.786  1.00  0.00     0.009 A 
ATOM     85  C   UNL     1      -3.264   7.212  17.902  1.00  0.00     0.001 A 
ATOM     86  C   UNL     1      -1.014   6.426  18.175  1.00  0.00     0.001 A 
ATOM     87  C   UNL     1      -2.199   6.879  18.734  1.00  0.00     0.000 A 
ENDBRANCH  69  82
ENDBRANCH  43  44
ENDBRANCH  35  38
ENDBRANCH  33  34
ENDBRANCH  32  33
ENDBRANCH  31  32
ENDBRANCH   1  31
TORSDOF 18
