REMARK SMILES CC1(C)[C@@H](C(=O)NCCCCCCNC(=O)c2ccc(-c3c4nc(c(-c5ccccc5)c5ccc([nH]5)c(-c5ccccc5)c5nc(c(-c6ccccc6)c6ccc3[nH]6)C=C5)C=C4)cc2)CC[C@@]1(C)C(N)=O
REMARK SMILES IDX 11 1 10 2 9 3 8 4 7 5 5 6 6 7 4 9 1 10 2 11 3 12 67 13 65 14
REMARK SMILES IDX 66 15 68 16 69 17 70 18 71 19 12 22 13 23 14 24 15 25 16 27
REMARK SMILES IDX 17 28 18 29 64 30 19 31 63 32 20 33 21 34 22 35 57 36 23 37
REMARK SMILES IDX 62 38 56 39 58 40 24 41 61 42 55 43 54 44 25 46 47 47 32 48
REMARK SMILES IDX 46 49 33 50 36 51 45 52 59 53 34 54 35 55 44 57 60 58 37 59
REMARK SMILES IDX 26 60 27 61 31 62 28 63 30 64 29 65 48 66 49 67 53 68 50 69
REMARK SMILES IDX 52 70 51 71 38 72 39 73 43 74 40 75 42 76 41 77
REMARK H PARENT 7 8 70 20 70 21 14 26 58 45 36 56
REMARK Flexibility Score: inf
ROOT
ATOM      1  C   UNL     1      -4.267  -5.862   0.099  1.00  0.00     0.002 C 
ENDROOT
BRANCH   1   2
ATOM      2  C   UNL     1      -2.752  -6.076  -0.011  1.00  0.00     0.002 C 
BRANCH   2   3
ATOM      3  C   UNL     1      -2.084  -5.367  -1.195  1.00  0.00     0.021 C 
BRANCH   3   4
ATOM      4  C   UNL     1      -2.300  -3.853  -1.200  1.00  0.00     0.116 C 
BRANCH   4   5
ATOM      5  N   UNL     1      -1.432  -3.202  -0.240  1.00  0.00    -0.356 N 
ATOM      6  C   UNL     1      -0.230  -2.587  -0.313  1.00  0.00     0.223 C 
ATOM      7  O   UNL     1       0.418  -2.612   0.742  1.00  0.00    -0.275 OA
ATOM      8  H   UNL     1      -1.800  -3.209   0.673  1.00  0.00     0.163 HD
BRANCH   6   9
ATOM      9  C   UNL     1       0.357  -1.853  -1.535  1.00  0.00     0.085 C 
ATOM     10  C   UNL     1       0.949   0.126   0.061  1.00  0.00     0.013 C 
ATOM     11  C   UNL     1       0.479  -0.295  -1.345  1.00  0.00    -0.010 C 
ATOM     12  C   UNL     1       1.604   0.231  -2.291  1.00  0.00     0.013 C 
ATOM     13  C   UNL     1      -0.960   0.226  -1.778  1.00  0.00     0.052 C 
ATOM     14  C   UNL     1      -0.364  -1.923  -2.869  1.00  0.00     0.015 C 
ATOM     15  C   UNL     1      -1.466  -0.866  -2.771  1.00  0.00     0.018 C 
ATOM     16  C   UNL     1      -0.942   1.577  -2.529  1.00  0.00     0.022 C 
BRANCH  13  17
ATOM     17  C   UNL     1      -1.867   0.518  -0.550  1.00  0.00     0.223 C 
ATOM     18  N   UNL     1      -3.022  -0.165  -0.358  1.00  0.00    -0.369 N 
ATOM     19  O   UNL     1      -1.610   1.411   0.259  1.00  0.00    -0.275 OA
ATOM     20  H   UNL     1      -3.274  -0.889  -0.977  1.00  0.00     0.159 HD
ATOM     21  H   UNL     1      -3.609   0.063   0.398  1.00  0.00     0.159 HD
ENDBRANCH  13  17
ENDBRANCH   6   9
ENDBRANCH   4   5
ENDBRANCH   3   4
ENDBRANCH   2   3
ENDBRANCH   1   2
BRANCH   1  22
ATOM     22  C   UNL     1      -5.059  -6.174  -1.174  1.00  0.00     0.021 C 
BRANCH  22  23
ATOM     23  C   UNL     1      -4.915  -7.611  -1.666  1.00  0.00     0.116 C 
BRANCH  23  24
ATOM     24  N   UNL     1      -5.434  -8.566  -0.699  1.00  0.00    -0.352 N 
ATOM     25  C   UNL     1      -6.463  -9.466  -0.826  1.00  0.00     0.251 C 
ATOM     26  H   UNL     1      -4.981  -8.567   0.174  1.00  0.00     0.163 HD
ATOM     27  O   UNL     1      -6.920 -10.028   0.161  1.00  0.00    -0.269 OA
BRANCH  25  28
ATOM     28  C   UNL     1      -7.034  -9.736  -2.161  1.00  0.00     0.039 A 
ATOM     29  C   UNL     1      -8.422  -9.746  -2.314  1.00  0.00     0.014 A 
ATOM     30  C   UNL     1      -6.201  -9.967  -3.259  1.00  0.00     0.014 A 
ATOM     31  C   UNL     1      -8.974  -9.902  -3.586  1.00  0.00     0.010 A 
ATOM     32  C   UNL     1      -6.749 -10.054  -4.535  1.00  0.00     0.010 A 
ATOM     33  C   UNL     1      -8.140 -10.005  -4.712  1.00  0.00    -0.014 A 
BRANCH  33  34
ATOM     34  C   UNL     1      -8.701  -9.998  -6.086  1.00  0.00     0.031 A 
ATOM     35  C   UNL     1      -8.539 -11.189  -6.986  1.00  0.00     0.074 A 
ATOM     36  C   UNL     1      -9.286  -8.876  -6.548  1.00  0.00     0.049 A 
ATOM     37  N   UNL     1      -8.896 -11.329  -8.238  1.00  0.00    -0.248 NA
ATOM     38  C   UNL     1      -7.873 -12.369  -6.413  1.00  0.00     0.031 C 
ATOM     39  C   UNL     1      -9.473  -7.640  -5.782  1.00  0.00     0.029 A 
ATOM     40  N   UNL     1      -9.823  -8.587  -7.778  1.00  0.00    -0.354 N 
ATOM     41  C   UNL     1      -8.490 -12.605  -8.605  1.00  0.00     0.074 A 
ATOM     42  C   UNL     1      -7.821 -13.182  -7.459  1.00  0.00     0.031 C 
ATOM     43  C   UNL     1     -10.100  -6.737  -6.551  1.00  0.00     0.029 A 
ATOM     44  C   UNL     1     -10.312  -7.306  -7.877  1.00  0.00     0.049 A 
ATOM     45  H   UNL     1      -9.854  -9.235  -8.518  1.00  0.00     0.167 HD
ATOM     46  C   UNL     1      -8.672 -13.243  -9.786  1.00  0.00     0.031 A 
ATOM     47  C   UNL     1     -10.854  -6.654  -8.923  1.00  0.00     0.031 A 
ATOM     48  C   UNL     1      -9.331 -12.663 -10.927  1.00  0.00     0.049 A 
ATOM     49  C   UNL     1     -10.996  -7.369 -10.237  1.00  0.00     0.074 A 
ATOM     50  C   UNL     1      -9.613 -13.250 -12.148  1.00  0.00     0.029 A 
ATOM     51  N   UNL     1      -9.799 -11.360 -10.992  1.00  0.00    -0.354 N 
ATOM     52  N   UNL     1     -10.677  -8.602 -10.545  1.00  0.00    -0.248 NA
ATOM     53  C   UNL     1     -11.575  -6.601 -11.348  1.00  0.00     0.031 C 
ATOM     54  C   UNL     1     -10.187 -12.281 -12.976  1.00  0.00     0.029 A 
ATOM     55  C   UNL     1     -10.327 -11.110 -12.248  1.00  0.00     0.049 A 
ATOM     56  H   UNL     1      -9.761 -10.709 -10.255  1.00  0.00     0.167 HD
ATOM     57  C   UNL     1     -11.034  -8.764 -11.877  1.00  0.00     0.074 A 
ATOM     58  C   UNL     1     -11.616  -7.511 -12.311  1.00  0.00     0.031 C 
ATOM     59  C   UNL     1     -10.890  -9.854 -12.671  1.00  0.00     0.031 A 
BRANCH  46  60
ATOM     60  C   UNL     1      -8.130 -14.641  -9.912  1.00  0.00    -0.014 A 
ATOM     61  C   UNL     1      -8.701 -15.713  -9.207  1.00  0.00     0.009 A 
ATOM     62  C   UNL     1      -7.062 -14.899 -10.786  1.00  0.00     0.009 A 
ATOM     63  C   UNL     1      -8.190 -17.005  -9.347  1.00  0.00     0.001 A 
ATOM     64  C   UNL     1      -6.574 -16.197 -10.948  1.00  0.00     0.001 A 
ATOM     65  C   UNL     1      -7.132 -17.247 -10.222  1.00  0.00     0.000 A 
ENDBRANCH  46  60
BRANCH  47  66
ATOM     66  C   UNL     1     -11.290  -5.241  -8.774  1.00  0.00    -0.014 A 
ATOM     67  C   UNL     1     -12.652  -4.905  -8.818  1.00  0.00     0.009 A 
ATOM     68  C   UNL     1     -10.346  -4.218  -8.591  1.00  0.00     0.009 A 
ATOM     69  C   UNL     1     -13.056  -3.572  -8.709  1.00  0.00     0.001 A 
ATOM     70  C   UNL     1     -10.755  -2.890  -8.449  1.00  0.00     0.001 A 
ATOM     71  C   UNL     1     -12.109  -2.568  -8.519  1.00  0.00     0.000 A 
ENDBRANCH  47  66
BRANCH  59  72
ATOM     72  C   UNL     1     -11.383  -9.743 -14.087  1.00  0.00    -0.014 A 
ATOM     73  C   UNL     1     -10.705  -8.959 -15.033  1.00  0.00     0.009 A 
ATOM     74  C   UNL     1     -12.514 -10.470 -14.491  1.00  0.00     0.009 A 
ATOM     75  C   UNL     1     -11.168  -8.882 -16.349  1.00  0.00     0.001 A 
ATOM     76  C   UNL     1     -12.955 -10.416 -15.814  1.00  0.00     0.001 A 
ATOM     77  C   UNL     1     -12.287  -9.616 -16.739  1.00  0.00     0.000 A 
ENDBRANCH  59  72
ENDBRANCH  33  34
ENDBRANCH  25  28
ENDBRANCH  23  24
ENDBRANCH  22  23
ENDBRANCH   1  22
TORSDOF 14
