REMARK SMILES Cc1ccccc1C(=O)Nc1ccc(OCC(=O)NCCCCCCNC(=O)c2ccc(-c3c4nc(c(-c5ccccc5)c5ccc([nH]5)c(-c5ccccc5)c5nc(c(-c6ccccc6)c6ccc3[nH]6)C=C5)C=C4)cc2)c(-c2nc3ccccc3s2)c1
REMARK SMILES IDX 21 1 20 2 19 3 17 4 18 5 16 7 15 8 14 9 11 10 12 11 87 12
REMARK SMILES IDX 13 13 77 14 10 15 8 16 9 17 7 19 1 20 2 21 3 22 4 23 6 24
REMARK SMILES IDX 5 25 78 26 79 27 86 28 80 29 85 30 81 31 84 32 82 33 83 34
REMARK SMILES IDX 22 35 23 36 24 37 25 38 26 39 27 40 28 42 29 43 30 44 76 45
REMARK SMILES IDX 31 46 75 47 32 48 33 49 34 50 69 51 35 52 74 53 68 54 70 55
REMARK SMILES IDX 36 56 73 57 67 58 66 59 37 61 59 62 44 63 58 64 45 65 48 66
REMARK SMILES IDX 57 67 71 68 46 69 47 70 56 72 72 73 49 74 38 75 39 76 43 77
REMARK SMILES IDX 40 78 42 79 41 80 60 81 61 82 65 83 62 84 64 85 63 86 50 87
REMARK SMILES IDX 51 88 55 89 52 90 54 91 53 92
REMARK H PARENT 19 6 10 18 26 41 70 60 48 71
REMARK Flexibility Score: inf
ROOT
ATOM      1  C   UNL     1       4.000  -3.511   3.307  1.00  0.00     0.021 C 
ENDROOT
BRANCH   1   2
ATOM      2  C   UNL     1       4.619  -4.202   2.094  1.00  0.00     0.116 C 
BRANCH   2   3
ATOM      3  N   UNL     1       3.744  -4.134   0.951  1.00  0.00    -0.353 N 
ATOM      4  C   UNL     1       3.964  -3.692  -0.314  1.00  0.00     0.257 C 
ATOM      5  O   UNL     1       2.981  -3.685  -1.055  1.00  0.00    -0.271 OA
ATOM      6  H   UNL     1       2.831  -4.465   1.115  1.00  0.00     0.163 HD
BRANCH   4   7
ATOM      7  C   UNL     1       5.390  -3.295  -0.782  1.00  0.00     0.329 C 
BRANCH   7   8
ATOM      8  O   UNL     1       5.699  -2.134  -1.548  1.00  0.00    -0.483 OA
BRANCH   8   9
ATOM      9  C   UNL     1       4.920  -1.047  -1.268  1.00  0.00     0.130 A 
ATOM     10  C   UNL     1       3.386   1.156  -0.503  1.00  0.00     0.042 A 
ATOM     11  C   UNL     1       4.622   0.931   0.102  1.00  0.00     0.030 A 
ATOM     12  C   UNL     1       2.996   0.364  -1.585  1.00  0.00     0.041 A 
ATOM     13  C   UNL     1       5.367  -0.193  -0.251  1.00  0.00     0.049 A 
ATOM     14  C   UNL     1       3.779  -0.727  -2.029  1.00  0.00     0.055 A 
BRANCH  10  15
ATOM     15  N   UNL     1       2.574   2.157   0.046  1.00  0.00    -0.322 N 
ATOM     16  C   UNL     1       1.206   2.216   0.211  1.00  0.00     0.255 C 
ATOM     17  O   UNL     1       0.701   3.294   0.530  1.00  0.00    -0.269 OA
ATOM     18  H   UNL     1       3.061   2.950   0.367  1.00  0.00     0.170 HD
BRANCH  16  19
ATOM     19  C   UNL     1       0.317   1.019   0.112  1.00  0.00     0.043 A 
ATOM     20  C   UNL     1       1.789  -0.593   1.492  1.00  0.00     0.045 C 
ATOM     21  C   UNL     1       0.588  -0.253   0.658  1.00  0.00    -0.038 A 
ATOM     22  C   UNL     1      -0.342  -1.292   0.454  1.00  0.00     0.004 A 
ATOM     23  C   UNL     1      -1.569  -1.053  -0.161  1.00  0.00     0.000 A 
ATOM     24  C   UNL     1      -0.943   1.252  -0.473  1.00  0.00     0.014 A 
ATOM     25  C   UNL     1      -1.884   0.228  -0.596  1.00  0.00     0.001 A 
ENDBRANCH  16  19
ENDBRANCH  10  15
BRANCH  14  26
ATOM     26  C   UNL     1       3.286  -1.474  -3.212  1.00  0.00     0.128 A 
ATOM     27  N   UNL     1       2.210  -1.123  -3.896  1.00  0.00    -0.236 NA
ATOM     28  S   UNL     1       4.043  -2.891  -3.845  1.00  0.00    -0.114 S 
ATOM     29  C   UNL     1       1.768  -2.190  -4.657  1.00  0.00     0.082 A 
ATOM     30  C   UNL     1       2.580  -3.320  -4.621  1.00  0.00     0.055 A 
ATOM     31  C   UNL     1       0.572  -2.244  -5.395  1.00  0.00     0.030 A 
ATOM     32  C   UNL     1       2.189  -4.545  -5.177  1.00  0.00     0.021 A 
ATOM     33  C   UNL     1       0.177  -3.453  -5.977  1.00  0.00     0.002 A 
ATOM     34  C   UNL     1       0.960  -4.596  -5.837  1.00  0.00     0.002 A 
ENDBRANCH  14  26
ENDBRANCH   8   9
ENDBRANCH   7   8
ENDBRANCH   4   7
ENDBRANCH   2   3
ENDBRANCH   1   2
BRANCH   1  35
ATOM     35  C   UNL     1       2.613  -4.010   3.739  1.00  0.00     0.002 C 
BRANCH  35  36
ATOM     36  C   UNL     1       2.428  -5.524   3.926  1.00  0.00     0.002 C 
BRANCH  36  37
ATOM     37  C   UNL     1       3.511  -6.264   4.710  1.00  0.00     0.021 C 
BRANCH  37  38
ATOM     38  C   UNL     1       3.733  -5.760   6.126  1.00  0.00     0.116 C 
BRANCH  38  39
ATOM     39  N   UNL     1       3.025  -6.498   7.159  1.00  0.00    -0.352 N 
ATOM     40  C   UNL     1       2.949  -6.242   8.522  1.00  0.00     0.251 C 
ATOM     41  H   UNL     1       2.529  -7.290   6.849  1.00  0.00     0.163 HD
ATOM     42  O   UNL     1       2.353  -7.006   9.256  1.00  0.00    -0.269 OA
BRANCH  40  43
ATOM     43  C   UNL     1       3.464  -4.948   9.050  1.00  0.00     0.039 A 
ATOM     44  C   UNL     1       2.640  -4.246   9.937  1.00  0.00     0.014 A 
ATOM     45  C   UNL     1       4.586  -4.330   8.508  1.00  0.00     0.014 A 
ATOM     46  C   UNL     1       2.775  -2.864  10.041  1.00  0.00     0.010 A 
ATOM     47  C   UNL     1       4.654  -2.953   8.517  1.00  0.00     0.010 A 
ATOM     48  C   UNL     1       3.699  -2.220   9.220  1.00  0.00    -0.014 A 
BRANCH  48  49
ATOM     49  C   UNL     1       3.690  -0.785   8.983  1.00  0.00     0.031 A 
ATOM     50  C   UNL     1       4.639   0.075   9.722  1.00  0.00     0.074 A 
ATOM     51  C   UNL     1       2.846  -0.247   8.070  1.00  0.00     0.049 A 
ATOM     52  N   UNL     1       4.397   1.298  10.055  1.00  0.00    -0.248 NA
ATOM     53  C   UNL     1       5.944  -0.401  10.176  1.00  0.00     0.031 C 
ATOM     54  C   UNL     1       2.836   1.141   7.608  1.00  0.00     0.029 A 
ATOM     55  N   UNL     1       1.690  -0.782   7.494  1.00  0.00    -0.354 N 
ATOM     56  C   UNL     1       5.590   1.847  10.465  1.00  0.00     0.074 A 
ATOM     57  C   UNL     1       6.498   0.734  10.615  1.00  0.00     0.031 C 
ATOM     58  C   UNL     1       1.611   1.425   7.135  1.00  0.00     0.029 A 
ATOM     59  C   UNL     1       0.770   0.276   7.425  1.00  0.00     0.049 A 
ATOM     60  H   UNL     1       1.551  -1.710   7.197  1.00  0.00     0.167 HD
ATOM     61  C   UNL     1       5.746   3.200  10.475  1.00  0.00     0.031 A 
ATOM     62  C   UNL     1      -0.404   0.328   8.123  1.00  0.00     0.031 A 
ATOM     63  C   UNL     1       4.535   3.893  10.049  1.00  0.00     0.049 A 
ATOM     64  C   UNL     1      -0.520   1.556   9.012  1.00  0.00     0.074 A 
ATOM     65  C   UNL     1       4.150   4.446   8.839  1.00  0.00     0.029 A 
ATOM     66  N   UNL     1       3.387   3.801  10.825  1.00  0.00    -0.354 N 
ATOM     67  N   UNL     1       0.501   2.280   9.380  1.00  0.00    -0.248 NA
ATOM     68  C   UNL     1      -1.773   2.039   9.593  1.00  0.00     0.031 C 
ATOM     69  C   UNL     1       2.744   4.630   8.868  1.00  0.00     0.029 A 
ATOM     70  C   UNL     1       2.283   4.215  10.104  1.00  0.00     0.049 A 
ATOM     71  H   UNL     1       3.362   3.485  11.757  1.00  0.00     0.167 HD
ATOM     72  C   UNL     1       0.081   3.301  10.194  1.00  0.00     0.074 A 
ATOM     73  C   UNL     1      -1.353   3.107  10.298  1.00  0.00     0.031 C 
ATOM     74  C   UNL     1       0.959   4.211  10.713  1.00  0.00     0.031 A 
BRANCH  61  75
ATOM     75  C   UNL     1       7.104   3.848  10.555  1.00  0.00    -0.014 A 
ATOM     76  C   UNL     1       7.368   5.014   9.814  1.00  0.00     0.009 A 
ATOM     77  C   UNL     1       8.175   3.328  11.301  1.00  0.00     0.009 A 
ATOM     78  C   UNL     1       8.652   5.567   9.734  1.00  0.00     0.001 A 
ATOM     79  C   UNL     1       9.472   3.851  11.193  1.00  0.00     0.001 A 
ATOM     80  C   UNL     1       9.712   4.965  10.398  1.00  0.00     0.000 A 
ENDBRANCH  61  75
BRANCH  62  81
ATOM     81  C   UNL     1      -0.990  -1.000   8.446  1.00  0.00    -0.014 A 
ATOM     82  C   UNL     1      -1.516  -1.770   7.391  1.00  0.00     0.009 A 
ATOM     83  C   UNL     1      -0.688  -1.639   9.656  1.00  0.00     0.009 A 
ATOM     84  C   UNL     1      -1.608  -3.160   7.498  1.00  0.00     0.001 A 
ATOM     85  C   UNL     1      -0.791  -3.032   9.762  1.00  0.00     0.001 A 
ATOM     86  C   UNL     1      -1.209  -3.794   8.671  1.00  0.00     0.000 A 
ENDBRANCH  62  81
BRANCH  74  87
ATOM     87  C   UNL     1       0.676   5.241  11.784  1.00  0.00    -0.014 A 
ATOM     88  C   UNL     1      -0.406   5.194  12.670  1.00  0.00     0.009 A 
ATOM     89  C   UNL     1       1.629   6.264  12.011  1.00  0.00     0.009 A 
ATOM     90  C   UNL     1      -0.548   6.138  13.700  1.00  0.00     0.001 A 
ATOM     91  C   UNL     1       1.518   7.176  13.063  1.00  0.00     0.001 A 
ATOM     92  C   UNL     1       0.418   7.119  13.904  1.00  0.00     0.000 A 
ENDBRANCH  74  87
ENDBRANCH  48  49
ENDBRANCH  40  43
ENDBRANCH  38  39
ENDBRANCH  37  38
ENDBRANCH  36  37
ENDBRANCH  35  36
ENDBRANCH   1  35
TORSDOF 18
