REMARK SMILES COC(=O)C1=C(C)N(c2ccc(Br)cc2)C(=O)/C1=C\c1ccc(C(=O)NCCCCCCNC(=O)c2ccc(-c3c4nc(c(-c5ccccc5)c5ccc([nH]5)c(-c5ccccc5)c5nc(c(-c6ccccc6)c6ccc3[nH]6)C=C5)C=C4)cc2)cc1
REMARK SMILES IDX 29 1 28 2 27 3 26 4 24 5 25 6 23 8 20 9 21 10 85 11 22 12
REMARK SMILES IDX 84 13 19 14 5 15 6 16 18 17 7 18 8 19 16 20 17 21 3 22 4 23
REMARK SMILES IDX 2 24 1 25 9 26 10 27 15 28 11 29 14 30 12 31 13 32 30 33
REMARK SMILES IDX 31 34 32 35 33 36 34 37 35 39 36 40 37 41 83 42 38 43 82 44
REMARK SMILES IDX 39 45 40 46 41 47 76 48 42 49 81 50 75 51 77 52 43 53 80 54
REMARK SMILES IDX 74 55 73 56 44 58 66 59 51 60 65 61 52 62 55 63 64 64 78 65
REMARK SMILES IDX 53 66 54 67 63 69 79 70 56 71 45 72 46 73 50 74 47 75 49 76
REMARK SMILES IDX 48 77 67 78 68 79 72 80 69 81 71 82 70 83 57 84 58 85 62 86
REMARK SMILES IDX 59 87 61 88 60 89
REMARK H PARENT 26 7 33 38 77 57 55 68
REMARK Flexibility Score: inf
ROOT
ATOM      1  C   UNL     1       4.720  12.773  -3.319  1.00  0.00     0.002 C 
ENDROOT
BRANCH   1   2
ATOM      2  C   UNL     1       4.129  11.403  -2.959  1.00  0.00     0.021 C 
BRANCH   2   3
ATOM      3  C   UNL     1       3.512  10.687  -4.163  1.00  0.00     0.116 C 
BRANCH   3   4
ATOM      4  N   UNL     1       4.559  10.073  -4.956  1.00  0.00    -0.352 N 
ATOM      5  C   UNL     1       4.986   8.776  -5.075  1.00  0.00     0.251 C 
ATOM      6  O   UNL     1       5.931   8.552  -5.832  1.00  0.00    -0.269 OA
ATOM      7  H   UNL     1       5.059  10.710  -5.516  1.00  0.00     0.163 HD
BRANCH   5   8
ATOM      8  C   UNL     1       4.325   7.636  -4.382  1.00  0.00     0.039 A 
ATOM      9  C   UNL     1       3.016   5.409  -3.275  1.00  0.00    -0.025 A 
ATOM     10  C   UNL     1       3.724   5.274  -4.469  1.00  0.00     0.009 A 
ATOM     11  C   UNL     1       3.012   6.637  -2.609  1.00  0.00     0.009 A 
ATOM     12  C   UNL     1       4.370   6.386  -5.021  1.00  0.00     0.014 A 
ATOM     13  C   UNL     1       3.694   7.731  -3.141  1.00  0.00     0.014 A 
BRANCH   9  14
ATOM     14  C   UNL     1       2.311   4.289  -2.656  1.00  0.00     0.023 C 
ATOM     15  C   UNL     1       0.251   2.997  -2.080  1.00  0.00     0.092 C 
ATOM     16  C   UNL     1      -1.010   2.975  -2.566  1.00  0.00     0.039 C 
ATOM     17  C   UNL     1       1.001   4.025  -2.781  1.00  0.00     0.057 C 
ATOM     18  C   UNL     1      -2.066   1.993  -2.172  1.00  0.00     0.066 C 
ATOM     19  N   UNL     1      -1.166   3.955  -3.555  1.00  0.00    -0.280 N 
ATOM     20  C   UNL     1       0.035   4.696  -3.713  1.00  0.00     0.263 C 
ATOM     21  O   UNL     1       0.262   5.658  -4.419  1.00  0.00    -0.268 OA
BRANCH  15  22
ATOM     22  C   UNL     1       0.813   2.180  -0.989  1.00  0.00     0.340 C 
ATOM     23  O   UNL     1       1.601   2.615  -0.162  1.00  0.00    -0.246 OA
BRANCH  22  24
ATOM     24  O   UNL     1       0.374   0.900  -1.056  1.00  0.00    -0.465 OA
ATOM     25  C   UNL     1       0.903   0.059  -0.030  1.00  0.00     0.282 C 
ENDBRANCH  22  24
ENDBRANCH  15  22
BRANCH  19  26
ATOM     26  C   UNL     1      -2.293   4.220  -4.383  1.00  0.00     0.049 A 
ATOM     27  C   UNL     1      -2.100   4.455  -5.753  1.00  0.00     0.028 A 
ATOM     28  C   UNL     1      -3.603   4.221  -3.888  1.00  0.00     0.028 A 
ATOM     29  C   UNL     1      -3.186   4.612  -6.619  1.00  0.00     0.018 A 
ATOM     30  C   UNL     1      -4.694   4.388  -4.750  1.00  0.00     0.018 A 
ATOM     31  C   UNL     1      -4.480   4.565  -6.114  1.00  0.00     0.018 A 
ATOM     32  Br  UNL     1      -5.952   4.736  -7.287  1.00  0.00    -0.051 Br
ENDBRANCH  19  26
ENDBRANCH   9  14
ENDBRANCH   5   8
ENDBRANCH   3   4
ENDBRANCH   2   3
ENDBRANCH   1   2
BRANCH   1  33
ATOM     33  C   UNL     1       3.694  13.792  -3.830  1.00  0.00     0.002 C 
BRANCH  33  34
ATOM     34  C   UNL     1       2.516  14.039  -2.885  1.00  0.00     0.021 C 
BRANCH  34  35
ATOM     35  C   UNL     1       2.923  14.607  -1.531  1.00  0.00     0.116 C 
BRANCH  35  36
ATOM     36  N   UNL     1       3.511  15.932  -1.664  1.00  0.00    -0.352 N 
ATOM     37  C   UNL     1       3.106  17.118  -1.108  1.00  0.00     0.251 C 
ATOM     38  H   UNL     1       4.312  15.983  -2.233  1.00  0.00     0.163 HD
ATOM     39  O   UNL     1       3.554  18.183  -1.520  1.00  0.00    -0.269 OA
BRANCH  37  40
ATOM     40  C   UNL     1       2.117  17.107  -0.012  1.00  0.00     0.039 A 
ATOM     41  C   UNL     1       1.071  18.031  -0.031  1.00  0.00     0.014 A 
ATOM     42  C   UNL     1       2.229  16.186   1.034  1.00  0.00     0.014 A 
ATOM     43  C   UNL     1       0.105  17.996   0.975  1.00  0.00     0.010 A 
ATOM     44  C   UNL     1       1.223  16.101   1.989  1.00  0.00     0.010 A 
ATOM     45  C   UNL     1       0.155  17.010   1.974  1.00  0.00    -0.014 A 
BRANCH  45  46
ATOM     46  C   UNL     1      -0.899  16.914   3.013  1.00  0.00     0.031 A 
ATOM     47  C   UNL     1      -0.554  17.122   4.462  1.00  0.00     0.074 A 
ATOM     48  C   UNL     1      -2.155  16.581   2.657  1.00  0.00     0.049 A 
ATOM     49  N   UNL     1      -1.326  17.027   5.516  1.00  0.00    -0.248 NA
ATOM     50  C   UNL     1       0.846  17.455   4.771  1.00  0.00     0.031 C 
ATOM     51  C   UNL     1      -2.608  16.319   1.289  1.00  0.00     0.029 A 
ATOM     52  N   UNL     1      -3.282  16.401   3.420  1.00  0.00    -0.354 N 
ATOM     53  C   UNL     1      -0.504  17.275   6.608  1.00  0.00     0.074 A 
ATOM     54  C   UNL     1       0.834  17.468   6.096  1.00  0.00     0.031 C 
ATOM     55  C   UNL     1      -3.922  16.044   1.307  1.00  0.00     0.029 A 
ATOM     56  C   UNL     1      -4.393  16.062   2.687  1.00  0.00     0.049 A 
ATOM     57  H   UNL     1      -3.292  16.506   4.399  1.00  0.00     0.167 HD
ATOM     58  C   UNL     1      -0.837  17.355   7.918  1.00  0.00     0.031 A 
ATOM     59  C   UNL     1      -5.650  15.787   3.083  1.00  0.00     0.031 A 
ATOM     60  C   UNL     1      -2.170  17.163   8.425  1.00  0.00     0.049 A 
ATOM     61  C   UNL     1      -5.986  15.849   4.548  1.00  0.00     0.074 A 
ATOM     62  C   UNL     1      -2.619  17.273   9.729  1.00  0.00     0.029 A 
ATOM     63  N   UNL     1      -3.266  16.816   7.651  1.00  0.00    -0.354 N 
ATOM     64  N   UNL     1      -5.213  16.154   5.562  1.00  0.00    -0.248 NA
ATOM     65  C   UNL     1      -7.373  15.540   4.920  1.00  0.00     0.031 C 
ATOM     66  C   UNL     1      -3.974  16.928   9.754  1.00  0.00     0.029 A 
ATOM     67  C   UNL     1      -4.385  16.675   8.455  1.00  0.00     0.049 A 
ATOM     68  H   UNL     1      -3.252  16.688   6.675  1.00  0.00     0.167 HD
ATOM     69  C   UNL     1      -6.026  16.104   6.687  1.00  0.00     0.074 A 
ATOM     70  C   UNL     1      -7.355  15.757   6.228  1.00  0.00     0.031 C 
ATOM     71  C   UNL     1      -5.701  16.328   7.984  1.00  0.00     0.031 A 
BRANCH  58  72
ATOM     72  C   UNL     1       0.266  17.650   8.898  1.00  0.00    -0.014 A 
ATOM     73  C   UNL     1       0.900  18.904   8.929  1.00  0.00     0.009 A 
ATOM     74  C   UNL     1       0.653  16.673   9.828  1.00  0.00     0.009 A 
ATOM     75  C   UNL     1       1.924  19.157   9.844  1.00  0.00     0.001 A 
ATOM     76  C   UNL     1       1.654  16.941  10.764  1.00  0.00     0.001 A 
ATOM     77  C   UNL     1       2.296  18.178  10.764  1.00  0.00     0.000 A 
ENDBRANCH  58  72
BRANCH  59  78
ATOM     78  C   UNL     1      -6.689  15.433   2.080  1.00  0.00    -0.014 A 
ATOM     79  C   UNL     1      -7.760  16.303   1.824  1.00  0.00     0.009 A 
ATOM     80  C   UNL     1      -6.622  14.218   1.380  1.00  0.00     0.009 A 
ATOM     81  C   UNL     1      -8.758  15.950   0.912  1.00  0.00     0.001 A 
ATOM     82  C   UNL     1      -7.603  13.883   0.444  1.00  0.00     0.001 A 
ATOM     83  C   UNL     1      -8.677  14.743   0.220  1.00  0.00     0.000 A 
ENDBRANCH  59  78
BRANCH  71  84
ATOM     84  C   UNL     1      -6.810  16.244   8.996  1.00  0.00    -0.014 A 
ATOM     85  C   UNL     1      -7.398  15.018   9.342  1.00  0.00     0.009 A 
ATOM     86  C   UNL     1      -7.243  17.412   9.645  1.00  0.00     0.009 A 
ATOM     87  C   UNL     1      -8.421  14.969  10.292  1.00  0.00     0.001 A 
ATOM     88  C   UNL     1      -8.241  17.355  10.618  1.00  0.00     0.001 A 
ATOM     89  C   UNL     1      -8.837  16.135  10.933  1.00  0.00     0.000 A 
ENDBRANCH  71  84
ENDBRANCH  45  46
ENDBRANCH  37  40
ENDBRANCH  35  36
ENDBRANCH  34  35
ENDBRANCH  33  34
ENDBRANCH   1  33
TORSDOF 17
