REMARK SMILES Cc1ccccc1NC(=S)NN1C(=O)CS[C@H]1c1ccccc1C(=O)NCCCCCCNC(=O)c1ccc(-c2c3nc(c(-c4ccccc4)c4ccc([nH]4)c(-c4ccccc4)c4nc(c(-c5ccccc5)c5ccc2[nH]5)C=C4)C=C3)cc1
REMARK SMILES IDX 28 1 27 2 26 3 24 4 25 5 23 7 18 8 19 9 20 10 22 11 21 12
REMARK SMILES IDX 17 13 12 14 13 15 14 16 15 17 16 18 11 19 9 21 10 22 8 23
REMARK SMILES IDX 7 25 1 26 2 27 3 28 4 29 6 30 5 31 29 32 30 33 31 34 32 35
REMARK SMILES IDX 33 36 34 37 35 39 36 40 37 41 83 42 38 43 82 44 39 45 40 46
REMARK SMILES IDX 41 47 76 48 42 49 81 50 75 51 77 52 43 53 80 54 74 55 73 56
REMARK SMILES IDX 44 58 66 59 51 60 65 61 52 62 55 63 64 64 78 65 53 66 54 67
REMARK SMILES IDX 63 69 79 70 56 71 45 72 46 73 50 74 47 75 49 76 48 77 67 78
REMARK SMILES IDX 68 79 72 80 69 81 71 82 70 83 57 84 58 85 62 86 59 87 61 88
REMARK SMILES IDX 60 89
REMARK H PARENT 26 6 11 20 8 24 33 38 77 57 55 68
REMARK Flexibility Score: inf
ROOT
ATOM      1  C   UNL     1      -0.378   1.762  -1.762  1.00  0.00     0.021 C 
ENDROOT
BRANCH   1   2
ATOM      2  C   UNL     1      -0.414   3.247  -1.234  1.00  0.00     0.116 C 
BRANCH   2   3
ATOM      3  N   UNL     1      -1.454   4.236  -1.699  1.00  0.00    -0.352 N 
ATOM      4  C   UNL     1      -1.730   5.415  -0.952  1.00  0.00     0.251 C 
ATOM      5  O   UNL     1      -0.839   6.265  -0.880  1.00  0.00    -0.269 OA
ATOM      6  H   UNL     1      -1.950   4.062  -2.532  1.00  0.00     0.163 HD
BRANCH   4   7
ATOM      7  C   UNL     1      -3.136   5.809  -0.412  1.00  0.00     0.046 A 
ATOM      8  C   UNL     1      -4.167   4.984   0.089  1.00  0.00    -0.001 A 
ATOM      9  C   UNL     1      -5.459   5.527   0.380  1.00  0.00     0.007 A 
ATOM     10  C   UNL     1      -5.736   6.875   0.266  1.00  0.00     0.000 A 
ATOM     11  C   UNL     1      -3.434   7.193  -0.432  1.00  0.00     0.014 A 
ATOM     12  C   UNL     1      -4.707   7.715  -0.109  1.00  0.00     0.001 A 
BRANCH   8  13
ATOM     13  C   UNL     1      -4.106   3.511   0.043  1.00  0.00     0.197 C 
ATOM     14  N   UNL     1      -2.857   2.814   0.147  1.00  0.00    -0.236 N 
ATOM     15  C   UNL     1      -3.326   1.610  -0.483  1.00  0.00     0.252 C 
ATOM     16  O   UNL     1      -3.287   1.391  -1.694  1.00  0.00    -0.272 OA
ATOM     17  C   UNL     1      -4.416   0.973   0.353  1.00  0.00     0.174 C 
ATOM     18  S   UNL     1      -5.216   2.447   1.061  1.00  0.00    -0.120 SA
BRANCH  14  19
ATOM     19  N   UNL     1      -2.213   2.848   1.618  1.00  0.00    -0.270 N 
ATOM     20  H   UNL     1      -2.802   2.598   2.367  1.00  0.00     0.191 HD
BRANCH  19  21
ATOM     21  C   UNL     1      -0.895   3.200   1.937  1.00  0.00     0.189 C 
ATOM     22  S   UNL     1      -0.638   4.667   2.720  1.00  0.00    -0.039 S 
BRANCH  21  23
ATOM     23  N   UNL     1       0.228   2.408   1.751  1.00  0.00    -0.331 N 
ATOM     24  H   UNL     1       1.047   2.761   2.167  1.00  0.00     0.169 HD
BRANCH  23  25
ATOM     25  C   UNL     1       0.404   1.185   1.071  1.00  0.00     0.043 A 
ATOM     26  C   UNL     1       3.337   0.965   0.977  1.00  0.00     0.046 C 
ATOM     27  C   UNL     1       1.985   0.405   0.660  1.00  0.00    -0.028 A 
ATOM     28  C   UNL     1       2.026  -0.957  -0.543  1.00  0.00     0.005 A 
ATOM     29  C   UNL     1       0.499  -1.582  -1.265  1.00  0.00     0.000 A 
ATOM     30  C   UNL     1      -1.076   0.489   0.393  1.00  0.00     0.026 A 
ATOM     31  C   UNL     1      -1.052  -0.812  -0.832  1.00  0.00     0.002 A 
ENDBRANCH  23  25
ENDBRANCH  21  23
ENDBRANCH  19  21
ENDBRANCH  14  19
ENDBRANCH   8  13
ENDBRANCH   4   7
ENDBRANCH   2   3
ENDBRANCH   1   2
BRANCH   1  32
ATOM     32  C   UNL     1       0.557   0.509  -0.908  1.00  0.00     0.002 C 
BRANCH  32  33
ATOM     33  C   UNL     1       0.346  -0.936   0.717  1.00  0.00     0.002 C 
BRANCH  33  34
ATOM     34  C   UNL     1      -0.757  -2.232   1.197  1.00  0.00     0.021 C 
BRANCH  34  35
ATOM     35  C   UNL     1      -1.145  -3.488   0.401  1.00  0.00     0.116 C 
BRANCH  35  36
ATOM     36  N   UNL     1      -0.091  -4.404  -0.030  1.00  0.00    -0.352 N 
ATOM     37  C   UNL     1      -0.378  -5.692  -0.504  1.00  0.00     0.251 C 
ATOM     38  H   UNL     1       0.847  -4.108   0.014  1.00  0.00     0.163 HD
ATOM     39  O   UNL     1      -0.080  -6.726   0.070  1.00  0.00    -0.269 OA
BRANCH  37  40
ATOM     40  C   UNL     1      -0.849  -5.709  -1.909  1.00  0.00     0.039 A 
ATOM     41  C   UNL     1      -0.045  -6.255  -2.916  1.00  0.00     0.014 A 
ATOM     42  C   UNL     1      -1.859  -4.806  -2.204  1.00  0.00     0.014 A 
ATOM     43  C   UNL     1      -0.113  -5.692  -4.183  1.00  0.00     0.010 A 
ATOM     44  C   UNL     1      -1.754  -4.088  -3.354  1.00  0.00     0.010 A 
ATOM     45  C   UNL     1      -0.880  -4.537  -4.339  1.00  0.00    -0.014 A 
BRANCH  45  46
ATOM     46  C   UNL     1      -1.096  -3.858  -5.593  1.00  0.00     0.031 A 
ATOM     47  C   UNL     1      -2.171  -4.471  -6.393  1.00  0.00     0.074 A 
ATOM     48  C   UNL     1      -0.432  -2.705  -5.819  1.00  0.00     0.049 A 
ATOM     49  N   UNL     1      -2.148  -4.622  -7.664  1.00  0.00    -0.248 NA
ATOM     50  C   UNL     1      -3.340  -5.127  -5.777  1.00  0.00     0.031 C 
ATOM     51  C   UNL     1      -0.594  -1.717  -6.876  1.00  0.00     0.029 A 
ATOM     52  N   UNL     1       0.743  -2.303  -5.168  1.00  0.00    -0.354 N 
ATOM     53  C   UNL     1      -3.441  -4.949  -8.021  1.00  0.00     0.074 A 
ATOM     54  C   UNL     1      -4.057  -5.485  -6.843  1.00  0.00     0.031 C 
ATOM     55  C   UNL     1       0.582  -1.076  -7.043  1.00  0.00     0.029 A 
ATOM     56  C   UNL     1       1.551  -1.707  -6.158  1.00  0.00     0.049 A 
ATOM     57  H   UNL     1       0.960  -2.414  -4.214  1.00  0.00     0.167 HD
ATOM     58  C   UNL     1      -3.936  -4.452  -9.185  1.00  0.00     0.031 A 
ATOM     59  C   UNL     1       2.690  -2.346  -6.562  1.00  0.00     0.031 A 
ATOM     60  C   UNL     1      -2.913  -3.632  -9.827  1.00  0.00     0.049 A 
ATOM     61  C   UNL     1       2.559  -2.860  -7.971  1.00  0.00     0.074 A 
ATOM     62  C   UNL     1      -2.687  -2.265  -9.817  1.00  0.00     0.029 A 
ATOM     63  N   UNL     1      -1.714  -4.229 -10.180  1.00  0.00    -0.354 N 
ATOM     64  N   UNL     1       1.421  -3.168  -8.533  1.00  0.00    -0.248 NA
ATOM     65  C   UNL     1       3.693  -2.981  -8.877  1.00  0.00     0.031 C 
ATOM     66  C   UNL     1      -1.314  -2.054 -10.128  1.00  0.00     0.029 A 
ATOM     67  C   UNL     1      -0.718  -3.287 -10.332  1.00  0.00     0.049 A 
ATOM     68  H   UNL     1      -1.589  -5.198 -10.306  1.00  0.00     0.167 HD
ATOM     69  C   UNL     1       1.633  -3.442  -9.858  1.00  0.00     0.074 A 
ATOM     70  C   UNL     1       3.072  -3.321 -10.019  1.00  0.00     0.031 C 
ATOM     71  C   UNL     1       0.616  -3.717 -10.729  1.00  0.00     0.031 A 
BRANCH  58  72
ATOM     72  C   UNL     1      -5.391  -4.414  -9.569  1.00  0.00    -0.014 A 
ATOM     73  C   UNL     1      -5.804  -3.478 -10.535  1.00  0.00     0.009 A 
ATOM     74  C   UNL     1      -6.396  -5.248  -9.046  1.00  0.00     0.009 A 
ATOM     75  C   UNL     1      -7.140  -3.353 -10.932  1.00  0.00     0.001 A 
ATOM     76  C   UNL     1      -7.741  -5.115  -9.426  1.00  0.00     0.001 A 
ATOM     77  C   UNL     1      -8.112  -4.168 -10.371  1.00  0.00     0.000 A 
ENDBRANCH  58  72
BRANCH  59  78
ATOM     78  C   UNL     1       3.384  -3.025  -5.428  1.00  0.00    -0.014 A 
ATOM     79  C   UNL     1       3.904  -2.182  -4.427  1.00  0.00     0.009 A 
ATOM     80  C   UNL     1       3.095  -4.355  -5.095  1.00  0.00     0.009 A 
ATOM     81  C   UNL     1       3.916  -2.591  -3.093  1.00  0.00     0.001 A 
ATOM     82  C   UNL     1       3.111  -4.755  -3.750  1.00  0.00     0.001 A 
ATOM     83  C   UNL     1       3.448  -3.853  -2.744  1.00  0.00     0.000 A 
ENDBRANCH  59  78
BRANCH  71  84
ATOM     84  C   UNL     1       0.759  -4.390 -12.079  1.00  0.00    -0.014 A 
ATOM     85  C   UNL     1       1.949  -4.922 -12.580  1.00  0.00     0.009 A 
ATOM     86  C   UNL     1      -0.400  -4.626 -12.859  1.00  0.00     0.009 A 
ATOM     87  C   UNL     1       1.992  -5.597 -13.806  1.00  0.00     0.001 A 
ATOM     88  C   UNL     1      -0.379  -5.369 -14.038  1.00  0.00     0.001 A 
ATOM     89  C   UNL     1       0.827  -5.836 -14.525  1.00  0.00     0.000 A 
ENDBRANCH  71  84
ENDBRANCH  45  46
ENDBRANCH  37  40
ENDBRANCH  35  36
ENDBRANCH  34  35
ENDBRANCH  33  34
ENDBRANCH  32  33
ENDBRANCH   1  32
TORSDOF 18
