REMARK SMILES O=C(NCCCCCCNC(=O)c1ccc2nc(-c3c[nH]nc3-c3ccc(F)cc3F)[nH]c2c1)c1ccc(-c2c3nc(c(-c4ccccc4)c4ccc([nH]4)c(-c4ccccc4)c4nc(c(-c5ccccc5)c5ccc2[nH]5)C=C4)C=C3)cc1
REMARK SMILES IDX 6 1 5 2 4 3 3 4 1 5 2 6 35 8 36 9 82 10 37 11 81 12 38 13
REMARK SMILES IDX 39 14 40 15 75 16 41 17 80 18 74 19 76 20 42 21 79 22 73 23
REMARK SMILES IDX 72 24 43 26 65 27 50 28 64 29 51 30 54 31 63 32 77 33 52 34
REMARK SMILES IDX 53 35 62 37 78 38 55 39 44 40 45 41 49 42 46 43 48 44 47 45
REMARK SMILES IDX 66 46 67 47 71 48 68 49 70 50 69 51 56 52 57 53 61 54 58 55
REMARK SMILES IDX 60 56 59 57 7 58 8 59 9 60 10 61 11 62 12 64 13 65 14 66
REMARK SMILES IDX 34 67 15 68 33 69 16 70 32 71 17 72 18 73 19 75 20 76 23 77
REMARK SMILES IDX 21 78 22 79 24 81 25 82 30 83 26 84 29 85 31 86 27 87 28 88
REMARK H PARENT 3 7 76 25 54 36 10 63 32 74 21 80
REMARK Flexibility Score: inf
ROOT
ATOM      1  C   UNL     1       4.280   2.984   2.398  1.00  0.00     0.002 C 
ENDROOT
BRANCH   1   2
ATOM      2  C   UNL     1       4.759   2.343   1.096  1.00  0.00     0.021 C 
BRANCH   2   3
ATOM      3  C   UNL     1       4.481   0.851   0.993  1.00  0.00     0.116 C 
BRANCH   3   4
ATOM      4  N   UNL     1       3.057   0.561   0.961  1.00  0.00    -0.352 N 
ATOM      5  O   UNL     1       1.119  -0.131   0.027  1.00  0.00    -0.269 OA
ATOM      6  C   UNL     1       2.348  -0.132   0.015  1.00  0.00     0.251 C 
ATOM      7  H   UNL     1       2.533   0.908   1.719  1.00  0.00     0.163 HD
BRANCH   6   8
ATOM      8  C   UNL     1       3.077  -0.878  -1.030  1.00  0.00     0.039 A 
ATOM      9  C   UNL     1       4.163  -1.689  -0.686  1.00  0.00     0.014 A 
ATOM     10  C   UNL     1       2.660  -0.779  -2.359  1.00  0.00     0.014 A 
ATOM     11  C   UNL     1       4.895  -2.322  -1.682  1.00  0.00     0.010 A 
ATOM     12  C   UNL     1       3.345  -1.486  -3.350  1.00  0.00     0.010 A 
ATOM     13  C   UNL     1       4.468  -2.260  -3.018  1.00  0.00    -0.014 A 
BRANCH  13  14
ATOM     14  C   UNL     1       5.117  -3.130  -4.026  1.00  0.00     0.031 A 
ATOM     15  C   UNL     1       5.877  -2.558  -5.186  1.00  0.00     0.074 A 
ATOM     16  C   UNL     1       4.984  -4.464  -3.884  1.00  0.00     0.049 A 
ATOM     17  N   UNL     1       6.462  -3.191  -6.171  1.00  0.00    -0.248 NA
ATOM     18  C   UNL     1       5.994  -1.093  -5.260  1.00  0.00     0.031 C 
ATOM     19  C   UNL     1       4.255  -5.128  -2.798  1.00  0.00     0.029 A 
ATOM     20  N   UNL     1       5.450  -5.501  -4.650  1.00  0.00    -0.354 N 
ATOM     21  C   UNL     1       6.994  -2.207  -6.994  1.00  0.00     0.074 A 
ATOM     22  C   UNL     1       6.656  -0.932  -6.399  1.00  0.00     0.031 C 
ATOM     23  C   UNL     1       4.344  -6.456  -2.954  1.00  0.00     0.029 A 
ATOM     24  C   UNL     1       5.065  -6.737  -4.187  1.00  0.00     0.049 A 
ATOM     25  H   UNL     1       6.006  -5.373  -5.452  1.00  0.00     0.167 HD
ATOM     26  C   UNL     1       7.694  -2.363  -8.143  1.00  0.00     0.031 A 
ATOM     27  C   UNL     1       5.233  -7.961  -4.718  1.00  0.00     0.031 A 
ATOM     28  C   UNL     1       8.024  -3.639  -8.723  1.00  0.00     0.049 A 
ATOM     29  C   UNL     1       5.966  -8.089  -6.020  1.00  0.00     0.074 A 
ATOM     30  C   UNL     1       8.789  -3.899  -9.848  1.00  0.00     0.029 A 
ATOM     31  N   UNL     1       7.594  -4.865  -8.239  1.00  0.00    -0.354 N 
ATOM     32  N   UNL     1       6.535  -7.154  -6.741  1.00  0.00    -0.248 NA
ATOM     33  C   UNL     1       6.075  -9.440  -6.587  1.00  0.00     0.031 C 
ATOM     34  C   UNL     1       8.757  -5.275 -10.088  1.00  0.00     0.029 A 
ATOM     35  C   UNL     1       8.031  -5.880  -9.075  1.00  0.00     0.049 A 
ATOM     36  H   UNL     1       7.058  -4.995  -7.424  1.00  0.00     0.167 HD
ATOM     37  C   UNL     1       7.079  -7.804  -7.839  1.00  0.00     0.074 A 
ATOM     38  C   UNL     1       6.801  -9.216  -7.672  1.00  0.00     0.031 C 
ATOM     39  C   UNL     1       7.741  -7.278  -8.897  1.00  0.00     0.031 A 
BRANCH  26  40
ATOM     40  C   UNL     1       8.128  -1.130  -8.886  1.00  0.00    -0.014 A 
ATOM     41  C   UNL     1       9.176  -0.321  -8.420  1.00  0.00     0.009 A 
ATOM     42  C   UNL     1       7.544  -0.834 -10.129  1.00  0.00     0.009 A 
ATOM     43  C   UNL     1       9.619   0.766  -9.179  1.00  0.00     0.001 A 
ATOM     44  C   UNL     1       8.005   0.237 -10.896  1.00  0.00     0.001 A 
ATOM     45  C   UNL     1       9.040   1.038 -10.418  1.00  0.00     0.000 A 
ENDBRANCH  26  40
BRANCH  27  46
ATOM     46  C   UNL     1       4.639  -9.151  -4.053  1.00  0.00    -0.014 A 
ATOM     47  C   UNL     1       5.453 -10.159  -3.518  1.00  0.00     0.009 A 
ATOM     48  C   UNL     1       3.243  -9.291  -3.971  1.00  0.00     0.009 A 
ATOM     49  C   UNL     1       4.882 -11.300  -2.949  1.00  0.00     0.001 A 
ATOM     50  C   UNL     1       2.675 -10.414  -3.367  1.00  0.00     0.001 A 
ATOM     51  C   UNL     1       3.495 -11.424  -2.870  1.00  0.00     0.000 A 
ENDBRANCH  27  46
BRANCH  39  52
ATOM     52  C   UNL     1       8.223  -8.237  -9.947  1.00  0.00    -0.014 A 
ATOM     53  C   UNL     1       7.323  -8.860 -10.826  1.00  0.00     0.009 A 
ATOM     54  C   UNL     1       9.597  -8.482 -10.090  1.00  0.00     0.009 A 
ATOM     55  C   UNL     1       7.789  -9.732 -11.811  1.00  0.00     0.001 A 
ATOM     56  C   UNL     1      10.062  -9.329 -11.096  1.00  0.00     0.001 A 
ATOM     57  C   UNL     1       9.158  -9.959 -11.950  1.00  0.00     0.000 A 
ENDBRANCH  39  52
ENDBRANCH  13  14
ENDBRANCH   6   8
ENDBRANCH   3   4
ENDBRANCH   2   3
ENDBRANCH   1   2
BRANCH   1  58
ATOM     58  C   UNL     1       4.825   2.337   3.675  1.00  0.00     0.002 C 
BRANCH  58  59
ATOM     59  C   UNL     1       6.351   2.219   3.744  1.00  0.00     0.021 C 
BRANCH  59  60
ATOM     60  C   UNL     1       7.097   3.536   3.549  1.00  0.00     0.116 C 
BRANCH  60  61
ATOM     61  N   UNL     1       6.765   4.492   4.590  1.00  0.00    -0.352 N 
ATOM     62  C   UNL     1       7.605   5.101   5.484  1.00  0.00     0.251 C 
ATOM     63  H   UNL     1       5.814   4.732   4.664  1.00  0.00     0.163 HD
ATOM     64  O   UNL     1       7.163   5.721   6.445  1.00  0.00    -0.269 OA
BRANCH  62  65
ATOM     65  C   UNL     1       9.061   4.995   5.282  1.00  0.00     0.042 A 
ATOM     66  C   UNL     1       9.630   5.439   4.080  1.00  0.00     0.016 A 
ATOM     67  C   UNL     1       9.834   4.457   6.322  1.00  0.00     0.042 A 
ATOM     68  C   UNL     1      11.009   5.355   3.878  1.00  0.00     0.031 A 
ATOM     69  C   UNL     1      11.204   4.365   6.076  1.00  0.00     0.067 A 
ATOM     70  C   UNL     1      11.801   4.832   4.910  1.00  0.00     0.089 A 
ATOM     71  N   UNL     1      12.249   3.861   6.810  1.00  0.00    -0.338 N 
ATOM     72  N   UNL     1      13.160   4.723   4.984  1.00  0.00    -0.228 NA
ATOM     73  C   UNL     1      13.409   4.141   6.137  1.00  0.00     0.142 A 
ATOM     74  H   UNL     1      12.177   3.382   7.667  1.00  0.00     0.168 HD
BRANCH  73  75
ATOM     75  C   UNL     1      14.773   3.893   6.645  1.00  0.00     0.063 A 
ATOM     76  C   UNL     1      15.183   2.845   7.432  1.00  0.00     0.117 A 
ATOM     77  C   UNL     1      15.924   4.701   6.436  1.00  0.00     0.106 A 
ATOM     78  N   UNL     1      16.531   3.013   7.571  1.00  0.00    -0.284 N 
ATOM     79  N   UNL     1      16.996   4.150   7.030  1.00  0.00    -0.175 NA
ATOM     80  H   UNL     1      17.109   2.359   8.026  1.00  0.00     0.189 HD
BRANCH  77  81
ATOM     81  C   UNL     1      15.974   6.028   5.835  1.00  0.00     0.039 A 
ATOM     82  C   UNL     1      15.155   7.049   6.353  1.00  0.00     0.016 A 
ATOM     83  C   UNL     1      16.803   6.312   4.748  1.00  0.00     0.135 A 
ATOM     84  C   UNL     1      15.164   8.321   5.780  1.00  0.00     0.040 A 
ATOM     85  C   UNL     1      16.819   7.583   4.176  1.00  0.00     0.079 A 
ATOM     86  F   UNL     1      17.586   5.364   4.211  1.00  0.00    -0.206 F 
ATOM     87  C   UNL     1      15.996   8.575   4.697  1.00  0.00     0.126 A 
ATOM     88  F   UNL     1      16.003   9.796   4.147  1.00  0.00    -0.207 F 
ENDBRANCH  77  81
ENDBRANCH  73  75
ENDBRANCH  62  65
ENDBRANCH  60  61
ENDBRANCH  59  60
ENDBRANCH  58  59
ENDBRANCH   1  58
TORSDOF 15
