REMARK SMILES O=C(C[C@@H]([NH2+]Cc1cccnc1)C(=O)NCCCCCCNC(=O)c1ccc(-c2c3nc(c(-c4ccccc4)c4ccc([nH]4)c(-c4ccccc4)c4nc(c(-c5ccccc5)c5ccc2[nH]5)C=C4)C=C3)cc1)Nc1ccc2ccccc2c1
REMARK SMILES IDX 18 1 17 2 16 3 15 4 13 5 14 6 4 8 3 9 2 10 1 11 73 12 74 14
REMARK SMILES IDX 75 15 83 16 76 17 82 18 77 19 81 20 78 21 80 22 79 23 5 24
REMARK SMILES IDX 6 27 7 28 8 29 12 30 9 31 11 32 10 33 19 34 20 35 21 36
REMARK SMILES IDX 22 37 23 38 24 40 25 41 26 42 72 43 27 44 71 45 28 46 29 47
REMARK SMILES IDX 30 48 65 49 31 50 70 51 64 52 66 53 32 54 69 55 63 56 62 57
REMARK SMILES IDX 33 59 55 60 40 61 54 62 41 63 44 64 53 65 67 66 42 67 43 68
REMARK SMILES IDX 52 70 68 71 45 72 34 73 35 74 39 75 36 76 38 77 37 78 56 79
REMARK SMILES IDX 57 80 61 81 58 82 60 83 59 84 46 85 47 86 51 87 48 88 50 89
REMARK SMILES IDX 49 90
REMARK H PARENT 15 7 73 13 5 25 5 26 22 39 66 58 44 69
REMARK Flexibility Score: inf
ROOT
ATOM      1  C   UNL     1       6.387   3.486   3.218  1.00  0.00     0.002 C 
ENDROOT
BRANCH   1   2
ATOM      2  C   UNL     1       5.576   2.876   2.066  1.00  0.00     0.021 C 
BRANCH   2   3
ATOM      3  C   UNL     1       5.989   1.438   1.743  1.00  0.00     0.116 C 
BRANCH   3   4
ATOM      4  N   UNL     1       5.554   0.569   2.814  1.00  0.00    -0.351 N 
ATOM      5  C   UNL     1       4.458  -0.232   2.900  1.00  0.00     0.278 C 
ATOM      6  O   UNL     1       4.216  -0.751   3.994  1.00  0.00    -0.268 OA
ATOM      7  H   UNL     1       6.143   0.554   3.603  1.00  0.00     0.163 HD
BRANCH   5   8
ATOM      8  C   UNL     1       3.616  -0.598   1.661  1.00  0.00     0.282 C 
BRANCH   8   9
ATOM      9  C   UNL     1       2.917   0.632   1.043  1.00  0.00     0.175 C 
BRANCH   9  10
ATOM     10  C   UNL     1       2.064   0.313  -0.171  1.00  0.00     0.230 C 
ATOM     11  O   UNL     1       0.852   0.492  -0.173  1.00  0.00    -0.274 OA
ATOM     12  N   UNL     1       2.816  -0.209  -1.209  1.00  0.00    -0.326 N 
ATOM     13  H   UNL     1       3.797  -0.161  -1.136  1.00  0.00     0.169 HD
BRANCH  12  14
ATOM     14  C   UNL     1       2.273  -0.799  -2.357  1.00  0.00     0.041 A 
ATOM     15  C   UNL     1       2.770  -2.051  -2.720  1.00  0.00     0.027 A 
ATOM     16  C   UNL     1       1.291  -0.183  -3.132  1.00  0.00     0.034 A 
ATOM     17  C   UNL     1       2.206  -2.741  -3.789  1.00  0.00     0.011 A 
ATOM     18  C   UNL     1       0.815  -0.814  -4.297  1.00  0.00    -0.016 A 
ATOM     19  C   UNL     1       1.233  -2.134  -4.590  1.00  0.00    -0.018 A 
ATOM     20  C   UNL     1      -0.047  -0.165  -5.198  1.00  0.00     0.009 A 
ATOM     21  C   UNL     1       0.696  -2.806  -5.696  1.00  0.00     0.009 A 
ATOM     22  C   UNL     1      -0.507  -0.820  -6.344  1.00  0.00     0.001 A 
ATOM     23  C   UNL     1      -0.162  -2.148  -6.575  1.00  0.00     0.001 A 
ENDBRANCH  12  14
ENDBRANCH   9  10
ENDBRANCH   8   9
BRANCH   8  24
ATOM     24  N   UNL     1       4.406  -1.427   0.694  1.00  0.00    -0.332 N 
ATOM     25  H   UNL     1       4.996  -0.797   0.151  1.00  0.00     0.347 HD
ATOM     26  H   UNL     1       3.717  -1.934   0.138  1.00  0.00     0.347 HD
BRANCH  24  27
ATOM     27  C   UNL     1       5.277  -2.462   1.291  1.00  0.00     0.299 C 
BRANCH  27  28
ATOM     28  C   UNL     1       4.650  -3.819   1.499  1.00  0.00     0.024 A 
ATOM     29  C   UNL     1       5.375  -4.979   1.193  1.00  0.00     0.013 A 
ATOM     30  C   UNL     1       3.398  -4.014   2.072  1.00  0.00     0.120 A 
ATOM     31  C   UNL     1       4.821  -6.238   1.421  1.00  0.00     0.021 A 
ATOM     32  N   UNL     1       2.823  -5.222   2.282  1.00  0.00    -0.264 NA
ATOM     33  C   UNL     1       3.547  -6.307   1.951  1.00  0.00     0.111 A 
ENDBRANCH  27  28
ENDBRANCH  24  27
ENDBRANCH   8  24
ENDBRANCH   5   8
ENDBRANCH   3   4
ENDBRANCH   2   3
ENDBRANCH   1   2
BRANCH   1  34
ATOM     34  C   UNL     1       7.898   3.537   2.971  1.00  0.00     0.002 C 
BRANCH  34  35
ATOM     35  C   UNL     1       8.301   4.226   1.666  1.00  0.00     0.021 C 
BRANCH  35  36
ATOM     36  C   UNL     1       7.825   5.669   1.560  1.00  0.00     0.116 C 
BRANCH  36  37
ATOM     37  N   UNL     1       8.434   6.511   2.577  1.00  0.00    -0.352 N 
ATOM     38  C   UNL     1       9.157   7.666   2.421  1.00  0.00     0.251 C 
ATOM     39  H   UNL     1       8.310   6.209   3.506  1.00  0.00     0.163 HD
ATOM     40  O   UNL     1       9.799   8.130   3.353  1.00  0.00    -0.269 OA
BRANCH  38  41
ATOM     41  C   UNL     1       9.165   8.337   1.105  1.00  0.00     0.039 A 
ATOM     42  C   UNL     1      10.378   8.791   0.584  1.00  0.00     0.014 A 
ATOM     43  C   UNL     1       7.977   8.508   0.388  1.00  0.00     0.014 A 
ATOM     44  C   UNL     1      10.407   9.369  -0.685  1.00  0.00     0.010 A 
ATOM     45  C   UNL     1       8.020   9.009  -0.908  1.00  0.00     0.010 A 
ATOM     46  C   UNL     1       9.234   9.452  -1.454  1.00  0.00    -0.014 A 
BRANCH  46  47
ATOM     47  C   UNL     1       9.256  10.004  -2.831  1.00  0.00     0.031 A 
ATOM     48  C   UNL     1       8.490  11.256  -3.155  1.00  0.00     0.074 A 
ATOM     49  C   UNL     1       9.921   9.347  -3.801  1.00  0.00     0.049 A 
ATOM     50  N   UNL     1       8.352  11.865  -4.306  1.00  0.00    -0.248 NA
ATOM     51  C   UNL     1       7.764  11.896  -2.046  1.00  0.00     0.031 C 
ATOM     52  C   UNL     1      10.677   8.106  -3.620  1.00  0.00     0.029 A 
ATOM     53  N   UNL     1      10.066   9.634  -5.134  1.00  0.00    -0.354 N 
ATOM     54  C   UNL     1       7.519  12.949  -4.061  1.00  0.00     0.074 A 
ATOM     55  C   UNL     1       7.133  12.880  -2.668  1.00  0.00     0.031 C 
ATOM     56  C   UNL     1      11.238   7.760  -4.790  1.00  0.00     0.029 A 
ATOM     57  C   UNL     1      10.842   8.724  -5.811  1.00  0.00     0.049 A 
ATOM     58  H   UNL     1       9.654  10.417  -5.565  1.00  0.00     0.167 HD
ATOM     59  C   UNL     1       7.128  13.928  -4.910  1.00  0.00     0.031 A 
ATOM     60  C   UNL     1      11.191   8.670  -7.110  1.00  0.00     0.031 A 
ATOM     61  C   UNL     1       7.508  13.993  -6.296  1.00  0.00     0.049 A 
ATOM     62  C   UNL     1      10.704   9.743  -8.044  1.00  0.00     0.074 A 
ATOM     63  C   UNL     1       7.198  14.964  -7.232  1.00  0.00     0.029 A 
ATOM     64  N   UNL     1       8.278  13.041  -6.948  1.00  0.00    -0.354 N 
ATOM     65  N   UNL     1       9.969  10.796  -7.784  1.00  0.00    -0.248 NA
ATOM     66  C   UNL     1      11.105   9.621  -9.453  1.00  0.00     0.031 C 
ATOM     67  C   UNL     1       7.728  14.569  -8.464  1.00  0.00     0.029 A 
ATOM     68  C   UNL     1       8.429  13.387  -8.280  1.00  0.00     0.049 A 
ATOM     69  H   UNL     1       8.661  12.239  -6.526  1.00  0.00     0.167 HD
ATOM     70  C   UNL     1       9.847  11.481  -8.986  1.00  0.00     0.074 A 
ATOM     71  C   UNL     1      10.598  10.730  -9.972  1.00  0.00     0.031 C 
ATOM     72  C   UNL     1       9.177  12.629  -9.250  1.00  0.00     0.031 A 
BRANCH  59  73
ATOM     73  C   UNL     1       6.230  15.002  -4.358  1.00  0.00    -0.014 A 
ATOM     74  C   UNL     1       6.695  15.923  -3.404  1.00  0.00     0.009 A 
ATOM     75  C   UNL     1       4.906  15.109  -4.811  1.00  0.00     0.009 A 
ATOM     76  C   UNL     1       5.840  16.897  -2.883  1.00  0.00     0.001 A 
ATOM     77  C   UNL     1       4.064  16.106  -4.314  1.00  0.00     0.001 A 
ATOM     78  C   UNL     1       4.527  16.991  -3.342  1.00  0.00     0.000 A 
ENDBRANCH  59  73
BRANCH  60  79
ATOM     79  C   UNL     1      12.062   7.572  -7.604  1.00  0.00    -0.014 A 
ATOM     80  C   UNL     1      13.374   7.840  -8.026  1.00  0.00     0.009 A 
ATOM     81  C   UNL     1      11.588   6.252  -7.667  1.00  0.00     0.009 A 
ATOM     82  C   UNL     1      14.181   6.816  -8.528  1.00  0.00     0.001 A 
ATOM     83  C   UNL     1      12.408   5.225  -8.139  1.00  0.00     0.001 A 
ATOM     84  C   UNL     1      13.699   5.510  -8.580  1.00  0.00     0.000 A 
ENDBRANCH  60  79
BRANCH  72  85
ATOM     85  C   UNL     1       9.260  13.167 -10.652  1.00  0.00    -0.014 A 
ATOM     86  C   UNL     1       8.616  12.529 -11.723  1.00  0.00     0.009 A 
ATOM     87  C   UNL     1       9.966  14.356 -10.896  1.00  0.00     0.009 A 
ATOM     88  C   UNL     1       8.709  13.050 -13.015  1.00  0.00     0.001 A 
ATOM     89  C   UNL     1      10.029  14.894 -12.182  1.00  0.00     0.001 A 
ATOM     90  C   UNL     1       9.410  14.234 -13.242  1.00  0.00     0.000 A 
ENDBRANCH  72  85
ENDBRANCH  46  47
ENDBRANCH  38  41
ENDBRANCH  36  37
ENDBRANCH  35  36
ENDBRANCH  34  35
ENDBRANCH   1  34
TORSDOF 19
