REMARK SMILES Cc1cc(C)n(CC(=O)N[C@@H]2C(=O)N3C(C(=O)NCCCCCCNC(=O)c4ccc(-c5c6nc(c(-c7ccccc7)c7ccc([nH]7)c(-c7ccccc7)c7nc(c(-c8ccccc8)c8ccc5[nH]8)C=C7)C=C6)cc4)=C(CSc4nnc(C)s4)CS[C@H]23)n1
REMARK SMILES IDX 21 1 20 2 19 3 18 4 16 5 17 6 15 8 11 9 12 10 87 11 13 12
REMARK SMILES IDX 14 13 86 14 85 15 76 16 10 17 8 18 9 19 7 21 6 22 1 23 2 24
REMARK SMILES IDX 3 25 88 26 4 27 5 28 77 29 78 30 79 31 80 32 84 33 81 34
REMARK SMILES IDX 82 35 83 36 22 37 23 38 24 39 25 40 26 41 27 43 28 44 29 45
REMARK SMILES IDX 75 46 30 47 74 48 31 49 32 50 33 51 68 52 34 53 73 54 67 55
REMARK SMILES IDX 69 56 35 57 72 58 66 59 65 60 36 62 58 63 43 64 57 65 44 66
REMARK SMILES IDX 47 67 56 68 70 69 45 70 46 71 55 73 71 74 48 75 37 76 38 77
REMARK SMILES IDX 42 78 39 79 41 80 40 81 59 82 60 83 64 84 61 85 63 86 62 87
REMARK SMILES IDX 49 88 50 89 54 90 51 91 53 92 52 93
REMARK H PARENT 18 7 10 20 25 42 69 61 47 72
REMARK Flexibility Score: inf
ROOT
ATOM      1  C   UNL     1       2.480  -5.123  -1.979  1.00  0.00     0.002 C 
ENDROOT
BRANCH   1   2
ATOM      2  C   UNL     1       3.329  -3.850  -2.068  1.00  0.00     0.021 C 
BRANCH   2   3
ATOM      3  C   UNL     1       2.868  -2.828  -3.117  1.00  0.00     0.116 C 
BRANCH   3   4
ATOM      4  N   UNL     1       2.007  -1.831  -2.518  1.00  0.00    -0.351 N 
ATOM      5  C   UNL     1       2.028  -0.490  -2.326  1.00  0.00     0.268 C 
ATOM      6  O   UNL     1       0.915  -0.035  -2.033  1.00  0.00    -0.268 OA
ATOM      7  H   UNL     1       1.188  -2.236  -2.151  1.00  0.00     0.163 HD
BRANCH   5   8
ATOM      8  C   UNL     1       3.192   0.472  -2.622  1.00  0.00     0.111 C 
ATOM      9  C   UNL     1       2.583   3.816  -2.142  1.00  0.00     0.205 C 
ATOM     10  C   UNL     1       2.186   2.441  -1.580  1.00  0.00     0.253 C 
ATOM     11  C   UNL     1       3.532   2.968  -3.055  1.00  0.00     0.181 C 
ATOM     12  O   UNL     1       1.734   2.073  -0.500  1.00  0.00    -0.272 OA
ATOM     13  N   UNL     1       2.768   1.795  -2.634  1.00  0.00    -0.290 N 
ATOM     14  S   UNL     1       5.258   2.873  -2.473  1.00  0.00    -0.129 SA
ATOM     15  C   UNL     1       5.510   1.255  -3.206  1.00  0.00     0.106 C 
ATOM     16  C   UNL     1       4.532   0.236  -2.648  1.00  0.00    -0.020 C 
BRANCH   9  17
ATOM     17  N   UNL     1       3.201   4.737  -1.144  1.00  0.00    -0.340 N 
ATOM     18  C   UNL     1       3.305   6.098  -1.206  1.00  0.00     0.242 C 
ATOM     19  O   UNL     1       3.857   6.702  -0.284  1.00  0.00    -0.273 OA
ATOM     20  H   UNL     1       3.581   4.311  -0.341  1.00  0.00     0.164 HD
BRANCH  18  21
ATOM     21  C   UNL     1       2.712   6.834  -2.381  1.00  0.00     0.244 C 
BRANCH  21  22
ATOM     22  N   UNL     1       3.441   6.562  -3.605  1.00  0.00    -0.260 N 
ATOM     23  C   UNL     1       3.496   4.922  -6.744  1.00  0.00     0.069 C 
ATOM     24  C   UNL     1       3.776   5.714  -5.523  1.00  0.00     0.060 A 
ATOM     25  C   UNL     1       4.949   6.419  -5.186  1.00  0.00     0.048 A 
ATOM     26  N   UNL     1       2.856   5.803  -4.557  1.00  0.00    -0.178 NA
ATOM     27  C   UNL     1       4.707   6.966  -3.944  1.00  0.00     0.036 A 
ATOM     28  C   UNL     1       5.570   7.801  -3.072  1.00  0.00     0.066 C 
ENDBRANCH  21  22
ENDBRANCH  18  21
ENDBRANCH   9  17
BRANCH  16  29
ATOM     29  C   UNL     1       5.238  -0.881  -1.914  1.00  0.00     0.111 C 
BRANCH  29  30
ATOM     30  S   UNL     1       4.586  -1.020  -0.226  1.00  0.00    -0.089 SA
BRANCH  30  31
ATOM     31  C   UNL     1       6.040  -1.372   0.638  1.00  0.00     0.174 A 
ATOM     32  N   UNL     1       7.013  -0.498   0.754  1.00  0.00    -0.132 NA
ATOM     33  S   UNL     1       6.306  -2.861   1.425  1.00  0.00    -0.091 S 
ATOM     34  N   UNL     1       8.012  -0.958   1.584  1.00  0.00    -0.143 NA
ATOM     35  C   UNL     1       7.744  -2.160   2.043  1.00  0.00     0.115 A 
ATOM     36  C   UNL     1       8.515  -2.862   3.084  1.00  0.00     0.081 C 
ENDBRANCH  30  31
ENDBRANCH  29  30
ENDBRANCH  16  29
ENDBRANCH   5   8
ENDBRANCH   3   4
ENDBRANCH   2   3
ENDBRANCH   1   2
BRANCH   1  37
ATOM     37  C   UNL     1       2.523  -6.036  -3.209  1.00  0.00     0.002 C 
BRANCH  37  38
ATOM     38  C   UNL     1       3.920  -6.455  -3.687  1.00  0.00     0.021 C 
BRANCH  38  39
ATOM     39  C   UNL     1       4.737  -7.238  -2.660  1.00  0.00     0.116 C 
BRANCH  39  40
ATOM     40  N   UNL     1       4.104  -8.495  -2.298  1.00  0.00    -0.352 N 
ATOM     41  C   UNL     1       4.468  -9.404  -1.334  1.00  0.00     0.251 C 
ATOM     42  H   UNL     1       3.300  -8.728  -2.817  1.00  0.00     0.163 HD
ATOM     43  O   UNL     1       3.974 -10.527  -1.332  1.00  0.00    -0.269 OA
BRANCH  41  44
ATOM     44  C   UNL     1       5.496  -9.053  -0.332  1.00  0.00     0.039 A 
ATOM     45  C   UNL     1       6.542  -9.950  -0.110  1.00  0.00     0.014 A 
ATOM     46  C   UNL     1       5.430  -7.863   0.395  1.00  0.00     0.014 A 
ATOM     47  C   UNL     1       7.565  -9.610   0.776  1.00  0.00     0.010 A 
ATOM     48  C   UNL     1       6.477  -7.504   1.245  1.00  0.00     0.010 A 
ATOM     49  C   UNL     1       7.561  -8.369   1.439  1.00  0.00    -0.014 A 
BRANCH  49  50
ATOM     50  C   UNL     1       8.771  -7.978   2.194  1.00  0.00     0.031 A 
ATOM     51  C   UNL     1      10.070  -8.086   1.458  1.00  0.00     0.074 A 
ATOM     52  C   UNL     1       8.821  -7.367   3.400  1.00  0.00     0.049 A 
ATOM     53  N   UNL     1      11.144  -8.715   1.817  1.00  0.00    -0.248 NA
ATOM     54  C   UNL     1      10.180  -7.399   0.160  1.00  0.00     0.031 C 
ATOM     55  C   UNL     1       7.698  -6.862   4.186  1.00  0.00     0.029 A 
ATOM     56  N   UNL     1       9.919  -6.988   4.141  1.00  0.00    -0.354 N 
ATOM     57  C   UNL     1      12.115  -8.394   0.871  1.00  0.00     0.074 A 
ATOM     58  C   UNL     1      11.451  -7.642  -0.165  1.00  0.00     0.031 C 
ATOM     59  C   UNL     1       8.168  -6.080   5.182  1.00  0.00     0.029 A 
ATOM     60  C   UNL     1       9.624  -6.129   5.191  1.00  0.00     0.049 A 
ATOM     61  H   UNL     1      10.832  -7.299   3.944  1.00  0.00     0.167 HD
ATOM     62  C   UNL     1      13.442  -8.597   1.088  1.00  0.00     0.031 A 
ATOM     63  C   UNL     1      10.479  -5.483   6.024  1.00  0.00     0.031 A 
ATOM     64  C   UNL     1      13.716  -9.458   2.203  1.00  0.00     0.049 A 
ATOM     65  C   UNL     1      11.777  -6.189   6.052  1.00  0.00     0.074 A 
ATOM     66  C   UNL     1      13.811 -10.805   2.462  1.00  0.00     0.029 A 
ATOM     67  N   UNL     1      13.786  -8.811   3.401  1.00  0.00    -0.354 N 
ATOM     68  N   UNL     1      11.954  -7.344   6.625  1.00  0.00    -0.248 NA
ATOM     69  C   UNL     1      12.931  -5.677   5.317  1.00  0.00     0.031 C 
ATOM     70  C   UNL     1      13.771 -10.949   3.884  1.00  0.00     0.029 A 
ATOM     71  C   UNL     1      13.634  -9.684   4.445  1.00  0.00     0.049 A 
ATOM     72  H   UNL     1      13.928  -7.842   3.502  1.00  0.00     0.167 HD
ATOM     73  C   UNL     1      13.061  -7.873   5.999  1.00  0.00     0.074 A 
ATOM     74  C   UNL     1      13.732  -6.744   5.377  1.00  0.00     0.031 C 
ATOM     75  C   UNL     1      13.127  -9.204   5.711  1.00  0.00     0.031 A 
BRANCH  62  76
ATOM     76  C   UNL     1      14.531  -7.683   0.571  1.00  0.00    -0.014 A 
ATOM     77  C   UNL     1      15.875  -8.061   0.760  1.00  0.00     0.009 A 
ATOM     78  C   UNL     1      14.296  -6.346   0.201  1.00  0.00     0.009 A 
ATOM     79  C   UNL     1      16.922  -7.140   0.626  1.00  0.00     0.001 A 
ATOM     80  C   UNL     1      15.344  -5.433   0.030  1.00  0.00     0.001 A 
ATOM     81  C   UNL     1      16.655  -5.825   0.264  1.00  0.00     0.000 A 
ENDBRANCH  62  76
BRANCH  63  82
ATOM     82  C   UNL     1      10.282  -4.253   6.834  1.00  0.00    -0.014 A 
ATOM     83  C   UNL     1      11.215  -3.875   7.812  1.00  0.00     0.009 A 
ATOM     84  C   UNL     1       9.294  -3.315   6.505  1.00  0.00     0.009 A 
ATOM     85  C   UNL     1      11.193  -2.594   8.382  1.00  0.00     0.001 A 
ATOM     86  C   UNL     1       9.271  -2.033   7.060  1.00  0.00     0.001 A 
ATOM     87  C   UNL     1      10.233  -1.666   7.989  1.00  0.00     0.000 A 
ENDBRANCH  63  82
BRANCH  75  88
ATOM     88  C   UNL     1      12.358 -10.143   6.592  1.00  0.00    -0.014 A 
ATOM     89  C   UNL     1      10.961 -10.089   6.724  1.00  0.00     0.009 A 
ATOM     90  C   UNL     1      13.060 -11.130   7.300  1.00  0.00     0.009 A 
ATOM     91  C   UNL     1      10.291 -10.959   7.587  1.00  0.00     0.001 A 
ATOM     92  C   UNL     1      12.386 -12.017   8.143  1.00  0.00     0.001 A 
ATOM     93  C   UNL     1      11.004 -11.922   8.296  1.00  0.00     0.000 A 
ENDBRANCH  75  88
ENDBRANCH  49  50
ENDBRANCH  41  44
ENDBRANCH  39  40
ENDBRANCH  38  39
ENDBRANCH  37  38
ENDBRANCH   1  37
TORSDOF 19
