REMARK SMILES CC(C)=CCC/C(C)=C/C[N@@H+]1CCc2nc[nH]c2[C@@H]1C(=O)NCCCCCCNC(=O)c1ccc(-c2c3nc(c(-c4ccccc4)c4ccc([nH]4)c(-c4ccccc4)c4nc(c(-c5ccccc5)c5ccc2[nH]5)C=C4)C=C3)cc1
REMARK SMILES IDX 24 1 23 2 22 3 20 4 21 5 19 7 11 8 12 9 13 11 18 12 14 13
REMARK SMILES IDX 17 14 15 15 16 16 10 18 9 19 7 20 8 21 6 22 5 23 4 24 1 25
REMARK SMILES IDX 2 26 3 27 25 28 26 29 27 30 28 31 29 32 30 33 31 35 32 36
REMARK SMILES IDX 33 37 79 38 34 39 78 40 35 41 36 42 37 43 72 44 38 45 77 46
REMARK SMILES IDX 71 47 73 48 39 49 76 50 70 51 69 52 40 54 62 55 47 56 61 57
REMARK SMILES IDX 48 58 51 59 60 60 74 61 49 62 50 63 59 65 75 66 52 67 41 68
REMARK SMILES IDX 42 69 46 70 43 71 45 72 44 73 63 74 64 75 68 76 65 77 67 78
REMARK SMILES IDX 66 79 53 80 54 81 58 82 55 83 57 84 56 85
REMARK H PARENT 22 6 11 10 17 17 29 34 73 53 51 64
REMARK Flexibility Score: inf
ROOT
ATOM      1  C   UNL     1       4.879  -1.627  10.091  1.00  0.00     0.021 C 
ENDROOT
BRANCH   1   2
ATOM      2  C   UNL     1       3.752  -1.281   9.135  1.00  0.00     0.116 C 
BRANCH   2   3
ATOM      3  N   UNL     1       2.419  -1.489   9.640  1.00  0.00    -0.351 N 
ATOM      4  C   UNL     1       1.284  -0.797   9.310  1.00  0.00     0.284 C 
ATOM      5  O   UNL     1       0.224  -1.198   9.809  1.00  0.00    -0.268 OA
ATOM      6  H   UNL     1       2.312  -2.212  10.299  1.00  0.00     0.163 HD
BRANCH   4   7
ATOM      7  C   UNL     1       1.282   0.474   8.403  1.00  0.00     0.324 C 
ATOM      8  N   UNL     1       1.812   0.318   7.023  1.00  0.00    -0.316 N 
ATOM      9  C   UNL     1       3.181   0.782   6.710  1.00  0.00     0.270 C 
ATOM     10  H   UNL     1       1.311   1.060   6.534  1.00  0.00     0.349 HD
ATOM     11  C   UNL     1       3.768   2.011   7.459  1.00  0.00     0.120 C 
ATOM     12  C   UNL     1       1.928   1.602   9.110  1.00  0.00     0.106 A 
ATOM     13  C   UNL     1       3.045   2.289   8.714  1.00  0.00     0.074 A 
ATOM     14  N   UNL     1       1.544   2.177  10.288  1.00  0.00    -0.343 N 
ATOM     15  N   UNL     1       3.396   3.231   9.639  1.00  0.00    -0.241 NA
ATOM     16  C   UNL     1       2.469   3.147  10.571  1.00  0.00     0.197 A 
ATOM     17  H   UNL     1       0.755   1.940  10.828  1.00  0.00     0.167 HD
BRANCH   8  18
ATOM     18  C   UNL     1       1.425  -0.951   6.408  1.00  0.00     0.291 C 
BRANCH  18  19
ATOM     19  C   UNL     1       1.803  -1.030   4.960  1.00  0.00     0.032 C 
ATOM     20  C   UNL     1       2.455  -2.026   4.325  1.00  0.00    -0.071 C 
ATOM     21  C   UNL     1       2.979  -3.240   5.045  1.00  0.00     0.039 C 
BRANCH  20  22
ATOM     22  C   UNL     1       2.720  -1.934   2.831  1.00  0.00     0.035 C 
BRANCH  22  23
ATOM     23  C   UNL     1       1.476  -2.110   1.934  1.00  0.00     0.032 C 
BRANCH  23  24
ATOM     24  C   UNL     1       0.502  -0.963   2.049  1.00  0.00    -0.028 C 
ATOM     25  C   UNL     1       1.023   0.145  -0.138  1.00  0.00     0.039 C 
ATOM     26  C   UNL     1       0.332   0.061   1.191  1.00  0.00    -0.080 C 
ATOM     27  C   UNL     1      -0.556   1.214   1.577  1.00  0.00     0.039 C 
ENDBRANCH  23  24
ENDBRANCH  22  23
ENDBRANCH  20  22
ENDBRANCH  18  19
ENDBRANCH   8  18
ENDBRANCH   4   7
ENDBRANCH   2   3
ENDBRANCH   1   2
BRANCH   1  28
ATOM     28  C   UNL     1       5.107  -3.114  10.343  1.00  0.00     0.002 C 
BRANCH  28  29
ATOM     29  C   UNL     1       5.245  -4.021   9.111  1.00  0.00     0.002 C 
BRANCH  29  30
ATOM     30  C   UNL     1       6.265  -3.628   8.033  1.00  0.00     0.021 C 
BRANCH  30  31
ATOM     31  C   UNL     1       7.692  -3.443   8.524  1.00  0.00     0.116 C 
BRANCH  31  32
ATOM     32  N   UNL     1       8.260  -4.641   9.140  1.00  0.00    -0.352 N 
ATOM     33  C   UNL     1       9.493  -4.794   9.754  1.00  0.00     0.251 C 
ATOM     34  H   UNL     1       7.692  -5.444   9.115  1.00  0.00     0.163 HD
ATOM     35  O   UNL     1       9.989  -5.898   9.903  1.00  0.00    -0.269 OA
BRANCH  33  36
ATOM     36  C   UNL     1      10.198  -3.591  10.237  1.00  0.00     0.039 A 
ATOM     37  C   UNL     1      11.588  -3.464  10.159  1.00  0.00     0.014 A 
ATOM     38  C   UNL     1       9.426  -2.565  10.770  1.00  0.00     0.014 A 
ATOM     39  C   UNL     1      12.173  -2.263  10.557  1.00  0.00     0.010 A 
ATOM     40  C   UNL     1       9.971  -1.327  10.961  1.00  0.00     0.010 A 
ATOM     41  C   UNL     1      11.349  -1.193  10.942  1.00  0.00    -0.014 A 
BRANCH  41  42
ATOM     42  C   UNL     1      11.890   0.118  11.257  1.00  0.00     0.031 A 
ATOM     43  C   UNL     1      12.687   0.729  10.167  1.00  0.00     0.074 A 
ATOM     44  C   UNL     1      11.521   0.828  12.345  1.00  0.00     0.049 A 
ATOM     45  N   UNL     1      13.968   0.863  10.127  1.00  0.00    -0.248 NA
ATOM     46  C   UNL     1      12.005   1.097   8.917  1.00  0.00     0.031 C 
ATOM     47  C   UNL     1      10.492   0.515  13.346  1.00  0.00     0.029 A 
ATOM     48  N   UNL     1      11.933   2.066  12.725  1.00  0.00    -0.354 N 
ATOM     49  C   UNL     1      14.245   1.535   8.943  1.00  0.00     0.074 A 
ATOM     50  C   UNL     1      13.037   1.471   8.158  1.00  0.00     0.031 C 
ATOM     51  C   UNL     1      10.204   1.626  14.064  1.00  0.00     0.029 A 
ATOM     52  C   UNL     1      11.147   2.667  13.701  1.00  0.00     0.049 A 
ATOM     53  H   UNL     1      12.726   2.503  12.338  1.00  0.00     0.167 HD
ATOM     54  C   UNL     1      15.354   2.317   8.828  1.00  0.00     0.031 A 
ATOM     55  C   UNL     1      11.263   3.938  14.158  1.00  0.00     0.031 A 
ATOM     56  C   UNL     1      16.273   2.089   9.919  1.00  0.00     0.049 A 
ATOM     57  C   UNL     1      12.630   4.398  13.823  1.00  0.00     0.074 A 
ATOM     58  C   UNL     1      16.946   0.989  10.413  1.00  0.00     0.029 A 
ATOM     59  N   UNL     1      16.267   3.014  10.938  1.00  0.00    -0.354 N 
ATOM     60  N   UNL     1      13.703   3.901  14.368  1.00  0.00    -0.248 NA
ATOM     61  C   UNL     1      12.831   5.078  12.553  1.00  0.00     0.031 C 
ATOM     62  C   UNL     1      16.865   1.119  11.833  1.00  0.00     0.029 A 
ATOM     63  C   UNL     1      16.228   2.327  12.123  1.00  0.00     0.049 A 
ATOM     64  H   UNL     1      16.288   3.993  10.835  1.00  0.00     0.167 HD
ATOM     65  C   UNL     1      14.606   3.790  13.321  1.00  0.00     0.074 A 
ATOM     66  C   UNL     1      14.054   4.628  12.256  1.00  0.00     0.031 C 
ATOM     67  C   UNL     1      15.554   2.806  13.310  1.00  0.00     0.031 A 
BRANCH  54  68
ATOM     68  C   UNL     1      15.407   3.585   8.008  1.00  0.00    -0.014 A 
ATOM     69  C   UNL     1      16.608   4.320   7.995  1.00  0.00     0.009 A 
ATOM     70  C   UNL     1      14.268   4.233   7.495  1.00  0.00     0.009 A 
ATOM     71  C   UNL     1      16.640   5.659   7.589  1.00  0.00     0.001 A 
ATOM     72  C   UNL     1      14.306   5.556   7.048  1.00  0.00     0.001 A 
ATOM     73  C   UNL     1      15.485   6.280   7.128  1.00  0.00     0.000 A 
ENDBRANCH  54  68
BRANCH  55  74
ATOM     74  C   UNL     1      10.222   4.873  14.632  1.00  0.00    -0.014 A 
ATOM     75  C   UNL     1      10.575   6.026  15.353  1.00  0.00     0.009 A 
ATOM     76  C   UNL     1       8.917   4.798  14.115  1.00  0.00     0.009 A 
ATOM     77  C   UNL     1       9.672   7.088  15.502  1.00  0.00     0.001 A 
ATOM     78  C   UNL     1       8.015   5.858  14.265  1.00  0.00     0.001 A 
ATOM     79  C   UNL     1       8.400   7.011  14.941  1.00  0.00     0.000 A 
ENDBRANCH  55  74
BRANCH  67  80
ATOM     80  C   UNL     1      15.745   1.993  14.570  1.00  0.00    -0.014 A 
ATOM     81  C   UNL     1      14.728   1.217  15.156  1.00  0.00     0.009 A 
ATOM     82  C   UNL     1      17.039   1.896  15.102  1.00  0.00     0.009 A 
ATOM     83  C   UNL     1      14.993   0.400  16.261  1.00  0.00     0.001 A 
ATOM     84  C   UNL     1      17.309   1.064  16.191  1.00  0.00     0.001 A 
ATOM     85  C   UNL     1      16.286   0.322  16.775  1.00  0.00     0.000 A 
ENDBRANCH  67  80
ENDBRANCH  41  42
ENDBRANCH  33  36
ENDBRANCH  31  32
ENDBRANCH  30  31
ENDBRANCH  29  30
ENDBRANCH  28  29
ENDBRANCH   1  28
TORSDOF 18
