REMARK SMILES O=C(Cc1cccnc1Cl)NCCCCCCNC(=O)c1ccc(-c2c3nc(c(-c4ccccc4)c4ccc([nH]4)c(-c4ccccc4)c4nc(c(-c5ccccc5)c5ccc2[nH]5)C=C4)C=C3)cc1
REMARK SMILES IDX 15 1 14 2 13 3 12 4 11 5 1 6 2 7 3 9 4 10 5 11 9 12 6 13
REMARK SMILES IDX 8 14 10 15 7 16 16 17 17 18 18 19 19 20 20 22 21 23 22 24
REMARK SMILES IDX 68 25 23 26 67 27 24 28 25 29 26 30 61 31 27 32 66 33 60 34
REMARK SMILES IDX 62 35 28 36 65 37 59 38 58 39 29 41 51 42 36 43 50 44 37 45
REMARK SMILES IDX 40 46 49 47 63 48 38 49 39 50 48 52 64 53 41 54 30 55 31 56
REMARK SMILES IDX 35 57 32 58 34 59 33 60 52 61 53 62 57 63 54 64 56 65 55 66
REMARK SMILES IDX 42 67 43 68 47 69 44 70 46 71 45 72
REMARK H PARENT 11 8 18 21 62 40 40 51
REMARK Flexibility Score: inf
ROOT
ATOM      1  C   UNL     1       4.608   0.435  -4.285  1.00  0.00     0.002 C 
ENDROOT
BRANCH   1   2
ATOM      2  C   UNL     1       4.141   1.536  -3.328  1.00  0.00     0.002 C 
BRANCH   2   3
ATOM      3  C   UNL     1       2.638   1.547  -3.017  1.00  0.00     0.021 C 
BRANCH   3   4
ATOM      4  C   UNL     1       2.103   0.247  -2.414  1.00  0.00     0.116 C 
BRANCH   4   5
ATOM      5  N   UNL     1       2.750  -0.062  -1.155  1.00  0.00    -0.356 N 
ATOM      6  O   UNL     1       0.919   0.346   0.164  1.00  0.00    -0.275 OA
ATOM      7  C   UNL     1       2.094   0.009   0.055  1.00  0.00     0.224 C 
ATOM      8  H   UNL     1       3.696  -0.334  -1.165  1.00  0.00     0.163 HD
BRANCH   7   9
ATOM      9  C   UNL     1       2.966  -0.247   1.272  1.00  0.00     0.138 C 
BRANCH   9  10
ATOM     10  C   UNL     1       3.821  -1.486   1.188  1.00  0.00    -0.001 A 
ATOM     11  C   UNL     1       5.213  -1.374   1.061  1.00  0.00     0.009 A 
ATOM     12  C   UNL     1       3.293  -2.775   1.225  1.00  0.00     0.132 A 
ATOM     13  C   UNL     1       5.998  -2.520   0.980  1.00  0.00     0.020 A 
ATOM     14  N   UNL     1       4.034  -3.902   1.143  1.00  0.00    -0.244 NA
ATOM     15  Cl  UNL     1       1.613  -3.092   1.395  1.00  0.00    -0.062 Cl
ATOM     16  C   UNL     1       5.368  -3.751   1.026  1.00  0.00     0.113 A 
ENDBRANCH   9  10
ENDBRANCH   7   9
ENDBRANCH   4   5
ENDBRANCH   3   4
ENDBRANCH   2   3
ENDBRANCH   1   2
BRANCH   1  17
ATOM     17  C   UNL     1       3.922   0.423  -5.653  1.00  0.00     0.021 C 
BRANCH  17  18
ATOM     18  C   UNL     1       4.064   1.712  -6.456  1.00  0.00     0.116 C 
BRANCH  18  19
ATOM     19  N   UNL     1       5.445   1.996  -6.817  1.00  0.00    -0.352 N 
ATOM     20  C   UNL     1       5.984   2.279  -8.048  1.00  0.00     0.251 C 
ATOM     21  H   UNL     1       6.086   1.983  -6.071  1.00  0.00     0.163 HD
ATOM     22  O   UNL     1       7.204   2.330  -8.189  1.00  0.00    -0.269 OA
BRANCH  20  23
ATOM     23  C   UNL     1       5.100   2.499  -9.213  1.00  0.00     0.039 A 
ATOM     24  C   UNL     1       5.420   1.889 -10.429  1.00  0.00     0.014 A 
ATOM     25  C   UNL     1       3.961   3.302  -9.111  1.00  0.00     0.014 A 
ATOM     26  C   UNL     1       4.562   2.029 -11.522  1.00  0.00     0.010 A 
ATOM     27  C   UNL     1       3.069   3.379 -10.177  1.00  0.00     0.010 A 
ATOM     28  C   UNL     1       3.359   2.743 -11.394  1.00  0.00    -0.014 A 
BRANCH  28  29
ATOM     29  C   UNL     1       2.389   2.825 -12.516  1.00  0.00     0.031 A 
ATOM     30  C   UNL     1       2.062   4.153 -13.143  1.00  0.00     0.074 A 
ATOM     31  C   UNL     1       1.755   1.712 -12.933  1.00  0.00     0.049 A 
ATOM     32  N   UNL     1       1.202   4.428 -14.091  1.00  0.00    -0.248 NA
ATOM     33  C   UNL     1       2.778   5.328 -12.621  1.00  0.00     0.031 C 
ATOM     34  C   UNL     1       1.956   0.367 -12.389  1.00  0.00     0.029 A 
ATOM     35  N   UNL     1       0.808   1.535 -13.910  1.00  0.00    -0.354 N 
ATOM     36  C   UNL     1       1.266   5.804 -14.271  1.00  0.00     0.074 A 
ATOM     37  C   UNL     1       2.207   6.314 -13.298  1.00  0.00     0.031 C 
ATOM     38  C   UNL     1       1.182  -0.500 -13.061  1.00  0.00     0.029 A 
ATOM     39  C   UNL     1       0.396   0.232 -14.049  1.00  0.00     0.049 A 
ATOM     40  H   UNL     1       0.457   2.272 -14.460  1.00  0.00     0.167 HD
ATOM     41  C   UNL     1       0.617   6.574 -15.177  1.00  0.00     0.031 A 
ATOM     42  C   UNL     1      -0.518  -0.315 -14.874  1.00  0.00     0.031 A 
ATOM     43  C   UNL     1      -0.321   6.070 -16.145  1.00  0.00     0.049 A 
ATOM     44  C   UNL     1      -1.254   0.567 -15.845  1.00  0.00     0.074 A 
ATOM     45  C   UNL     1      -0.998   6.765 -17.132  1.00  0.00     0.029 A 
ATOM     46  N   UNL     1      -0.718   4.745 -16.245  1.00  0.00    -0.354 N 
ATOM     47  N   UNL     1      -1.137   1.857 -16.041  1.00  0.00    -0.248 NA
ATOM     48  C   UNL     1      -2.241  -0.089 -16.714  1.00  0.00     0.031 C 
ATOM     49  C   UNL     1      -1.848   5.871 -17.792  1.00  0.00     0.029 A 
ATOM     50  C   UNL     1      -1.650   4.607 -17.260  1.00  0.00     0.049 A 
ATOM     51  H   UNL     1      -0.387   4.012 -15.678  1.00  0.00     0.167 HD
ATOM     52  C   UNL     1      -2.012   2.163 -17.076  1.00  0.00     0.074 A 
ATOM     53  C   UNL     1      -2.639   0.920 -17.476  1.00  0.00     0.031 C 
ATOM     54  C   UNL     1      -2.269   3.365 -17.646  1.00  0.00     0.031 A 
BRANCH  41  55
ATOM     55  C   UNL     1       0.896   8.052 -15.156  1.00  0.00    -0.014 A 
ATOM     56  C   UNL     1       2.144   8.563 -15.550  1.00  0.00     0.009 A 
ATOM     57  C   UNL     1      -0.111   8.950 -14.770  1.00  0.00     0.009 A 
ATOM     58  C   UNL     1       2.389   9.937 -15.521  1.00  0.00     0.001 A 
ATOM     59  C   UNL     1       0.126  10.326 -14.772  1.00  0.00     0.001 A 
ATOM     60  C   UNL     1       1.378  10.818 -15.137  1.00  0.00     0.000 A 
ENDBRANCH  41  55
BRANCH  42  61
ATOM     61  C   UNL     1      -0.781  -1.778 -14.830  1.00  0.00    -0.014 A 
ATOM     62  C   UNL     1      -0.390  -2.602 -15.897  1.00  0.00     0.009 A 
ATOM     63  C   UNL     1      -1.429  -2.357 -13.728  1.00  0.00     0.009 A 
ATOM     64  C   UNL     1      -0.667  -3.971 -15.872  1.00  0.00     0.001 A 
ATOM     65  C   UNL     1      -1.676  -3.731 -13.692  1.00  0.00     0.001 A 
ATOM     66  C   UNL     1      -1.305  -4.535 -14.768  1.00  0.00     0.000 A 
ENDBRANCH  42  61
BRANCH  54  67
ATOM     67  C   UNL     1      -3.244   3.391 -18.791  1.00  0.00    -0.014 A 
ATOM     68  C   UNL     1      -4.619   3.192 -18.588  1.00  0.00     0.009 A 
ATOM     69  C   UNL     1      -2.782   3.661 -20.089  1.00  0.00     0.009 A 
ATOM     70  C   UNL     1      -5.504   3.228 -19.667  1.00  0.00     0.001 A 
ATOM     71  C   UNL     1      -3.673   3.728 -21.160  1.00  0.00     0.001 A 
ATOM     72  C   UNL     1      -5.032   3.502 -20.950  1.00  0.00     0.000 A 
ENDBRANCH  54  67
ENDBRANCH  28  29
ENDBRANCH  20  23
ENDBRANCH  18  19
ENDBRANCH  17  18
ENDBRANCH   1  17
TORSDOF 14
