REMARK SMILES COC(=O)[C@@H]1CN(C(=O)NC(=O)CCCC(=O)NCCCCCCNC(=O)c2ccc(-c3c4nc(c(-c5ccccc5)c5ccc([nH]5)c(-c5ccccc5)c5nc(c(-c6ccccc6)c6ccc3[nH]6)C=C5)C=C4)cc2)C[C@H]1C
REMARK SMILES IDX 19 1 18 2 16 3 17 4 15 6 14 7 13 8 11 9 8 10 9 11 10 12
REMARK SMILES IDX 12 14 7 15 5 16 6 17 77 18 76 19 78 20 3 21 4 22 2 23 1 24
REMARK SMILES IDX 20 25 21 26 22 27 23 28 24 29 25 30 26 31 27 33 28 34 29 35
REMARK SMILES IDX 75 36 30 37 74 38 31 39 32 40 33 41 68 42 34 43 73 44 67 45
REMARK SMILES IDX 69 46 35 47 72 48 66 49 65 50 36 52 58 53 43 54 57 55 44 56
REMARK SMILES IDX 47 57 56 58 70 59 45 60 46 61 55 63 71 64 48 65 37 66 38 67
REMARK SMILES IDX 42 68 39 69 41 70 40 71 59 72 60 73 64 74 61 75 63 76 62 77
REMARK SMILES IDX 49 78 50 79 54 80 51 81 53 82 52 83
REMARK H PARENT 18 5 10 13 25 32 69 51 47 62
REMARK Flexibility Score: inf
ROOT
ATOM      1  C   UNL     1       4.922   1.433   2.542  1.00  0.00     0.116 C 
ENDROOT
BRANCH   1   2
ATOM      2  N   UNL     1       3.405   1.653   3.126  1.00  0.00    -0.356 N 
ATOM      3  C   UNL     1       1.833   0.614   3.698  1.00  0.00     0.220 C 
ATOM      4  O   UNL     1       0.664   0.995   3.947  1.00  0.00    -0.275 OA
ATOM      5  H   UNL     1       3.221   2.615   3.221  1.00  0.00     0.163 HD
BRANCH   3   6
ATOM      6  C   UNL     1       1.753  -1.187   3.896  1.00  0.00     0.100 C 
BRANCH   6   7
ATOM      7  C   UNL     1       2.012  -2.372   2.901  1.00  0.00     0.020 C 
BRANCH   7   8
ATOM      8  C   UNL     1       3.198  -2.542   1.930  1.00  0.00     0.101 C 
BRANCH   8   9
ATOM      9  C   UNL     1       4.613  -2.649   2.422  1.00  0.00     0.227 C 
ATOM     10  C   UNL     1       4.554  -0.967   4.270  1.00  0.00     0.324 C 
ATOM     11  O   UNL     1       5.012  -0.808   5.404  1.00  0.00    -0.248 OA
ATOM     12  N   UNL     1       5.019  -2.004   3.543  1.00  0.00    -0.278 N 
ATOM     13  H   UNL     1       5.849  -2.381   3.914  1.00  0.00     0.174 HD
ATOM     14  O   UNL     1       5.455  -3.271   1.768  1.00  0.00    -0.275 OA
BRANCH  10  15
ATOM     15  N   UNL     1       3.631  -0.095   3.759  1.00  0.00    -0.323 N 
ATOM     16  C   UNL     1       1.776   2.076   2.216  1.00  0.00     0.123 C 
ATOM     17  C   UNL     1       2.738   0.286   2.009  1.00  0.00     0.137 C 
ATOM     18  C   UNL     1       2.049   2.683   4.142  1.00  0.00     0.021 C 
ATOM     19  C   UNL     1       3.208   1.304   5.035  1.00  0.00     0.125 C 
ATOM     20  C   UNL     1       2.679   4.100   4.290  1.00  0.00     0.010 C 
BRANCH  16  21
ATOM     21  C   UNL     1       0.348   2.250   1.696  1.00  0.00     0.310 C 
ATOM     22  O   UNL     1      -0.505   2.894   2.297  1.00  0.00    -0.252 OA
BRANCH  21  23
ATOM     23  O   UNL     1       0.196   1.994   0.368  1.00  0.00    -0.469 OA
ATOM     24  C   UNL     1       0.502   0.701  -0.145  1.00  0.00     0.282 C 
ENDBRANCH  21  23
ENDBRANCH  16  21
ENDBRANCH  10  15
ENDBRANCH   8   9
ENDBRANCH   7   8
ENDBRANCH   6   7
ENDBRANCH   3   6
ENDBRANCH   1   2
BRANCH   1  25
ATOM     25  C   UNL     1       5.045   2.155   1.189  1.00  0.00     0.021 C 
BRANCH  25  26
ATOM     26  C   UNL     1       5.599   3.566   1.296  1.00  0.00     0.002 C 
BRANCH  26  27
ATOM     27  C   UNL     1       7.049   3.612   1.775  1.00  0.00     0.002 C 
BRANCH  27  28
ATOM     28  C   UNL     1       7.998   2.671   1.026  1.00  0.00     0.021 C 
BRANCH  28  29
ATOM     29  C   UNL     1       7.928   2.782  -0.495  1.00  0.00     0.116 C 
BRANCH  29  30
ATOM     30  N   UNL     1       8.138   4.148  -0.942  1.00  0.00    -0.352 N 
ATOM     31  C   UNL     1       9.145   4.650  -1.721  1.00  0.00     0.251 C 
ATOM     32  H   UNL     1       7.465   4.802  -0.644  1.00  0.00     0.163 HD
ATOM     33  O   UNL     1       9.331   5.858  -1.806  1.00  0.00    -0.269 OA
BRANCH  31  34
ATOM     34  C   UNL     1      10.014   3.706  -2.443  1.00  0.00     0.039 A 
ATOM     35  C   UNL     1      11.397   3.841  -2.327  1.00  0.00     0.014 A 
ATOM     36  C   UNL     1       9.453   2.669  -3.196  1.00  0.00     0.014 A 
ATOM     37  C   UNL     1      12.224   2.890  -2.921  1.00  0.00     0.010 A 
ATOM     38  C   UNL     1      10.277   1.683  -3.724  1.00  0.00     0.010 A 
ATOM     39  C   UNL     1      11.669   1.784  -3.588  1.00  0.00    -0.014 A 
BRANCH  39  40
ATOM     40  C   UNL     1      12.536   0.707  -4.120  1.00  0.00     0.031 A 
ATOM     41  C   UNL     1      12.600   0.446  -5.598  1.00  0.00     0.074 A 
ATOM     42  C   UNL     1      13.223  -0.068  -3.259  1.00  0.00     0.049 A 
ATOM     43  N   UNL     1      13.271  -0.474  -6.241  1.00  0.00    -0.248 NA
ATOM     44  C   UNL     1      11.792   1.320  -6.465  1.00  0.00     0.031 C 
ATOM     45  C   UNL     1      13.209   0.067  -1.800  1.00  0.00     0.029 A 
ATOM     46  N   UNL     1      14.066  -1.126  -3.486  1.00  0.00    -0.354 N 
ATOM     47  C   UNL     1      12.965  -0.294  -7.584  1.00  0.00     0.074 A 
ATOM     48  C   UNL     1      12.008   0.788  -7.660  1.00  0.00     0.031 C 
ATOM     49  C   UNL     1      14.029  -0.852  -1.266  1.00  0.00     0.029 A 
ATOM     50  C   UNL     1      14.587  -1.670  -2.336  1.00  0.00     0.049 A 
ATOM     51  H   UNL     1      14.277  -1.464  -4.386  1.00  0.00     0.167 HD
ATOM     52  C   UNL     1      13.454  -0.957  -8.658  1.00  0.00     0.031 A 
ATOM     53  C   UNL     1      15.412  -2.719  -2.164  1.00  0.00     0.031 A 
ATOM     54  C   UNL     1      14.404  -2.035  -8.576  1.00  0.00     0.049 A 
ATOM     55  C   UNL     1      15.901  -3.466  -3.374  1.00  0.00     0.074 A 
ATOM     56  C   UNL     1      14.994  -2.741  -9.610  1.00  0.00     0.029 A 
ATOM     57  N   UNL     1      14.895  -2.567  -7.394  1.00  0.00    -0.354 N 
ATOM     58  N   UNL     1      15.661  -3.234  -4.642  1.00  0.00    -0.248 NA
ATOM     59  C   UNL     1      16.780  -4.617  -3.128  1.00  0.00     0.031 C 
ATOM     60  C   UNL     1      15.794  -3.743  -9.052  1.00  0.00     0.029 A 
ATOM     61  C   UNL     1      15.755  -3.617  -7.672  1.00  0.00     0.049 A 
ATOM     62  H   UNL     1      14.667  -2.247  -6.492  1.00  0.00     0.167 HD
ATOM     63  C   UNL     1      16.378  -4.195  -5.344  1.00  0.00     0.074 A 
ATOM     64  C   UNL     1      17.082  -4.993  -4.362  1.00  0.00     0.031 C 
ATOM     65  C   UNL     1      16.444  -4.402  -6.682  1.00  0.00     0.031 A 
BRANCH  52  66
ATOM     66  C   UNL     1      12.969  -0.538 -10.017  1.00  0.00    -0.014 A 
ATOM     67  C   UNL     1      13.346   0.694 -10.576  1.00  0.00     0.009 A 
ATOM     68  C   UNL     1      12.174  -1.411 -10.776  1.00  0.00     0.009 A 
ATOM     69  C   UNL     1      12.915   1.053 -11.855  1.00  0.00     0.001 A 
ATOM     70  C   UNL     1      11.769  -1.062 -12.066  1.00  0.00     0.001 A 
ATOM     71  C   UNL     1      12.134   0.172 -12.601  1.00  0.00     0.000 A 
ENDBRANCH  52  66
BRANCH  53  72
ATOM     72  C   UNL     1      15.823  -3.137  -0.798  1.00  0.00    -0.014 A 
ATOM     73  C   UNL     1      17.159  -3.019  -0.385  1.00  0.00     0.009 A 
ATOM     74  C   UNL     1      14.886  -3.686   0.092  1.00  0.00     0.009 A 
ATOM     75  C   UNL     1      17.555  -3.477   0.875  1.00  0.00     0.001 A 
ATOM     76  C   UNL     1      15.277  -4.109   1.364  1.00  0.00     0.001 A 
ATOM     77  C   UNL     1      16.614  -4.018   1.749  1.00  0.00     0.000 A 
ENDBRANCH  53  72
BRANCH  65  78
ATOM     78  C   UNL     1      17.327  -5.520  -7.159  1.00  0.00    -0.014 A 
ATOM     79  C   UNL     1      16.979  -6.864  -6.951  1.00  0.00     0.009 A 
ATOM     80  C   UNL     1      18.507  -5.224  -7.860  1.00  0.00     0.009 A 
ATOM     81  C   UNL     1      17.813  -7.888  -7.404  1.00  0.00     0.001 A 
ATOM     82  C   UNL     1      19.321  -6.250  -8.342  1.00  0.00     0.001 A 
ATOM     83  C   UNL     1      18.979  -7.580  -8.104  1.00  0.00     0.000 A 
ENDBRANCH  65  78
ENDBRANCH  39  40
ENDBRANCH  31  34
ENDBRANCH  29  30
ENDBRANCH  28  29
ENDBRANCH  27  28
ENDBRANCH  26  27
ENDBRANCH  25  26
ENDBRANCH   1  25
TORSDOF 19
