REMARK SMILES Nn1c(S[C@@H](C(=O)NCCCCCCNC(=O)c2ccc(-c3c4nc(c(-c5ccccc5)c5ccc([nH]5)c(-c5ccccc5)c5nc(c(-c6ccccc6)c6ccc3[nH]6)C=C5)C=C4)cc2)c2ccccc2)nc2ccc(Br)cc2c1=O
REMARK SMILES IDX 11 1 10 2 9 3 8 4 6 5 7 6 5 8 4 9 3 10 2 11 80 12 72 13
REMARK SMILES IDX 79 14 81 15 73 16 78 17 74 18 76 19 75 20 77 21 1 22 66 25
REMARK SMILES IDX 67 26 71 27 68 28 70 29 69 30 12 31 13 32 14 33 15 34 16 35
REMARK SMILES IDX 17 37 18 38 19 39 65 40 20 41 64 42 21 43 22 44 23 45 58 46
REMARK SMILES IDX 24 47 63 48 57 49 59 50 25 51 62 52 56 53 55 54 26 56 48 57
REMARK SMILES IDX 33 58 47 59 34 60 37 61 46 62 60 63 35 64 36 65 45 67 61 68
REMARK SMILES IDX 38 69 27 70 28 71 32 72 29 73 31 74 30 75 49 76 50 77 54 78
REMARK SMILES IDX 51 79 53 80 52 81 39 82 40 83 44 84 41 85 43 86 42 87
REMARK H PARENT 8 7 1 23 1 24 15 36 59 55 37 66
REMARK Flexibility Score: inf
ROOT
ATOM      1  C   UNL     1       5.177  -3.492  -0.371  1.00  0.00     0.002 C 
ENDROOT
BRANCH   1   2
ATOM      2  C   UNL     1       4.570  -3.129   0.990  1.00  0.00     0.021 C 
BRANCH   2   3
ATOM      3  C   UNL     1       4.905  -1.726   1.515  1.00  0.00     0.116 C 
BRANCH   3   4
ATOM      4  N   UNL     1       4.430  -0.676   0.632  1.00  0.00    -0.355 N 
ATOM      5  C   UNL     1       3.362   0.170   0.716  1.00  0.00     0.238 C 
ATOM      6  O   UNL     1       3.245   0.947  -0.239  1.00  0.00    -0.273 OA
ATOM      7  H   UNL     1       4.980  -0.551  -0.175  1.00  0.00     0.163 HD
BRANCH   5   8
ATOM      8  C   UNL     1       2.366   0.164   1.907  1.00  0.00     0.174 C 
BRANCH   8   9
ATOM      9  S   UNL     1       1.703  -1.485   2.160  1.00  0.00    -0.068 SA
BRANCH   9  10
ATOM     10  C   UNL     1       0.394  -1.915   1.095  1.00  0.00     0.191 A 
ATOM     11  N   UNL     1       0.070  -1.340  -0.135  1.00  0.00    -0.202 N 
ATOM     12  C   UNL     1      -1.081  -1.734  -0.840  1.00  0.00     0.280 A 
ATOM     13  N   UNL     1      -0.280  -2.902   1.599  1.00  0.00    -0.222 NA
ATOM     14  C   UNL     1      -1.837  -2.860  -0.274  1.00  0.00     0.069 A 
ATOM     15  O   UNL     1      -1.497  -1.216  -1.875  1.00  0.00    -0.267 OA
ATOM     16  C   UNL     1      -1.378  -3.414   0.914  1.00  0.00     0.079 A 
ATOM     17  C   UNL     1      -2.970  -3.369  -0.918  1.00  0.00     0.031 A 
ATOM     18  C   UNL     1      -2.048  -4.513   1.455  1.00  0.00     0.030 A 
ATOM     19  C   UNL     1      -3.636  -4.456  -0.360  1.00  0.00     0.018 A 
ATOM     20  C   UNL     1      -3.177  -5.037   0.821  1.00  0.00     0.018 A 
ATOM     21  Br  UNL     1      -5.176  -5.148  -1.207  1.00  0.00    -0.051 Br
BRANCH  11  22
ATOM     22  N   UNL     1       0.826  -0.363  -0.794  1.00  0.00    -0.334 N 
ATOM     23  H   UNL     1       1.652  -0.019  -0.383  1.00  0.00     0.178 HD
ATOM     24  H   UNL     1       0.531  -0.019  -1.668  1.00  0.00     0.178 HD
ENDBRANCH  11  22
ENDBRANCH   9  10
ENDBRANCH   8   9
BRANCH   8  25
ATOM     25  C   UNL     1       1.378   1.340   1.939  1.00  0.00    -0.025 A 
ATOM     26  C   UNL     1      -0.007   1.205   2.149  1.00  0.00     0.005 A 
ATOM     27  C   UNL     1       1.869   2.648   1.756  1.00  0.00     0.005 A 
ATOM     28  C   UNL     1      -0.871   2.300   2.049  1.00  0.00     0.000 A 
ATOM     29  C   UNL     1       1.008   3.748   1.676  1.00  0.00     0.000 A 
ATOM     30  C   UNL     1      -0.364   3.569   1.798  1.00  0.00     0.000 A 
ENDBRANCH   8  25
ENDBRANCH   5   8
ENDBRANCH   3   4
ENDBRANCH   2   3
ENDBRANCH   1   2
BRANCH   1  31
ATOM     31  C   UNL     1       6.699  -3.373  -0.479  1.00  0.00     0.002 C 
BRANCH  31  32
ATOM     32  C   UNL     1       7.493  -4.090   0.611  1.00  0.00     0.021 C 
BRANCH  32  33
ATOM     33  C   UNL     1       7.238  -5.589   0.719  1.00  0.00     0.116 C 
BRANCH  33  34
ATOM     34  N   UNL     1       7.729  -6.332  -0.431  1.00  0.00    -0.352 N 
ATOM     35  C   UNL     1       8.584  -7.409  -0.478  1.00  0.00     0.251 C 
ATOM     36  H   UNL     1       7.402  -6.018  -1.305  1.00  0.00     0.163 HD
ATOM     37  O   UNL     1       9.003  -7.815  -1.559  1.00  0.00    -0.269 OA
BRANCH  35  38
ATOM     38  C   UNL     1       9.031  -8.061   0.774  1.00  0.00     0.039 A 
ATOM     39  C   UNL     1       8.136  -8.304   1.816  1.00  0.00     0.014 A 
ATOM     40  C   UNL     1      10.374  -8.427   0.912  1.00  0.00     0.014 A 
ATOM     41  C   UNL     1       8.612  -8.736   3.049  1.00  0.00     0.010 A 
ATOM     42  C   UNL     1      10.833  -8.957   2.123  1.00  0.00     0.010 A 
ATOM     43  C   UNL     1       9.966  -9.069   3.220  1.00  0.00    -0.014 A 
BRANCH  43  44
ATOM     44  C   UNL     1      10.434  -9.542   4.551  1.00  0.00     0.031 A 
ATOM     45  C   UNL     1      11.436  -8.753   5.351  1.00  0.00     0.074 A 
ATOM     46  C   UNL     1       9.894 -10.662   5.073  1.00  0.00     0.049 A 
ATOM     47  N   UNL     1      11.880  -8.980   6.563  1.00  0.00    -0.248 NA
ATOM     48  C   UNL     1      12.017  -7.558   4.719  1.00  0.00     0.031 C 
ATOM     49  C   UNL     1       8.910 -11.512   4.399  1.00  0.00     0.029 A 
ATOM     50  N   UNL     1      10.062 -11.256   6.299  1.00  0.00    -0.354 N 
ATOM     51  C   UNL     1      12.796  -7.970   6.831  1.00  0.00     0.074 A 
ATOM     52  C   UNL     1      12.873  -7.146   5.644  1.00  0.00     0.031 C 
ATOM     53  C   UNL     1       8.507 -12.471   5.244  1.00  0.00     0.029 A 
ATOM     54  C   UNL     1       9.252 -12.350   6.492  1.00  0.00     0.049 A 
ATOM     55  H   UNL     1      10.700 -10.931   6.974  1.00  0.00     0.167 HD
ATOM     56  C   UNL     1      13.495  -7.739   7.968  1.00  0.00     0.031 A 
ATOM     57  C   UNL     1       9.119 -13.171   7.552  1.00  0.00     0.031 A 
ATOM     58  C   UNL     1      13.413  -8.557   9.151  1.00  0.00     0.049 A 
ATOM     59  C   UNL     1       9.938 -12.917   8.784  1.00  0.00     0.074 A 
ATOM     60  C   UNL     1      14.069  -8.384  10.358  1.00  0.00     0.029 A 
ATOM     61  N   UNL     1      12.633  -9.695   9.279  1.00  0.00    -0.354 N 
ATOM     62  N   UNL     1      10.776 -11.940   9.028  1.00  0.00    -0.248 NA
ATOM     63  C   UNL     1       9.791 -13.876   9.888  1.00  0.00     0.031 C 
ATOM     64  C   UNL     1      13.739  -9.455  11.191  1.00  0.00     0.029 A 
ATOM     65  C   UNL     1      12.816 -10.252  10.534  1.00  0.00     0.049 A 
ATOM     66  H   UNL     1      12.038 -10.055   8.582  1.00  0.00     0.167 HD
ATOM     67  C   UNL     1      11.247 -12.157  10.316  1.00  0.00     0.074 A 
ATOM     68  C   UNL     1      10.580 -13.343  10.812  1.00  0.00     0.031 C 
ATOM     69  C   UNL     1      12.156 -11.438  11.019  1.00  0.00     0.031 A 
BRANCH  56  70
ATOM     70  C   UNL     1      14.426  -6.556   8.003  1.00  0.00    -0.014 A 
ATOM     71  C   UNL     1      15.813  -6.761   8.098  1.00  0.00     0.009 A 
ATOM     72  C   UNL     1      13.932  -5.243   8.051  1.00  0.00     0.009 A 
ATOM     73  C   UNL     1      16.682  -5.680   8.258  1.00  0.00     0.001 A 
ATOM     74  C   UNL     1      14.807  -4.161   8.179  1.00  0.00     0.001 A 
ATOM     75  C   UNL     1      16.179  -4.381   8.294  1.00  0.00     0.000 A 
ENDBRANCH  56  70
BRANCH  57  76
ATOM     76  C   UNL     1       8.149 -14.297   7.483  1.00  0.00    -0.014 A 
ATOM     77  C   UNL     1       8.354 -15.361   6.587  1.00  0.00     0.009 A 
ATOM     78  C   UNL     1       6.986 -14.288   8.266  1.00  0.00     0.009 A 
ATOM     79  C   UNL     1       7.399 -16.371   6.452  1.00  0.00     0.001 A 
ATOM     80  C   UNL     1       6.050 -15.319   8.155  1.00  0.00     0.001 A 
ATOM     81  C   UNL     1       6.250 -16.352   7.240  1.00  0.00     0.000 A 
ENDBRANCH  57  76
BRANCH  69  82
ATOM     82  C   UNL     1      12.490 -11.900  12.412  1.00  0.00    -0.014 A 
ATOM     83  C   UNL     1      12.135 -11.106  13.515  1.00  0.00     0.009 A 
ATOM     84  C   UNL     1      13.236 -13.068  12.630  1.00  0.00     0.009 A 
ATOM     85  C   UNL     1      12.530 -11.464  14.804  1.00  0.00     0.001 A 
ATOM     86  C   UNL     1      13.601 -13.442  13.925  1.00  0.00     0.001 A 
ATOM     87  C   UNL     1      13.258 -12.635  15.009  1.00  0.00     0.000 A 
ENDBRANCH  69  82
ENDBRANCH  43  44
ENDBRANCH  35  38
ENDBRANCH  33  34
ENDBRANCH  32  33
ENDBRANCH  31  32
ENDBRANCH   1  31
TORSDOF 17
