REMARK SMILES O=C(CCC/[NH+]=C1/CCCc2ccccc2N1)NCCCCCCNC(=O)c1ccc(-c2c3nc(c(-c4ccccc4)c4ccc([nH]4)c(-c4ccccc4)c4nc(c(-c5ccccc5)c5ccc2[nH]5)C=C4)C=C3)cc1
REMARK SMILES IDX 20 1 19 2 18 3 1 4 2 5 3 7 4 8 5 9 6 10 7 11 17 13 8 15 9 16
REMARK SMILES IDX 16 18 11 19 15 20 12 21 14 22 13 23 10 24 21 26 22 27 23 28
REMARK SMILES IDX 24 29 25 30 26 31 27 33 28 34 29 35 75 36 30 37 74 38 31 39
REMARK SMILES IDX 32 40 33 41 68 42 34 43 73 44 67 45 69 46 35 47 72 48 66 49
REMARK SMILES IDX 65 50 36 52 58 53 43 54 57 55 44 56 47 57 56 58 70 59 45 60
REMARK SMILES IDX 46 61 55 63 71 64 48 65 37 66 38 67 42 68 39 69 41 70 40 71
REMARK SMILES IDX 59 72 60 73 64 74 61 75 63 76 62 77 49 78 50 79 54 80 51 81
REMARK SMILES IDX 53 82 52 83
REMARK H PARENT 18 6 6 12 17 14 25 32 69 51 47 62
REMARK Flexibility Score: 90.00
ROOT
ATOM      1  C   UNL     1       3.222  -3.234   1.424  1.00  0.00     0.021 C 
ENDROOT
BRANCH   1   2
ATOM      2  C   UNL     1       2.539  -1.983   1.964  1.00  0.00     0.116 C 
BRANCH   2   3
ATOM      3  N   UNL     1       2.830  -0.834   1.133  1.00  0.00    -0.356 N 
ATOM      4  O   UNL     1       0.933   0.348   1.577  1.00  0.00    -0.275 OA
ATOM      5  C   UNL     1       2.054   0.293   1.080  1.00  0.00     0.220 C 
ATOM      6  H   UNL     1       3.637  -0.864   0.570  1.00  0.00     0.163 HD
BRANCH   5   7
ATOM      7  C   UNL     1       2.616   1.452   0.266  1.00  0.00     0.104 C 
BRANCH   7   8
ATOM      8  C   UNL     1       4.058   1.861   0.542  1.00  0.00     0.056 C 
BRANCH   8   9
ATOM      9  C   UNL     1       5.170   0.827   0.487  1.00  0.00     0.234 C 
BRANCH   9  10
ATOM     10  N   UNL     1       5.481   0.190  -0.768  1.00  0.00    -0.278 N 
ATOM     11  C   UNL     1       4.952  -0.563  -1.647  1.00  0.00     0.247 C 
ATOM     12  H   UNL     1       6.404   0.409  -1.030  1.00  0.00     0.304 HD
ATOM     13  N   UNL     1       3.648  -0.977  -1.782  1.00  0.00    -0.245 N 
ATOM     14  H   UNL     1       2.981  -0.263  -1.663  1.00  0.00     0.312 HD
BRANCH  11  15
ATOM     15  C   UNL     1       5.964  -1.010  -2.692  1.00  0.00     0.128 C 
BRANCH  15  16
ATOM     16  C   UNL     1       6.192  -2.508  -2.666  1.00  0.00     0.018 CG0
ATOM     17  G   UNL     1       5.066  -3.232  -3.373  1.00  0.00     0.000 G0
ENDBRANCH  15  16
ENDBRANCH  11  15
BRANCH  13  18
ATOM     18  C   UNL     1       3.098  -2.252  -2.062  1.00  0.00     0.127 A 
ATOM     19  C   UNL     1       3.801  -3.355  -2.568  1.00  0.00    -0.001 A 
ATOM     20  C   UNL     1       1.768  -2.475  -1.622  1.00  0.00     0.052 A 
ATOM     21  C   UNL     1       3.256  -4.652  -2.427  1.00  0.00     0.008 A 
ATOM     22  C   UNL     1       1.229  -3.762  -1.511  1.00  0.00     0.004 A 
ATOM     23  C   UNL     1       1.998  -4.859  -1.867  1.00  0.00     0.001 A 
BRANCH  19  24
ATOM     24  C   UNL     1       5.066  -3.232  -3.373  1.00  0.00     0.040 CG0
ATOM     25  G   UNL     1       6.192  -2.508  -2.666  1.00  0.00     0.000 G0
ENDBRANCH  19  24
ENDBRANCH  13  18
ENDBRANCH   9  10
ENDBRANCH   8   9
ENDBRANCH   7   8
ENDBRANCH   5   7
ENDBRANCH   2   3
ENDBRANCH   1   2
BRANCH   1  26
ATOM     26  C   UNL     1       4.736  -3.322   1.630  1.00  0.00     0.002 C 
BRANCH  26  27
ATOM     27  C   UNL     1       5.162  -3.909   2.974  1.00  0.00     0.002 C 
BRANCH  27  28
ATOM     28  C   UNL     1       4.457  -5.210   3.364  1.00  0.00     0.021 C 
BRANCH  28  29
ATOM     29  C   UNL     1       4.460  -6.288   2.283  1.00  0.00     0.116 C 
BRANCH  29  30
ATOM     30  N   UNL     1       5.771  -6.894   2.109  1.00  0.00    -0.352 N 
ATOM     31  C   UNL     1       6.195  -8.151   2.467  1.00  0.00     0.251 C 
ATOM     32  H   UNL     1       6.447  -6.325   1.675  1.00  0.00     0.163 HD
ATOM     33  O   UNL     1       7.388  -8.445   2.437  1.00  0.00    -0.269 OA
BRANCH  31  34
ATOM     34  C   UNL     1       5.201  -9.144   2.923  1.00  0.00     0.039 A 
ATOM     35  C   UNL     1       4.033  -9.355   2.188  1.00  0.00     0.014 A 
ATOM     36  C   UNL     1       5.413  -9.828   4.122  1.00  0.00     0.014 A 
ATOM     37  C   UNL     1       2.997 -10.095   2.746  1.00  0.00     0.010 A 
ATOM     38  C   UNL     1       4.407 -10.652   4.632  1.00  0.00     0.010 A 
ATOM     39  C   UNL     1       3.167 -10.746   3.980  1.00  0.00    -0.014 A 
BRANCH  39  40
ATOM     40  C   UNL     1       2.030 -11.498   4.575  1.00  0.00     0.031 A 
ATOM     41  C   UNL     1       1.425 -11.070   5.887  1.00  0.00     0.074 A 
ATOM     42  C   UNL     1       1.501 -12.539   3.903  1.00  0.00     0.049 A 
ATOM     43  N   UNL     1       0.414 -11.594   6.537  1.00  0.00    -0.248 NA
ATOM     44  C   UNL     1       2.026  -9.907   6.561  1.00  0.00     0.031 C 
ATOM     45  C   UNL     1       1.979 -13.034   2.610  1.00  0.00     0.029 A 
ATOM     46  N   UNL     1       0.432 -13.350   4.194  1.00  0.00    -0.354 N 
ATOM     47  C   UNL     1       0.273 -10.840   7.696  1.00  0.00     0.074 A 
ATOM     48  C   UNL     1       1.320  -9.844   7.683  1.00  0.00     0.031 C 
ATOM     49  C   UNL     1       1.173 -14.020   2.193  1.00  0.00     0.029 A 
ATOM     50  C   UNL     1       0.169 -14.282   3.219  1.00  0.00     0.049 A 
ATOM     51  H   UNL     1      -0.095 -13.271   5.022  1.00  0.00     0.167 HD
ATOM     52  C   UNL     1      -0.656 -10.959   8.674  1.00  0.00     0.031 A 
ATOM     53  C   UNL     1      -0.765 -15.252   3.155  1.00  0.00     0.031 A 
ATOM     54  C   UNL     1      -1.707 -11.943   8.676  1.00  0.00     0.049 A 
ATOM     55  C   UNL     1      -1.746 -15.401   4.283  1.00  0.00     0.074 A 
ATOM     56  C   UNL     1      -2.708 -12.122   9.615  1.00  0.00     0.029 A 
ATOM     57  N   UNL     1      -1.896 -12.909   7.700  1.00  0.00    -0.354 N 
ATOM     58  N   UNL     1      -1.876 -14.667   5.362  1.00  0.00    -0.248 NA
ATOM     59  C   UNL     1      -2.711 -16.505   4.186  1.00  0.00     0.031 C 
ATOM     60  C   UNL     1      -3.453 -13.244   9.250  1.00  0.00     0.029 A 
ATOM     61  C   UNL     1      -2.977 -13.708   8.034  1.00  0.00     0.049 A 
ATOM     62  H   UNL     1      -1.344 -13.012   6.891  1.00  0.00     0.167 HD
ATOM     63  C   UNL     1      -2.952 -15.203   6.058  1.00  0.00     0.074 A 
ATOM     64  C   UNL     1      -3.450 -16.312   5.272  1.00  0.00     0.031 C 
ATOM     65  C   UNL     1      -3.475 -14.806   7.244  1.00  0.00     0.031 A 
BRANCH  52  66
ATOM     66  C   UNL     1      -0.592 -10.010   9.843  1.00  0.00    -0.014 A 
ATOM     67  C   UNL     1      -0.322 -10.508  11.129  1.00  0.00     0.009 A 
ATOM     68  C   UNL     1      -0.914  -8.651   9.699  1.00  0.00     0.009 A 
ATOM     69  C   UNL     1      -0.398  -9.675  12.246  1.00  0.00     0.001 A 
ATOM     70  C   UNL     1      -0.956  -7.811  10.816  1.00  0.00     0.001 A 
ATOM     71  C   UNL     1      -0.712  -8.326  12.088  1.00  0.00     0.000 A 
ENDBRANCH  52  66
BRANCH  53  72
ATOM     72  C   UNL     1      -0.811 -16.140   1.962  1.00  0.00    -0.014 A 
ATOM     73  C   UNL     1       0.255 -17.012   1.677  1.00  0.00     0.009 A 
ATOM     74  C   UNL     1      -1.888 -16.078   1.065  1.00  0.00     0.009 A 
ATOM     75  C   UNL     1       0.261 -17.771   0.505  1.00  0.00     0.001 A 
ATOM     76  C   UNL     1      -1.897 -16.867  -0.088  1.00  0.00     0.001 A 
ATOM     77  C   UNL     1      -0.817 -17.702  -0.374  1.00  0.00     0.000 A 
ENDBRANCH  53  72
BRANCH  65  78
ATOM     78  C   UNL     1      -4.672 -15.547   7.778  1.00  0.00    -0.014 A 
ATOM     79  C   UNL     1      -5.902 -14.878   7.904  1.00  0.00     0.009 A 
ATOM     80  C   UNL     1      -4.560 -16.855   8.271  1.00  0.00     0.009 A 
ATOM     81  C   UNL     1      -6.984 -15.492   8.537  1.00  0.00     0.001 A 
ATOM     82  C   UNL     1      -5.656 -17.481   8.871  1.00  0.00     0.001 A 
ATOM     83  C   UNL     1      -6.861 -16.794   9.016  1.00  0.00     0.000 A 
ENDBRANCH  65  78
ENDBRANCH  39  40
ENDBRANCH  31  34
ENDBRANCH  29  30
ENDBRANCH  28  29
ENDBRANCH  27  28
ENDBRANCH  26  27
ENDBRANCH   1  26
TORSDOF 16
