REMARK SMILES COc1ccccc1C(=O)N1[C@@H](C(=O)NCCCCCCNC(=O)c2ccc(-c3c4nc(c(-c5ccccc5)c5ccc([nH]5)c(-c5ccccc5)c5nc(c(-c6ccccc6)c6ccc3[nH]6)C=C5)C=C4)cc2)COC12CC[NH+](Cc1ccccc1)CC2
REMARK SMILES IDX 18 1 17 2 16 3 15 4 13 5 14 6 12 8 11 9 75 10 73 11 74 12
REMARK SMILES IDX 76 13 87 14 77 15 86 16 78 17 9 19 10 20 8 21 3 22 4 23 5 24
REMARK SMILES IDX 7 25 6 26 2 27 1 28 79 29 80 30 81 31 85 32 82 33 84 34
REMARK SMILES IDX 83 35 19 36 20 37 21 38 22 39 23 40 24 42 25 43 26 44 72 45
REMARK SMILES IDX 27 46 71 47 28 48 29 49 30 50 65 51 31 52 70 53 64 54 66 55
REMARK SMILES IDX 32 56 69 57 63 58 62 59 33 61 55 62 40 63 54 64 41 65 44 66
REMARK SMILES IDX 53 67 67 68 42 69 43 70 52 72 68 73 45 74 34 75 35 76 39 77
REMARK SMILES IDX 36 78 38 79 37 80 56 81 57 82 61 83 58 84 60 85 59 86 46 87
REMARK SMILES IDX 47 88 51 89 48 90 50 91 49 92
REMARK H PARENT 15 7 78 18 22 41 66 60 44 71
REMARK Flexibility Score: inf
ROOT
ATOM      1  C   UNL     1      -2.769  -2.750  -1.356  1.00  0.00     0.002 C 
ENDROOT
BRANCH   1   2
ATOM      2  C   UNL     1      -1.443  -2.752  -2.108  1.00  0.00     0.021 C 
BRANCH   2   3
ATOM      3  C   UNL     1      -0.270  -2.117  -1.381  1.00  0.00     0.116 C 
BRANCH   3   4
ATOM      4  N   UNL     1       0.400  -2.960  -0.417  1.00  0.00    -0.354 N 
ATOM      5  C   UNL     1       1.611  -2.761   0.197  1.00  0.00     0.245 C 
ATOM      6  O   UNL     1       1.854  -3.488   1.168  1.00  0.00    -0.273 OA
ATOM      7  H   UNL     1      -0.075  -3.785  -0.167  1.00  0.00     0.163 HD
BRANCH   5   8
ATOM      8  C   UNL     1       2.624  -1.668  -0.235  1.00  0.00     0.203 C 
ATOM      9  N   UNL     1       2.279  -0.292   0.129  1.00  0.00    -0.295 N 
ATOM     10  C   UNL     1       2.139   0.510  -1.103  1.00  0.00     0.155 C 
ATOM     11  C   UNL     1       2.838  -1.619  -1.725  1.00  0.00     0.198 C 
ATOM     12  O   UNL     1       2.045  -0.490  -2.155  1.00  0.00    -0.352 OA
ATOM     13  C   UNL     1       0.888   1.390  -1.104  1.00  0.00     0.120 C 
ATOM     14  C   UNL     1       3.370   1.330  -1.520  1.00  0.00     0.120 C 
ATOM     15  C   UNL     1       0.701   2.197  -2.375  1.00  0.00     0.267 C 
ATOM     16  C   UNL     1       3.074   2.166  -2.788  1.00  0.00     0.267 C 
ATOM     17  N   UNL     1       1.871   2.990  -2.724  1.00  0.00    -0.331 N 
ATOM     18  H   UNL     1       1.729   3.310  -3.683  1.00  0.00     0.348 HD
BRANCH   9  19
ATOM     19  C   UNL     1       2.728   0.177   1.368  1.00  0.00     0.260 C 
ATOM     20  O   UNL     1       3.799  -0.242   1.820  1.00  0.00    -0.269 OA
BRANCH  19  21
ATOM     21  C   UNL     1       1.942   1.108   2.257  1.00  0.00     0.082 A 
ATOM     22  C   UNL     1       0.562   1.341   2.223  1.00  0.00     0.131 A 
ATOM     23  C   UNL     1      -0.060   2.254   3.096  1.00  0.00     0.047 A 
ATOM     24  C   UNL     1       0.659   2.829   4.137  1.00  0.00     0.004 A 
ATOM     25  C   UNL     1       2.636   1.676   3.348  1.00  0.00     0.018 A 
ATOM     26  C   UNL     1       2.002   2.505   4.288  1.00  0.00     0.001 A 
BRANCH  22  27
ATOM     27  O   UNL     1      -0.302   0.614   1.450  1.00  0.00    -0.496 OA
ATOM     28  C   UNL     1      -0.545  -0.636   2.100  1.00  0.00     0.278 C 
ENDBRANCH  22  27
ENDBRANCH  19  21
ENDBRANCH   9  19
BRANCH  17  29
ATOM     29  C   UNL     1       1.975   4.317  -2.098  1.00  0.00     0.299 C 
BRANCH  29  30
ATOM     30  C   UNL     1       2.681   4.430  -0.764  1.00  0.00     0.006 A 
ATOM     31  C   UNL     1       1.966   4.632   0.421  1.00  0.00     0.009 A 
ATOM     32  C   UNL     1       4.081   4.329  -0.686  1.00  0.00     0.009 A 
ATOM     33  C   UNL     1       2.631   4.658   1.648  1.00  0.00     0.001 A 
ATOM     34  C   UNL     1       4.731   4.260   0.545  1.00  0.00     0.001 A 
ATOM     35  C   UNL     1       4.003   4.420   1.716  1.00  0.00     0.000 A 
ENDBRANCH  29  30
ENDBRANCH  17  29
ENDBRANCH   5   8
ENDBRANCH   3   4
ENDBRANCH   2   3
ENDBRANCH   1   2
BRANCH   1  36
ATOM     36  C   UNL     1      -3.268  -1.391  -0.852  1.00  0.00     0.002 C 
BRANCH  36  37
ATOM     37  C   UNL     1      -3.313  -0.244  -1.865  1.00  0.00     0.021 C 
BRANCH  37  38
ATOM     38  C   UNL     1      -4.053  -0.531  -3.166  1.00  0.00     0.116 C 
BRANCH  38  39
ATOM     39  N   UNL     1      -5.406  -1.014  -2.958  1.00  0.00    -0.352 N 
ATOM     40  C   UNL     1      -6.571  -0.664  -3.599  1.00  0.00     0.251 C 
ATOM     41  H   UNL     1      -5.505  -1.695  -2.253  1.00  0.00     0.163 HD
ATOM     42  O   UNL     1      -7.644  -1.099  -3.208  1.00  0.00    -0.269 OA
BRANCH  40  43
ATOM     43  C   UNL     1      -6.526   0.267  -4.748  1.00  0.00     0.039 A 
ATOM     44  C   UNL     1      -7.455   1.310  -4.802  1.00  0.00     0.014 A 
ATOM     45  C   UNL     1      -5.580   0.115  -5.764  1.00  0.00     0.014 A 
ATOM     46  C   UNL     1      -7.394   2.240  -5.842  1.00  0.00     0.010 A 
ATOM     47  C   UNL     1      -5.475   1.082  -6.760  1.00  0.00     0.010 A 
ATOM     48  C   UNL     1      -6.381   2.153  -6.810  1.00  0.00    -0.014 A 
BRANCH  48  49
ATOM     49  C   UNL     1      -6.244   3.168  -7.885  1.00  0.00     0.031 A 
ATOM     50  C   UNL     1      -6.405   2.761  -9.325  1.00  0.00     0.074 A 
ATOM     51  C   UNL     1      -5.893   4.432  -7.572  1.00  0.00     0.049 A 
ATOM     52  N   UNL     1      -6.210   3.468 -10.408  1.00  0.00    -0.248 NA
ATOM     53  C   UNL     1      -6.815   1.370  -9.582  1.00  0.00     0.031 C 
ATOM     54  C   UNL     1      -5.683   4.945  -6.216  1.00  0.00     0.029 A 
ATOM     55  N   UNL     1      -5.631   5.513  -8.378  1.00  0.00    -0.354 N 
ATOM     56  C   UNL     1      -6.442   2.602 -11.470  1.00  0.00     0.074 A 
ATOM     57  C   UNL     1      -6.761   1.311 -10.905  1.00  0.00     0.031 C 
ATOM     58  C   UNL     1      -5.342   6.242  -6.284  1.00  0.00     0.029 A 
ATOM     59  C   UNL     1      -5.255   6.640  -7.685  1.00  0.00     0.049 A 
ATOM     60  H   UNL     1      -5.706   5.484  -9.359  1.00  0.00     0.167 HD
ATOM     61  C   UNL     1      -6.401   2.865 -12.797  1.00  0.00     0.031 A 
ATOM     62  C   UNL     1      -4.863   7.850  -8.129  1.00  0.00     0.031 A 
ATOM     63  C   UNL     1      -6.109   4.158 -13.355  1.00  0.00     0.049 A 
ATOM     64  C   UNL     1      -4.804   8.101  -9.613  1.00  0.00     0.074 A 
ATOM     65  C   UNL     1      -6.118   4.539 -14.685  1.00  0.00     0.029 A 
ATOM     66  N   UNL     1      -5.752   5.274 -12.618  1.00  0.00    -0.354 N 
ATOM     67  N   UNL     1      -5.106   7.294 -10.601  1.00  0.00    -0.248 NA
ATOM     68  C   UNL     1      -4.358   9.435 -10.043  1.00  0.00     0.031 C 
ATOM     69  C   UNL     1      -5.702   5.870 -14.759  1.00  0.00     0.029 A 
ATOM     70  C   UNL     1      -5.505   6.337 -13.469  1.00  0.00     0.049 A 
ATOM     71  H   UNL     1      -5.683   5.307 -11.636  1.00  0.00     0.167 HD
ATOM     72  C   UNL     1      -4.931   8.035 -11.762  1.00  0.00     0.074 A 
ATOM     73  C   UNL     1      -4.504   9.357 -11.359  1.00  0.00     0.031 C 
ATOM     74  C   UNL     1      -5.111   7.655 -13.050  1.00  0.00     0.031 A 
BRANCH  61  75
ATOM     75  C   UNL     1      -6.665   1.735 -13.753  1.00  0.00    -0.014 A 
ATOM     76  C   UNL     1      -7.952   1.199 -13.915  1.00  0.00     0.009 A 
ATOM     77  C   UNL     1      -5.625   1.264 -14.569  1.00  0.00     0.009 A 
ATOM     78  C   UNL     1      -8.186   0.201 -14.863  1.00  0.00     0.001 A 
ATOM     79  C   UNL     1      -5.868   0.287 -15.536  1.00  0.00     0.001 A 
ATOM     80  C   UNL     1      -7.147  -0.247 -15.678  1.00  0.00     0.000 A 
ENDBRANCH  61  75
BRANCH  62  81
ATOM     81  C   UNL     1      -4.478   8.922  -7.172  1.00  0.00    -0.014 A 
ATOM     82  C   UNL     1      -5.244  10.095  -7.066  1.00  0.00     0.009 A 
ATOM     83  C   UNL     1      -3.313   8.805  -6.397  1.00  0.00     0.009 A 
ATOM     84  C   UNL     1      -4.826  11.144  -6.243  1.00  0.00     0.001 A 
ATOM     85  C   UNL     1      -2.917   9.841  -5.547  1.00  0.00     0.001 A 
ATOM     86  C   UNL     1      -3.664  11.015  -5.484  1.00  0.00     0.000 A 
ENDBRANCH  62  81
BRANCH  74  87
ATOM     87  C   UNL     1      -4.923   8.693 -14.119  1.00  0.00    -0.014 A 
ATOM     88  C   UNL     1      -3.650   9.162 -14.475  1.00  0.00     0.009 A 
ATOM     89  C   UNL     1      -6.042   9.149 -14.836  1.00  0.00     0.009 A 
ATOM     90  C   UNL     1      -3.504  10.083 -15.514  1.00  0.00     0.001 A 
ATOM     91  C   UNL     1      -5.890  10.044 -15.894  1.00  0.00     0.001 A 
ATOM     92  C   UNL     1      -4.622  10.516 -16.228  1.00  0.00     0.000 A 
ENDBRANCH  74  87
ENDBRANCH  48  49
ENDBRANCH  40  43
ENDBRANCH  38  39
ENDBRANCH  37  38
ENDBRANCH  36  37
ENDBRANCH   1  36
TORSDOF 18
