REMARK SMILES Cc1c(CC(=O)NCCCCCCNC(=O)c2ccc(-c3c4nc(c(-c5ccccc5)c5ccc([nH]5)c(-c5ccccc5)c5nc(c(-c6ccccc6)c6ccc3[nH]6)C=C5)C=C4)cc2)c2cc(O)ccc2n1C(=O)c1ccc(Cl)cc1
REMARK SMILES IDX 10 1 9 2 8 3 7 4 5 5 6 6 4 8 3 9 1 10 2 11 72 12 65 13 71 14
REMARK SMILES IDX 66 15 70 16 67 17 69 18 73 19 74 20 75 21 76 22 81 23 77 24
REMARK SMILES IDX 80 25 78 26 79 27 68 28 11 30 12 31 13 32 14 33 15 34 16 36
REMARK SMILES IDX 17 37 18 38 64 39 19 40 63 41 20 42 21 43 22 44 57 45 23 46
REMARK SMILES IDX 62 47 56 48 58 49 24 50 61 51 55 52 54 53 25 55 47 56 32 57
REMARK SMILES IDX 46 58 33 59 36 60 45 61 59 62 34 63 35 64 44 66 60 67 37 68
REMARK SMILES IDX 26 69 27 70 31 71 28 72 30 73 29 74 48 75 49 76 53 77 50 78
REMARK SMILES IDX 52 79 51 80 38 81 39 82 43 83 40 84 42 85 41 86
REMARK H PARENT 7 7 68 29 14 35 58 54 36 65
REMARK Flexibility Score: inf
ROOT
ATOM      1  C   UNL     1      -2.639  -3.068   2.938  1.00  0.00     0.002 C 
ENDROOT
BRANCH   1   2
ATOM      2  C   UNL     1      -1.698  -2.368   1.948  1.00  0.00     0.021 C 
BRANCH   2   3
ATOM      3  C   UNL     1      -0.343  -2.006   2.553  1.00  0.00     0.116 C 
BRANCH   3   4
ATOM      4  N   UNL     1       0.476  -3.187   2.730  1.00  0.00    -0.356 N 
ATOM      5  C   UNL     1       1.536  -3.610   1.980  1.00  0.00     0.224 C 
ATOM      6  O   UNL     1       2.046  -4.699   2.253  1.00  0.00    -0.275 OA
ATOM      7  H   UNL     1       0.237  -3.762   3.492  1.00  0.00     0.163 HD
BRANCH   5   8
ATOM      8  C   UNL     1       2.111  -2.715   0.894  1.00  0.00     0.138 C 
BRANCH   8   9
ATOM      9  C   UNL     1       1.197  -2.505  -0.282  1.00  0.00    -0.009 A 
ATOM     10  C   UNL     1       1.248   0.086  -0.423  1.00  0.00     0.065 C 
ATOM     11  C   UNL     1       0.809  -1.286  -0.826  1.00  0.00     0.028 A 
ATOM     12  N   UNL     1      -0.135  -1.527  -1.833  1.00  0.00    -0.280 N 
ATOM     13  C   UNL     1       0.627  -3.525  -1.095  1.00  0.00     0.008 A 
ATOM     14  C   UNL     1      -0.105  -2.902  -2.114  1.00  0.00     0.057 A 
ATOM     15  C   UNL     1       0.704  -4.936  -1.064  1.00  0.00     0.056 A 
ATOM     16  C   UNL     1      -0.676  -3.676  -3.148  1.00  0.00     0.031 A 
ATOM     17  C   UNL     1       0.074  -5.685  -2.052  1.00  0.00     0.116 A 
ATOM     18  C   UNL     1      -0.595  -5.070  -3.093  1.00  0.00     0.048 A 
BRANCH  12  19
ATOM     19  C   UNL     1      -0.975  -0.540  -2.431  1.00  0.00     0.262 C 
ATOM     20  O   UNL     1      -0.937   0.609  -2.016  1.00  0.00    -0.268 OA
BRANCH  19  21
ATOM     21  C   UNL     1      -1.926  -0.797  -3.527  1.00  0.00     0.040 A 
ATOM     22  C   UNL     1      -3.098  -1.526  -3.301  1.00  0.00     0.015 A 
ATOM     23  C   UNL     1      -1.612  -0.313  -4.801  1.00  0.00     0.015 A 
ATOM     24  C   UNL     1      -3.921  -1.843  -4.385  1.00  0.00     0.021 A 
ATOM     25  C   UNL     1      -2.443  -0.627  -5.877  1.00  0.00     0.021 A 
ATOM     26  C   UNL     1      -3.582  -1.406  -5.667  1.00  0.00     0.041 A 
ATOM     27  Cl  UNL     1      -4.567  -1.849  -7.006  1.00  0.00    -0.084 Cl
ENDBRANCH  19  21
ENDBRANCH  12  19
BRANCH  17  28
ATOM     28  O   UNL     1       0.157  -7.043  -1.967  1.00  0.00    -0.508 OA
ATOM     29  H   UNL     1       0.615  -7.441  -1.253  1.00  0.00     0.293 HD
ENDBRANCH  17  28
ENDBRANCH   8   9
ENDBRANCH   5   8
ENDBRANCH   3   4
ENDBRANCH   2   3
ENDBRANCH   1   2
BRANCH   1  30
ATOM     30  C   UNL     1      -3.070  -2.208   4.129  1.00  0.00     0.002 C 
BRANCH  30  31
ATOM     31  C   UNL     1      -3.708  -0.867   3.759  1.00  0.00     0.021 C 
BRANCH  31  32
ATOM     32  C   UNL     1      -4.893  -0.978   2.796  1.00  0.00     0.116 C 
BRANCH  32  33
ATOM     33  N   UNL     1      -6.015  -1.738   3.309  1.00  0.00    -0.352 N 
ATOM     34  C   UNL     1      -7.027  -1.467   4.189  1.00  0.00     0.251 C 
ATOM     35  H   UNL     1      -6.059  -2.651   2.944  1.00  0.00     0.163 HD
ATOM     36  O   UNL     1      -7.901  -2.327   4.319  1.00  0.00    -0.269 OA
BRANCH  34  37
ATOM     37  C   UNL     1      -7.082  -0.257   5.052  1.00  0.00     0.039 A 
ATOM     38  C   UNL     1      -6.313   0.891   4.869  1.00  0.00     0.014 A 
ATOM     39  C   UNL     1      -7.934  -0.326   6.169  1.00  0.00     0.014 A 
ATOM     40  C   UNL     1      -6.253   1.860   5.858  1.00  0.00     0.010 A 
ATOM     41  C   UNL     1      -7.922   0.671   7.138  1.00  0.00     0.010 A 
ATOM     42  C   UNL     1      -7.024   1.727   7.012  1.00  0.00    -0.014 A 
BRANCH  42  43
ATOM     43  C   UNL     1      -6.884   2.771   8.021  1.00  0.00     0.031 A 
ATOM     44  C   UNL     1      -7.234   4.149   7.574  1.00  0.00     0.074 A 
ATOM     45  C   UNL     1      -6.535   2.516   9.296  1.00  0.00     0.049 A 
ATOM     46  N   UNL     1      -6.501   5.215   7.595  1.00  0.00    -0.248 NA
ATOM     47  C   UNL     1      -8.550   4.333   6.943  1.00  0.00     0.031 C 
ATOM     48  C   UNL     1      -6.442   1.210   9.955  1.00  0.00     0.029 A 
ATOM     49  N   UNL     1      -6.311   3.397  10.311  1.00  0.00    -0.354 N 
ATOM     50  C   UNL     1      -7.310   6.245   7.115  1.00  0.00     0.074 A 
ATOM     51  C   UNL     1      -8.515   5.626   6.625  1.00  0.00     0.031 C 
ATOM     52  C   UNL     1      -6.437   1.393  11.293  1.00  0.00     0.029 A 
ATOM     53  C   UNL     1      -6.377   2.818  11.569  1.00  0.00     0.049 A 
ATOM     54  H   UNL     1      -6.122   4.352  10.166  1.00  0.00     0.167 HD
ATOM     55  C   UNL     1      -7.018   7.559   7.317  1.00  0.00     0.031 A 
ATOM     56  C   UNL     1      -6.471   3.470  12.751  1.00  0.00     0.031 A 
ATOM     57  C   UNL     1      -5.641   7.765   7.666  1.00  0.00     0.049 A 
ATOM     58  C   UNL     1      -6.020   4.863  12.549  1.00  0.00     0.074 A 
ATOM     59  C   UNL     1      -4.431   7.603   7.026  1.00  0.00     0.029 A 
ATOM     60  N   UNL     1      -5.355   7.937   8.996  1.00  0.00    -0.354 N 
ATOM     61  N   UNL     1      -4.790   5.202  12.292  1.00  0.00    -0.248 NA
ATOM     62  C   UNL     1      -7.016   5.891  12.292  1.00  0.00     0.031 C 
ATOM     63  C   UNL     1      -3.507   7.263   8.055  1.00  0.00     0.029 A 
ATOM     64  C   UNL     1      -4.197   7.260   9.270  1.00  0.00     0.049 A 
ATOM     65  H   UNL     1      -5.888   8.457   9.641  1.00  0.00     0.167 HD
ATOM     66  C   UNL     1      -4.894   6.304  11.459  1.00  0.00     0.074 A 
ATOM     67  C   UNL     1      -6.269   6.766  11.615  1.00  0.00     0.031 C 
ATOM     68  C   UNL     1      -3.943   6.562  10.513  1.00  0.00     0.031 A 
BRANCH  55  69
ATOM     69  C   UNL     1      -8.068   8.618   7.563  1.00  0.00    -0.014 A 
ATOM     70  C   UNL     1      -9.409   8.320   7.871  1.00  0.00     0.009 A 
ATOM     71  C   UNL     1      -7.657   9.949   7.774  1.00  0.00     0.009 A 
ATOM     72  C   UNL     1     -10.286   9.280   8.383  1.00  0.00     0.001 A 
ATOM     73  C   UNL     1      -8.521  10.903   8.328  1.00  0.00     0.001 A 
ATOM     74  C   UNL     1      -9.834  10.565   8.639  1.00  0.00     0.000 A 
ENDBRANCH  55  69
BRANCH  56  75
ATOM     75  C   UNL     1      -7.252   3.062  13.936  1.00  0.00    -0.014 A 
ATOM     76  C   UNL     1      -8.427   2.303  13.780  1.00  0.00     0.009 A 
ATOM     77  C   UNL     1      -7.010   3.648  15.187  1.00  0.00     0.009 A 
ATOM     78  C   UNL     1      -9.348   2.167  14.822  1.00  0.00     0.001 A 
ATOM     79  C   UNL     1      -7.936   3.517  16.230  1.00  0.00     0.001 A 
ATOM     80  C   UNL     1      -9.110   2.790  16.041  1.00  0.00     0.000 A 
ENDBRANCH  56  75
BRANCH  68  81
ATOM     81  C   UNL     1      -2.629   5.825  10.605  1.00  0.00    -0.014 A 
ATOM     82  C   UNL     1      -1.442   6.576  10.584  1.00  0.00     0.009 A 
ATOM     83  C   UNL     1      -2.532   4.425  10.538  1.00  0.00     0.009 A 
ATOM     84  C   UNL     1      -0.198   5.949  10.491  1.00  0.00     0.001 A 
ATOM     85  C   UNL     1      -1.284   3.796  10.473  1.00  0.00     0.001 A 
ATOM     86  C   UNL     1      -0.119   4.559  10.439  1.00  0.00     0.000 A 
ENDBRANCH  68  81
ENDBRANCH  42  43
ENDBRANCH  34  37
ENDBRANCH  32  33
ENDBRANCH  31  32
ENDBRANCH  30  31
ENDBRANCH   1  30
TORSDOF 17
