REMARK SMILES NS(=O)(=O)c1ccc(-n2nc(C(=O)NCCCC(=O)NCCCCCCNC(=O)c3ccc(-c4c5nc(c(-c6ccccc6)c6ccc([nH]6)c(-c6ccccc6)c6nc(c(-c7ccccc7)c7ccc4[nH]7)C=C6)C=C5)cc3)cc2-c2ccccc2)cc1
REMARK SMILES IDX 21 1 20 2 18 3 19 4 17 6 16 7 15 8 14 9 12 10 13 11 11 13
REMARK SMILES IDX 9 14 10 15 79 16 78 17 8 18 5 19 6 20 87 21 7 22 86 23 2 24
REMARK SMILES IDX 3 25 4 26 1 27 80 30 81 31 85 32 82 33 84 34 83 35 22 36
REMARK SMILES IDX 23 37 24 38 25 39 26 40 27 41 28 42 29 44 30 45 31 46 77 47
REMARK SMILES IDX 32 48 76 49 33 50 34 51 35 52 70 53 36 54 75 55 69 56 71 57
REMARK SMILES IDX 37 58 74 59 68 60 67 61 38 63 60 64 45 65 59 66 46 67 49 68
REMARK SMILES IDX 58 69 72 70 47 71 48 72 57 74 73 75 50 76 39 77 40 78 44 79
REMARK SMILES IDX 41 80 43 81 42 82 61 83 62 84 66 85 63 86 65 87 64 88 51 89
REMARK SMILES IDX 52 90 56 91 53 92 55 93 54 94
REMARK H PARENT 20 5 14 12 1 28 1 29 27 43 71 62 49 73
REMARK Flexibility Score: inf
ROOT
ATOM      1  C   UNL     1       1.446  10.878   7.461  1.00  0.00     0.116 C 
ENDROOT
BRANCH   1   2
ATOM      2  N   UNL     1       2.620  11.659   7.801  1.00  0.00    -0.356 N 
ATOM      3  C   UNL     1       3.356  12.513   7.040  1.00  0.00     0.220 C 
ATOM      4  O   UNL     1       4.390  12.981   7.518  1.00  0.00    -0.275 OA
ATOM      5  H   UNL     1       2.933  11.554   8.728  1.00  0.00     0.163 HD
BRANCH   3   6
ATOM      6  C   UNL     1       2.909  12.886   5.641  1.00  0.00     0.102 C 
BRANCH   6   7
ATOM      7  C   UNL     1       3.573  12.058   4.538  1.00  0.00     0.031 C 
BRANCH   7   8
ATOM      8  C   UNL     1       2.949  10.689   4.283  1.00  0.00     0.116 C 
BRANCH   8   9
ATOM      9  N   UNL     1       1.534  10.745   3.956  1.00  0.00    -0.351 N 
ATOM     10  C   UNL     1       0.664   9.759   3.541  1.00  0.00     0.271 C 
ATOM     11  O   UNL     1      -0.512  10.085   3.373  1.00  0.00    -0.267 OA
ATOM     12  H   UNL     1       1.128  11.637   4.047  1.00  0.00     0.163 HD
BRANCH  10  13
ATOM     13  C   UNL     1       1.156   8.396   3.282  1.00  0.00     0.151 A 
ATOM     14  N   UNL     1       1.359   6.516   2.267  1.00  0.00    -0.232 N 
ATOM     15  N   UNL     1       0.621   7.647   2.296  1.00  0.00    -0.162 NA
ATOM     16  C   UNL     1       2.461   6.615   3.107  1.00  0.00     0.075 A 
ATOM     17  C   UNL     1       2.219   7.703   3.910  1.00  0.00     0.065 A 
BRANCH  14  18
ATOM     18  C   UNL     1       1.100   5.462   1.345  1.00  0.00     0.065 A 
ATOM     19  C   UNL     1       1.291   3.556  -0.658  1.00  0.00     0.082 A 
ATOM     20  C   UNL     1       1.640   3.210   0.646  1.00  0.00     0.024 A 
ATOM     21  C   UNL     1       0.713   4.801  -0.942  1.00  0.00     0.024 A 
ATOM     22  C   UNL     1       1.539   4.164   1.648  1.00  0.00     0.030 A 
ATOM     23  C   UNL     1       0.595   5.757   0.074  1.00  0.00     0.030 A 
BRANCH  19  24
ATOM     24  S   UNL     1       1.727   2.476  -1.988  1.00  0.00     0.238 S 
ATOM     25  O   UNL     1       2.955   2.963  -2.569  1.00  0.00    -0.207 OA
ATOM     26  O   UNL     1       0.545   2.193  -2.766  1.00  0.00    -0.207 OA
BRANCH  24  27
ATOM     27  N   UNL     1       2.137   1.042  -1.207  1.00  0.00    -0.225 NA
ATOM     28  H   UNL     1       2.408   0.343  -1.899  1.00  0.00     0.137 HD
ATOM     29  H   UNL     1       1.334   0.702  -0.678  1.00  0.00     0.137 HD
ENDBRANCH  24  27
ENDBRANCH  19  24
ENDBRANCH  14  18
BRANCH  16  30
ATOM     30  C   UNL     1       3.694   5.853   2.962  1.00  0.00     0.000 A 
ATOM     31  C   UNL     1       4.296   5.748   1.694  1.00  0.00     0.010 A 
ATOM     32  C   UNL     1       4.270   5.215   4.055  1.00  0.00     0.010 A 
ATOM     33  C   UNL     1       5.403   4.936   1.499  1.00  0.00     0.001 A 
ATOM     34  C   UNL     1       5.401   4.433   3.861  1.00  0.00     0.001 A 
ATOM     35  C   UNL     1       5.947   4.271   2.586  1.00  0.00     0.000 A 
ENDBRANCH  16  30
ENDBRANCH  10  13
ENDBRANCH   8   9
ENDBRANCH   7   8
ENDBRANCH   6   7
ENDBRANCH   3   6
ENDBRANCH   1   2
BRANCH   1  36
ATOM     36  C   UNL     1       1.739   9.381   7.590  1.00  0.00     0.021 C 
BRANCH  36  37
ATOM     37  C   UNL     1       1.566   8.830   9.008  1.00  0.00     0.002 C 
BRANCH  37  38
ATOM     38  C   UNL     1       0.142   8.908   9.574  1.00  0.00     0.002 C 
BRANCH  38  39
ATOM     39  C   UNL     1      -0.959   8.271   8.713  1.00  0.00     0.021 C 
BRANCH  39  40
ATOM     40  C   UNL     1      -0.836   6.758   8.565  1.00  0.00     0.116 C 
BRANCH  40  41
ATOM     41  N   UNL     1      -1.004   6.077   9.842  1.00  0.00    -0.352 N 
ATOM     42  C   UNL     1      -0.780   4.759  10.158  1.00  0.00     0.251 C 
ATOM     43  H   UNL     1      -1.324   6.641  10.583  1.00  0.00     0.163 HD
ATOM     44  O   UNL     1      -1.261   4.273  11.176  1.00  0.00    -0.269 OA
BRANCH  42  45
ATOM     45  C   UNL     1       0.020   3.917   9.251  1.00  0.00     0.039 A 
ATOM     46  C   UNL     1      -0.448   2.647   8.910  1.00  0.00     0.014 A 
ATOM     47  C   UNL     1       1.232   4.388   8.742  1.00  0.00     0.014 A 
ATOM     48  C   UNL     1       0.261   1.888   7.984  1.00  0.00     0.010 A 
ATOM     49  C   UNL     1       1.900   3.662   7.769  1.00  0.00     0.010 A 
ATOM     50  C   UNL     1       1.421   2.407   7.383  1.00  0.00    -0.014 A 
BRANCH  50  51
ATOM     51  C   UNL     1       2.025   1.679   6.258  1.00  0.00     0.031 A 
ATOM     52  C   UNL     1       1.087   1.298   5.157  1.00  0.00     0.074 A 
ATOM     53  C   UNL     1       3.349   1.456   6.115  1.00  0.00     0.049 A 
ATOM     54  N   UNL     1       0.847   0.111   4.705  1.00  0.00    -0.248 NA
ATOM     55  C   UNL     1       0.257   2.341   4.542  1.00  0.00     0.031 C 
ATOM     56  C   UNL     1       4.440   1.914   6.974  1.00  0.00     0.029 A 
ATOM     57  N   UNL     1       4.008   0.826   5.096  1.00  0.00    -0.354 N 
ATOM     58  C   UNL     1      -0.103   0.241   3.689  1.00  0.00     0.074 A 
ATOM     59  C   UNL     1      -0.476   1.634   3.678  1.00  0.00     0.031 C 
ATOM     60  C   UNL     1       5.619   1.717   6.346  1.00  0.00     0.029 A 
ATOM     61  C   UNL     1       5.386   1.035   5.082  1.00  0.00     0.049 A 
ATOM     62  H   UNL     1       3.547   0.270   4.427  1.00  0.00     0.167 HD
ATOM     63  C   UNL     1      -0.416  -0.801   2.864  1.00  0.00     0.031 A 
ATOM     64  C   UNL     1       6.258   0.711   4.090  1.00  0.00     0.031 A 
ATOM     65  C   UNL     1       0.133  -2.037   3.359  1.00  0.00     0.049 A 
ATOM     66  C   UNL     1       5.593  -0.323   3.261  1.00  0.00     0.074 A 
ATOM     67  C   UNL     1      -0.104  -2.855   4.443  1.00  0.00     0.029 A 
ATOM     68  N   UNL     1       1.327  -2.442   2.816  1.00  0.00    -0.354 N 
ATOM     69  N   UNL     1       5.500  -1.567   3.627  1.00  0.00    -0.248 NA
ATOM     70  C   UNL     1       4.715   0.063   2.161  1.00  0.00     0.031 C 
ATOM     71  C   UNL     1       1.155  -3.444   4.747  1.00  0.00     0.029 A 
ATOM     72  C   UNL     1       2.085  -2.976   3.818  1.00  0.00     0.049 A 
ATOM     73  H   UNL     1       1.589  -2.362   1.870  1.00  0.00     0.167 HD
ATOM     74  C   UNL     1       4.264  -1.976   3.159  1.00  0.00     0.074 A 
ATOM     75  C   UNL     1       3.909  -1.004   2.129  1.00  0.00     0.031 C 
ATOM     76  C   UNL     1       3.523  -2.878   3.867  1.00  0.00     0.031 A 
BRANCH  63  77
ATOM     77  C   UNL     1      -0.930  -0.711   1.444  1.00  0.00    -0.014 A 
ATOM     78  C   UNL     1      -0.978  -1.901   0.680  1.00  0.00     0.009 A 
ATOM     79  C   UNL     1      -1.142   0.481   0.741  1.00  0.00     0.009 A 
ATOM     80  C   UNL     1      -1.076  -1.888  -0.715  1.00  0.00     0.001 A 
ATOM     81  C   UNL     1      -1.295   0.495  -0.652  1.00  0.00     0.001 A 
ATOM     82  C   UNL     1      -1.213  -0.682  -1.385  1.00  0.00     0.000 A 
ENDBRANCH  63  77
BRANCH  64  83
ATOM     83  C   UNL     1       7.609   1.230   3.731  1.00  0.00    -0.014 A 
ATOM     84  C   UNL     1       8.235   0.763   2.559  1.00  0.00     0.009 A 
ATOM     85  C   UNL     1       8.194   2.348   4.350  1.00  0.00     0.009 A 
ATOM     86  C   UNL     1       9.306   1.450   1.971  1.00  0.00     0.001 A 
ATOM     87  C   UNL     1       9.262   3.043   3.762  1.00  0.00     0.001 A 
ATOM     88  C   UNL     1       9.798   2.611   2.556  1.00  0.00     0.000 A 
ENDBRANCH  64  83
BRANCH  76  89
ATOM     89  C   UNL     1       4.202  -3.597   5.004  1.00  0.00    -0.014 A 
ATOM     90  C   UNL     1       4.755  -2.916   6.102  1.00  0.00     0.009 A 
ATOM     91  C   UNL     1       4.148  -4.997   5.043  1.00  0.00     0.009 A 
ATOM     92  C   UNL     1       5.283  -3.617   7.188  1.00  0.00     0.001 A 
ATOM     93  C   UNL     1       4.648  -5.697   6.142  1.00  0.00     0.001 A 
ATOM     94  C   UNL     1       5.224  -5.008   7.208  1.00  0.00     0.000 A 
ENDBRANCH  76  89
ENDBRANCH  50  51
ENDBRANCH  42  45
ENDBRANCH  40  41
ENDBRANCH  39  40
ENDBRANCH  38  39
ENDBRANCH  37  38
ENDBRANCH  36  37
ENDBRANCH   1  36
TORSDOF 21
