REMARK SMILES O=C(NCCCCCCNC(=O)[C@H]1[C@H]2CC[C@H](CC2)[C@@H]1C(=O)Nc1sc2c(c1C(=O)N1CCCCC1)CCCC2)c1ccc(-c2c3nc(c(-c4ccccc4)c4ccc([nH]4)c(-c4ccccc4)c4nc(c(-c5ccccc5)c5ccc2[nH]5)C=C4)C=C3)cc1
REMARK SMILES IDX 7 1 6 2 5 3 4 4 3 5 1 6 2 7 41 9 42 10 88 11 43 12 87 13
REMARK SMILES IDX 44 14 45 15 46 16 81 17 47 18 86 19 80 20 82 21 48 22 85 23
REMARK SMILES IDX 79 24 78 25 49 27 71 28 56 29 70 30 57 31 60 32 69 33 83 34
REMARK SMILES IDX 58 35 59 36 68 38 84 39 61 40 50 41 51 42 55 43 52 44 54 45
REMARK SMILES IDX 53 46 72 47 73 48 77 49 74 50 76 51 75 52 62 53 63 54 67 55
REMARK SMILES IDX 64 56 66 57 65 58 8 59 9 60 10 61 11 62 12 64 13 65 14 66
REMARK SMILES IDX 20 67 15 68 19 69 17 70 16 71 18 72 21 73 22 74 23 75 24 77
REMARK SMILES IDX 25 78 28 79 26 80 27 81 40 82 37 83 39 84 38 85 29 86 30 87
REMARK SMILES IDX 31 88 32 89 36 90 33 91 35 92 34 93
REMARK H PARENT 3 8 82 26 60 37 10 63 23 76
REMARK Flexibility Score: inf
ROOT
ATOM      1  C   UNL     1       4.217  -3.241  -3.098  1.00  0.00     0.002 C 
ENDROOT
BRANCH   1   2
ATOM      2  C   UNL     1       3.933  -3.516  -1.616  1.00  0.00     0.002 C 
BRANCH   2   3
ATOM      3  C   UNL     1       4.570  -2.582  -0.587  1.00  0.00     0.021 C 
BRANCH   3   4
ATOM      4  C   UNL     1       4.350  -1.089  -0.790  1.00  0.00     0.116 C 
BRANCH   4   5
ATOM      5  N   UNL     1       2.952  -0.701  -0.785  1.00  0.00    -0.352 N 
ATOM      6  O   UNL     1       1.084   0.366  -0.117  1.00  0.00    -0.269 OA
ATOM      7  C   UNL     1       2.300   0.254  -0.039  1.00  0.00     0.251 C 
ATOM      8  H   UNL     1       2.381  -1.199  -1.414  1.00  0.00     0.163 HD
BRANCH   7   9
ATOM      9  C   UNL     1       3.059   1.124   0.890  1.00  0.00     0.039 A 
ATOM     10  C   UNL     1       4.271   1.707   0.517  1.00  0.00     0.014 A 
ATOM     11  C   UNL     1       2.535   1.364   2.165  1.00  0.00     0.014 A 
ATOM     12  C   UNL     1       5.033   2.386   1.464  1.00  0.00     0.010 A 
ATOM     13  C   UNL     1       3.261   2.124   3.088  1.00  0.00     0.010 A 
ATOM     14  C   UNL     1       4.538   2.604   2.760  1.00  0.00    -0.014 A 
BRANCH  14  15
ATOM     15  C   UNL     1       5.363   3.357   3.740  1.00  0.00     0.031 A 
ATOM     16  C   UNL     1       5.883   2.699   4.990  1.00  0.00     0.074 A 
ATOM     17  C   UNL     1       5.682   4.639   3.474  1.00  0.00     0.049 A 
ATOM     18  N   UNL     1       6.668   3.195   5.916  1.00  0.00    -0.248 NA
ATOM     19  C   UNL     1       5.465   1.312   5.242  1.00  0.00     0.031 C 
ATOM     20  C   UNL     1       5.235   5.394   2.301  1.00  0.00     0.029 A 
ATOM     21  N   UNL     1       6.478   5.525   4.155  1.00  0.00    -0.354 N 
ATOM     22  C   UNL     1       6.815   2.193   6.868  1.00  0.00     0.074 A 
ATOM     23  C   UNL     1       6.021   1.069   6.420  1.00  0.00     0.031 C 
ATOM     24  C   UNL     1       5.812   6.605   2.312  1.00  0.00     0.029 A 
ATOM     25  C   UNL     1       6.620   6.734   3.519  1.00  0.00     0.049 A 
ATOM     26  H   UNL     1       6.906   5.314   5.016  1.00  0.00     0.167 HD
ATOM     27  C   UNL     1       7.548   2.205   8.008  1.00  0.00     0.031 A 
ATOM     28  C   UNL     1       7.320   7.829   3.866  1.00  0.00     0.031 A 
ATOM     29  C   UNL     1       8.346   3.320   8.450  1.00  0.00     0.049 A 
ATOM     30  C   UNL     1       8.113   7.818   5.140  1.00  0.00     0.074 A 
ATOM     31  C   UNL     1       9.153   3.412   9.572  1.00  0.00     0.029 A 
ATOM     32  N   UNL     1       8.434   4.537   7.794  1.00  0.00    -0.354 N 
ATOM     33  N   UNL     1       8.274   6.847   6.004  1.00  0.00    -0.248 NA
ATOM     34  C   UNL     1       8.827   9.056   5.480  1.00  0.00     0.031 C 
ATOM     35  C   UNL     1       9.691   4.702   9.619  1.00  0.00     0.029 A 
ATOM     36  C   UNL     1       9.265   5.394   8.498  1.00  0.00     0.049 A 
ATOM     37  H   UNL     1       7.975   4.761   6.952  1.00  0.00     0.167 HD
ATOM     38  C   UNL     1       9.126   7.347   6.979  1.00  0.00     0.074 A 
ATOM     39  C   UNL     1       9.462   8.701   6.588  1.00  0.00     0.031 C 
ATOM     40  C   UNL     1       9.589   6.739   8.098  1.00  0.00     0.031 A 
BRANCH  27  41
ATOM     41  C   UNL     1       7.500   0.979   8.879  1.00  0.00    -0.014 A 
ATOM     42  C   UNL     1       8.135  -0.214   8.502  1.00  0.00     0.009 A 
ATOM     43  C   UNL     1       6.842   1.034  10.118  1.00  0.00     0.009 A 
ATOM     44  C   UNL     1       8.083  -1.337   9.332  1.00  0.00     0.001 A 
ATOM     45  C   UNL     1       6.815  -0.081  10.959  1.00  0.00     0.001 A 
ATOM     46  C   UNL     1       7.427  -1.268  10.561  1.00  0.00     0.000 A 
ENDBRANCH  27  41
BRANCH  28  47
ATOM     47  C   UNL     1       7.306   9.026   2.986  1.00  0.00    -0.014 A 
ATOM     48  C   UNL     1       8.455   9.398   2.272  1.00  0.00     0.009 A 
ATOM     49  C   UNL     1       6.142   9.798   2.851  1.00  0.00     0.009 A 
ATOM     50  C   UNL     1       8.443  10.533   1.457  1.00  0.00     0.001 A 
ATOM     51  C   UNL     1       6.124  10.913   2.013  1.00  0.00     0.001 A 
ATOM     52  C   UNL     1       7.277  11.285   1.324  1.00  0.00     0.000 A 
ENDBRANCH  28  47
BRANCH  40  53
ATOM     53  C   UNL     1      10.541   7.524   8.954  1.00  0.00    -0.014 A 
ATOM     54  C   UNL     1      10.103   8.606   9.733  1.00  0.00     0.009 A 
ATOM     55  C   UNL     1      11.897   7.162   8.992  1.00  0.00     0.009 A 
ATOM     56  C   UNL     1      11.013   9.336  10.501  1.00  0.00     0.001 A 
ATOM     57  C   UNL     1      12.799   7.876   9.783  1.00  0.00     0.001 A 
ATOM     58  C   UNL     1      12.358   8.969  10.527  1.00  0.00     0.000 A 
ENDBRANCH  40  53
ENDBRANCH  14  15
ENDBRANCH   7   9
ENDBRANCH   4   5
ENDBRANCH   3   4
ENDBRANCH   2   3
ENDBRANCH   1   2
BRANCH   1  59
ATOM     59  C   UNL     1       5.668  -2.977  -3.506  1.00  0.00     0.021 C 
BRANCH  59  60
ATOM     60  C   UNL     1       6.714  -3.957  -2.990  1.00  0.00     0.116 C 
BRANCH  60  61
ATOM     61  N   UNL     1       6.824  -5.188  -3.737  1.00  0.00    -0.356 N 
ATOM     62  C   UNL     1       7.802  -6.130  -3.800  1.00  0.00     0.224 C 
ATOM     63  H   UNL     1       6.044  -5.381  -4.307  1.00  0.00     0.163 HD
ATOM     64  O   UNL     1       7.427  -7.231  -4.229  1.00  0.00    -0.275 OA
BRANCH  62  65
ATOM     65  C   UNL     1       9.305  -5.927  -3.492  1.00  0.00     0.094 C 
ATOM     66  C   UNL     1       9.832  -4.637  -2.825  1.00  0.00     0.002 C 
ATOM     67  C   UNL     1       9.839  -7.163  -2.684  1.00  0.00     0.094 C 
ATOM     68  C   UNL     1       9.473  -4.572  -1.325  1.00  0.00     0.005 C 
ATOM     69  C   UNL     1      11.373  -4.652  -2.920  1.00  0.00     0.005 C 
ATOM     70  C   UNL     1      10.792  -6.677  -1.548  1.00  0.00     0.002 C 
ATOM     71  C   UNL     1       9.981  -5.807  -0.586  1.00  0.00     0.005 C 
ATOM     72  C   UNL     1      11.938  -5.833  -2.131  1.00  0.00     0.005 C 
BRANCH  67  73
ATOM     73  C   UNL     1      10.598  -8.207  -3.532  1.00  0.00     0.229 C 
ATOM     74  O   UNL     1      10.988  -7.945  -4.674  1.00  0.00    -0.274 OA
ATOM     75  N   UNL     1      11.040  -9.374  -2.941  1.00  0.00    -0.317 N 
ATOM     76  H   UNL     1      11.748  -9.858  -3.424  1.00  0.00     0.170 HD
BRANCH  75  77
ATOM     77  C   UNL     1      10.616  -9.948  -1.756  1.00  0.00     0.108 A 
ATOM     78  S   UNL     1       8.943 -10.080  -1.498  1.00  0.00    -0.122 S 
ATOM     79  C   UNL     1      11.378 -10.551  -0.753  1.00  0.00     0.078 A 
ATOM     80  C   UNL     1       9.176 -10.599   0.088  1.00  0.00     0.011 A 
ATOM     81  C   UNL     1      10.497 -10.916   0.356  1.00  0.00    -0.019 A 
ATOM     82  C   UNL     1       8.024 -10.721   1.036  1.00  0.00     0.047 C 
ATOM     83  C   UNL     1      10.867 -11.483   1.696  1.00  0.00     0.037 C 
ATOM     84  C   UNL     1       8.534 -10.847   2.475  1.00  0.00     0.006 C 
ATOM     85  C   UNL     1       9.658 -11.878   2.557  1.00  0.00     0.005 C 
BRANCH  79  86
ATOM     86  C   UNL     1      12.856 -10.591  -0.851  1.00  0.00     0.257 C 
ATOM     87  O   UNL     1      13.445 -10.246  -1.876  1.00  0.00    -0.269 OA
ATOM     88  N   UNL     1      13.572 -10.891   0.309  1.00  0.00    -0.339 N 
ATOM     89  C   UNL     1      14.651  -9.977   0.658  1.00  0.00     0.120 C 
ATOM     90  C   UNL     1      13.879 -12.286   0.605  1.00  0.00     0.120 C 
ATOM     91  C   UNL     1      14.946 -10.054   2.152  1.00  0.00     0.022 C 
ATOM     92  C   UNL     1      14.201 -12.475   2.090  1.00  0.00     0.022 C 
ATOM     93  C   UNL     1      15.261 -11.488   2.582  1.00  0.00     0.004 C 
ENDBRANCH  79  86
ENDBRANCH  75  77
ENDBRANCH  67  73
ENDBRANCH  62  65
ENDBRANCH  60  61
ENDBRANCH  59  60
ENDBRANCH   1  59
TORSDOF 16
