REMARK SMILES O=C(CC[NH+]1CCC([N@H+]2CCC[C@H](C(=O)NCc3cccnc3)C2)CC1)NCCCCCCNC(=O)c1ccc(-c2c3nc(c(-c4ccccc4)c4ccc([nH]4)c(-c4ccccc4)c4nc(c(-c5ccccc5)c5ccc2[nH]5)C=C4)C=C3)cc1
REMARK SMILES IDX 28 1 27 2 1 3 2 4 3 6 4 7 5 8 6 9 26 10 7 12 25 13 8 14 9 15
REMARK SMILES IDX 10 16 24 17 11 19 13 20 12 21 14 22 15 23 16 24 17 26 18 27
REMARK SMILES IDX 19 28 23 29 20 30 22 31 21 32 29 33 30 34 31 35 32 36 33 37
REMARK SMILES IDX 34 38 35 39 36 41 37 42 38 43 84 44 39 45 83 46 40 47 41 48
REMARK SMILES IDX 42 49 77 50 43 51 82 52 76 53 78 54 44 55 81 56 75 57 74 58
REMARK SMILES IDX 45 60 67 61 52 62 66 63 53 64 56 65 65 66 79 67 54 68 55 69
REMARK SMILES IDX 64 71 80 72 57 73 46 74 47 75 51 76 48 77 50 78 49 79 68 80
REMARK SMILES IDX 69 81 73 82 70 83 72 84 71 85 58 86 59 87 63 88 60 89 62 90
REMARK SMILES IDX 61 91
REMARK H PARENT 27 5 5 11 9 18 16 25 34 40 78 59 56 70
REMARK Flexibility Score: inf
ROOT
ATOM      1  C   UNL     1       1.458  -2.264  -0.441  1.00  0.00     0.116 C 
ENDROOT
BRANCH   1   2
ATOM      2  N   UNL     1       2.098  -1.018  -0.821  1.00  0.00    -0.356 N 
ATOM      3  O   UNL     1       1.109   0.230   0.829  1.00  0.00    -0.275 OA
ATOM      4  C   UNL     1       1.941   0.127  -0.066  1.00  0.00     0.225 C 
ATOM      5  H   UNL     1       2.655  -0.990  -1.632  1.00  0.00     0.163 HD
BRANCH   4   6
ATOM      6  C   UNL     1       2.948   1.220  -0.382  1.00  0.00     0.161 C 
BRANCH   6   7
ATOM      7  C   UNL     1       3.818   1.574   0.840  1.00  0.00     0.272 C 
BRANCH   7   8
ATOM      8  N   UNL     1       4.926   0.666   1.217  1.00  0.00    -0.334 N 
ATOM      9  C   UNL     1       4.471  -0.709   1.417  1.00  0.00     0.268 C 
ATOM     10  C   UNL     1       6.095   0.759   0.337  1.00  0.00     0.268 C 
ATOM     11  H   UNL     1       5.255   1.000   2.123  1.00  0.00     0.348 HD
ATOM     12  C   UNL     1       5.574  -1.621   1.922  1.00  0.00     0.126 C 
ATOM     13  C   UNL     1       7.242  -0.174   0.779  1.00  0.00     0.126 C 
ATOM     14  C   UNL     1       6.731  -1.618   0.914  1.00  0.00     0.195 C 
BRANCH  14  15
ATOM     15  N   UNL     1       7.832  -2.577   1.187  1.00  0.00    -0.331 N 
ATOM     16  C   UNL     1       8.017  -2.890   2.610  1.00  0.00     0.262 C 
ATOM     17  C   UNL     1       7.634  -3.810   0.406  1.00  0.00     0.275 C 
ATOM     18  H   UNL     1       8.692  -2.114   0.893  1.00  0.00     0.348 HD
ATOM     19  C   UNL     1       9.173  -3.853   2.859  1.00  0.00     0.062 C 
ATOM     20  C   UNL     1       8.689  -4.896   0.569  1.00  0.00     0.133 C 
ATOM     21  C   UNL     1       9.111  -5.120   2.018  1.00  0.00     0.025 C 
BRANCH  20  22
ATOM     22  C   UNL     1       9.809  -4.924  -0.470  1.00  0.00     0.229 C 
ATOM     23  O   UNL     1       9.981  -5.944  -1.149  1.00  0.00    -0.275 OA
ATOM     24  N   UNL     1      10.679  -3.922  -0.720  1.00  0.00    -0.352 N 
ATOM     25  H   UNL     1      11.398  -4.176  -1.343  1.00  0.00     0.163 HD
BRANCH  24  26
ATOM     26  C   UNL     1      10.773  -2.557  -0.263  1.00  0.00     0.153 C 
BRANCH  26  27
ATOM     27  C   UNL     1      11.681  -2.334   0.910  1.00  0.00    -0.010 A 
ATOM     28  C   UNL     1      11.714  -1.076   1.525  1.00  0.00     0.009 A 
ATOM     29  C   UNL     1      12.506  -3.319   1.447  1.00  0.00     0.116 A 
ATOM     30  C   UNL     1      12.526  -0.862   2.635  1.00  0.00     0.020 A 
ATOM     31  N   UNL     1      13.303  -3.140   2.527  1.00  0.00    -0.264 NA
ATOM     32  C   UNL     1      13.290  -1.918   3.098  1.00  0.00     0.111 A 
ENDBRANCH  26  27
ENDBRANCH  24  26
ENDBRANCH  20  22
ENDBRANCH  14  15
ENDBRANCH   7   8
ENDBRANCH   6   7
ENDBRANCH   4   6
ENDBRANCH   1   2
BRANCH   1  33
ATOM     33  C   UNL     1       1.934  -3.446  -1.288  1.00  0.00     0.021 C 
BRANCH  33  34
ATOM     34  C   UNL     1       3.412  -3.809  -1.097  1.00  0.00     0.002 C 
BRANCH  34  35
ATOM     35  C   UNL     1       3.740  -4.475   0.239  1.00  0.00     0.002 C 
BRANCH  35  36
ATOM     36  C   UNL     1       3.231  -5.898   0.438  1.00  0.00     0.021 C 
BRANCH  36  37
ATOM     37  C   UNL     1       3.700  -6.913  -0.599  1.00  0.00     0.116 C 
BRANCH  37  38
ATOM     38  N   UNL     1       5.142  -7.131  -0.606  1.00  0.00    -0.352 N 
ATOM     39  C   UNL     1       5.848  -8.313  -0.547  1.00  0.00     0.251 C 
ATOM     40  H   UNL     1       5.690  -6.315  -0.661  1.00  0.00     0.163 HD
ATOM     41  O   UNL     1       7.068  -8.301  -0.430  1.00  0.00    -0.269 OA
BRANCH  39  42
ATOM     42  C   UNL     1       5.123  -9.601  -0.574  1.00  0.00     0.039 A 
ATOM     43  C   UNL     1       5.471 -10.597   0.343  1.00  0.00     0.014 A 
ATOM     44  C   UNL     1       4.062  -9.800  -1.457  1.00  0.00     0.014 A 
ATOM     45  C   UNL     1       4.676 -11.741   0.452  1.00  0.00     0.010 A 
ATOM     46  C   UNL     1       3.213 -10.884  -1.274  1.00  0.00     0.010 A 
ATOM     47  C   UNL     1       3.504 -11.862  -0.311  1.00  0.00    -0.014 A 
BRANCH  47  48
ATOM     48  C   UNL     1       2.555 -12.989  -0.120  1.00  0.00     0.031 A 
ATOM     49  C   UNL     1       2.236 -13.901  -1.273  1.00  0.00     0.074 A 
ATOM     50  C   UNL     1       1.908 -13.130   1.054  1.00  0.00     0.049 A 
ATOM     51  N   UNL     1       1.342 -14.854  -1.350  1.00  0.00    -0.248 NA
ATOM     52  C   UNL     1       2.994 -13.688  -2.518  1.00  0.00     0.031 C 
ATOM     53  C   UNL     1       2.085 -12.279   2.234  1.00  0.00     0.029 A 
ATOM     54  N   UNL     1       0.956 -14.038   1.445  1.00  0.00    -0.354 N 
ATOM     55  C   UNL     1       1.412 -15.330  -2.653  1.00  0.00     0.074 A 
ATOM     56  C   UNL     1       2.392 -14.527  -3.348  1.00  0.00     0.031 C 
ATOM     57  C   UNL     1       1.293 -12.725   3.223  1.00  0.00     0.029 A 
ATOM     58  C   UNL     1       0.519 -13.861   2.737  1.00  0.00     0.049 A 
ATOM     59  H   UNL     1       0.617 -14.751   0.856  1.00  0.00     0.167 HD
ATOM     60  C   UNL     1       0.741 -16.363  -3.216  1.00  0.00     0.031 A 
ATOM     61  C   UNL     1      -0.406 -14.533   3.446  1.00  0.00     0.031 A 
ATOM     62  C   UNL     1      -0.209 -17.183  -2.516  1.00  0.00     0.049 A 
ATOM     63  C   UNL     1      -1.128 -15.684   2.801  1.00  0.00     0.074 A 
ATOM     64  C   UNL     1      -0.899 -18.289  -2.980  1.00  0.00     0.029 A 
ATOM     65  N   UNL     1      -0.594 -16.992  -1.199  1.00  0.00    -0.354 N 
ATOM     66  N   UNL     1      -1.006 -16.158   1.585  1.00  0.00    -0.248 NA
ATOM     67  C   UNL     1      -2.108 -16.399   3.631  1.00  0.00     0.031 C 
ATOM     68  C   UNL     1      -1.731 -18.745  -1.953  1.00  0.00     0.029 A 
ATOM     69  C   UNL     1      -1.521 -17.953  -0.836  1.00  0.00     0.049 A 
ATOM     70  H   UNL     1      -0.257 -16.279  -0.609  1.00  0.00     0.167 HD
ATOM     71  C   UNL     1      -1.869 -17.244   1.514  1.00  0.00     0.074 A 
ATOM     72  C   UNL     1      -2.495 -17.368   2.814  1.00  0.00     0.031 C 
ATOM     73  C   UNL     1      -2.123 -18.064   0.466  1.00  0.00     0.031 A 
BRANCH  60  74
ATOM     74  C   UNL     1       1.025 -16.668  -4.660  1.00  0.00    -0.014 A 
ATOM     75  C   UNL     1       2.257 -17.213  -5.056  1.00  0.00     0.009 A 
ATOM     76  C   UNL     1       0.039 -16.442  -5.632  1.00  0.00     0.009 A 
ATOM     77  C   UNL     1       2.508 -17.492  -6.401  1.00  0.00     0.001 A 
ATOM     78  C   UNL     1       0.282 -16.750  -6.972  1.00  0.00     0.001 A 
ATOM     79  C   UNL     1       1.519 -17.266  -7.356  1.00  0.00     0.000 A 
ENDBRANCH  60  74
BRANCH  61  80
ATOM     80  C   UNL     1      -0.700 -14.153   4.854  1.00  0.00    -0.014 A 
ATOM     81  C   UNL     1      -0.324 -14.998   5.911  1.00  0.00     0.009 A 
ATOM     82  C   UNL     1      -1.378 -12.961   5.149  1.00  0.00     0.009 A 
ATOM     83  C   UNL     1      -0.652 -14.674   7.229  1.00  0.00     0.001 A 
ATOM     84  C   UNL     1      -1.679 -12.624   6.471  1.00  0.00     0.001 A 
ATOM     85  C   UNL     1      -1.327 -13.486   7.509  1.00  0.00     0.000 A 
ENDBRANCH  61  80
BRANCH  73  86
ATOM     86  C   UNL     1      -3.086 -19.193   0.697  1.00  0.00    -0.014 A 
ATOM     87  C   UNL     1      -4.465 -18.962   0.816  1.00  0.00     0.009 A 
ATOM     88  C   UNL     1      -2.607 -20.511   0.751  1.00  0.00     0.009 A 
ATOM     89  C   UNL     1      -5.342 -20.029   1.017  1.00  0.00     0.001 A 
ATOM     90  C   UNL     1      -3.489 -21.578   0.923  1.00  0.00     0.001 A 
ATOM     91  C   UNL     1      -4.855 -21.335   1.065  1.00  0.00     0.000 A 
ENDBRANCH  73  86
ENDBRANCH  47  48
ENDBRANCH  39  42
ENDBRANCH  37  38
ENDBRANCH  36  37
ENDBRANCH  35  36
ENDBRANCH  34  35
ENDBRANCH  33  34
ENDBRANCH   1  33
TORSDOF 19
