REMARK SMILES O=C(NCCCCCCNC(=O)C1(n2cnc3ccccc32)CC[NH+](Cc2cccc3nonc23)CC1)c1ccc(-c2c3nc(c(-c4ccccc4)c4ccc([nH]4)c(-c4ccccc4)c4nc(c(-c5ccccc5)c5ccc2[nH]5)C=C4)C=C3)cc1
REMARK SMILES IDX 6 1 5 2 4 3 3 4 1 5 2 6 38 8 39 9 85 10 40 11 84 12 41 13
REMARK SMILES IDX 42 14 43 15 78 16 44 17 83 18 77 19 79 20 45 21 82 22 76 23
REMARK SMILES IDX 75 24 46 26 68 27 53 28 67 29 54 30 57 31 66 32 80 33 55 34
REMARK SMILES IDX 56 35 65 37 81 38 58 39 47 40 48 41 52 42 49 43 51 44 50 45
REMARK SMILES IDX 69 46 70 47 74 48 71 49 73 50 72 51 59 52 60 53 64 54 61 55
REMARK SMILES IDX 63 56 62 57 7 58 8 59 9 60 10 61 11 62 12 64 13 65 23 66
REMARK SMILES IDX 37 67 24 68 36 69 25 70 14 72 15 73 22 74 16 75 17 76 21 77
REMARK SMILES IDX 18 78 20 79 19 80 26 81 27 82 28 83 35 84 29 85 31 86 34 87
REMARK SMILES IDX 30 88 32 89 33 90
REMARK H PARENT 3 7 79 25 57 36 10 63 25 71
REMARK Flexibility Score: inf
ROOT
ATOM      1  C   UNL     1       3.140  -2.972   3.264  1.00  0.00     0.002 C 
ENDROOT
BRANCH   1   2
ATOM      2  C   UNL     1       3.034  -1.443   2.992  1.00  0.00     0.021 C 
BRANCH   2   3
ATOM      3  C   UNL     1       2.877  -0.992   1.549  1.00  0.00     0.116 C 
BRANCH   3   4
ATOM      4  N   UNL     1       1.641  -0.415   1.060  1.00  0.00    -0.352 N 
ATOM      5  O   UNL     1       0.370   0.830  -0.343  1.00  0.00    -0.269 OA
ATOM      6  C   UNL     1       1.427   0.249  -0.157  1.00  0.00     0.251 C 
ATOM      7  H   UNL     1       0.858  -0.499   1.651  1.00  0.00     0.163 HD
BRANCH   6   8
ATOM      8  C   UNL     1       2.466   0.266  -1.241  1.00  0.00     0.039 A 
ATOM      9  C   UNL     1       2.416   1.172  -2.312  1.00  0.00     0.014 A 
ATOM     10  C   UNL     1       3.489  -0.665  -1.255  1.00  0.00     0.014 A 
ATOM     11  C   UNL     1       3.320   1.035  -3.384  1.00  0.00     0.010 A 
ATOM     12  C   UNL     1       4.520  -0.597  -2.140  1.00  0.00     0.010 A 
ATOM     13  C   UNL     1       4.343   0.085  -3.304  1.00  0.00    -0.014 A 
BRANCH  13  14
ATOM     14  C   UNL     1       5.290  -0.249  -4.358  1.00  0.00     0.031 A 
ATOM     15  C   UNL     1       6.057   0.911  -4.832  1.00  0.00     0.074 A 
ATOM     16  C   UNL     1       5.611  -1.500  -4.774  1.00  0.00     0.049 A 
ATOM     17  N   UNL     1       5.892   1.514  -5.955  1.00  0.00    -0.248 NA
ATOM     18  C   UNL     1       6.983   1.574  -3.905  1.00  0.00     0.031 C 
ATOM     19  C   UNL     1       5.253  -2.813  -4.213  1.00  0.00     0.029 A 
ATOM     20  N   UNL     1       6.417  -1.849  -5.817  1.00  0.00    -0.354 N 
ATOM     21  C   UNL     1       6.792   2.565  -5.960  1.00  0.00     0.074 A 
ATOM     22  C   UNL     1       7.332   2.643  -4.624  1.00  0.00     0.031 C 
ATOM     23  C   UNL     1       5.987  -3.788  -4.807  1.00  0.00     0.029 A 
ATOM     24  C   UNL     1       6.735  -3.200  -5.902  1.00  0.00     0.049 A 
ATOM     25  H   UNL     1       6.750  -1.188  -6.467  1.00  0.00     0.167 HD
ATOM     26  C   UNL     1       7.141   3.171  -7.125  1.00  0.00     0.031 A 
ATOM     27  C   UNL     1       7.550  -3.784  -6.819  1.00  0.00     0.031 A 
ATOM     28  C   UNL     1       6.240   2.813  -8.194  1.00  0.00     0.049 A 
ATOM     29  C   UNL     1       7.615  -2.869  -7.982  1.00  0.00     0.074 A 
ATOM     30  C   UNL     1       4.893   3.019  -8.421  1.00  0.00     0.029 A 
ATOM     31  N   UNL     1       6.605   1.763  -9.005  1.00  0.00    -0.354 N 
ATOM     32  N   UNL     1       6.599  -2.613  -8.754  1.00  0.00    -0.248 NA
ATOM     33  C   UNL     1       8.690  -1.891  -8.011  1.00  0.00     0.031 C 
ATOM     34  C   UNL     1       4.423   1.797  -8.982  1.00  0.00     0.029 A 
ATOM     35  C   UNL     1       5.514   0.940  -9.144  1.00  0.00     0.049 A 
ATOM     36  H   UNL     1       7.490   1.626  -9.413  1.00  0.00     0.167 HD
ATOM     37  C   UNL     1       6.694  -1.254  -9.019  1.00  0.00     0.074 A 
ATOM     38  C   UNL     1       8.047  -0.883  -8.606  1.00  0.00     0.031 C 
ATOM     39  C   UNL     1       5.585  -0.502  -9.285  1.00  0.00     0.031 A 
BRANCH  26  40
ATOM     40  C   UNL     1       8.473   3.816  -7.364  1.00  0.00    -0.014 A 
ATOM     41  C   UNL     1       9.587   3.639  -6.523  1.00  0.00     0.009 A 
ATOM     42  C   UNL     1       8.707   4.436  -8.603  1.00  0.00     0.009 A 
ATOM     43  C   UNL     1      10.869   4.045  -6.896  1.00  0.00     0.001 A 
ATOM     44  C   UNL     1       9.996   4.809  -8.998  1.00  0.00     0.001 A 
ATOM     45  C   UNL     1      11.077   4.610  -8.146  1.00  0.00     0.000 A 
ENDBRANCH  26  40
BRANCH  27  46
ATOM     46  C   UNL     1       8.581  -4.830  -6.613  1.00  0.00    -0.014 A 
ATOM     47  C   UNL     1       9.237  -4.927  -5.372  1.00  0.00     0.009 A 
ATOM     48  C   UNL     1       9.161  -5.495  -7.709  1.00  0.00     0.009 A 
ATOM     49  C   UNL     1      10.454  -5.608  -5.244  1.00  0.00     0.001 A 
ATOM     50  C   UNL     1      10.379  -6.180  -7.579  1.00  0.00     0.001 A 
ATOM     51  C   UNL     1      11.034  -6.219  -6.351  1.00  0.00     0.000 A 
ENDBRANCH  27  46
BRANCH  39  52
ATOM     52  C   UNL     1       4.264  -1.216  -9.497  1.00  0.00    -0.014 A 
ATOM     53  C   UNL     1       3.517  -0.890 -10.640  1.00  0.00     0.009 A 
ATOM     54  C   UNL     1       3.659  -2.032  -8.524  1.00  0.00     0.009 A 
ATOM     55  C   UNL     1       2.202  -1.336 -10.796  1.00  0.00     0.001 A 
ATOM     56  C   UNL     1       2.349  -2.502  -8.692  1.00  0.00     0.001 A 
ATOM     57  C   UNL     1       1.617  -2.141  -9.821  1.00  0.00     0.000 A 
ENDBRANCH  39  52
ENDBRANCH  13  14
ENDBRANCH   6   8
ENDBRANCH   3   4
ENDBRANCH   2   3
ENDBRANCH   1   2
BRANCH   1  58
ATOM     58  C   UNL     1       3.774  -4.003   2.295  1.00  0.00     0.002 C 
BRANCH  58  59
ATOM     59  C   UNL     1       5.292  -4.283   2.192  1.00  0.00     0.021 C 
BRANCH  59  60
ATOM     60  C   UNL     1       6.194  -4.191   3.434  1.00  0.00     0.116 C 
BRANCH  60  61
ATOM     61  N   UNL     1       6.471  -5.499   3.998  1.00  0.00    -0.354 N 
ATOM     62  C   UNL     1       7.557  -6.312   4.049  1.00  0.00     0.246 C 
ATOM     63  H   UNL     1       5.688  -5.888   4.451  1.00  0.00     0.163 HD
ATOM     64  O   UNL     1       7.230  -7.511   4.060  1.00  0.00    -0.272 OA
BRANCH  62  65
ATOM     65  C   UNL     1       9.093  -5.925   4.086  1.00  0.00     0.135 C 
ATOM     66  C   UNL     1       9.514  -4.689   4.917  1.00  0.00     0.101 C 
ATOM     67  C   UNL     1       9.652  -5.819   2.640  1.00  0.00     0.101 C 
ATOM     68  C   UNL     1       9.611  -3.359   4.197  1.00  0.00     0.265 C 
ATOM     69  C   UNL     1       9.628  -4.425   2.022  1.00  0.00     0.265 C 
ATOM     70  N   UNL     1      10.274  -3.448   2.905  1.00  0.00    -0.331 N 
ATOM     71  H   UNL     1      11.212  -3.809   3.076  1.00  0.00     0.348 HD
BRANCH  65  72
ATOM     72  N   UNL     1       9.744  -7.084   4.817  1.00  0.00    -0.315 N 
ATOM     73  C   UNL     1      10.647  -7.992   4.323  1.00  0.00     0.201 A 
ATOM     74  C   UNL     1       9.528  -7.425   6.149  1.00  0.00     0.069 A 
ATOM     75  N   UNL     1      11.090  -8.814   5.246  1.00  0.00    -0.237 NA
ATOM     76  C   UNL     1      10.394  -8.492   6.378  1.00  0.00     0.088 A 
ATOM     77  C   UNL     1       8.676  -6.936   7.153  1.00  0.00     0.028 A 
ATOM     78  C   UNL     1      10.443  -9.088   7.647  1.00  0.00     0.030 A 
ATOM     79  C   UNL     1       8.739  -7.543   8.412  1.00  0.00     0.002 A 
ATOM     80  C   UNL     1       9.609  -8.602   8.659  1.00  0.00     0.002 A 
ENDBRANCH  65  72
BRANCH  70  81
ATOM     81  C   UNL     1      10.489  -2.118   2.274  1.00  0.00     0.301 C 
BRANCH  81  82
ATOM     82  C   UNL     1       9.214  -1.480   1.806  1.00  0.00     0.038 A 
ATOM     83  C   UNL     1       8.274  -0.925   2.716  1.00  0.00     0.012 A 
ATOM     84  C   UNL     1       8.712  -1.697   0.508  1.00  0.00     0.144 A 
ATOM     85  C   UNL     1       6.901  -0.797   2.425  1.00  0.00     0.003 A 
ATOM     86  C   UNL     1       7.309  -1.591   0.223  1.00  0.00     0.135 A 
ATOM     87  N   UNL     1       9.335  -2.125  -0.598  1.00  0.00    -0.049 NA
ATOM     88  C   UNL     1       6.377  -1.162   1.179  1.00  0.00     0.034 A 
ATOM     89  N   UNL     1       7.106  -2.067  -1.006  1.00  0.00    -0.050 NA
ATOM     90  O   UNL     1       8.348  -2.301  -1.545  1.00  0.00    -0.243 OA
ENDBRANCH  81  82
ENDBRANCH  70  81
ENDBRANCH  62  65
ENDBRANCH  60  61
ENDBRANCH  59  60
ENDBRANCH  58  59
ENDBRANCH   1  58
TORSDOF 16
