REMARK SMILES CC(C)CS(=O)(=O)Cc1c(C(=O)NCCCCCCNC(=O)c2ccc(-c3c4nc(c(-c5ccccc5)c5ccc([nH]5)c(-c5ccccc5)c5nc(c(-c6ccccc6)c6ccc3[nH]6)C=C5)C=C4)cc2)oc2ccccc12
REMARK SMILES IDX 15 1 14 2 13 3 11 4 12 5 10 7 9 8 77 9 71 10 72 11 76 12
REMARK SMILES IDX 73 13 75 14 74 15 8 16 5 17 6 18 7 19 4 20 2 21 1 22 3 23
REMARK SMILES IDX 16 24 17 25 18 26 19 27 20 28 21 29 22 31 23 32 24 33 70 34
REMARK SMILES IDX 25 35 69 36 26 37 27 38 28 39 63 40 29 41 68 42 62 43 64 44
REMARK SMILES IDX 30 45 67 46 61 47 60 48 31 50 53 51 38 52 52 53 39 54 42 55
REMARK SMILES IDX 51 56 65 57 40 58 41 59 50 61 66 62 43 63 32 64 33 65 37 66
REMARK SMILES IDX 34 67 36 68 35 69 54 70 55 71 59 72 56 73 58 74 57 75 44 76
REMARK SMILES IDX 45 77 49 78 46 79 48 80 47 81
REMARK H PARENT 13 6 20 30 64 49 42 60
REMARK Flexibility Score: inf
ROOT
ATOM      1  C   UNL     1      -2.767  -1.421  -6.998  1.00  0.00     0.021 C 
ENDROOT
BRANCH   1   2
ATOM      2  C   UNL     1      -3.544  -1.080  -5.729  1.00  0.00     0.116 C 
BRANCH   2   3
ATOM      3  N   UNL     1      -3.305  -2.070  -4.694  1.00  0.00    -0.349 N 
ATOM      4  C   UNL     1      -2.689  -1.998  -3.469  1.00  0.00     0.287 C 
ATOM      5  O   UNL     1      -2.552  -3.079  -2.886  1.00  0.00    -0.266 OA
ATOM      6  H   UNL     1      -3.652  -2.965  -4.912  1.00  0.00     0.163 HD
BRANCH   4   7
ATOM      7  C   UNL     1      -2.219  -0.735  -2.916  1.00  0.00     0.196 A 
ATOM      8  C   UNL     1      -1.515  -0.427  -1.740  1.00  0.00     0.027 A 
ATOM      9  C   UNL     1      -1.258   0.998  -1.817  1.00  0.00     0.025 A 
ATOM     10  O   UNL     1      -2.435   0.403  -3.623  1.00  0.00    -0.451 OA
ATOM     11  C   UNL     1      -1.848   1.432  -2.994  1.00  0.00     0.135 A 
ATOM     12  C   UNL     1      -0.576   1.991  -1.087  1.00  0.00     0.012 A 
ATOM     13  C   UNL     1      -1.824   2.735  -3.490  1.00  0.00     0.048 A 
ATOM     14  C   UNL     1      -0.554   3.325  -1.528  1.00  0.00     0.001 A 
ATOM     15  C   UNL     1      -1.166   3.689  -2.720  1.00  0.00     0.004 A 
BRANCH   8  16
ATOM     16  C   UNL     1      -1.028  -1.464  -0.763  1.00  0.00     0.177 C 
BRANCH  16  17
ATOM     17  S   UNL     1      -1.478  -1.387   0.967  1.00  0.00     0.154 S 
ATOM     18  O   UNL     1      -0.914  -2.562   1.611  1.00  0.00    -0.228 OA
ATOM     19  O   UNL     1      -2.910  -1.152   1.045  1.00  0.00    -0.228 OA
BRANCH  17  20
ATOM     20  C   UNL     1      -0.697   0.013   1.730  1.00  0.00     0.140 C 
BRANCH  20  21
ATOM     21  C   UNL     1       0.834   0.017   1.885  1.00  0.00    -0.002 C 
ATOM     22  C   UNL     1       1.668  -0.366   0.664  1.00  0.00     0.008 C 
ATOM     23  C   UNL     1       1.278   1.400   2.384  1.00  0.00     0.008 C 
ENDBRANCH  20  21
ENDBRANCH  17  20
ENDBRANCH  16  17
ENDBRANCH   8  16
ENDBRANCH   4   7
ENDBRANCH   2   3
ENDBRANCH   1   2
BRANCH   1  24
ATOM     24  C   UNL     1      -3.321  -2.636  -7.748  1.00  0.00     0.002 C 
BRANCH  24  25
ATOM     25  C   UNL     1      -4.809  -2.544  -8.104  1.00  0.00     0.002 C 
BRANCH  25  26
ATOM     26  C   UNL     1      -5.216  -1.267  -8.845  1.00  0.00     0.021 C 
BRANCH  26  27
ATOM     27  C   UNL     1      -4.477  -1.046 -10.159  1.00  0.00     0.116 C 
BRANCH  27  28
ATOM     28  N   UNL     1      -4.751  -2.105 -11.116  1.00  0.00    -0.352 N 
ATOM     29  C   UNL     1      -5.269  -2.019 -12.382  1.00  0.00     0.251 C 
ATOM     30  H   UNL     1      -4.533  -3.015 -10.811  1.00  0.00     0.163 HD
ATOM     31  O   UNL     1      -5.646  -3.029 -12.969  1.00  0.00    -0.269 OA
BRANCH  29  32
ATOM     32  C   UNL     1      -5.390  -0.699 -13.034  1.00  0.00     0.039 A 
ATOM     33  C   UNL     1      -6.575  -0.381 -13.701  1.00  0.00     0.014 A 
ATOM     34  C   UNL     1      -4.337   0.219 -12.986  1.00  0.00     0.014 A 
ATOM     35  C   UNL     1      -6.729   0.887 -14.264  1.00  0.00     0.010 A 
ATOM     36  C   UNL     1      -4.520   1.505 -13.484  1.00  0.00     0.010 A 
ATOM     37  C   UNL     1      -5.718   1.852 -14.126  1.00  0.00    -0.014 A 
BRANCH  37  38
ATOM     38  C   UNL     1      -5.904   3.238 -14.623  1.00  0.00     0.031 A 
ATOM     39  C   UNL     1      -5.023   3.777 -15.715  1.00  0.00     0.074 A 
ATOM     40  C   UNL     1      -6.822   4.033 -14.040  1.00  0.00     0.049 A 
ATOM     41  N   UNL     1      -4.984   4.983 -16.223  1.00  0.00    -0.248 NA
ATOM     42  C   UNL     1      -4.043   2.847 -16.297  1.00  0.00     0.031 C 
ATOM     43  C   UNL     1      -7.719   3.637 -12.951  1.00  0.00     0.029 A 
ATOM     44  N   UNL     1      -7.146   5.346 -14.276  1.00  0.00    -0.354 N 
ATOM     45  C   UNL     1      -3.971   4.959 -17.173  1.00  0.00     0.074 A 
ATOM     46  C   UNL     1      -3.388   3.636 -17.137  1.00  0.00     0.031 C 
ATOM     47  C   UNL     1      -8.507   4.676 -12.632  1.00  0.00     0.029 A 
ATOM     48  C   UNL     1      -8.138   5.824 -13.453  1.00  0.00     0.049 A 
ATOM     49  H   UNL     1      -6.710   5.893 -14.968  1.00  0.00     0.167 HD
ATOM     50  C   UNL     1      -3.573   5.946 -18.011  1.00  0.00     0.031 A 
ATOM     51  C   UNL     1      -8.678   7.053 -13.358  1.00  0.00     0.031 A 
ATOM     52  C   UNL     1      -4.153   7.263 -18.044  1.00  0.00     0.049 A 
ATOM     53  C   UNL     1      -8.184   8.143 -14.268  1.00  0.00     0.074 A 
ATOM     54  C   UNL     1      -3.851   8.316 -18.890  1.00  0.00     0.029 A 
ATOM     55  N   UNL     1      -5.146   7.711 -17.186  1.00  0.00    -0.354 N 
ATOM     56  N   UNL     1      -7.271   8.086 -15.207  1.00  0.00    -0.248 NA
ATOM     57  C   UNL     1      -8.803   9.466 -14.108  1.00  0.00     0.031 C 
ATOM     58  C   UNL     1      -4.616   9.421 -18.502  1.00  0.00     0.029 A 
ATOM     59  C   UNL     1      -5.442   9.036 -17.459  1.00  0.00     0.049 A 
ATOM     60  H   UNL     1      -5.576   7.168 -16.487  1.00  0.00     0.167 HD
ATOM     61  C   UNL     1      -7.222   9.357 -15.765  1.00  0.00     0.074 A 
ATOM     62  C   UNL     1      -8.214  10.155 -15.075  1.00  0.00     0.031 C 
ATOM     63  C   UNL     1      -6.426   9.821 -16.759  1.00  0.00     0.031 A 
BRANCH  50  64
ATOM     64  C   UNL     1      -2.442   5.641 -18.955  1.00  0.00    -0.014 A 
ATOM     65  C   UNL     1      -2.604   4.746 -20.025  1.00  0.00     0.009 A 
ATOM     66  C   UNL     1      -1.207   6.292 -18.797  1.00  0.00     0.009 A 
ATOM     67  C   UNL     1      -1.543   4.482 -20.894  1.00  0.00     0.001 A 
ATOM     68  C   UNL     1      -0.159   6.050 -19.687  1.00  0.00     0.001 A 
ATOM     69  C   UNL     1      -0.324   5.138 -20.728  1.00  0.00     0.000 A 
ENDBRANCH  50  64
BRANCH  51  70
ATOM     70  C   UNL     1      -9.745   7.325 -12.358  1.00  0.00    -0.014 A 
ATOM     71  C   UNL     1     -11.057   7.602 -12.772  1.00  0.00     0.009 A 
ATOM     72  C   UNL     1      -9.454   7.324 -10.985  1.00  0.00     0.009 A 
ATOM     73  C   UNL     1     -12.047   7.902 -11.834  1.00  0.00     0.001 A 
ATOM     74  C   UNL     1     -10.454   7.591 -10.047  1.00  0.00     0.001 A 
ATOM     75  C   UNL     1     -11.746   7.892 -10.473  1.00  0.00     0.000 A 
ENDBRANCH  51  70
BRANCH  63  76
ATOM     76  C   UNL     1      -6.614  11.254 -17.177  1.00  0.00    -0.014 A 
ATOM     77  C   UNL     1      -6.222  12.315 -16.346  1.00  0.00     0.009 A 
ATOM     78  C   UNL     1      -7.161  11.544 -18.437  1.00  0.00     0.009 A 
ATOM     79  C   UNL     1      -6.406  13.637 -16.754  1.00  0.00     0.001 A 
ATOM     80  C   UNL     1      -7.313  12.867 -18.856  1.00  0.00     0.001 A 
ATOM     81  C   UNL     1      -6.946  13.912 -18.011  1.00  0.00     0.000 A 
ENDBRANCH  63  76
ENDBRANCH  37  38
ENDBRANCH  29  32
ENDBRANCH  27  28
ENDBRANCH  26  27
ENDBRANCH  25  26
ENDBRANCH  24  25
ENDBRANCH   1  24
TORSDOF 17
