REMARK SMILES CC(C)(O)CC[C@@H](C(=O)NCCCCCCNC(=O)c1ccc(-c2c3nc(c(-c4ccccc4)c4ccc([nH]4)c(-c4ccccc4)c4nc(c(-c5ccccc5)c5ccc2[nH]5)C=C4)C=C3)cc1)[C@@H]1CCS(=O)(=O)C1
REMARK SMILES IDX 12 1 11 2 10 3 8 4 9 5 7 7 6 8 5 9 2 10 1 11 3 12 4 13 68 15
REMARK SMILES IDX 69 16 74 17 70 18 71 19 72 20 73 21 13 22 14 23 15 24 16 25
REMARK SMILES IDX 17 26 18 27 19 29 20 30 21 31 67 32 22 33 66 34 23 35 24 36
REMARK SMILES IDX 25 37 60 38 26 39 65 40 59 41 61 42 27 43 64 44 58 45 57 46
REMARK SMILES IDX 28 48 50 49 35 50 49 51 36 52 39 53 48 54 62 55 37 56 38 57
REMARK SMILES IDX 47 59 63 60 40 61 29 62 30 63 34 64 31 65 33 66 32 67 51 68
REMARK SMILES IDX 52 69 56 70 53 71 55 72 54 73 41 74 42 75 46 76 43 77 45 78
REMARK SMILES IDX 44 79
REMARK H PARENT 10 6 4 14 17 28 61 47 39 58
REMARK Flexibility Score: inf
ROOT
ATOM      1  C   UNL     1       3.695  -0.330  -2.488  1.00  0.00     0.021 C 
ENDROOT
BRANCH   1   2
ATOM      2  C   UNL     1       3.312   0.293  -1.144  1.00  0.00     0.116 C 
BRANCH   2   3
ATOM      3  N   UNL     1       3.474   1.720  -1.201  1.00  0.00    -0.356 N 
ATOM      4  C   UNL     1       2.592   2.740  -1.174  1.00  0.00     0.223 C 
ATOM      5  O   UNL     1       3.093   3.848  -1.356  1.00  0.00    -0.275 OA
ATOM      6  H   UNL     1       4.412   2.009  -1.274  1.00  0.00     0.163 HD
BRANCH   4   7
ATOM      7  C   UNL     1       1.099   2.584  -0.841  1.00  0.00     0.082 C 
BRANCH   7   8
ATOM      8  C   UNL     1       0.204   1.959  -1.947  1.00  0.00     0.017 C 
BRANCH   8   9
ATOM      9  C   UNL     1       0.153   0.446  -2.206  1.00  0.00     0.035 C 
BRANCH   9  10
ATOM     10  C   UNL     1      -0.428  -0.539  -1.157  1.00  0.00     0.059 C 
ATOM     11  C   UNL     1      -0.152  -0.261   0.320  1.00  0.00     0.042 C 
ATOM     12  C   UNL     1       0.054  -1.958  -1.505  1.00  0.00     0.042 C 
BRANCH  10  13
ATOM     13  O   UNL     1      -1.853  -0.515  -1.310  1.00  0.00    -0.390 OA
ATOM     14  H   UNL     1      -2.257  -1.121  -0.669  1.00  0.00     0.211 HD
ENDBRANCH  10  13
ENDBRANCH   9  10
ENDBRANCH   8   9
ENDBRANCH   7   8
BRANCH   7  15
ATOM     15  C   UNL     1       0.465   3.988  -0.465  1.00  0.00     0.017 C 
ATOM     16  C   UNL     1       0.307   5.026  -1.607  1.00  0.00     0.021 C 
ATOM     17  C   UNL     1       1.103   4.698   0.744  1.00  0.00     0.141 C 
ATOM     18  C   UNL     1       1.406   6.080  -1.534  1.00  0.00     0.137 C 
ATOM     19  S   UNL     1       1.746   6.276   0.199  1.00  0.00     0.150 S 
ATOM     20  O   UNL     1       3.170   6.329   0.435  1.00  0.00    -0.229 OA
ATOM     21  O   UNL     1       0.859   7.313   0.703  1.00  0.00    -0.229 OA
ENDBRANCH   7  15
ENDBRANCH   4   7
ENDBRANCH   2   3
ENDBRANCH   1   2
BRANCH   1  22
ATOM     22  C   UNL     1       5.143  -0.817  -2.526  1.00  0.00     0.002 C 
BRANCH  22  23
ATOM     23  C   UNL     1       5.435  -1.978  -1.567  1.00  0.00     0.002 C 
BRANCH  23  24
ATOM     24  C   UNL     1       4.528  -3.201  -1.733  1.00  0.00     0.021 C 
BRANCH  24  25
ATOM     25  C   UNL     1       4.509  -3.784  -3.142  1.00  0.00     0.116 C 
BRANCH  25  26
ATOM     26  N   UNL     1       5.840  -4.176  -3.576  1.00  0.00    -0.352 N 
ATOM     27  C   UNL     1       6.319  -5.414  -3.913  1.00  0.00     0.251 C 
ATOM     28  H   UNL     1       6.494  -3.442  -3.638  1.00  0.00     0.163 HD
ATOM     29  O   UNL     1       7.527  -5.606  -4.003  1.00  0.00    -0.269 OA
BRANCH  27  30
ATOM     30  C   UNL     1       5.376  -6.522  -4.165  1.00  0.00     0.039 A 
ATOM     31  C   UNL     1       5.666  -7.789  -3.654  1.00  0.00     0.014 A 
ATOM     32  C   UNL     1       4.225  -6.316  -4.930  1.00  0.00     0.014 A 
ATOM     33  C   UNL     1       4.777  -8.841  -3.875  1.00  0.00     0.010 A 
ATOM     34  C   UNL     1       3.303  -7.346  -5.083  1.00  0.00     0.010 A 
ATOM     35  C   UNL     1       3.576  -8.621  -4.569  1.00  0.00    -0.014 A 
BRANCH  35  36
ATOM     36  C   UNL     1       2.600  -9.718  -4.783  1.00  0.00     0.031 A 
ATOM     37  C   UNL     1       2.291 -10.190  -6.177  1.00  0.00     0.074 A 
ATOM     38  C   UNL     1       1.952 -10.248  -3.728  1.00  0.00     0.049 A 
ATOM     39  N   UNL     1       1.428 -11.092  -6.571  1.00  0.00    -0.248 NA
ATOM     40  C   UNL     1       3.031  -9.547  -7.276  1.00  0.00     0.031 C 
ATOM     41  C   UNL     1       2.140  -9.854  -2.330  1.00  0.00     0.029 A 
ATOM     42  N   UNL     1       0.997 -11.232  -3.670  1.00  0.00    -0.354 N 
ATOM     43  C   UNL     1       1.509 -11.111  -7.957  1.00  0.00     0.074 A 
ATOM     44  C   UNL     1       2.465 -10.096  -8.340  1.00  0.00     0.031 C 
ATOM     45  C   UNL     1       1.348 -10.608  -1.551  1.00  0.00     0.029 A 
ATOM     46  C   UNL     1       0.565 -11.505  -2.395  1.00  0.00     0.049 A 
ATOM     47  H   UNL     1       0.654 -11.698  -4.467  1.00  0.00     0.167 HD
ATOM     48  C   UNL     1       0.862 -11.916  -8.834  1.00  0.00     0.031 A 
ATOM     49  C   UNL     1      -0.364 -12.374  -1.956  1.00  0.00     0.031 A 
ATOM     50  C   UNL     1      -0.083 -12.931  -8.450  1.00  0.00     0.049 A 
ATOM     51  C   UNL     1      -1.088 -13.238  -2.951  1.00  0.00     0.074 A 
ATOM     52  C   UNL     1      -0.754 -13.832  -9.257  1.00  0.00     0.029 A 
ATOM     53  N   UNL     1      -0.492 -13.175  -7.148  1.00  0.00    -0.354 N 
ATOM     54  N   UNL     1      -0.951 -13.290  -4.254  1.00  0.00    -0.248 NA
ATOM     55  C   UNL     1      -2.086 -14.173  -2.412  1.00  0.00     0.031 C 
ATOM     56  C   UNL     1      -1.614 -14.584  -8.450  1.00  0.00     0.029 A 
ATOM     57  C   UNL     1      -1.428 -14.196  -7.133  1.00  0.00     0.049 A 
ATOM     58  H   UNL     1      -0.166 -12.695  -6.353  1.00  0.00     0.167 HD
ATOM     59  C   UNL     1      -1.820 -14.284  -4.687  1.00  0.00     0.074 A 
ATOM     60  C   UNL     1      -2.467 -14.818  -3.506  1.00  0.00     0.031 C 
ATOM     61  C   UNL     1      -2.060 -14.717  -5.949  1.00  0.00     0.031 A 
BRANCH  48  62
ATOM     62  C   UNL     1       1.148 -11.721 -10.297  1.00  0.00    -0.014 A 
ATOM     63  C   UNL     1       2.397 -12.056 -10.848  1.00  0.00     0.009 A 
ATOM     64  C   UNL     1       0.144 -11.231 -11.146  1.00  0.00     0.009 A 
ATOM     65  C   UNL     1       2.644 -11.866 -12.209  1.00  0.00     0.001 A 
ATOM     66  C   UNL     1       0.384 -11.073 -12.513  1.00  0.00     0.001 A 
ATOM     67  C   UNL     1       1.636 -11.381 -13.041  1.00  0.00     0.000 A 
ENDBRANCH  48  62
BRANCH  49  68
ATOM     68  C   UNL     1      -0.659 -12.481  -0.502  1.00  0.00    -0.014 A 
ATOM     69  C   UNL     1      -0.308 -13.635   0.214  1.00  0.00     0.009 A 
ATOM     70  C   UNL     1      -1.307 -11.435   0.174  1.00  0.00     0.009 A 
ATOM     71  C   UNL     1      -0.626 -13.753   1.569  1.00  0.00     0.001 A 
ATOM     72  C   UNL     1      -1.595 -11.542   1.536  1.00  0.00     0.001 A 
ATOM     73  C   UNL     1      -1.265 -12.705   2.230  1.00  0.00     0.000 A 
ENDBRANCH  49  68
BRANCH  61  74
ATOM     74  C   UNL     1      -3.031 -15.853  -6.114  1.00  0.00    -0.014 A 
ATOM     75  C   UNL     1      -4.409 -15.675  -5.912  1.00  0.00     0.009 A 
ATOM     76  C   UNL     1      -2.560 -17.111  -6.522  1.00  0.00     0.009 A 
ATOM     77  C   UNL     1      -5.290 -16.745  -6.082  1.00  0.00     0.001 A 
ATOM     78  C   UNL     1      -3.446 -18.169  -6.723  1.00  0.00     0.001 A 
ATOM     79  C   UNL     1      -4.809 -17.988  -6.493  1.00  0.00     0.000 A 
ENDBRANCH  61  74
ENDBRANCH  35  36
ENDBRANCH  27  30
ENDBRANCH  25  26
ENDBRANCH  24  25
ENDBRANCH  23  24
ENDBRANCH  22  23
ENDBRANCH   1  22
TORSDOF 18
