REMARK SMILES CC1=C2C(=O)CC(C)(C)CC2=N[C@@H]1C(=O)NCCCCCCNC(=O)c1ccc(-c2c3nc(c(-c4ccccc4)c4ccc([nH]4)c(-c4ccccc4)c4nc(c(-c5ccccc5)c5ccc2[nH]5)C=C4)C=C3)cc1
REMARK SMILES IDX 20 1 19 2 18 3 17 4 16 5 14 6 15 7 13 9 1 10 2 11 3 12 4 13
REMARK SMILES IDX 11 14 12 15 5 16 6 17 10 18 7 19 8 20 9 21 21 22 22 23 23 24
REMARK SMILES IDX 24 25 25 27 26 28 27 29 73 30 28 31 72 32 29 33 30 34 31 35
REMARK SMILES IDX 66 36 32 37 71 38 65 39 67 40 33 41 70 42 64 43 63 44 34 46
REMARK SMILES IDX 56 47 41 48 55 49 42 50 45 51 54 52 68 53 43 54 44 55 53 57
REMARK SMILES IDX 69 58 46 59 35 60 36 61 40 62 37 63 39 64 38 65 57 66 58 67
REMARK SMILES IDX 62 68 59 69 61 70 60 71 47 72 48 73 52 74 49 75 51 76 50 77
REMARK H PARENT 16 8 23 26 67 45 45 56
REMARK Flexibility Score: inf
ROOT
ATOM      1  C   UNL     1       2.016   5.082  -0.942  1.00  0.00     0.002 C 
ENDROOT
BRANCH   1   2
ATOM      2  C   UNL     1       2.710   3.711  -0.976  1.00  0.00     0.002 C 
BRANCH   2   3
ATOM      3  C   UNL     1       1.845   2.532  -0.507  1.00  0.00     0.021 C 
BRANCH   3   4
ATOM      4  C   UNL     1       0.550   2.382  -1.301  1.00  0.00     0.116 C 
BRANCH   4   5
ATOM      5  N   UNL     1       0.792   1.688  -2.527  1.00  0.00    -0.354 N 
ATOM      6  C   UNL     1       0.585   0.417  -2.917  1.00  0.00     0.249 C 
ATOM      7  O   UNL     1       0.894   0.225  -4.106  1.00  0.00    -0.272 OA
ATOM      8  H   UNL     1       1.192   2.253  -3.227  1.00  0.00     0.163 HD
BRANCH   6   9
ATOM      9  C   UNL     1      -0.006  -0.776  -2.045  1.00  0.00     0.221 C 
ATOM     10  C   UNL     1      -0.532  -0.139   0.551  1.00  0.00     0.043 C 
ATOM     11  C   UNL     1      -0.031  -1.020  -0.535  1.00  0.00    -0.027 C 
ATOM     12  C   UNL     1       0.511  -2.208  -0.244  1.00  0.00     0.040 C 
ATOM     13  C   UNL     1       0.774  -2.944   0.999  1.00  0.00     0.165 C 
ATOM     14  C   UNL     1       1.341  -2.378  -1.407  1.00  0.00     0.048 C 
ATOM     15  N   UNL     1       0.906  -1.893  -2.520  1.00  0.00    -0.271 NA
ATOM     16  O   UNL     1      -0.141  -3.292   1.739  1.00  0.00    -0.294 OA
ATOM     17  C   UNL     1       2.225  -3.293   1.270  1.00  0.00     0.088 C 
ATOM     18  C   UNL     1       2.731  -2.887  -1.206  1.00  0.00     0.063 C 
ATOM     19  C   UNL     1       3.198  -2.621   0.264  1.00  0.00    -0.023 C 
ATOM     20  C   UNL     1       3.310  -1.112   0.617  1.00  0.00     0.012 C 
ATOM     21  C   UNL     1       4.606  -3.212   0.412  1.00  0.00     0.012 C 
ENDBRANCH   6   9
ENDBRANCH   4   5
ENDBRANCH   3   4
ENDBRANCH   2   3
ENDBRANCH   1   2
BRANCH   1  22
ATOM     22  C   UNL     1       1.295   5.432   0.369  1.00  0.00     0.021 C 
BRANCH  22  23
ATOM     23  C   UNL     1       2.240   5.583   1.553  1.00  0.00     0.116 C 
BRANCH  23  24
ATOM     24  N   UNL     1       3.125   6.728   1.385  1.00  0.00    -0.352 N 
ATOM     25  C   UNL     1       4.130   7.182   2.208  1.00  0.00     0.251 C 
ATOM     26  H   UNL     1       2.984   7.253   0.564  1.00  0.00     0.163 HD
ATOM     27  O   UNL     1       4.523   8.337   2.119  1.00  0.00    -0.269 OA
BRANCH  25  28
ATOM     28  C   UNL     1       4.727   6.272   3.203  1.00  0.00     0.039 A 
ATOM     29  C   UNL     1       5.113   6.769   4.450  1.00  0.00     0.014 A 
ATOM     30  C   UNL     1       4.928   4.929   2.883  1.00  0.00     0.014 A 
ATOM     31  C   UNL     1       5.631   5.889   5.394  1.00  0.00     0.010 A 
ATOM     32  C   UNL     1       5.333   4.039   3.853  1.00  0.00     0.010 A 
ATOM     33  C   UNL     1       5.714   4.517   5.100  1.00  0.00    -0.014 A 
BRANCH  33  34
ATOM     34  C   UNL     1       6.030   3.569   6.165  1.00  0.00     0.031 A 
ATOM     35  C   UNL     1       5.158   3.716   7.358  1.00  0.00     0.074 A 
ATOM     36  C   UNL     1       6.885   2.530   6.051  1.00  0.00     0.049 A 
ATOM     37  N   UNL     1       5.493   4.205   8.504  1.00  0.00    -0.248 NA
ATOM     38  C   UNL     1       3.717   3.451   7.216  1.00  0.00     0.031 C 
ATOM     39  C   UNL     1       7.601   2.078   4.855  1.00  0.00     0.029 A 
ATOM     40  N   UNL     1       7.218   1.583   6.975  1.00  0.00    -0.354 N 
ATOM     41  C   UNL     1       4.367   4.084   9.308  1.00  0.00     0.074 A 
ATOM     42  C   UNL     1       3.265   3.819   8.417  1.00  0.00     0.031 C 
ATOM     43  C   UNL     1       8.086   0.833   5.061  1.00  0.00     0.029 A 
ATOM     44  C   UNL     1       7.860   0.467   6.448  1.00  0.00     0.049 A 
ATOM     45  H   UNL     1       7.020   1.681   7.935  1.00  0.00     0.167 HD
ATOM     46  C   UNL     1       4.497   3.891  10.649  1.00  0.00     0.031 A 
ATOM     47  C   UNL     1       8.169  -0.684   7.097  1.00  0.00     0.031 A 
ATOM     48  C   UNL     1       5.832   4.214  11.100  1.00  0.00     0.049 A 
ATOM     49  C   UNL     1       8.177  -0.386   8.544  1.00  0.00     0.074 A 
ATOM     50  C   UNL     1       6.654   5.322  11.030  1.00  0.00     0.029 A 
ATOM     51  N   UNL     1       6.656   3.151  11.380  1.00  0.00    -0.354 N 
ATOM     52  N   UNL     1       9.082   0.351   9.117  1.00  0.00    -0.248 NA
ATOM     53  C   UNL     1       6.951  -0.573   9.300  1.00  0.00     0.031 C 
ATOM     54  C   UNL     1       7.965   4.798  10.815  1.00  0.00     0.029 A 
ATOM     55  C   UNL     1       7.889   3.405  10.847  1.00  0.00     0.049 A 
ATOM     56  H   UNL     1       6.402   2.342  11.880  1.00  0.00     0.167 HD
ATOM     57  C   UNL     1       8.375   1.101  10.043  1.00  0.00     0.074 A 
ATOM     58  C   UNL     1       7.106   0.394  10.208  1.00  0.00     0.031 C 
ATOM     59  C   UNL     1       8.771   2.372  10.352  1.00  0.00     0.031 A 
BRANCH  46  60
ATOM     60  C   UNL     1       3.617   2.932  11.427  1.00  0.00    -0.014 A 
ATOM     61  C   UNL     1       3.885   2.745  12.796  1.00  0.00     0.009 A 
ATOM     62  C   UNL     1       2.776   1.981  10.818  1.00  0.00     0.009 A 
ATOM     63  C   UNL     1       3.443   1.605  13.477  1.00  0.00     0.001 A 
ATOM     64  C   UNL     1       2.294   0.865  11.507  1.00  0.00     0.001 A 
ATOM     65  C   UNL     1       2.660   0.658  12.827  1.00  0.00     0.000 A 
ENDBRANCH  46  60
BRANCH  47  66
ATOM     66  C   UNL     1       8.286  -2.071   6.599  1.00  0.00    -0.014 A 
ATOM     67  C   UNL     1       8.895  -3.063   7.389  1.00  0.00     0.009 A 
ATOM     68  C   UNL     1       7.541  -2.492   5.484  1.00  0.00     0.009 A 
ATOM     69  C   UNL     1       8.711  -4.424   7.111  1.00  0.00     0.001 A 
ATOM     70  C   UNL     1       7.363  -3.852   5.202  1.00  0.00     0.001 A 
ATOM     71  C   UNL     1       7.930  -4.817   6.028  1.00  0.00     0.000 A 
ENDBRANCH  47  66
BRANCH  59  72
ATOM     72  C   UNL     1      10.157   2.802   9.937  1.00  0.00    -0.014 A 
ATOM     73  C   UNL     1      10.613   2.800   8.607  1.00  0.00     0.009 A 
ATOM     74  C   UNL     1      10.998   3.332  10.926  1.00  0.00     0.009 A 
ATOM     75  C   UNL     1      11.891   3.274   8.288  1.00  0.00     0.001 A 
ATOM     76  C   UNL     1      12.263   3.828  10.605  1.00  0.00     0.001 A 
ATOM     77  C   UNL     1      12.713   3.789   9.288  1.00  0.00     0.000 A 
ENDBRANCH  59  72
ENDBRANCH  33  34
ENDBRANCH  25  28
ENDBRANCH  23  24
ENDBRANCH  22  23
ENDBRANCH   1  22
TORSDOF 13
