REMARK SMILES CSC[C@H](C(=O)NCCCCCCNC(=O)c1ccc(-c2c3nc(c(-c4ccccc4)c4ccc([nH]4)c(-c4ccccc4)c4nc(c(-c5ccccc5)c5ccc2[nH]5)C=C4)C=C3)cc1)c1ccccc1
REMARK SMILES IDX 10 1 9 2 8 3 7 4 5 5 6 6 4 8 3 9 2 10 1 11 65 12 66 13 70 14
REMARK SMILES IDX 67 15 69 16 68 17 11 18 12 19 13 20 14 21 15 22 16 24 17 25
REMARK SMILES IDX 18 26 64 27 19 28 63 29 20 30 21 31 22 32 57 33 23 34 62 35
REMARK SMILES IDX 56 36 58 37 24 38 61 39 55 40 54 41 25 43 47 44 32 45 46 46
REMARK SMILES IDX 33 47 36 48 45 49 59 50 34 51 35 52 44 54 60 55 37 56 26 57
REMARK SMILES IDX 27 58 31 59 28 60 30 61 29 62 48 63 49 64 53 65 50 66 52 67
REMARK SMILES IDX 51 68 38 69 39 70 43 71 40 72 42 73 41 74
REMARK H PARENT 7 7 14 23 58 42 36 53
REMARK Flexibility Score: inf
ROOT
ATOM      1  C   UNL     1      -2.007  -2.449   2.128  1.00  0.00     0.002 C 
ENDROOT
BRANCH   1   2
ATOM      2  C   UNL     1      -2.241  -2.140   0.640  1.00  0.00     0.021 C 
BRANCH   2   3
ATOM      3  C   UNL     1      -1.073  -1.416  -0.030  1.00  0.00     0.116 C 
BRANCH   3   4
ATOM      4  N   UNL     1       0.109  -2.253   0.030  1.00  0.00    -0.356 N 
ATOM      5  C   UNL     1       0.730  -2.944  -0.967  1.00  0.00     0.228 C 
ATOM      6  O   UNL     1       1.393  -3.923  -0.621  1.00  0.00    -0.274 OA
ATOM      7  H   UNL     1       0.523  -2.333   0.920  1.00  0.00     0.163 HD
BRANCH   5   8
ATOM      8  C   UNL     1       0.634  -2.433  -2.413  1.00  0.00     0.118 C 
BRANCH   8   9
ATOM      9  C   UNL     1       1.405  -1.088  -2.477  1.00  0.00     0.087 C 
BRANCH   9  10
ATOM     10  S   UNL     1       3.250  -1.004  -2.550  1.00  0.00    -0.164 SA
ATOM     11  C   UNL     1       3.762  -2.483  -1.638  1.00  0.00     0.085 C 
ENDBRANCH   9  10
ENDBRANCH   8   9
BRANCH   8  12
ATOM     12  C   UNL     1       0.945  -3.473  -3.490  1.00  0.00    -0.035 A 
ATOM     13  C   UNL     1       0.506  -4.801  -3.338  1.00  0.00     0.004 A 
ATOM     14  C   UNL     1       1.621  -3.146  -4.676  1.00  0.00     0.004 A 
ATOM     15  C   UNL     1       0.824  -5.780  -4.282  1.00  0.00     0.000 A 
ATOM     16  C   UNL     1       1.947  -4.126  -5.617  1.00  0.00     0.000 A 
ATOM     17  C   UNL     1       1.562  -5.446  -5.412  1.00  0.00     0.000 A 
ENDBRANCH   8  12
ENDBRANCH   5   8
ENDBRANCH   3   4
ENDBRANCH   2   3
ENDBRANCH   1   2
BRANCH   1  18
ATOM     18  C   UNL     1      -1.694  -1.226   2.996  1.00  0.00     0.002 C 
BRANCH  18  19
ATOM     19  C   UNL     1      -2.747  -0.119   2.934  1.00  0.00     0.021 C 
BRANCH  19  20
ATOM     20  C   UNL     1      -4.151  -0.573   3.312  1.00  0.00     0.116 C 
BRANCH  20  21
ATOM     21  N   UNL     1      -4.230  -1.017   4.693  1.00  0.00    -0.352 N 
ATOM     22  C   UNL     1      -5.138  -0.666   5.660  1.00  0.00     0.251 C 
ATOM     23  H   UNL     1      -3.537  -1.657   4.973  1.00  0.00     0.163 HD
ATOM     24  O   UNL     1      -4.952  -0.982   6.829  1.00  0.00    -0.269 OA
BRANCH  22  25
ATOM     25  C   UNL     1      -6.335   0.115   5.285  1.00  0.00     0.039 A 
ATOM     26  C   UNL     1      -6.717   1.189   6.091  1.00  0.00     0.014 A 
ATOM     27  C   UNL     1      -7.078  -0.213   4.148  1.00  0.00     0.014 A 
ATOM     28  C   UNL     1      -7.824   1.960   5.732  1.00  0.00     0.010 A 
ATOM     29  C   UNL     1      -8.129   0.606   3.747  1.00  0.00     0.010 A 
ATOM     30  C   UNL     1      -8.523   1.690   4.544  1.00  0.00    -0.014 A 
BRANCH  30  31
ATOM     31  C   UNL     1      -9.686   2.519   4.138  1.00  0.00     0.031 A 
ATOM     32  C   UNL     1     -11.056   1.904   4.047  1.00  0.00     0.074 A 
ATOM     33  C   UNL     1      -9.503   3.813   3.813  1.00  0.00     0.049 A 
ATOM     34  N   UNL     1     -12.189   2.461   3.697  1.00  0.00    -0.248 NA
ATOM     35  C   UNL     1     -11.167   0.472   4.368  1.00  0.00     0.031 C 
ATOM     36  C   UNL     1      -8.219   4.517   3.821  1.00  0.00     0.029 A 
ATOM     37  N   UNL     1     -10.403   4.769   3.415  1.00  0.00    -0.354 N 
ATOM     38  C   UNL     1     -13.137   1.446   3.742  1.00  0.00     0.074 A 
ATOM     39  C   UNL     1     -12.440   0.230   4.095  1.00  0.00     0.031 C 
ATOM     40  C   UNL     1      -8.420   5.801   3.481  1.00  0.00     0.029 A 
ATOM     41  C   UNL     1      -9.836   6.000   3.193  1.00  0.00     0.049 A 
ATOM     42  H   UNL     1     -11.364   4.589   3.299  1.00  0.00     0.167 HD
ATOM     43  C   UNL     1     -14.473   1.522   3.533  1.00  0.00     0.031 A 
ATOM     44  C   UNL     1     -10.395   7.161   2.801  1.00  0.00     0.031 A 
ATOM     45  C   UNL     1     -15.168   2.734   3.190  1.00  0.00     0.049 A 
ATOM     46  C   UNL     1     -11.878   7.216   2.560  1.00  0.00     0.074 A 
ATOM     47  C   UNL     1     -16.526   2.926   3.007  1.00  0.00     0.029 A 
ATOM     48  N   UNL     1     -14.557   3.959   2.974  1.00  0.00    -0.354 N 
ATOM     49  N   UNL     1     -12.771   6.263   2.677  1.00  0.00    -0.248 NA
ATOM     50  C   UNL     1     -12.431   8.514   2.148  1.00  0.00     0.031 C 
ATOM     51  C   UNL     1     -16.731   4.256   2.625  1.00  0.00     0.029 A 
ATOM     52  C   UNL     1     -15.508   4.907   2.635  1.00  0.00     0.049 A 
ATOM     53  H   UNL     1     -13.591   4.130   3.050  1.00  0.00     0.167 HD
ATOM     54  C   UNL     1     -13.995   6.854   2.385  1.00  0.00     0.074 A 
ATOM     55  C   UNL     1     -13.729   8.250   2.104  1.00  0.00     0.031 C 
ATOM     56  C   UNL     1     -15.228   6.292   2.356  1.00  0.00     0.031 A 
BRANCH  43  57
ATOM     57  C   UNL     1     -15.268   0.251   3.664  1.00  0.00    -0.014 A 
ATOM     58  C   UNL     1     -15.447  -0.373   4.910  1.00  0.00     0.009 A 
ATOM     59  C   UNL     1     -15.871  -0.315   2.530  1.00  0.00     0.009 A 
ATOM     60  C   UNL     1     -16.179  -1.558   5.010  1.00  0.00     0.001 A 
ATOM     61  C   UNL     1     -16.630  -1.482   2.639  1.00  0.00     0.001 A 
ATOM     62  C   UNL     1     -16.774  -2.108   3.876  1.00  0.00     0.000 A 
ENDBRANCH  43  57
BRANCH  44  63
ATOM     63  C   UNL     1      -9.553   8.375   2.631  1.00  0.00    -0.014 A 
ATOM     64  C   UNL     1      -9.679   9.460   3.513  1.00  0.00     0.009 A 
ATOM     65  C   UNL     1      -8.628   8.461   1.579  1.00  0.00     0.009 A 
ATOM     66  C   UNL     1      -8.920  10.617   3.325  1.00  0.00     0.001 A 
ATOM     67  C   UNL     1      -7.848   9.607   1.413  1.00  0.00     0.001 A 
ATOM     68  C   UNL     1      -8.002  10.688   2.278  1.00  0.00     0.000 A 
ENDBRANCH  44  63
BRANCH  56  69
ATOM     69  C   UNL     1     -16.389   7.198   2.050  1.00  0.00    -0.014 A 
ATOM     70  C   UNL     1     -16.585   7.732   0.767  1.00  0.00     0.009 A 
ATOM     71  C   UNL     1     -17.320   7.494   3.059  1.00  0.00     0.009 A 
ATOM     72  C   UNL     1     -17.666   8.579   0.513  1.00  0.00     0.001 A 
ATOM     73  C   UNL     1     -18.418   8.312   2.793  1.00  0.00     0.001 A 
ATOM     74  C   UNL     1     -18.584   8.863   1.524  1.00  0.00     0.000 A 
ENDBRANCH  56  69
ENDBRANCH  30  31
ENDBRANCH  22  25
ENDBRANCH  20  21
ENDBRANCH  19  20
ENDBRANCH  18  19
ENDBRANCH   1  18
TORSDOF 16
