REMARK SMILES C[C@@]1(C(=O)NCCCCCCNC(=O)c2ccc(-c3c4nc(c(-c5ccccc5)c5ccc([nH]5)c(-c5ccccc5)c5nc(c(-c6ccccc6)c6ccc3[nH]6)C=C5)C=C4)cc2)[C@@H]2C=C[C@@]3(CN(c4ccccc4)C(=O)[C@H]13)O2
REMARK SMILES IDX 9 1 8 2 7 3 6 4 5 5 3 6 4 7 2 9 1 10 63 11 77 12 64 13 78 14
REMARK SMILES IDX 66 15 75 16 65 17 67 18 68 19 76 20 69 21 70 22 74 23 71 24
REMARK SMILES IDX 73 25 72 26 10 27 11 28 12 29 13 30 14 32 15 33 16 34 62 35
REMARK SMILES IDX 17 36 61 37 18 38 19 39 20 40 55 41 21 42 60 43 54 44 56 45
REMARK SMILES IDX 22 46 59 47 53 48 52 49 23 51 45 52 30 53 44 54 31 55 34 56
REMARK SMILES IDX 43 57 57 58 32 59 33 60 42 62 58 63 35 64 24 65 25 66 29 67
REMARK SMILES IDX 26 68 28 69 27 70 46 71 47 72 51 73 48 74 50 75 49 76 36 77
REMARK SMILES IDX 37 78 41 79 38 80 40 81 39 82
REMARK H PARENT 5 8 12 31 56 50 34 61
REMARK Flexibility Score: inf
ROOT
ATOM      1  C   UNL     1      -3.709  -2.789   5.404  1.00  0.00     0.002 C 
ENDROOT
BRANCH   1   2
ATOM      2  C   UNL     1      -2.743  -1.620   5.614  1.00  0.00     0.002 C 
BRANCH   2   3
ATOM      3  C   UNL     1      -1.355  -1.748   4.991  1.00  0.00     0.021 C 
BRANCH   3   4
ATOM      4  C   UNL     1      -1.299  -2.088   3.505  1.00  0.00     0.116 C 
BRANCH   4   5
ATOM      5  N   UNL     1      -1.396  -0.941   2.631  1.00  0.00    -0.356 N 
ATOM      6  C   UNL     1      -0.690  -0.487   1.570  1.00  0.00     0.229 C 
ATOM      7  O   UNL     1      -1.239   0.470   1.000  1.00  0.00    -0.274 OA
ATOM      8  H   UNL     1      -2.151  -0.353   2.862  1.00  0.00     0.163 HD
BRANCH   6   9
ATOM      9  C   UNL     1       0.631  -1.046   0.990  1.00  0.00     0.091 C 
ATOM     10  C   UNL     1       1.236   0.094   0.113  1.00  0.00     0.026 C 
ATOM     11  C   UNL     1       0.507  -2.289   0.051  1.00  0.00     0.158 C 
ATOM     12  C   UNL     1       1.746  -1.546   1.911  1.00  0.00     0.135 C 
ATOM     13  C   UNL     1      -0.213  -3.420   0.706  1.00  0.00     0.004 C 
ATOM     14  O   UNL     1       1.899  -2.856   0.132  1.00  0.00    -0.360 OA
ATOM     15  C   UNL     1       1.869  -3.035   1.552  1.00  0.00     0.118 C 
ATOM     16  C   UNL     1       1.875  -1.569   3.396  1.00  0.00     0.234 C 
ATOM     17  C   UNL     1       0.625  -3.883   1.639  1.00  0.00     0.009 C 
ATOM     18  C   UNL     1       3.008  -3.451   2.460  1.00  0.00     0.166 C 
ATOM     19  N   UNL     1       2.671  -2.708   3.687  1.00  0.00    -0.309 N 
ATOM     20  O   UNL     1       1.476  -0.690   4.138  1.00  0.00    -0.274 OA
BRANCH  19  21
ATOM     21  C   UNL     1       3.076  -3.114   4.982  1.00  0.00     0.044 A 
ATOM     22  C   UNL     1       4.141  -4.007   5.154  1.00  0.00     0.026 A 
ATOM     23  C   UNL     1       2.415  -2.649   6.128  1.00  0.00     0.026 A 
ATOM     24  C   UNL     1       4.537  -4.413   6.434  1.00  0.00     0.002 A 
ATOM     25  C   UNL     1       2.792  -3.073   7.405  1.00  0.00     0.002 A 
ATOM     26  C   UNL     1       3.858  -3.952   7.559  1.00  0.00     0.000 A 
ENDBRANCH  19  21
ENDBRANCH   6   9
ENDBRANCH   4   5
ENDBRANCH   3   4
ENDBRANCH   2   3
ENDBRANCH   1   2
BRANCH   1  27
ATOM     27  C   UNL     1      -3.162  -4.202   5.625  1.00  0.00     0.021 C 
BRANCH  27  28
ATOM     28  C   UNL     1      -2.469  -4.473   6.958  1.00  0.00     0.116 C 
BRANCH  28  29
ATOM     29  N   UNL     1      -3.315  -4.207   8.105  1.00  0.00    -0.352 N 
ATOM     30  C   UNL     1      -3.708  -5.029   9.131  1.00  0.00     0.251 C 
ATOM     31  H   UNL     1      -3.664  -3.288   8.157  1.00  0.00     0.163 HD
ATOM     32  O   UNL     1      -4.528  -4.625   9.952  1.00  0.00    -0.269 OA
BRANCH  30  33
ATOM     33  C   UNL     1      -3.181  -6.407   9.252  1.00  0.00     0.039 A 
ATOM     34  C   UNL     1      -4.080  -7.433   9.563  1.00  0.00     0.014 A 
ATOM     35  C   UNL     1      -1.821  -6.695   9.111  1.00  0.00     0.014 A 
ATOM     36  C   UNL     1      -3.628  -8.750   9.675  1.00  0.00     0.010 A 
ATOM     37  C   UNL     1      -1.379  -8.018   9.166  1.00  0.00     0.010 A 
ATOM     38  C   UNL     1      -2.278  -9.057   9.450  1.00  0.00    -0.014 A 
BRANCH  38  39
ATOM     39  C   UNL     1      -1.794 -10.460   9.507  1.00  0.00     0.031 A 
ATOM     40  C   UNL     1      -0.855 -10.898  10.596  1.00  0.00     0.074 A 
ATOM     41  C   UNL     1      -2.157 -11.329   8.545  1.00  0.00     0.049 A 
ATOM     42  N   UNL     1      -0.285 -12.063  10.774  1.00  0.00    -0.248 NA
ATOM     43  C   UNL     1      -0.493  -9.889  11.604  1.00  0.00     0.031 C 
ATOM     44  C   UNL     1      -3.037 -11.025   7.415  1.00  0.00     0.029 A 
ATOM     45  N   UNL     1      -1.822 -12.648   8.362  1.00  0.00    -0.354 N 
ATOM     46  C   UNL     1       0.517 -11.923  11.899  1.00  0.00     0.074 A 
ATOM     47  C   UNL     1       0.387 -10.551  12.342  1.00  0.00     0.031 C 
ATOM     48  C   UNL     1      -3.187 -12.130   6.667  1.00  0.00     0.029 A 
ATOM     49  C   UNL     1      -2.391 -13.209   7.245  1.00  0.00     0.049 A 
ATOM     50  H   UNL     1      -1.231 -13.144   8.973  1.00  0.00     0.167 HD
ATOM     51  C   UNL     1       1.285 -12.853  12.516  1.00  0.00     0.031 A 
ATOM     52  C   UNL     1      -2.281 -14.451   6.738  1.00  0.00     0.031 A 
ATOM     53  C   UNL     1       1.404 -14.222  12.092  1.00  0.00     0.049 A 
ATOM     54  C   UNL     1      -1.430 -15.467   7.443  1.00  0.00     0.074 A 
ATOM     55  C   UNL     1       2.112 -15.252  12.689  1.00  0.00     0.029 A 
ATOM     56  N   UNL     1       0.799 -14.753  10.964  1.00  0.00    -0.354 N 
ATOM     57  N   UNL     1      -0.720 -15.331   8.536  1.00  0.00    -0.248 NA
ATOM     58  C   UNL     1      -1.373 -16.810   6.848  1.00  0.00     0.031 C 
ATOM     59  C   UNL     1       1.963 -16.399  11.902  1.00  0.00     0.029 A 
ATOM     60  C   UNL     1       1.132 -16.092  10.837  1.00  0.00     0.049 A 
ATOM     61  H   UNL     1       0.219 -14.254  10.345  1.00  0.00     0.167 HD
ATOM     62  C   UNL     1      -0.150 -16.575   8.773  1.00  0.00     0.074 A 
ATOM     63  C   UNL     1      -0.604 -17.455   7.716  1.00  0.00     0.031 C 
ATOM     64  C   UNL     1       0.675 -16.953   9.779  1.00  0.00     0.031 A 
BRANCH  51  65
ATOM     65  C   UNL     1       2.069 -12.409  13.718  1.00  0.00    -0.014 A 
ATOM     66  C   UNL     1       1.435 -12.151  14.943  1.00  0.00     0.009 A 
ATOM     67  C   UNL     1       3.463 -12.272  13.630  1.00  0.00     0.009 A 
ATOM     68  C   UNL     1       2.178 -11.728  16.047  1.00  0.00     0.001 A 
ATOM     69  C   UNL     1       4.206 -11.873  14.742  1.00  0.00     0.001 A 
ATOM     70  C   UNL     1       3.562 -11.592  15.947  1.00  0.00     0.000 A 
ENDBRANCH  51  65
BRANCH  52  71
ATOM     71  C   UNL     1      -3.018 -14.809   5.501  1.00  0.00    -0.014 A 
ATOM     72  C   UNL     1      -4.164 -15.616   5.567  1.00  0.00     0.009 A 
ATOM     73  C   UNL     1      -2.585 -14.340   4.251  1.00  0.00     0.009 A 
ATOM     74  C   UNL     1      -4.853 -15.960   4.402  1.00  0.00     0.001 A 
ATOM     75  C   UNL     1      -3.289 -14.669   3.091  1.00  0.00     0.001 A 
ATOM     76  C   UNL     1      -4.418 -15.483   3.167  1.00  0.00     0.000 A 
ENDBRANCH  52  71
BRANCH  64  77
ATOM     77  C   UNL     1       1.118 -18.387   9.797  1.00  0.00    -0.014 A 
ATOM     78  C   UNL     1       2.102 -18.853   8.913  1.00  0.00     0.009 A 
ATOM     79  C   UNL     1       0.569 -19.272  10.738  1.00  0.00     0.009 A 
ATOM     80  C   UNL     1       2.509 -20.188   8.953  1.00  0.00     0.001 A 
ATOM     81  C   UNL     1       0.993 -20.601  10.789  1.00  0.00     0.001 A 
ATOM     82  C   UNL     1       1.958 -21.059   9.892  1.00  0.00     0.000 A 
ENDBRANCH  64  77
ENDBRANCH  38  39
ENDBRANCH  30  33
ENDBRANCH  28  29
ENDBRANCH  27  28
ENDBRANCH   1  27
TORSDOF 14
