REMARK SMILES CCn1c(N2CCC[C@H](C(=O)NCCCCCCNC(=O)c3ccc(-c4c5nc(c(-c6ccccc6)c6ccc([nH]6)c(-c6ccccc6)c6nc(c(-c7ccccc7)c7ccc4[nH]7)C=C6)C=C5)cc3)C2)nc2cc(C)ccc21
REMARK SMILES IDX 15 1 14 2 13 3 12 4 10 5 11 6 9 8 5 9 6 10 70 11 7 12 8 13
REMARK SMILES IDX 4 14 3 15 78 16 71 17 72 18 77 19 73 20 76 21 74 22 75 23
REMARK SMILES IDX 2 24 1 25 16 26 17 27 18 28 19 29 20 30 21 32 22 33 23 34
REMARK SMILES IDX 69 35 24 36 68 37 25 38 26 39 27 40 62 41 28 42 67 43 61 44
REMARK SMILES IDX 63 45 29 46 66 47 60 48 59 49 30 51 52 52 37 53 51 54 38 55
REMARK SMILES IDX 41 56 50 57 64 58 39 59 40 60 49 62 65 63 42 64 31 65 32 66
REMARK SMILES IDX 36 67 33 68 35 69 34 70 53 71 54 72 58 73 55 74 57 75 56 76
REMARK SMILES IDX 43 77 44 78 48 79 45 80 47 81 46 82
REMARK H PARENT 12 7 19 31 63 50 41 61
REMARK Flexibility Score: inf
ROOT
ATOM      1  C   UNL     1       5.465  -6.289   1.250  1.00  0.00     0.002 C 
ENDROOT
BRANCH   1   2
ATOM      2  C   UNL     1       5.665  -4.774   1.245  1.00  0.00     0.021 C 
BRANCH   2   3
ATOM      3  C   UNL     1       4.400  -3.994   1.583  1.00  0.00     0.116 C 
BRANCH   3   4
ATOM      4  N   UNL     1       4.397  -3.421   2.906  1.00  0.00    -0.356 N 
ATOM      5  C   UNL     1       4.085  -2.155   3.279  1.00  0.00     0.224 C 
ATOM      6  O   UNL     1       3.805  -1.983   4.473  1.00  0.00    -0.275 OA
ATOM      7  H   UNL     1       4.656  -4.030   3.635  1.00  0.00     0.163 HD
BRANCH   5   8
ATOM      8  C   UNL     1       4.090  -0.952   2.330  1.00  0.00     0.098 C 
ATOM      9  N   UNL     1       3.060  -1.286   0.053  1.00  0.00    -0.341 N 
ATOM     10  C   UNL     1       4.299  -0.980  -0.652  1.00  0.00     0.119 C 
ATOM     11  C   UNL     1       2.872  -0.818   1.427  1.00  0.00     0.133 C 
ATOM     12  C   UNL     1       5.559  -1.092   0.212  1.00  0.00     0.022 C 
ATOM     13  C   UNL     1       5.416  -0.618   1.653  1.00  0.00     0.017 C 
BRANCH   9  14
ATOM     14  C   UNL     1       2.186  -2.193  -0.463  1.00  0.00     0.206 A 
ATOM     15  N   UNL     1       0.933  -1.868  -0.955  1.00  0.00    -0.310 N 
ATOM     16  C   UNL     1       0.275  -3.054  -1.246  1.00  0.00     0.070 A 
ATOM     17  N   UNL     1       2.380  -3.493  -0.523  1.00  0.00    -0.213 NA
ATOM     18  C   UNL     1       1.200  -4.044  -0.946  1.00  0.00     0.091 A 
ATOM     19  C   UNL     1      -1.000  -3.356  -1.746  1.00  0.00     0.029 A 
ATOM     20  C   UNL     1       0.845  -5.396  -1.101  1.00  0.00     0.034 A 
ATOM     21  C   UNL     1      -1.335  -4.709  -1.899  1.00  0.00     0.006 A 
ATOM     22  C   UNL     1      -0.435  -5.729  -1.575  1.00  0.00    -0.049 A 
ATOM     23  C   UNL     1      -0.828  -7.172  -1.707  1.00  0.00     0.044 C 
BRANCH  15  24
ATOM     24  C   UNL     1       0.411  -0.565  -1.318  1.00  0.00     0.122 C 
ATOM     25  C   UNL     1       0.543   0.563  -0.313  1.00  0.00     0.028 C 
ENDBRANCH  15  24
ENDBRANCH   9  14
ENDBRANCH   5   8
ENDBRANCH   3   4
ENDBRANCH   2   3
ENDBRANCH   1   2
BRANCH   1  26
ATOM     26  C   UNL     1       4.436  -6.820   0.242  1.00  0.00     0.002 C 
BRANCH  26  27
ATOM     27  C   UNL     1       4.679  -6.473  -1.234  1.00  0.00     0.021 C 
BRANCH  27  28
ATOM     28  C   UNL     1       6.046  -6.888  -1.775  1.00  0.00     0.116 C 
BRANCH  28  29
ATOM     29  N   UNL     1       6.396  -8.260  -1.471  1.00  0.00    -0.352 N 
ATOM     30  C   UNL     1       6.144  -9.488  -2.015  1.00  0.00     0.251 C 
ATOM     31  H   UNL     1       6.961  -8.324  -0.667  1.00  0.00     0.163 HD
ATOM     32  O   UNL     1       6.667 -10.443  -1.446  1.00  0.00    -0.269 OA
BRANCH  30  33
ATOM     33  C   UNL     1       5.266  -9.755  -3.189  1.00  0.00     0.039 A 
ATOM     34  C   UNL     1       4.628  -8.798  -3.975  1.00  0.00     0.014 A 
ATOM     35  C   UNL     1       5.051 -11.117  -3.489  1.00  0.00     0.014 A 
ATOM     36  C   UNL     1       3.736  -9.192  -4.973  1.00  0.00     0.010 A 
ATOM     37  C   UNL     1       4.174 -11.515  -4.495  1.00  0.00     0.010 A 
ATOM     38  C   UNL     1       3.480 -10.549  -5.211  1.00  0.00    -0.014 A 
BRANCH  38  39
ATOM     39  C   UNL     1       2.548 -10.897  -6.283  1.00  0.00     0.031 A 
ATOM     40  C   UNL     1       2.895 -10.354  -7.627  1.00  0.00     0.074 A 
ATOM     41  C   UNL     1       1.471 -11.698  -6.146  1.00  0.00     0.049 A 
ATOM     42  N   UNL     1       2.215  -9.512  -8.335  1.00  0.00    -0.248 NA
ATOM     43  C   UNL     1       4.192 -10.722  -8.213  1.00  0.00     0.031 C 
ATOM     44  C   UNL     1       1.083 -12.534  -5.008  1.00  0.00     0.029 A 
ATOM     45  N   UNL     1       0.514 -11.985  -7.075  1.00  0.00    -0.354 N 
ATOM     46  C   UNL     1       2.929  -9.323  -9.515  1.00  0.00     0.074 A 
ATOM     47  C   UNL     1       4.179 -10.024  -9.351  1.00  0.00     0.031 C 
ATOM     48  C   UNL     1       0.111 -13.395  -5.396  1.00  0.00     0.029 A 
ATOM     49  C   UNL     1      -0.298 -13.062  -6.750  1.00  0.00     0.049 A 
ATOM     50  H   UNL     1       0.409 -11.471  -7.908  1.00  0.00     0.167 HD
ATOM     51  C   UNL     1       2.384  -8.711 -10.603  1.00  0.00     0.031 A 
ATOM     52  C   UNL     1      -1.215 -13.654  -7.555  1.00  0.00     0.031 A 
ATOM     53  C   UNL     1       1.204  -7.962 -10.266  1.00  0.00     0.049 A 
ATOM     54  C   UNL     1      -1.595 -12.676  -8.598  1.00  0.00     0.074 A 
ATOM     55  C   UNL     1       0.955  -6.866  -9.464  1.00  0.00     0.029 A 
ATOM     56  N   UNL     1      -0.018  -8.543 -10.497  1.00  0.00    -0.354 N 
ATOM     57  N   UNL     1      -2.277 -11.595  -8.356  1.00  0.00    -0.248 NA
ATOM     58  C   UNL     1      -0.871 -12.695  -9.857  1.00  0.00     0.031 C 
ATOM     59  C   UNL     1      -0.303  -7.139  -8.853  1.00  0.00     0.029 A 
ATOM     60  C   UNL     1      -0.774  -8.348  -9.368  1.00  0.00     0.049 A 
ATOM     61  H   UNL     1      -0.299  -9.010 -11.316  1.00  0.00     0.167 HD
ATOM     62  C   UNL     1      -1.715 -10.639  -9.186  1.00  0.00     0.074 A 
ATOM     63  C   UNL     1      -0.933 -11.396 -10.162  1.00  0.00     0.031 C 
ATOM     64  C   UNL     1      -1.710  -9.317  -8.840  1.00  0.00     0.031 A 
BRANCH  51  65
ATOM     65  C   UNL     1       2.760  -9.024 -12.025  1.00  0.00    -0.014 A 
ATOM     66  C   UNL     1       3.443 -10.198 -12.393  1.00  0.00     0.009 A 
ATOM     67  C   UNL     1       2.203  -8.263 -13.069  1.00  0.00     0.009 A 
ATOM     68  C   UNL     1       3.562 -10.599 -13.727  1.00  0.00     0.001 A 
ATOM     69  C   UNL     1       2.287  -8.681 -14.403  1.00  0.00     0.001 A 
ATOM     70  C   UNL     1       2.963  -9.852 -14.731  1.00  0.00     0.000 A 
ENDBRANCH  51  65
BRANCH  52  71
ATOM     71  C   UNL     1      -1.515 -15.094  -7.713  1.00  0.00    -0.014 A 
ATOM     72  C   UNL     1      -0.517 -16.050  -7.459  1.00  0.00     0.009 A 
ATOM     73  C   UNL     1      -2.654 -15.506  -8.426  1.00  0.00     0.009 A 
ATOM     74  C   UNL     1      -0.622 -17.354  -7.956  1.00  0.00     0.001 A 
ATOM     75  C   UNL     1      -2.757 -16.811  -8.926  1.00  0.00     0.001 A 
ATOM     76  C   UNL     1      -1.731 -17.728  -8.708  1.00  0.00     0.000 A 
ENDBRANCH  52  71
BRANCH  64  77
ATOM     77  C   UNL     1      -2.520  -8.886  -7.634  1.00  0.00    -0.014 A 
ATOM     78  C   UNL     1      -3.366  -7.773  -7.760  1.00  0.00     0.009 A 
ATOM     79  C   UNL     1      -2.345  -9.438  -6.351  1.00  0.00     0.009 A 
ATOM     80  C   UNL     1      -4.008  -7.225  -6.647  1.00  0.00     0.001 A 
ATOM     81  C   UNL     1      -3.011  -8.908  -5.240  1.00  0.00     0.001 A 
ATOM     82  C   UNL     1      -3.835  -7.794  -5.388  1.00  0.00     0.000 A 
ENDBRANCH  64  77
ENDBRANCH  38  39
ENDBRANCH  30  33
ENDBRANCH  28  29
ENDBRANCH  27  28
ENDBRANCH  26  27
ENDBRANCH   1  26
TORSDOF 15
