REMARK SMILES CC(C)[NH2+][C@]1(C(=O)NCCCCCCNC(=O)c2ccc(-c3c4nc(c(-c5ccccc5)c5ccc([nH]5)c(-c5ccccc5)c5nc(c(-c6ccccc6)c6ccc3[nH]6)C=C5)C=C4)cc2)CCC[C@@H]([N@@H+](C)C2CC2)C1
REMARK SMILES IDX 11 1 10 2 9 3 8 4 6 5 7 6 5 8 66 9 75 10 67 11 69 12 68 13
REMARK SMILES IDX 4 14 2 17 1 18 3 19 70 20 71 21 72 23 73 24 74 25 12 26
REMARK SMILES IDX 13 27 14 28 15 29 16 30 17 32 18 33 19 34 65 35 20 36 64 37
REMARK SMILES IDX 21 38 22 39 23 40 58 41 24 42 63 43 57 44 59 45 25 46 62 47
REMARK SMILES IDX 56 48 55 49 26 51 48 52 33 53 47 54 34 55 37 56 46 57 60 58
REMARK SMILES IDX 35 59 36 60 45 62 61 63 38 64 27 65 28 66 32 67 29 68 31 69
REMARK SMILES IDX 30 70 49 71 50 72 54 73 51 74 53 75 52 76 39 77 40 78 44 79
REMARK SMILES IDX 41 80 43 81 42 82
REMARK H PARENT 8 7 4 15 4 16 70 22 15 31 59 50 37 61
REMARK Flexibility Score: inf
ROOT
ATOM      1  C   UNL     1      -1.604   2.745  -1.514  1.00  0.00     0.002 C 
ENDROOT
BRANCH   1   2
ATOM      2  C   UNL     1      -2.248   1.387  -1.197  1.00  0.00     0.021 C 
BRANCH   2   3
ATOM      3  C   UNL     1      -1.375   0.191  -1.601  1.00  0.00     0.116 C 
BRANCH   3   4
ATOM      4  N   UNL     1      -0.782  -0.415  -0.436  1.00  0.00    -0.351 N 
ATOM      5  C   UNL     1      -0.683  -1.665   0.046  1.00  0.00     0.281 C 
ATOM      6  O   UNL     1       0.344  -1.789   0.745  1.00  0.00    -0.268 OA
ATOM      7  H   UNL     1      -0.345   0.246   0.148  1.00  0.00     0.163 HD
BRANCH   5   8
ATOM      8  C   UNL     1      -1.655  -2.891  -0.068  1.00  0.00     0.181 C 
ATOM      9  C   UNL     1      -0.751  -4.041  -0.641  1.00  0.00     0.079 C 
ATOM     10  C   UNL     1      -2.014  -3.263   1.404  1.00  0.00     0.144 C 
ATOM     11  C   UNL     1      -1.317  -5.452  -0.473  1.00  0.00     0.013 C 
ATOM     12  C   UNL     1      -2.421  -4.720   1.693  1.00  0.00     0.190 C 
ATOM     13  C   UNL     1      -1.561  -5.782   0.993  1.00  0.00     0.065 C 
BRANCH   8  14
ATOM     14  N   UNL     1      -2.818  -2.865  -0.991  1.00  0.00    -0.331 N 
ATOM     15  H   UNL     1      -2.411  -2.836  -1.926  1.00  0.00     0.347 HD
ATOM     16  H   UNL     1      -3.336  -3.664  -0.625  1.00  0.00     0.347 HD
BRANCH  14  17
ATOM     17  C   UNL     1      -3.895  -1.881  -1.019  1.00  0.00     0.176 C 
ATOM     18  C   UNL     1      -5.071  -2.501  -1.800  1.00  0.00     0.075 C 
ATOM     19  C   UNL     1      -4.399  -1.306   0.293  1.00  0.00     0.075 C 
ENDBRANCH  14  17
ENDBRANCH   8  14
BRANCH  12  20
ATOM     20  N   UNL     1      -2.580  -4.936   3.156  1.00  0.00    -0.332 N 
ATOM     21  C   UNL     1      -3.544  -6.010   3.430  1.00  0.00     0.333 C 
ATOM     22  H   UNL     1      -2.925  -4.021   3.444  1.00  0.00     0.348 HD
BRANCH  20  23
ATOM     23  C   UNL     1      -1.375  -5.090   4.020  1.00  0.00     0.184 C 
ATOM     24  C   UNL     1       0.039  -4.684   3.708  1.00  0.00     0.071 C 
ATOM     25  C   UNL     1      -0.783  -3.839   4.630  1.00  0.00     0.071 C 
ENDBRANCH  20  23
ENDBRANCH  12  20
ENDBRANCH   5   8
ENDBRANCH   3   4
ENDBRANCH   2   3
ENDBRANCH   1   2
BRANCH   1  26
ATOM     26  C   UNL     1      -1.390   3.019  -3.007  1.00  0.00     0.002 C 
BRANCH  26  27
ATOM     27  C   UNL     1      -2.657   2.965  -3.866  1.00  0.00     0.021 C 
BRANCH  27  28
ATOM     28  C   UNL     1      -3.765   3.925  -3.442  1.00  0.00     0.116 C 
BRANCH  28  29
ATOM     29  N   UNL     1      -3.306   5.305  -3.411  1.00  0.00    -0.352 N 
ATOM     30  C   UNL     1      -3.723   6.395  -4.122  1.00  0.00     0.251 C 
ATOM     31  H   UNL     1      -2.577   5.483  -2.774  1.00  0.00     0.163 HD
ATOM     32  O   UNL     1      -3.036   7.421  -4.117  1.00  0.00    -0.269 OA
BRANCH  30  33
ATOM     33  C   UNL     1      -4.981   6.371  -4.896  1.00  0.00     0.039 A 
ATOM     34  C   UNL     1      -5.020   7.035  -6.126  1.00  0.00     0.014 A 
ATOM     35  C   UNL     1      -6.139   5.772  -4.391  1.00  0.00     0.014 A 
ATOM     36  C   UNL     1      -6.206   7.073  -6.859  1.00  0.00     0.010 A 
ATOM     37  C   UNL     1      -7.306   5.751  -5.154  1.00  0.00     0.010 A 
ATOM     38  C   UNL     1      -7.355   6.417  -6.386  1.00  0.00    -0.014 A 
BRANCH  38  39
ATOM     39  C   UNL     1      -8.607   6.439  -7.181  1.00  0.00     0.031 A 
ATOM     40  C   UNL     1      -9.817   7.180  -6.685  1.00  0.00     0.074 A 
ATOM     41  C   UNL     1      -8.653   5.779  -8.354  1.00  0.00     0.049 A 
ATOM     42  N   UNL     1     -10.970   7.367  -7.279  1.00  0.00    -0.248 NA
ATOM     43  C   UNL     1      -9.733   7.773  -5.341  1.00  0.00     0.031 C 
ATOM     44  C   UNL     1      -7.564   4.980  -8.918  1.00  0.00     0.029 A 
ATOM     45  N   UNL     1      -9.653   5.688  -9.288  1.00  0.00    -0.354 N 
ATOM     46  C   UNL     1     -11.746   8.088  -6.381  1.00  0.00     0.074 A 
ATOM     47  C   UNL     1     -10.954   8.262  -5.183  1.00  0.00     0.031 C 
ATOM     48  C   UNL     1      -7.938   4.518 -10.122  1.00  0.00     0.029 A 
ATOM     49  C   UNL     1      -9.297   4.968 -10.402  1.00  0.00     0.049 A 
ATOM     50  H   UNL     1     -10.540   6.099  -9.171  1.00  0.00     0.167 HD
ATOM     51  C   UNL     1     -12.997   8.581  -6.545  1.00  0.00     0.031 A 
ATOM     52  C   UNL     1      -9.982   4.716 -11.532  1.00  0.00     0.031 A 
ATOM     53  C   UNL     1     -13.783   8.414  -7.739  1.00  0.00     0.049 A 
ATOM     54  C   UNL     1     -11.357   5.295 -11.702  1.00  0.00     0.074 A 
ATOM     55  C   UNL     1     -15.041   8.917  -8.024  1.00  0.00     0.029 A 
ATOM     56  N   UNL     1     -13.384   7.684  -8.848  1.00  0.00    -0.354 N 
ATOM     57  N   UNL     1     -12.047   6.041 -10.874  1.00  0.00    -0.248 NA
ATOM     58  C   UNL     1     -12.037   5.013 -12.973  1.00  0.00     0.031 C 
ATOM     59  C   UNL     1     -15.419   8.458  -9.291  1.00  0.00     0.029 A 
ATOM     60  C   UNL     1     -14.377   7.710  -9.813  1.00  0.00     0.049 A 
ATOM     61  H   UNL     1     -12.522   7.217  -8.937  1.00  0.00     0.167 HD
ATOM     62  C   UNL     1     -13.232   6.338 -11.533  1.00  0.00     0.074 A 
ATOM     63  C   UNL     1     -13.157   5.708 -12.836  1.00  0.00     0.031 C 
ATOM     64  C   UNL     1     -14.289   7.068 -11.099  1.00  0.00     0.031 A 
BRANCH  51  65
ATOM     65  C   UNL     1     -13.592   9.347  -5.397  1.00  0.00    -0.014 A 
ATOM     66  C   UNL     1     -13.117  10.623  -5.051  1.00  0.00     0.009 A 
ATOM     67  C   UNL     1     -14.658   8.799  -4.666  1.00  0.00     0.009 A 
ATOM     68  C   UNL     1     -13.672  11.317  -3.974  1.00  0.00     0.001 A 
ATOM     69  C   UNL     1     -15.229   9.507  -3.606  1.00  0.00     0.001 A 
ATOM     70  C   UNL     1     -14.729  10.761  -3.255  1.00  0.00     0.000 A 
ENDBRANCH  51  65
BRANCH  52  71
ATOM     71  C   UNL     1      -9.353   3.918 -12.615  1.00  0.00    -0.014 A 
ATOM     72  C   UNL     1      -8.922   4.540 -13.797  1.00  0.00     0.009 A 
ATOM     73  C   UNL     1      -9.171   2.534 -12.469  1.00  0.00     0.009 A 
ATOM     74  C   UNL     1      -8.344   3.789 -14.821  1.00  0.00     0.001 A 
ATOM     75  C   UNL     1      -8.569   1.790 -13.485  1.00  0.00     0.001 A 
ATOM     76  C   UNL     1      -8.163   2.415 -14.663  1.00  0.00     0.000 A 
ENDBRANCH  52  71
BRANCH  64  77
ATOM     77  C   UNL     1     -15.434   7.240 -12.056  1.00  0.00    -0.014 A 
ATOM     78  C   UNL     1     -16.299   6.176 -12.354  1.00  0.00     0.009 A 
ATOM     79  C   UNL     1     -15.654   8.488 -12.659  1.00  0.00     0.009 A 
ATOM     80  C   UNL     1     -17.339   6.348 -13.269  1.00  0.00     0.001 A 
ATOM     81  C   UNL     1     -16.711   8.664 -13.553  1.00  0.00     0.001 A 
ATOM     82  C   UNL     1     -17.546   7.592 -13.866  1.00  0.00     0.000 A 
ENDBRANCH  64  77
ENDBRANCH  38  39
ENDBRANCH  30  33
ENDBRANCH  28  29
ENDBRANCH  27  28
ENDBRANCH  26  27
ENDBRANCH   1  26
TORSDOF 17
