REMARK SMILES COc1nc(-c2ccccc2)nc(C)c1CC(=O)NCCCCCCNC(=O)c1ccc(-c2c3nc(c(-c4ccccc4)c4ccc([nH]4)c(-c4ccccc4)c4nc(c(-c5ccccc5)c5ccc2[nH]5)C=C4)C=C3)cc1
REMARK SMILES IDX 22 1 21 2 20 3 19 4 17 5 18 6 16 8 15 9 3 10 4 11 5 12 13 13
REMARK SMILES IDX 12 14 14 15 2 16 1 17 6 18 7 19 11 20 8 21 10 22 9 23 23 24
REMARK SMILES IDX 24 25 25 26 26 27 27 28 28 30 29 31 30 32 76 33 31 34 75 35
REMARK SMILES IDX 32 36 33 37 34 38 69 39 35 40 74 41 68 42 70 43 36 44 73 45
REMARK SMILES IDX 67 46 66 47 37 49 59 50 44 51 58 52 45 53 48 54 57 55 71 56
REMARK SMILES IDX 46 57 47 58 56 60 72 61 49 62 38 63 39 64 43 65 40 66 42 67
REMARK SMILES IDX 41 68 60 69 61 70 65 71 62 72 64 73 63 74 50 75 51 76 55 77
REMARK SMILES IDX 52 78 54 79 53 80
REMARK H PARENT 19 7 26 29 70 48 48 59
REMARK Flexibility Score: inf
ROOT
ATOM      1  C   UNL     1       1.402   3.660   2.501  1.00  0.00     0.002 C 
ENDROOT
BRANCH   1   2
ATOM      2  C   UNL     1       1.845   3.680   1.032  1.00  0.00     0.021 C 
BRANCH   2   3
ATOM      3  C   UNL     1       3.228   3.076   0.783  1.00  0.00     0.116 C 
BRANCH   3   4
ATOM      4  N   UNL     1       3.248   1.645   0.996  1.00  0.00    -0.356 N 
ATOM      5  C   UNL     1       3.331   0.606   0.121  1.00  0.00     0.224 C 
ATOM      6  O   UNL     1       3.404  -0.526   0.610  1.00  0.00    -0.275 OA
ATOM      7  H   UNL     1       3.192   1.375   1.941  1.00  0.00     0.163 HD
BRANCH   5   8
ATOM      8  C   UNL     1       3.419   0.800  -1.387  1.00  0.00     0.143 C 
BRANCH   8   9
ATOM      9  C   UNL     1       2.380   1.693  -2.004  1.00  0.00     0.045 A 
ATOM     10  C   UNL     1       1.034   1.343  -1.989  1.00  0.00     0.220 A 
ATOM     11  N   UNL     1       0.026   2.112  -2.442  1.00  0.00    -0.193 NA
ATOM     12  C   UNL     1       0.400   3.274  -2.995  1.00  0.00     0.163 A 
ATOM     13  C   UNL     1       2.653   2.906  -2.619  1.00  0.00     0.049 A 
ATOM     14  N   UNL     1       1.674   3.692  -3.110  1.00  0.00    -0.233 NA
ATOM     15  C   UNL     1       4.024   3.483  -2.818  1.00  0.00     0.067 C 
BRANCH  10  16
ATOM     16  O   UNL     1       0.706   0.038  -1.698  1.00  0.00    -0.481 OA
ATOM     17  C   UNL     1       0.221  -0.116  -0.370  1.00  0.00     0.280 C 
ENDBRANCH  10  16
BRANCH  12  18
ATOM     18  C   UNL     1      -0.617   4.184  -3.538  1.00  0.00     0.019 A 
ATOM     19  C   UNL     1      -0.445   4.763  -4.811  1.00  0.00     0.012 A 
ATOM     20  C   UNL     1      -1.747   4.560  -2.795  1.00  0.00     0.012 A 
ATOM     21  C   UNL     1      -1.361   5.687  -5.321  1.00  0.00     0.001 A 
ATOM     22  C   UNL     1      -2.657   5.499  -3.297  1.00  0.00     0.001 A 
ATOM     23  C   UNL     1      -2.463   6.061  -4.558  1.00  0.00     0.000 A 
ENDBRANCH  12  18
ENDBRANCH   8   9
ENDBRANCH   5   8
ENDBRANCH   3   4
ENDBRANCH   2   3
ENDBRANCH   1   2
BRANCH   1  24
ATOM     24  C   UNL     1       2.382   4.299   3.492  1.00  0.00     0.002 C 
BRANCH  24  25
ATOM     25  C   UNL     1       2.823   5.723   3.145  1.00  0.00     0.021 C 
BRANCH  25  26
ATOM     26  C   UNL     1       1.690   6.741   3.106  1.00  0.00     0.116 C 
BRANCH  26  27
ATOM     27  N   UNL     1       1.119   6.973   4.424  1.00  0.00    -0.352 N 
ATOM     28  C   UNL     1       0.946   8.164   5.092  1.00  0.00     0.251 C 
ATOM     29  H   UNL     1       0.815   6.169   4.903  1.00  0.00     0.163 HD
ATOM     30  O   UNL     1       0.626   8.181   6.269  1.00  0.00    -0.269 OA
BRANCH  28  31
ATOM     31  C   UNL     1       1.174   9.431   4.365  1.00  0.00     0.039 A 
ATOM     32  C   UNL     1       1.977  10.417   4.944  1.00  0.00     0.014 A 
ATOM     33  C   UNL     1       0.610   9.628   3.103  1.00  0.00     0.014 A 
ATOM     34  C   UNL     1       2.271  11.578   4.225  1.00  0.00     0.010 A 
ATOM     35  C   UNL     1       0.960  10.750   2.362  1.00  0.00     0.010 A 
ATOM     36  C   UNL     1       1.793  11.736   2.915  1.00  0.00    -0.014 A 
BRANCH  36  37
ATOM     37  C   UNL     1       2.123  12.926   2.092  1.00  0.00     0.031 A 
ATOM     38  C   UNL     1       1.019  13.841   1.639  1.00  0.00     0.074 A 
ATOM     39  C   UNL     1       3.384  13.122   1.662  1.00  0.00     0.049 A 
ATOM     40  N   UNL     1       1.059  14.821   0.775  1.00  0.00    -0.248 NA
ATOM     41  C   UNL     1      -0.315  13.597   2.215  1.00  0.00     0.031 C 
ATOM     42  C   UNL     1       4.542  12.300   2.017  1.00  0.00     0.029 A 
ATOM     43  N   UNL     1       3.897  14.068   0.809  1.00  0.00    -0.354 N 
ATOM     44  C   UNL     1      -0.246  15.289   0.678  1.00  0.00     0.074 A 
ATOM     45  C   UNL     1      -1.060  14.460   1.541  1.00  0.00     0.031 C 
ATOM     46  C   UNL     1       5.630  12.781   1.393  1.00  0.00     0.029 A 
ATOM     47  C   UNL     1       5.238  13.911   0.555  1.00  0.00     0.049 A 
ATOM     48  H   UNL     1       3.355  14.790   0.416  1.00  0.00     0.167 HD
ATOM     49  C   UNL     1      -0.722  16.322  -0.054  1.00  0.00     0.031 A 
ATOM     50  C   UNL     1       6.055  14.584  -0.278  1.00  0.00     0.031 A 
ATOM     51  C   UNL     1       0.091  17.153  -0.900  1.00  0.00     0.049 A 
ATOM     52  C   UNL     1       5.497  15.711  -1.103  1.00  0.00     0.074 A 
ATOM     53  C   UNL     1      -0.287  18.256  -1.645  1.00  0.00     0.029 A 
ATOM     54  N   UNL     1       1.449  16.972  -1.111  1.00  0.00    -0.354 N 
ATOM     55  N   UNL     1       4.270  16.170  -1.152  1.00  0.00    -0.248 NA
ATOM     56  C   UNL     1       6.438  16.417  -1.986  1.00  0.00     0.031 C 
ATOM     57  C   UNL     1       0.832  18.712  -2.346  1.00  0.00     0.029 A 
ATOM     58  C   UNL     1       1.920  17.931  -1.990  1.00  0.00     0.049 A 
ATOM     59  H   UNL     1       1.997  16.266  -0.697  1.00  0.00     0.167 HD
ATOM     60  C   UNL     1       4.300  17.241  -2.037  1.00  0.00     0.074 A 
ATOM     61  C   UNL     1       5.667  17.365  -2.500  1.00  0.00     0.031 C 
ATOM     62  C   UNL     1       3.287  18.052  -2.425  1.00  0.00     0.031 A 
BRANCH  49  63
ATOM     63  C   UNL     1      -2.198  16.601   0.017  1.00  0.00    -0.014 A 
ATOM     64  C   UNL     1      -2.789  17.113   1.183  1.00  0.00     0.009 A 
ATOM     65  C   UNL     1      -3.004  16.379  -1.111  1.00  0.00     0.009 A 
ATOM     66  C   UNL     1      -4.163  17.358   1.231  1.00  0.00     0.001 A 
ATOM     67  C   UNL     1      -4.372  16.655  -1.070  1.00  0.00     0.001 A 
ATOM     68  C   UNL     1      -4.951  17.134   0.103  1.00  0.00     0.000 A 
ENDBRANCH  49  63
BRANCH  50  69
ATOM     69  C   UNL     1       7.492  14.214  -0.374  1.00  0.00    -0.014 A 
ATOM     70  C   UNL     1       8.481  15.070   0.134  1.00  0.00     0.009 A 
ATOM     71  C   UNL     1       7.883  13.010  -0.980  1.00  0.00     0.009 A 
ATOM     72  C   UNL     1       9.833  14.742   0.012  1.00  0.00     0.001 A 
ATOM     73  C   UNL     1       9.235  12.670  -1.073  1.00  0.00     0.001 A 
ATOM     74  C   UNL     1      10.209  13.540  -0.587  1.00  0.00     0.000 A 
ENDBRANCH  50  69
BRANCH  62  75
ATOM     75  C   UNL     1       3.620  19.189  -3.348  1.00  0.00    -0.014 A 
ATOM     76  C   UNL     1       3.892  18.976  -4.708  1.00  0.00     0.009 A 
ATOM     77  C   UNL     1       3.582  20.505  -2.858  1.00  0.00     0.009 A 
ATOM     78  C   UNL     1       4.138  20.059  -5.554  1.00  0.00     0.001 A 
ATOM     79  C   UNL     1       3.801  21.586  -3.712  1.00  0.00     0.001 A 
ATOM     80  C   UNL     1       4.085  21.362  -5.058  1.00  0.00     0.000 A 
ENDBRANCH  62  75
ENDBRANCH  36  37
ENDBRANCH  28  31
ENDBRANCH  26  27
ENDBRANCH  25  26
ENDBRANCH  24  25
ENDBRANCH   1  24
TORSDOF 16
