REMARK SMILES Cc1cccc(OC2(C(=O)NCCCCCCNC(=O)c3ccc(-c4c5nc(c(-c6ccccc6)c6ccc([nH]6)c(-c6ccccc6)c6nc(c(-c7ccccc7)c7ccc4[nH]7)C=C6)C=C5)cc3)CCN(C(=O)c3cnc[nH]c3=O)CC2)c1
REMARK SMILES IDX 14 1 13 2 12 3 11 4 9 5 10 6 8 8 69 9 82 10 70 11 81 12
REMARK SMILES IDX 71 13 72 14 73 15 7 16 6 17 1 18 2 19 3 20 83 21 4 22 5 23
REMARK SMILES IDX 74 24 75 25 79 26 76 27 78 28 80 29 77 30 15 32 16 33 17 34
REMARK SMILES IDX 18 35 19 36 20 38 21 39 22 40 68 41 23 42 67 43 24 44 25 45
REMARK SMILES IDX 26 46 61 47 27 48 66 49 60 50 62 51 28 52 65 53 59 54 58 55
REMARK SMILES IDX 29 57 51 58 36 59 50 60 37 61 40 62 49 63 63 64 38 65 39 66
REMARK SMILES IDX 48 68 64 69 41 70 30 71 31 72 35 73 32 74 34 75 33 76 52 77
REMARK SMILES IDX 53 78 57 79 54 80 56 81 55 82 42 83 43 84 47 85 44 86 46 87
REMARK SMILES IDX 45 88
REMARK H PARENT 11 7 78 31 18 37 62 56 40 67
REMARK Flexibility Score: inf
ROOT
ATOM      1  C   UNL     1       1.251   6.712  -3.652  1.00  0.00     0.002 C 
ENDROOT
BRANCH   1   2
ATOM      2  C   UNL     1       1.096   6.336  -2.177  1.00  0.00     0.021 C 
BRANCH   2   3
ATOM      3  C   UNL     1      -0.320   6.407  -1.582  1.00  0.00     0.116 C 
BRANCH   3   4
ATOM      4  N   UNL     1      -1.151   5.260  -1.901  1.00  0.00    -0.353 N 
ATOM      5  C   UNL     1      -1.437   4.092  -1.251  1.00  0.00     0.264 C 
ATOM      6  O   UNL     1      -2.354   3.438  -1.766  1.00  0.00    -0.270 OA
ATOM      7  H   UNL     1      -1.604   5.340  -2.771  1.00  0.00     0.163 HD
BRANCH   5   8
ATOM      8  C   UNL     1      -0.735   3.605   0.066  1.00  0.00     0.190 C 
ATOM      9  C   UNL     1       0.772   3.897   0.059  1.00  0.00     0.080 C 
ATOM     10  C   UNL     1      -1.406   4.316   1.274  1.00  0.00     0.080 C 
ATOM     11  C   UNL     1       1.466   3.719   1.397  1.00  0.00     0.124 C 
ATOM     12  C   UNL     1      -0.650   4.012   2.577  1.00  0.00     0.124 C 
ATOM     13  N   UNL     1       0.732   4.443   2.412  1.00  0.00    -0.338 N 
ATOM     14  C   UNL     1       1.194   5.671   2.848  1.00  0.00     0.261 C 
ATOM     15  O   UNL     1       1.891   6.416   2.164  1.00  0.00    -0.269 OA
BRANCH   8  16
ATOM     16  O   UNL     1      -1.163   2.238   0.247  1.00  0.00    -0.477 OA
BRANCH  16  17
ATOM     17  C   UNL     1      -0.552   1.050   0.045  1.00  0.00     0.121 A 
ATOM     18  C   UNL     1       2.773  -0.789  -0.064  1.00  0.00     0.044 C 
ATOM     19  C   UNL     1       1.293  -0.537  -0.064  1.00  0.00    -0.047 A 
ATOM     20  C   UNL     1       0.394  -1.604  -0.028  1.00  0.00     0.003 A 
ATOM     21  C   UNL     1       0.804   0.780  -0.066  1.00  0.00     0.049 A 
ATOM     22  C   UNL     1      -0.973  -1.353   0.019  1.00  0.00     0.004 A 
ATOM     23  C   UNL     1      -1.436  -0.036   0.066  1.00  0.00     0.046 A 
ENDBRANCH  16  17
ENDBRANCH   8  16
BRANCH  14  24
ATOM     24  C   UNL     1       0.828   6.026   4.230  1.00  0.00     0.123 A 
ATOM     25  C   UNL     1       0.229   7.193   4.500  1.00  0.00     0.132 A 
ATOM     26  C   UNL     1       1.142   5.145   5.371  1.00  0.00     0.263 A 
ATOM     27  N   UNL     1      -0.157   7.611   5.753  1.00  0.00    -0.246 NA
ATOM     28  N   UNL     1       0.743   5.615   6.590  1.00  0.00    -0.312 N 
ATOM     29  O   UNL     1       1.726   4.073   5.261  1.00  0.00    -0.269 OA
ATOM     30  C   UNL     1       0.116   6.816   6.732  1.00  0.00     0.199 A 
ATOM     31  H   UNL     1       0.914   5.068   7.391  1.00  0.00     0.171 HD
ENDBRANCH  14  24
ENDBRANCH   5   8
ENDBRANCH   3   4
ENDBRANCH   2   3
ENDBRANCH   1   2
BRANCH   1  32
ATOM     32  C   UNL     1       0.648   8.049  -4.092  1.00  0.00     0.002 C 
BRANCH  32  33
ATOM     33  C   UNL     1       0.898   9.235  -3.163  1.00  0.00     0.021 C 
BRANCH  33  34
ATOM     34  C   UNL     1       2.332   9.740  -3.154  1.00  0.00     0.116 C 
BRANCH  34  35
ATOM     35  N   UNL     1       2.598  10.701  -4.210  1.00  0.00    -0.352 N 
ATOM     36  C   UNL     1       3.707  11.492  -4.468  1.00  0.00     0.251 C 
ATOM     37  H   UNL     1       1.863  10.809  -4.856  1.00  0.00     0.163 HD
ATOM     38  O   UNL     1       3.644  12.333  -5.335  1.00  0.00    -0.269 OA
BRANCH  36  39
ATOM     39  C   UNL     1       5.014  11.187  -3.818  1.00  0.00     0.039 A 
ATOM     40  C   UNL     1       6.158  11.348  -4.617  1.00  0.00     0.014 A 
ATOM     41  C   UNL     1       5.110  10.526  -2.602  1.00  0.00     0.014 A 
ATOM     42  C   UNL     1       7.299  10.604  -4.340  1.00  0.00     0.010 A 
ATOM     43  C   UNL     1       6.189   9.703  -2.384  1.00  0.00     0.010 A 
ATOM     44  C   UNL     1       7.246   9.690  -3.297  1.00  0.00    -0.014 A 
BRANCH  44  45
ATOM     45  C   UNL     1       8.197   8.613  -3.103  1.00  0.00     0.031 A 
ATOM     46  C   UNL     1       9.169   8.696  -2.004  1.00  0.00     0.074 A 
ATOM     47  C   UNL     1       8.027   7.475  -3.808  1.00  0.00     0.049 A 
ATOM     48  N   UNL     1      10.189   7.922  -1.878  1.00  0.00    -0.248 NA
ATOM     49  C   UNL     1       9.089   9.720  -0.967  1.00  0.00     0.031 C 
ATOM     50  C   UNL     1       8.556   6.147  -3.515  1.00  0.00     0.029 A 
ATOM     51  N   UNL     1       7.492   7.359  -5.092  1.00  0.00    -0.354 N 
ATOM     52  C   UNL     1      10.698   8.122  -0.618  1.00  0.00     0.074 A 
ATOM     53  C   UNL     1      10.052   9.318  -0.134  1.00  0.00     0.031 C 
ATOM     54  C   UNL     1       8.555   5.421  -4.645  1.00  0.00     0.029 A 
ATOM     55  C   UNL     1       8.200   6.323  -5.729  1.00  0.00     0.049 A 
ATOM     56  H   UNL     1       6.762   7.896  -5.476  1.00  0.00     0.167 HD
ATOM     57  C   UNL     1      11.492   7.160  -0.074  1.00  0.00     0.031 A 
ATOM     58  C   UNL     1       9.009   6.592  -6.798  1.00  0.00     0.031 A 
ATOM     59  C   UNL     1      11.803   6.114  -1.049  1.00  0.00     0.049 A 
ATOM     60  C   UNL     1      10.464   6.249  -6.558  1.00  0.00     0.074 A 
ATOM     61  C   UNL     1      11.313   4.835  -1.260  1.00  0.00     0.029 A 
ATOM     62  N   UNL     1      12.515   6.456  -2.192  1.00  0.00    -0.354 N 
ATOM     63  N   UNL     1      11.006   6.131  -5.376  1.00  0.00    -0.248 NA
ATOM     64  C   UNL     1      11.425   6.020  -7.632  1.00  0.00     0.031 C 
ATOM     65  C   UNL     1      11.687   4.434  -2.572  1.00  0.00     0.029 A 
ATOM     66  C   UNL     1      12.429   5.456  -3.139  1.00  0.00     0.049 A 
ATOM     67  H   UNL     1      13.012   7.298  -2.311  1.00  0.00     0.167 HD
ATOM     68  C   UNL     1      12.330   5.795  -5.503  1.00  0.00     0.074 A 
ATOM     69  C   UNL     1      12.543   5.740  -6.938  1.00  0.00     0.031 C 
ATOM     70  C   UNL     1      13.129   5.595  -4.412  1.00  0.00     0.031 A 
BRANCH  57  71
ATOM     71  C   UNL     1      11.748   7.025   1.409  1.00  0.00    -0.014 A 
ATOM     72  C   UNL     1      12.093   5.768   1.938  1.00  0.00     0.009 A 
ATOM     73  C   UNL     1      11.602   8.062   2.346  1.00  0.00     0.009 A 
ATOM     74  C   UNL     1      12.201   5.543   3.317  1.00  0.00     0.001 A 
ATOM     75  C   UNL     1      11.678   7.841   3.728  1.00  0.00     0.001 A 
ATOM     76  C   UNL     1      11.969   6.576   4.215  1.00  0.00     0.000 A 
ENDBRANCH  57  71
BRANCH  58  77
ATOM     77  C   UNL     1       8.524   7.732  -7.629  1.00  0.00    -0.014 A 
ATOM     78  C   UNL     1       7.299   7.581  -8.312  1.00  0.00     0.009 A 
ATOM     79  C   UNL     1       9.019   9.028  -7.426  1.00  0.00     0.009 A 
ATOM     80  C   UNL     1       6.529   8.695  -8.661  1.00  0.00     0.001 A 
ATOM     81  C   UNL     1       8.252  10.142  -7.795  1.00  0.00     0.001 A 
ATOM     82  C   UNL     1       6.993   9.975  -8.372  1.00  0.00     0.000 A 
ENDBRANCH  58  77
BRANCH  70  83
ATOM     83  C   UNL     1      14.638   5.456  -4.390  1.00  0.00    -0.014 A 
ATOM     84  C   UNL     1      15.491   5.755  -5.458  1.00  0.00     0.009 A 
ATOM     85  C   UNL     1      15.270   5.117  -3.168  1.00  0.00     0.009 A 
ATOM     86  C   UNL     1      16.887   5.691  -5.322  1.00  0.00     0.001 A 
ATOM     87  C   UNL     1      16.657   5.100  -3.012  1.00  0.00     0.001 A 
ATOM     88  C   UNL     1      17.469   5.379  -4.098  1.00  0.00     0.000 A 
ENDBRANCH  70  83
ENDBRANCH  44  45
ENDBRANCH  36  39
ENDBRANCH  34  35
ENDBRANCH  33  34
ENDBRANCH  32  33
ENDBRANCH   1  32
TORSDOF 16
