REMARK SMILES CCOC(=O)c1ccc(NC(=O)[C@H]2CC(C)=C(C)C[C@@H]2C(=O)NCCCCCCNC(=O)c2ccc(-c3c4nc(c(-c5ccccc5)c5ccc([nH]5)c(-c5ccccc5)c5nc(c(-c6ccccc6)c6ccc3[nH]6)C=C5)C=C4)cc2)cc1
REMARK SMILES IDX 25 1 24 2 23 3 21 4 22 5 20 7 13 8 14 9 15 10 19 11 16 12
REMARK SMILES IDX 17 13 18 14 11 15 10 16 12 18 9 19 6 20 7 21 82 22 8 23
REMARK SMILES IDX 81 24 4 25 5 26 3 27 2 28 1 29 26 30 27 31 28 32 29 33 30 34
REMARK SMILES IDX 31 35 32 37 33 38 34 39 80 40 35 41 79 42 36 43 37 44 38 45
REMARK SMILES IDX 73 46 39 47 78 48 72 49 74 50 40 51 77 52 71 53 70 54 41 56
REMARK SMILES IDX 63 57 48 58 62 59 49 60 52 61 61 62 75 63 50 64 51 65 60 67
REMARK SMILES IDX 76 68 53 69 42 70 43 71 47 72 44 73 46 74 45 75 64 76 65 77
REMARK SMILES IDX 69 78 66 79 68 80 67 81 54 82 55 83 59 84 56 85 58 86 57 87
REMARK H PARENT 23 6 10 17 30 36 74 55 52 66
REMARK Flexibility Score: inf
ROOT
ATOM      1  C   UNL     1       7.397   9.041   6.531  1.00  0.00     0.021 C 
ENDROOT
BRANCH   1   2
ATOM      2  C   UNL     1       7.102   8.061   5.399  1.00  0.00     0.116 C 
BRANCH   2   3
ATOM      3  N   UNL     1       8.071   6.982   5.348  1.00  0.00    -0.356 N 
ATOM      4  C   UNL     1       7.872   5.631   5.359  1.00  0.00     0.224 C 
ATOM      5  O   UNL     1       8.858   4.899   5.271  1.00  0.00    -0.275 OA
ATOM      6  H   UNL     1       9.013   7.266   5.296  1.00  0.00     0.163 HD
BRANCH   4   7
ATOM      7  C   UNL     1       6.443   5.098   5.435  1.00  0.00     0.095 C 
ATOM      8  C   UNL     1       6.413   3.673   6.007  1.00  0.00     0.095 C 
ATOM      9  C   UNL     1       6.570   2.546   4.985  1.00  0.00     0.045 C 
ATOM     10  C   UNL     1       6.156   2.836   3.556  1.00  0.00    -0.074 C 
ATOM     11  C   UNL     1       5.783   5.264   4.061  1.00  0.00     0.045 C 
ATOM     12  C   UNL     1       6.155   1.603   2.683  1.00  0.00     0.039 C 
ATOM     13  C   UNL     1       5.797   4.069   3.138  1.00  0.00    -0.074 C 
ATOM     14  C   UNL     1       5.356   4.399   1.733  1.00  0.00     0.039 C 
BRANCH   8  15
ATOM     15  C   UNL     1       5.403   3.562   7.164  1.00  0.00     0.228 C 
ATOM     16  N   UNL     1       4.305   2.763   7.193  1.00  0.00    -0.326 N 
ATOM     17  H   UNL     1       3.975   2.575   8.101  1.00  0.00     0.169 HD
ATOM     18  O   UNL     1       5.640   4.187   8.209  1.00  0.00    -0.274 OA
BRANCH  16  19
ATOM     19  C   UNL     1       3.556   2.157   6.186  1.00  0.00     0.041 A 
ATOM     20  C   UNL     1       2.297   0.751   4.145  1.00  0.00     0.060 A 
ATOM     21  C   UNL     1       2.683   2.074   3.930  1.00  0.00     0.018 A 
ATOM     22  C   UNL     1       2.427   0.169   5.407  1.00  0.00     0.018 A 
ATOM     23  C   UNL     1       3.302   2.776   4.966  1.00  0.00     0.027 A 
ATOM     24  C   UNL     1       3.027   0.889   6.440  1.00  0.00     0.027 A 
BRANCH  20  25
ATOM     25  C   UNL     1       1.899  -0.098   3.015  1.00  0.00     0.338 C 
ATOM     26  O   UNL     1       2.535  -1.082   2.679  1.00  0.00    -0.246 OA
BRANCH  25  27
ATOM     27  O   UNL     1       0.754   0.373   2.470  1.00  0.00    -0.462 OA
BRANCH  27  28
ATOM     28  C   UNL     1       0.264  -0.400   1.364  1.00  0.00     0.230 C 
ATOM     29  C   UNL     1       0.802   0.178   0.069  1.00  0.00     0.049 C 
ENDBRANCH  27  28
ENDBRANCH  25  27
ENDBRANCH  20  25
ENDBRANCH  16  19
ENDBRANCH   8  15
ENDBRANCH   4   7
ENDBRANCH   2   3
ENDBRANCH   1   2
BRANCH   1  30
ATOM     30  C   UNL     1       8.732   9.784   6.406  1.00  0.00     0.002 C 
BRANCH  30  31
ATOM     31  C   UNL     1       8.951  10.532   5.087  1.00  0.00     0.002 C 
BRANCH  31  32
ATOM     32  C   UNL     1       7.859  11.534   4.707  1.00  0.00     0.021 C 
BRANCH  32  33
ATOM     33  C   UNL     1       7.577  12.614   5.746  1.00  0.00     0.116 C 
BRANCH  33  34
ATOM     34  N   UNL     1       8.724  13.473   5.991  1.00  0.00    -0.352 N 
ATOM     35  C   UNL     1       8.763  14.838   6.141  1.00  0.00     0.251 C 
ATOM     36  H   UNL     1       9.591  13.013   6.060  1.00  0.00     0.163 HD
ATOM     37  O   UNL     1       9.837  15.425   6.221  1.00  0.00    -0.269 OA
BRANCH  35  38
ATOM     38  C   UNL     1       7.500  15.607   6.171  1.00  0.00     0.039 A 
ATOM     39  C   UNL     1       7.384  16.742   5.363  1.00  0.00     0.014 A 
ATOM     40  C   UNL     1       6.436  15.210   6.986  1.00  0.00     0.014 A 
ATOM     41  C   UNL     1       6.176  17.440   5.320  1.00  0.00     0.010 A 
ATOM     42  C   UNL     1       5.216  15.874   6.901  1.00  0.00     0.010 A 
ATOM     43  C   UNL     1       5.073  16.992   6.064  1.00  0.00    -0.014 A 
BRANCH  43  44
ATOM     44  C   UNL     1       3.756  17.669   5.975  1.00  0.00     0.031 A 
ATOM     45  C   UNL     1       3.194  18.388   7.168  1.00  0.00     0.074 A 
ATOM     46  C   UNL     1       3.031  17.569   4.845  1.00  0.00     0.049 A 
ATOM     47  N   UNL     1       2.025  18.959   7.311  1.00  0.00    -0.248 NA
ATOM     48  C   UNL     1       4.047  18.450   8.365  1.00  0.00     0.031 C 
ATOM     49  C   UNL     1       3.447  16.874   3.626  1.00  0.00     0.029 A 
ATOM     50  N   UNL     1       1.780  18.048   4.545  1.00  0.00    -0.354 N 
ATOM     51  C   UNL     1       1.990  19.420   8.620  1.00  0.00     0.074 A 
ATOM     52  C   UNL     1       3.243  19.039   9.238  1.00  0.00     0.031 C 
ATOM     53  C   UNL     1       2.480  16.992   2.701  1.00  0.00     0.029 A 
ATOM     54  C   UNL     1       1.364  17.738   3.273  1.00  0.00     0.049 A 
ATOM     55  H   UNL     1       1.234  18.565   5.180  1.00  0.00     0.167 HD
ATOM     56  C   UNL     1       1.008  20.107   9.251  1.00  0.00     0.031 A 
ATOM     57  C   UNL     1       0.210  18.018   2.640  1.00  0.00     0.031 A 
ATOM     58  C   UNL     1      -0.225  20.514   8.634  1.00  0.00     0.049 A 
ATOM     59  C   UNL     1      -0.861  18.787   3.359  1.00  0.00     0.074 A 
ATOM     60  C   UNL     1      -1.247  21.279   9.170  1.00  0.00     0.029 A 
ATOM     61  N   UNL     1      -0.604  20.188   7.341  1.00  0.00    -0.354 N 
ATOM     62  N   UNL     1      -0.856  19.264   4.579  1.00  0.00    -0.248 NA
ATOM     63  C   UNL     1      -2.095  19.059   2.608  1.00  0.00     0.031 C 
ATOM     64  C   UNL     1      -2.261  21.387   8.211  1.00  0.00     0.029 A 
ATOM     65  C   UNL     1      -1.853  20.720   7.068  1.00  0.00     0.049 A 
ATOM     66  H   UNL     1      -0.065  19.658   6.711  1.00  0.00     0.167 HD
ATOM     67  C   UNL     1      -2.072  19.914   4.735  1.00  0.00     0.074 A 
ATOM     68  C   UNL     1      -2.788  19.775   3.483  1.00  0.00     0.031 C 
ATOM     69  C   UNL     1      -2.551  20.572   5.819  1.00  0.00     0.031 A 
BRANCH  56  70
ATOM     70  C   UNL     1       1.230  20.450  10.696  1.00  0.00    -0.014 A 
ATOM     71  C   UNL     1       2.136  21.452  11.075  1.00  0.00     0.009 A 
ATOM     72  C   UNL     1       0.506  19.774  11.690  1.00  0.00     0.009 A 
ATOM     73  C   UNL     1       2.341  21.744  12.425  1.00  0.00     0.001 A 
ATOM     74  C   UNL     1       0.695  20.084  13.037  1.00  0.00     0.001 A 
ATOM     75  C   UNL     1       1.619  21.061  13.404  1.00  0.00     0.000 A 
ENDBRANCH  56  70
BRANCH  57  76
ATOM     76  C   UNL     1       0.016  17.591   1.233  1.00  0.00    -0.014 A 
ATOM     77  C   UNL     1       0.097  18.532   0.196  1.00  0.00     0.009 A 
ATOM     78  C   UNL     1      -0.246  16.250   0.919  1.00  0.00     0.009 A 
ATOM     79  C   UNL     1      -0.098  18.141  -1.130  1.00  0.00     0.001 A 
ATOM     80  C   UNL     1      -0.421  15.858  -0.410  1.00  0.00     0.001 A 
ATOM     81  C   UNL     1      -0.353  16.804  -1.432  1.00  0.00     0.000 A 
ENDBRANCH  57  76
BRANCH  69  82
ATOM     82  C   UNL     1      -3.898  21.219   5.685  1.00  0.00    -0.014 A 
ATOM     83  C   UNL     1      -5.075  20.457   5.733  1.00  0.00     0.009 A 
ATOM     84  C   UNL     1      -3.989  22.612   5.544  1.00  0.00     0.009 A 
ATOM     85  C   UNL     1      -6.320  21.079   5.618  1.00  0.00     0.001 A 
ATOM     86  C   UNL     1      -5.235  23.232   5.450  1.00  0.00     0.001 A 
ATOM     87  C   UNL     1      -6.399  22.465   5.480  1.00  0.00     0.000 A 
ENDBRANCH  69  82
ENDBRANCH  43  44
ENDBRANCH  35  38
ENDBRANCH  33  34
ENDBRANCH  32  33
ENDBRANCH  31  32
ENDBRANCH  30  31
ENDBRANCH   1  30
TORSDOF 18
