REMARK SMILES CC[C@H]1CC[C@](CC(C)(C)O)(C(=O)NCCCCCCNC(=O)c2ccc(-c3c4nc(c(-c5ccccc5)c5ccc([nH]5)c(-c5ccccc5)c5nc(c(-c6ccccc6)c6ccc3[nH]6)C=C5)C=C4)cc2)C1
REMARK SMILES IDX 17 1 16 2 15 3 14 4 12 5 13 6 6 8 3 9 4 10 72 11 5 12 2 13
REMARK SMILES IDX 1 14 7 15 8 16 9 17 10 18 11 19 18 21 19 22 20 23 21 24
REMARK SMILES IDX 22 25 23 27 24 28 25 29 71 30 26 31 70 32 27 33 28 34 29 35
REMARK SMILES IDX 64 36 30 37 69 38 63 39 65 40 31 41 68 42 62 43 61 44 32 46
REMARK SMILES IDX 54 47 39 48 53 49 40 50 43 51 52 52 66 53 41 54 42 55 51 57
REMARK SMILES IDX 67 58 44 59 33 60 34 61 38 62 35 63 37 64 36 65 55 66 56 67
REMARK SMILES IDX 60 68 57 69 59 70 58 71 45 72 46 73 50 74 47 75 49 76 48 77
REMARK H PARENT 14 7 11 20 21 26 65 45 43 56
REMARK Flexibility Score: inf
ROOT
ATOM      1  C   UNL     1      -3.635  -4.665  -5.490  1.00  0.00     0.002 C 
ENDROOT
BRANCH   1   2
ATOM      2  C   UNL     1      -2.665  -3.510  -5.215  1.00  0.00     0.021 C 
BRANCH   2   3
ATOM      3  C   UNL     1      -2.361  -3.315  -3.726  1.00  0.00     0.116 C 
BRANCH   3   4
ATOM      4  N   UNL     1      -1.294  -4.204  -3.327  1.00  0.00    -0.356 N 
ATOM      5  C   UNL     1       0.059  -4.108  -3.417  1.00  0.00     0.226 C 
ATOM      6  O   UNL     1       0.646  -5.180  -3.217  1.00  0.00    -0.274 OA
ATOM      7  H   UNL     1      -1.606  -5.040  -2.911  1.00  0.00     0.163 HD
BRANCH   5   8
ATOM      8  C   UNL     1       0.848  -2.764  -3.530  1.00  0.00     0.052 C 
ATOM      9  C   UNL     1       0.941  -0.631  -2.273  1.00  0.00    -0.010 C 
ATOM     10  C   UNL     1       0.123  -0.377  -3.538  1.00  0.00     0.005 C 
ATOM     11  C   UNL     1       0.806  -2.146  -2.104  1.00  0.00     0.020 C 
ATOM     12  C   UNL     1       0.262  -1.634  -4.404  1.00  0.00     0.017 C 
BRANCH   9  13
ATOM     13  C   UNL     1       2.368  -0.070  -2.396  1.00  0.00     0.000 C 
ATOM     14  C   UNL     1       3.284  -0.452  -1.241  1.00  0.00     0.004 C 
ENDBRANCH   9  13
BRANCH   8  15
ATOM     15  C   UNL     1       2.349  -3.108  -3.890  1.00  0.00     0.051 C 
BRANCH  15  16
ATOM     16  C   UNL     1       2.780  -3.183  -5.378  1.00  0.00     0.060 C 
ATOM     17  C   UNL     1       3.359  -1.848  -5.885  1.00  0.00     0.042 C 
ATOM     18  C   UNL     1       3.882  -4.240  -5.549  1.00  0.00     0.042 C 
BRANCH  16  19
ATOM     19  O   UNL     1       1.669  -3.555  -6.189  1.00  0.00    -0.390 OA
ATOM     20  H   UNL     1       0.963  -2.897  -6.093  1.00  0.00     0.211 HD
ENDBRANCH  16  19
ENDBRANCH  15  16
ENDBRANCH   8  15
ENDBRANCH   5   8
ENDBRANCH   3   4
ENDBRANCH   2   3
ENDBRANCH   1   2
BRANCH   1  21
ATOM     21  C   UNL     1      -5.069  -4.423  -5.003  1.00  0.00     0.002 C 
BRANCH  21  22
ATOM     22  C   UNL     1      -5.725  -3.145  -5.535  1.00  0.00     0.021 C 
BRANCH  22  23
ATOM     23  C   UNL     1      -5.849  -3.089  -7.055  1.00  0.00     0.116 C 
BRANCH  23  24
ATOM     24  N   UNL     1      -6.776  -4.095  -7.548  1.00  0.00    -0.352 N 
ATOM     25  C   UNL     1      -7.948  -3.925  -8.242  1.00  0.00     0.251 C 
ATOM     26  H   UNL     1      -6.529  -5.028  -7.358  1.00  0.00     0.163 HD
ATOM     27  O   UNL     1      -8.743  -4.852  -8.354  1.00  0.00    -0.269 OA
BRANCH  25  28
ATOM     28  C   UNL     1      -8.252  -2.616  -8.857  1.00  0.00     0.039 A 
ATOM     29  C   UNL     1      -9.539  -2.087  -8.726  1.00  0.00     0.014 A 
ATOM     30  C   UNL     1      -7.279  -1.932  -9.590  1.00  0.00     0.014 A 
ATOM     31  C   UNL     1      -9.836  -0.846  -9.294  1.00  0.00     0.010 A 
ATOM     32  C   UNL     1      -7.559  -0.669 -10.103  1.00  0.00     0.010 A 
ATOM     33  C   UNL     1      -8.842  -0.118  -9.968  1.00  0.00    -0.014 A 
BRANCH  33  34
ATOM     34  C   UNL     1      -9.127   1.217 -10.550  1.00  0.00     0.031 A 
ATOM     35  C   UNL     1      -9.075   1.415 -12.041  1.00  0.00     0.074 A 
ATOM     36  C   UNL     1      -9.361   2.264  -9.736  1.00  0.00     0.049 A 
ATOM     37  N   UNL     1      -9.219   2.518 -12.732  1.00  0.00    -0.248 NA
ATOM     38  C   UNL     1      -8.801   0.225 -12.863  1.00  0.00     0.031 C 
ATOM     39  C   UNL     1      -9.398   2.211  -8.272  1.00  0.00     0.029 A 
ATOM     40  N   UNL     1      -9.600   3.584 -10.025  1.00  0.00    -0.354 N 
ATOM     41  C   UNL     1      -9.026   2.159 -14.060  1.00  0.00     0.074 A 
ATOM     42  C   UNL     1      -8.722   0.746 -14.079  1.00  0.00     0.031 C 
ATOM     43  C   UNL     1      -9.663   3.438  -7.794  1.00  0.00     0.029 A 
ATOM     44  C   UNL     1      -9.777   4.369  -8.911  1.00  0.00     0.049 A 
ATOM     45  H   UNL     1      -9.641   3.936 -10.944  1.00  0.00     0.167 HD
ATOM     46  C   UNL     1      -9.107   2.936 -15.166  1.00  0.00     0.031 A 
ATOM     47  C   UNL     1      -9.997   5.693  -8.803  1.00  0.00     0.031 A 
ATOM     48  C   UNL     1      -9.444   4.334 -15.151  1.00  0.00     0.049 A 
ATOM     49  C   UNL     1     -10.090   6.527 -10.051  1.00  0.00     0.074 A 
ATOM     50  C   UNL     1      -9.633   5.185 -16.227  1.00  0.00     0.029 A 
ATOM     51  N   UNL     1      -9.641   5.085 -14.004  1.00  0.00    -0.354 N 
ATOM     52  N   UNL     1      -9.988   6.155 -11.303  1.00  0.00    -0.248 NA
ATOM     53  C   UNL     1     -10.341   7.964  -9.868  1.00  0.00     0.031 C 
ATOM     54  C   UNL     1      -9.899   6.463 -15.729  1.00  0.00     0.029 A 
ATOM     55  C   UNL     1      -9.925   6.396 -14.345  1.00  0.00     0.049 A 
ATOM     56  H   UNL     1      -9.588   4.738 -13.085  1.00  0.00     0.167 HD
ATOM     57  C   UNL     1     -10.194   7.303 -12.057  1.00  0.00     0.074 A 
ATOM     58  C   UNL     1     -10.440   8.381 -11.122  1.00  0.00     0.031 C 
ATOM     59  C   UNL     1     -10.180   7.452 -13.403  1.00  0.00     0.031 A 
BRANCH  46  60
ATOM     60  C   UNL     1      -8.825   2.295 -16.495  1.00  0.00    -0.014 A 
ATOM     61  C   UNL     1      -9.742   1.412 -17.087  1.00  0.00     0.009 A 
ATOM     62  C   UNL     1      -7.659   2.636 -17.197  1.00  0.00     0.009 A 
ATOM     63  C   UNL     1      -9.483   0.865 -18.346  1.00  0.00     0.001 A 
ATOM     64  C   UNL     1      -7.414   2.107 -18.466  1.00  0.00     0.001 A 
ATOM     65  C   UNL     1      -8.324   1.218 -19.036  1.00  0.00     0.000 A 
ENDBRANCH  46  60
BRANCH  47  66
ATOM     66  C   UNL     1     -10.152   6.324  -7.466  1.00  0.00    -0.014 A 
ATOM     67  C   UNL     1     -11.398   6.822  -7.055  1.00  0.00     0.009 A 
ATOM     68  C   UNL     1      -9.049   6.465  -6.611  1.00  0.00     0.009 A 
ATOM     69  C   UNL     1     -11.527   7.482  -5.831  1.00  0.00     0.001 A 
ATOM     70  C   UNL     1      -9.188   7.099  -5.374  1.00  0.00     0.001 A 
ATOM     71  C   UNL     1     -10.423   7.619  -4.991  1.00  0.00     0.000 A 
ENDBRANCH  47  66
BRANCH  59  72
ATOM     72  C   UNL     1     -10.482   8.819 -13.946  1.00  0.00    -0.014 A 
ATOM     73  C   UNL     1      -9.548   9.861 -13.855  1.00  0.00     0.009 A 
ATOM     74  C   UNL     1     -11.705   9.051 -14.595  1.00  0.00     0.009 A 
ATOM     75  C   UNL     1      -9.847  11.121 -14.377  1.00  0.00     0.001 A 
ATOM     76  C   UNL     1     -11.989  10.304 -15.140  1.00  0.00     0.001 A 
ATOM     77  C   UNL     1     -11.064  11.339 -15.023  1.00  0.00     0.000 A 
ENDBRANCH  59  72
ENDBRANCH  33  34
ENDBRANCH  25  28
ENDBRANCH  23  24
ENDBRANCH  22  23
ENDBRANCH  21  22
ENDBRANCH   1  21
TORSDOF 17
