REMARK SMILES O=C(NCCCCCCNC(=O)c1ccc2nc(C3CCCCC3)[nH]c2c1)c1ccc(-c2c3nc(c(-c4ccccc4)c4ccc([nH]4)c(-c4ccccc4)c4nc(c(-c5ccccc5)c5ccc2[nH]5)C=C4)C=C3)cc1
REMARK SMILES IDX 6 1 5 2 4 3 3 4 1 5 2 6 28 8 29 9 75 10 30 11 74 12 31 13
REMARK SMILES IDX 32 14 33 15 68 16 34 17 73 18 67 19 69 20 35 21 72 22 66 23
REMARK SMILES IDX 65 24 36 26 58 27 43 28 57 29 44 30 47 31 56 32 70 33 45 34
REMARK SMILES IDX 46 35 55 37 71 38 48 39 37 40 38 41 42 42 39 43 41 44 40 45
REMARK SMILES IDX 59 46 60 47 64 48 61 49 63 50 62 51 49 52 50 53 54 54 51 55
REMARK SMILES IDX 53 56 52 57 7 58 8 59 9 60 10 61 11 62 12 64 13 65 14 66
REMARK SMILES IDX 27 67 15 68 26 69 16 70 25 71 17 72 18 73 19 75 20 76 24 77
REMARK SMILES IDX 21 78 23 79 22 80
REMARK H PARENT 3 7 69 25 47 36 10 63 25 74
REMARK Flexibility Score: inf
ROOT
ATOM      1  C   UNL     1       4.192   1.198  -3.755  1.00  0.00     0.002 C 
ENDROOT
BRANCH   1   2
ATOM      2  C   UNL     1       4.639   0.113  -2.776  1.00  0.00     0.021 C 
BRANCH   2   3
ATOM      3  C   UNL     1       4.424   0.437  -1.305  1.00  0.00     0.116 C 
BRANCH   3   4
ATOM      4  N   UNL     1       3.021   0.519  -0.934  1.00  0.00    -0.352 N 
ATOM      5  O   UNL     1       1.152   0.001   0.227  1.00  0.00    -0.269 OA
ATOM      6  C   UNL     1       2.373  -0.073   0.124  1.00  0.00     0.251 C 
ATOM      7  H   UNL     1       2.458   1.073  -1.522  1.00  0.00     0.163 HD
BRANCH   6   8
ATOM      8  C   UNL     1       3.153  -0.830   1.130  1.00  0.00     0.039 A 
ATOM      9  C   UNL     1       4.343  -0.312   1.642  1.00  0.00     0.014 A 
ATOM     10  C   UNL     1       2.691  -2.079   1.558  1.00  0.00     0.014 A 
ATOM     11  C   UNL     1       5.144  -1.102   2.457  1.00  0.00     0.010 A 
ATOM     12  C   UNL     1       3.455  -2.835   2.454  1.00  0.00     0.010 A 
ATOM     13  C   UNL     1       4.703  -2.366   2.887  1.00  0.00    -0.014 A 
BRANCH  13  14
ATOM     14  C   UNL     1       5.548  -3.125   3.844  1.00  0.00     0.031 A 
ATOM     15  C   UNL     1       6.192  -4.431   3.468  1.00  0.00     0.074 A 
ATOM     16  C   UNL     1       5.790  -2.577   5.051  1.00  0.00     0.049 A 
ATOM     17  N   UNL     1       7.037  -5.156   4.159  1.00  0.00    -0.248 NA
ATOM     18  C   UNL     1       5.844  -5.002   2.158  1.00  0.00     0.031 C 
ATOM     19  C   UNL     1       5.205  -1.324   5.538  1.00  0.00     0.029 A 
ATOM     20  N   UNL     1       6.616  -2.976   6.070  1.00  0.00    -0.354 N 
ATOM     21  C   UNL     1       7.313  -6.270   3.377  1.00  0.00     0.074 A 
ATOM     22  C   UNL     1       6.526  -6.140   2.169  1.00  0.00     0.031 C 
ATOM     23  C   UNL     1       5.744  -1.021   6.727  1.00  0.00     0.029 A 
ATOM     24  C   UNL     1       6.663  -2.084   7.114  1.00  0.00     0.049 A 
ATOM     25  H   UNL     1       7.125  -3.818   6.055  1.00  0.00     0.167 HD
ATOM     26  C   UNL     1       8.152  -7.303   3.639  1.00  0.00     0.031 A 
ATOM     27  C   UNL     1       7.366  -2.114   8.260  1.00  0.00     0.031 A 
ATOM     28  C   UNL     1       8.930  -7.435   4.843  1.00  0.00     0.049 A 
ATOM     29  C   UNL     1       8.285  -3.269   8.521  1.00  0.00     0.074 A 
ATOM     30  C   UNL     1       9.811  -8.445   5.196  1.00  0.00     0.029 A 
ATOM     31  N   UNL     1       8.924  -6.529   5.892  1.00  0.00    -0.354 N 
ATOM     32  N   UNL     1       8.549  -4.301   7.758  1.00  0.00    -0.248 NA
ATOM     33  C   UNL     1       9.005  -3.260   9.801  1.00  0.00     0.031 C 
ATOM     34  C   UNL     1      10.307  -8.168   6.475  1.00  0.00     0.029 A 
ATOM     35  C   UNL     1       9.774  -6.962   6.897  1.00  0.00     0.049 A 
ATOM     36  H   UNL     1       8.394  -5.699   5.919  1.00  0.00     0.167 HD
ATOM     37  C   UNL     1       9.465  -5.066   8.464  1.00  0.00     0.074 A 
ATOM     38  C   UNL     1       9.740  -4.359   9.698  1.00  0.00     0.031 C 
ATOM     39  C   UNL     1      10.021  -6.254   8.126  1.00  0.00     0.031 A 
BRANCH  26  40
ATOM     40  C   UNL     1       8.263  -8.388   2.604  1.00  0.00    -0.014 A 
ATOM     41  C   UNL     1       8.963  -8.179   1.406  1.00  0.00     0.009 A 
ATOM     42  C   UNL     1       7.712  -9.655   2.856  1.00  0.00     0.009 A 
ATOM     43  C   UNL     1       9.090  -9.210   0.471  1.00  0.00     0.001 A 
ATOM     44  C   UNL     1       7.859 -10.690   1.930  1.00  0.00     0.001 A 
ATOM     45  C   UNL     1       8.543 -10.465   0.736  1.00  0.00     0.000 A 
ENDBRANCH  26  40
BRANCH  27  46
ATOM     46  C   UNL     1       7.211  -1.017   9.249  1.00  0.00    -0.014 A 
ATOM     47  C   UNL     1       8.253  -0.109   9.484  1.00  0.00     0.009 A 
ATOM     48  C   UNL     1       6.006  -0.868   9.954  1.00  0.00     0.009 A 
ATOM     49  C   UNL     1       8.098   0.914  10.422  1.00  0.00     0.001 A 
ATOM     50  C   UNL     1       5.843   0.173  10.868  1.00  0.00     0.001 A 
ATOM     51  C   UNL     1       6.893   1.058  11.108  1.00  0.00     0.000 A 
ENDBRANCH  27  46
BRANCH  39  52
ATOM     52  C   UNL     1      10.984  -6.850   9.111  1.00  0.00    -0.014 A 
ATOM     53  C   UNL     1      10.531  -7.412  10.316  1.00  0.00     0.009 A 
ATOM     54  C   UNL     1      12.359  -6.850   8.833  1.00  0.00     0.009 A 
ATOM     55  C   UNL     1      11.441  -7.924  11.242  1.00  0.00     0.001 A 
ATOM     56  C   UNL     1      13.264  -7.387   9.749  1.00  0.00     0.001 A 
ATOM     57  C   UNL     1      12.806  -7.912  10.957  1.00  0.00     0.000 A 
ENDBRANCH  39  52
ENDBRANCH  13  14
ENDBRANCH   6   8
ENDBRANCH   3   4
ENDBRANCH   2   3
ENDBRANCH   1   2
BRANCH   1  58
ATOM     58  C   UNL     1       4.783   2.591  -3.522  1.00  0.00     0.002 C 
BRANCH  58  59
ATOM     59  C   UNL     1       6.309   2.664  -3.405  1.00  0.00     0.021 C 
BRANCH  59  60
ATOM     60  C   UNL     1       7.091   2.029  -4.553  1.00  0.00     0.116 C 
BRANCH  60  61
ATOM     61  N   UNL     1       6.799   2.655  -5.828  1.00  0.00    -0.352 N 
ATOM     62  C   UNL     1       7.665   3.198  -6.741  1.00  0.00     0.251 C 
ATOM     63  H   UNL     1       5.846   2.696  -6.072  1.00  0.00     0.163 HD
ATOM     64  O   UNL     1       7.242   3.834  -7.701  1.00  0.00    -0.269 OA
BRANCH  62  65
ATOM     65  C   UNL     1       9.122   3.040  -6.551  1.00  0.00     0.042 A 
ATOM     66  C   UNL     1       9.688   1.764  -6.416  1.00  0.00     0.016 A 
ATOM     67  C   UNL     1       9.908   4.201  -6.538  1.00  0.00     0.042 A 
ATOM     68  C   UNL     1      11.064   1.618  -6.199  1.00  0.00     0.031 A 
ATOM     69  C   UNL     1      11.274   4.017  -6.324  1.00  0.00     0.066 A 
ATOM     70  C   UNL     1      11.861   2.770  -6.145  1.00  0.00     0.089 A 
ATOM     71  N   UNL     1      12.320   4.897  -6.242  1.00  0.00    -0.342 N 
ATOM     72  N   UNL     1      13.212   2.892  -5.939  1.00  0.00    -0.233 NA
ATOM     73  C   UNL     1      13.470   4.182  -6.003  1.00  0.00     0.110 A 
ATOM     74  H   UNL     1      12.259   5.875  -6.337  1.00  0.00     0.168 HD
BRANCH  73  75
ATOM     75  C   UNL     1      14.820   4.820  -5.870  1.00  0.00     0.055 C 
ATOM     76  C   UNL     1      15.275   5.425  -7.207  1.00  0.00     0.011 C 
ATOM     77  C   UNL     1      14.848   5.866  -4.745  1.00  0.00     0.011 C 
ATOM     78  C   UNL     1      16.640   6.097  -7.085  1.00  0.00     0.001 C 
ATOM     79  C   UNL     1      16.216   6.536  -4.636  1.00  0.00     0.001 C 
ATOM     80  C   UNL     1      16.655   7.136  -5.968  1.00  0.00     0.000 C 
ENDBRANCH  73  75
ENDBRANCH  62  65
ENDBRANCH  60  61
ENDBRANCH  59  60
ENDBRANCH  58  59
ENDBRANCH   1  58
TORSDOF 14
