REMARK SMILES COc1ccccc1[C@@H]1C[N@@H+](Cc2cc3c(cc2C)OCO3)C[C@H]1C(=O)NCCCCCCNC(=O)c1ccc(-c2c3nc(c(-c4ccccc4)c4ccc([nH]4)c(-c4ccccc4)c4nc(c(-c5ccccc5)c5ccc2[nH]5)C=C4)C=C3)cc1
REMARK SMILES IDX 30 1 29 2 28 3 27 4 25 5 26 6 24 8 9 9 10 10 11 11 23 12
REMARK SMILES IDX 8 14 3 15 4 16 5 17 7 18 6 19 2 20 1 21 12 22 13 23 14 24
REMARK SMILES IDX 18 25 15 26 17 27 19 28 16 29 22 30 20 31 21 32 31 33 32 34
REMARK SMILES IDX 33 35 34 36 35 37 36 39 37 40 38 41 84 42 39 43 83 44 40 45
REMARK SMILES IDX 41 46 42 47 77 48 43 49 82 50 76 51 78 52 44 53 81 54 75 55
REMARK SMILES IDX 74 56 45 58 67 59 52 60 66 61 53 62 56 63 65 64 79 65 54 66
REMARK SMILES IDX 55 67 64 69 80 70 57 71 46 72 47 73 51 74 48 75 50 76 49 77
REMARK SMILES IDX 68 78 69 79 73 80 70 81 72 82 71 83 58 84 59 85 63 86 60 87
REMARK SMILES IDX 62 88 61 89
REMARK H PARENT 27 7 11 13 34 38 78 57 56 68
REMARK Flexibility Score: inf
ROOT
ATOM      1  C   UNL     1       7.404   3.590   3.351  1.00  0.00     0.002 C 
ENDROOT
BRANCH   1   2
ATOM      2  C   UNL     1       6.191   2.974   2.643  1.00  0.00     0.021 C 
BRANCH   2   3
ATOM      3  C   UNL     1       5.084   2.111   3.347  1.00  0.00     0.116 C 
BRANCH   3   4
ATOM      4  N   UNL     1       3.636   2.043   2.719  1.00  0.00    -0.356 N 
ATOM      5  C   UNL     1       2.671   1.571   1.869  1.00  0.00     0.229 C 
ATOM      6  O   UNL     1       1.591   2.127   2.201  1.00  0.00    -0.275 OA
ATOM      7  H   UNL     1       3.152   2.733   3.227  1.00  0.00     0.163 HD
BRANCH   5   8
ATOM      8  C   UNL     1       2.463   0.574   0.582  1.00  0.00     0.146 C 
ATOM      9  C   UNL     1       2.423   1.126  -0.892  1.00  0.00     0.096 C 
ATOM     10  C   UNL     1       2.715  -0.079  -1.818  1.00  0.00     0.272 C 
ATOM     11  N   UNL     1       3.527  -1.019  -1.042  1.00  0.00    -0.330 N 
ATOM     12  C   UNL     1       3.050  -0.853   0.359  1.00  0.00     0.276 C 
ATOM     13  H   UNL     1       3.405  -2.009  -1.257  1.00  0.00     0.348 HD
BRANCH   9  14
ATOM     14  C   UNL     1       1.352   2.018  -1.519  1.00  0.00     0.004 A 
ATOM     15  C   UNL     1       0.040   1.681  -1.901  1.00  0.00     0.122 A 
ATOM     16  C   UNL     1      -0.732   2.586  -2.664  1.00  0.00     0.047 A 
ATOM     17  C   UNL     1      -0.213   3.798  -3.114  1.00  0.00     0.004 A 
ATOM     18  C   UNL     1       1.847   3.261  -2.006  1.00  0.00     0.008 A 
ATOM     19  C   UNL     1       1.094   4.125  -2.804  1.00  0.00     0.001 A 
BRANCH  15  20
ATOM     20  O   UNL     1      -0.545   0.444  -1.852  1.00  0.00    -0.496 OA
ATOM     21  C   UNL     1      -0.662  -0.168  -0.583  1.00  0.00     0.278 C 
ENDBRANCH  15  20
ENDBRANCH   9  14
BRANCH  11  22
ATOM     22  C   UNL     1       4.979  -0.996  -1.407  1.00  0.00     0.299 C 
BRANCH  22  23
ATOM     23  C   UNL     1       5.705   0.319  -1.173  1.00  0.00     0.013 A 
ATOM     24  C   UNL     1       6.298   1.135  -2.166  1.00  0.00     0.060 A 
ATOM     25  C   UNL     1       5.568   0.846   0.095  1.00  0.00    -0.038 A 
ATOM     26  C   UNL     1       6.437   2.491  -1.903  1.00  0.00     0.166 A 
ATOM     27  C   UNL     1       5.284   2.202   0.122  1.00  0.00     0.054 A 
ATOM     28  C   UNL     1       5.718  -0.041   1.297  1.00  0.00     0.045 C 
ATOM     29  C   UNL     1       5.802   3.018  -0.829  1.00  0.00     0.166 A 
ATOM     30  O   UNL     1       7.056   3.476  -2.607  1.00  0.00    -0.454 OA
ATOM     31  O   UNL     1       5.818   4.369  -0.756  1.00  0.00    -0.454 OA
ATOM     32  C   UNL     1       6.849   4.614  -1.720  1.00  0.00     0.468 C 
ENDBRANCH  22  23
ENDBRANCH  11  22
ENDBRANCH   5   8
ENDBRANCH   3   4
ENDBRANCH   2   3
ENDBRANCH   1   2
BRANCH   1  33
ATOM     33  C   UNL     1       8.633   2.701   3.604  1.00  0.00     0.002 C 
BRANCH  33  34
ATOM     34  C   UNL     1       9.384   2.071   2.411  1.00  0.00     0.021 C 
BRANCH  34  35
ATOM     35  C   UNL     1       9.757   2.967   1.225  1.00  0.00     0.116 C 
BRANCH  35  36
ATOM     36  N   UNL     1      10.474   4.170   1.617  1.00  0.00    -0.352 N 
ATOM     37  C   UNL     1      11.812   4.483   1.539  1.00  0.00     0.251 C 
ATOM     38  H   UNL     1       9.909   4.878   2.002  1.00  0.00     0.163 HD
ATOM     39  O   UNL     1      12.252   5.465   2.116  1.00  0.00    -0.269 OA
BRANCH  37  40
ATOM     40  C   UNL     1      12.728   3.623   0.761  1.00  0.00     0.039 A 
ATOM     41  C   UNL     1      13.890   3.143   1.371  1.00  0.00     0.014 A 
ATOM     42  C   UNL     1      12.454   3.320  -0.574  1.00  0.00     0.014 A 
ATOM     43  C   UNL     1      14.736   2.284   0.665  1.00  0.00     0.010 A 
ATOM     44  C   UNL     1      13.271   2.423  -1.260  1.00  0.00     0.010 A 
ATOM     45  C   UNL     1      14.410   1.883  -0.641  1.00  0.00    -0.014 A 
BRANCH  45  46
ATOM     46  C   UNL     1      15.221   0.860  -1.350  1.00  0.00     0.031 A 
ATOM     47  C   UNL     1      15.981   1.214  -2.599  1.00  0.00     0.074 A 
ATOM     48  C   UNL     1      15.211  -0.411  -0.900  1.00  0.00     0.049 A 
ATOM     49  N   UNL     1      16.698   0.440  -3.373  1.00  0.00    -0.248 NA
ATOM     50  C   UNL     1      15.912   2.614  -3.049  1.00  0.00     0.031 C 
ATOM     51  C   UNL     1      14.476  -0.888   0.276  1.00  0.00     0.029 A 
ATOM     52  N   UNL     1      15.828  -1.540  -1.381  1.00  0.00    -0.354 N 
ATOM     53  C   UNL     1      17.149   1.251  -4.407  1.00  0.00     0.074 A 
ATOM     54  C   UNL     1      16.598   2.569  -4.183  1.00  0.00     0.031 C 
ATOM     55  C   UNL     1      14.701  -2.201   0.435  1.00  0.00     0.029 A 
ATOM     56  C   UNL     1      15.556  -2.672  -0.649  1.00  0.00     0.049 A 
ATOM     57  H   UNL     1      16.410  -1.539  -2.174  1.00  0.00     0.167 HD
ATOM     58  C   UNL     1      17.958   0.925  -5.443  1.00  0.00     0.031 A 
ATOM     59  C   UNL     1      15.936  -3.950  -0.840  1.00  0.00     0.031 A 
ATOM     60  C   UNL     1      18.515  -0.385  -5.652  1.00  0.00     0.049 A 
ATOM     61  C   UNL     1      16.816  -4.280  -2.016  1.00  0.00     0.074 A 
ATOM     62  C   UNL     1      19.413  -0.790  -6.625  1.00  0.00     0.029 A 
ATOM     63  N   UNL     1      18.219  -1.502  -4.889  1.00  0.00    -0.354 N 
ATOM     64  N   UNL     1      17.322  -3.477  -2.920  1.00  0.00    -0.248 NA
ATOM     65  C   UNL     1      17.180  -5.693  -2.195  1.00  0.00     0.031 C 
ATOM     66  C   UNL     1      19.602  -2.168  -6.495  1.00  0.00     0.029 A 
ATOM     67  C   UNL     1      18.877  -2.607  -5.400  1.00  0.00     0.049 A 
ATOM     68  H   UNL     1      17.628  -1.508  -4.101  1.00  0.00     0.167 HD
ATOM     69  C   UNL     1      18.080  -4.283  -3.759  1.00  0.00     0.074 A 
ATOM     70  C   UNL     1      17.994  -5.631  -3.239  1.00  0.00     0.031 C 
ATOM     71  C   UNL     1      18.780  -3.941  -4.868  1.00  0.00     0.031 A 
BRANCH  58  72
ATOM     72  C   UNL     1      18.289   1.993  -6.448  1.00  0.00    -0.014 A 
ATOM     73  C   UNL     1      19.157   3.050  -6.133  1.00  0.00     0.009 A 
ATOM     74  C   UNL     1      17.800   1.884  -7.760  1.00  0.00     0.009 A 
ATOM     75  C   UNL     1      19.515   3.984  -7.107  1.00  0.00     0.001 A 
ATOM     76  C   UNL     1      18.181   2.803  -8.739  1.00  0.00     0.001 A 
ATOM     77  C   UNL     1      19.035   3.855  -8.410  1.00  0.00     0.000 A 
ENDBRANCH  58  72
BRANCH  59  78
ATOM     78  C   UNL     1      15.472  -5.027   0.077  1.00  0.00    -0.014 A 
ATOM     79  C   UNL     1      16.385  -5.732   0.878  1.00  0.00     0.009 A 
ATOM     80  C   UNL     1      14.117  -5.394   0.116  1.00  0.00     0.009 A 
ATOM     81  C   UNL     1      15.959  -6.810   1.658  1.00  0.00     0.001 A 
ATOM     82  C   UNL     1      13.688  -6.448   0.926  1.00  0.00     0.001 A 
ATOM     83  C   UNL     1      14.611  -7.166   1.684  1.00  0.00     0.000 A 
ENDBRANCH  59  78
BRANCH  71  84
ATOM     84  C   UNL     1      19.523  -5.036  -5.579  1.00  0.00    -0.014 A 
ATOM     85  C   UNL     1      18.840  -6.026  -6.302  1.00  0.00     0.009 A 
ATOM     86  C   UNL     1      20.926  -5.050  -5.563  1.00  0.00     0.009 A 
ATOM     87  C   UNL     1      19.549  -7.027  -6.970  1.00  0.00     0.001 A 
ATOM     88  C   UNL     1      21.632  -6.031  -6.260  1.00  0.00     0.001 A 
ATOM     89  C   UNL     1      20.943  -7.024  -6.954  1.00  0.00     0.000 A 
ENDBRANCH  71  84
ENDBRANCH  45  46
ENDBRANCH  37  40
ENDBRANCH  35  36
ENDBRANCH  34  35
ENDBRANCH  33  34
ENDBRANCH   1  33
TORSDOF 17
