REMARK SMILES C[C@H](Oc1ccc(/C=C2\SC(=S)N(N)C2=O)cc1)C(=O)NCCCCCCNC(=O)c1ccc(-c2c3nc(c(-c4ccccc4)c4ccc([nH]4)c(-c4ccccc4)c4nc(c(-c5ccccc5)c5ccc2[nH]5)C=C4)C=C3)cc1
REMARK SMILES IDX 23 1 22 2 21 3 19 4 20 5 2 7 1 8 3 9 4 10 5 11 18 12 6 13
REMARK SMILES IDX 17 14 7 15 8 16 9 17 10 18 15 19 11 20 13 21 16 22 12 23
REMARK SMILES IDX 14 24 24 27 25 28 26 29 27 30 28 31 29 32 30 34 31 35 32 36
REMARK SMILES IDX 78 37 33 38 77 39 34 40 35 41 36 42 71 43 37 44 76 45 70 46
REMARK SMILES IDX 72 47 38 48 75 49 69 50 68 51 39 53 61 54 46 55 60 56 47 57
REMARK SMILES IDX 50 58 59 59 73 60 48 61 49 62 58 64 74 65 51 66 40 67 41 68
REMARK SMILES IDX 45 69 42 70 44 71 43 72 62 73 63 74 67 75 64 76 66 77 65 78
REMARK SMILES IDX 52 79 53 80 57 81 54 82 56 83 55 84
REMARK H PARENT 21 6 14 25 14 26 28 33 72 52 50 63
REMARK Flexibility Score: inf
ROOT
ATOM      1  C   UNL     1      -1.724   1.552  -2.114  1.00  0.00     0.021 C 
ENDROOT
BRANCH   1   2
ATOM      2  C   UNL     1      -1.162   2.004  -0.773  1.00  0.00     0.116 C 
BRANCH   2   3
ATOM      3  N   UNL     1      -1.725   1.226   0.315  1.00  0.00    -0.353 N 
ATOM      4  C   UNL     1      -1.073   0.496   1.269  1.00  0.00     0.260 C 
ATOM      5  O   UNL     1      -1.742  -0.144   2.082  1.00  0.00    -0.271 OA
ATOM      6  H   UNL     1      -2.708   1.224   0.374  1.00  0.00     0.163 HD
BRANCH   4   7
ATOM      7  C   UNL     1       0.453   0.575   1.366  1.00  0.00     0.258 C 
ATOM      8  C   UNL     1       0.808   2.030   1.734  1.00  0.00     0.064 C 
BRANCH   7   9
ATOM      9  O   UNL     1       0.993   0.081   0.127  1.00  0.00    -0.481 OA
BRANCH   9  10
ATOM     10  C   UNL     1       2.345   0.091  -0.050  1.00  0.00     0.120 A 
ATOM     11  C   UNL     1       3.253   0.408   0.939  1.00  0.00     0.047 A 
ATOM     12  C   UNL     1       2.830  -0.199  -1.327  1.00  0.00     0.047 A 
ATOM     13  C   UNL     1       4.598   0.579   0.634  1.00  0.00     0.012 A 
ATOM     14  C   UNL     1       4.202  -0.067  -1.621  1.00  0.00     0.012 A 
ATOM     15  C   UNL     1       5.112   0.377  -0.647  1.00  0.00    -0.024 A 
BRANCH  15  16
ATOM     16  C   UNL     1       6.530   0.639  -1.006  1.00  0.00     0.029 C 
ATOM     17  C   UNL     1       7.529   1.179  -0.280  1.00  0.00     0.082 C 
ATOM     18  S   UNL     1       7.513   1.730   1.356  1.00  0.00    -0.053 SA
ATOM     19  C   UNL     1       8.862   1.506  -0.879  1.00  0.00     0.280 C 
ATOM     20  C   UNL     1       8.944   2.702   1.177  1.00  0.00     0.162 C 
ATOM     21  N   UNL     1       9.533   2.392  -0.033  1.00  0.00    -0.226 N 
ATOM     22  O   UNL     1       9.276   1.052  -1.939  1.00  0.00    -0.267 OA
ATOM     23  S   UNL     1       9.460   3.790   2.330  1.00  0.00    -0.050 S 
BRANCH  21  24
ATOM     24  N   UNL     1      10.764   2.970  -0.437  1.00  0.00    -0.239 NA
ATOM     25  H   UNL     1      11.108   3.586   0.300  1.00  0.00     0.144 HD
ATOM     26  H   UNL     1      10.624   3.507  -1.292  1.00  0.00     0.144 HD
ENDBRANCH  21  24
ENDBRANCH  15  16
ENDBRANCH   9  10
ENDBRANCH   7   9
ENDBRANCH   4   7
ENDBRANCH   2   3
ENDBRANCH   1   2
BRANCH   1  27
ATOM     27  C   UNL     1      -3.222   1.824  -2.274  1.00  0.00     0.002 C 
BRANCH  27  28
ATOM     28  C   UNL     1      -3.633   3.287  -2.082  1.00  0.00     0.002 C 
BRANCH  28  29
ATOM     29  C   UNL     1      -2.884   4.288  -2.965  1.00  0.00     0.021 C 
BRANCH  29  30
ATOM     30  C   UNL     1      -2.967   3.996  -4.458  1.00  0.00     0.116 C 
BRANCH  30  31
ATOM     31  N   UNL     1      -4.332   4.054  -4.955  1.00  0.00    -0.352 N 
ATOM     32  C   UNL     1      -4.826   4.737  -6.037  1.00  0.00     0.251 C 
ATOM     33  H   UNL     1      -4.992   3.532  -4.444  1.00  0.00     0.163 HD
ATOM     34  O   UNL     1      -6.035   4.823  -6.224  1.00  0.00    -0.269 OA
BRANCH  32  35
ATOM     35  C   UNL     1      -3.884   5.392  -6.968  1.00  0.00     0.039 A 
ATOM     36  C   UNL     1      -4.115   6.716  -7.345  1.00  0.00     0.014 A 
ATOM     37  C   UNL     1      -2.767   4.703  -7.449  1.00  0.00     0.014 A 
ATOM     38  C   UNL     1      -3.189   7.373  -8.159  1.00  0.00     0.010 A 
ATOM     39  C   UNL     1      -1.812   5.379  -8.200  1.00  0.00     0.010 A 
ATOM     40  C   UNL     1      -2.014   6.720  -8.564  1.00  0.00    -0.014 A 
BRANCH  40  41
ATOM     41  C   UNL     1      -0.981   7.411  -9.376  1.00  0.00     0.031 A 
ATOM     42  C   UNL     1      -0.665   6.917 -10.762  1.00  0.00     0.074 A 
ATOM     43  C   UNL     1      -0.272   8.424  -8.840  1.00  0.00     0.049 A 
ATOM     44  N   UNL     1       0.276   7.309 -11.583  1.00  0.00    -0.248 NA
ATOM     45  C   UNL     1      -1.499   5.822 -11.284  1.00  0.00     0.031 C 
ATOM     46  C   UNL     1      -0.460   8.979  -7.497  1.00  0.00     0.029 A 
ATOM     47  N   UNL     1       0.766   9.159  -9.358  1.00  0.00    -0.354 N 
ATOM     48  C   UNL     1       0.167   6.490 -12.700  1.00  0.00     0.074 A 
ATOM     49  C   UNL     1      -0.907   5.558 -12.441  1.00  0.00     0.031 C 
ATOM     50  C   UNL     1       0.420   9.976  -7.305  1.00  0.00     0.029 A 
ATOM     51  C   UNL     1       1.264  10.100  -8.489  1.00  0.00     0.049 A 
ATOM     52  H   UNL     1       1.120   9.025 -10.267  1.00  0.00     0.167 HD
ATOM     53  C   UNL     1       0.889   6.520 -13.844  1.00  0.00     0.031 A 
ATOM     54  C   UNL     1       2.296  10.955  -8.624  1.00  0.00     0.031 A 
ATOM     55  C   UNL     1       1.936   7.468 -14.115  1.00  0.00     0.049 A 
ATOM     56  C   UNL     1       3.088  10.954  -9.904  1.00  0.00     0.074 A 
ATOM     57  C   UNL     1       2.672   7.626 -15.277  1.00  0.00     0.029 A 
ATOM     58  N   UNL     1       2.394   8.417 -13.216  1.00  0.00    -0.354 N 
ATOM     59  N   UNL     1       2.921  10.225 -10.979  1.00  0.00    -0.248 NA
ATOM     60  C   UNL     1       4.209  11.903  -9.989  1.00  0.00     0.031 C 
ATOM     61  C   UNL     1       3.614   8.634 -15.062  1.00  0.00     0.029 A 
ATOM     62  C   UNL     1       3.423   9.144 -13.788  1.00  0.00     0.049 A 
ATOM     63  H   UNL     1       2.041   8.553 -12.307  1.00  0.00     0.167 HD
ATOM     64  C   UNL     1       3.886  10.655 -11.882  1.00  0.00     0.074 A 
ATOM     65  C   UNL     1       4.628  11.714 -11.232  1.00  0.00     0.031 C 
ATOM     66  C   UNL     1       4.135  10.211 -13.137  1.00  0.00     0.031 A 
BRANCH  53  67
ATOM     67  C   UNL     1       0.583   5.494 -14.897  1.00  0.00    -0.014 A 
ATOM     68  C   UNL     1      -0.594   5.559 -15.659  1.00  0.00     0.009 A 
ATOM     69  C   UNL     1       1.524   4.492 -15.183  1.00  0.00     0.009 A 
ATOM     70  C   UNL     1      -0.831   4.627 -16.672  1.00  0.00     0.001 A 
ATOM     71  C   UNL     1       1.296   3.578 -16.213  1.00  0.00     0.001 A 
ATOM     72  C   UNL     1       0.117   3.643 -16.953  1.00  0.00     0.000 A 
ENDBRANCH  53  67
BRANCH  54  73
ATOM     73  C   UNL     1       2.658  11.886  -7.522  1.00  0.00    -0.014 A 
ATOM     74  C   UNL     1       2.491  13.272  -7.676  1.00  0.00     0.009 A 
ATOM     75  C   UNL     1       3.220  11.402  -6.330  1.00  0.00     0.009 A 
ATOM     76  C   UNL     1       2.919  14.153  -6.681  1.00  0.00     0.001 A 
ATOM     77  C   UNL     1       3.616  12.284  -5.322  1.00  0.00     0.001 A 
ATOM     78  C   UNL     1       3.479  13.659  -5.505  1.00  0.00     0.000 A 
ENDBRANCH  54  73
BRANCH  66  79
ATOM     79  C   UNL     1       5.213  10.909 -13.918  1.00  0.00    -0.014 A 
ATOM     80  C   UNL     1       6.571  10.727 -13.616  1.00  0.00     0.009 A 
ATOM     81  C   UNL     1       4.859  11.715 -15.012  1.00  0.00     0.009 A 
ATOM     82  C   UNL     1       7.552  11.364 -14.379  1.00  0.00     0.001 A 
ATOM     83  C   UNL     1       5.843  12.324 -15.791  1.00  0.00     0.001 A 
ATOM     84  C   UNL     1       7.188  12.155 -15.468  1.00  0.00     0.000 A 
ENDBRANCH  66  79
ENDBRANCH  40  41
ENDBRANCH  32  35
ENDBRANCH  30  31
ENDBRANCH  29  30
ENDBRANCH  28  29
ENDBRANCH  27  28
ENDBRANCH   1  27
TORSDOF 17
