REMARK SMILES C[C@@H](C(=O)NCCCCCCNC(=O)c1ccc(-c2c3nc(c(-c4ccccc4)c4ccc([nH]4)c(-c4ccccc4)c4nc(c(-c5ccccc5)c5ccc2[nH]5)C=C4)C=C3)cc1)c1ccc(C[C@@H]2CCC[C@@H]2O)cc1F
REMARK SMILES IDX 7 1 6 2 5 3 3 4 4 5 2 7 1 8 63 9 64 10 75 11 65 12 74 13
REMARK SMILES IDX 76 14 66 15 67 16 68 17 69 18 72 19 70 20 71 21 73 22 8 24
REMARK SMILES IDX 9 25 10 26 11 27 12 28 13 29 14 31 15 32 16 33 62 34 17 35
REMARK SMILES IDX 61 36 18 37 19 38 20 39 55 40 21 41 60 42 54 43 56 44 22 45
REMARK SMILES IDX 59 46 53 47 52 48 23 50 45 51 30 52 44 53 31 54 34 55 43 56
REMARK SMILES IDX 57 57 32 58 33 59 42 61 58 62 35 63 24 64 25 65 29 66 26 67
REMARK SMILES IDX 28 68 27 69 46 70 47 71 51 72 48 73 50 74 49 75 36 76 37 77
REMARK SMILES IDX 41 78 38 79 40 80 39 81
REMARK H PARENT 5 6 73 23 12 30 56 49 34 60
REMARK Flexibility Score: inf
ROOT
ATOM      1  C   UNL     1     -11.779   4.277  10.628  1.00  0.00     0.021 C 
ENDROOT
BRANCH   1   2
ATOM      2  C   UNL     1     -10.471   4.767   9.994  1.00  0.00     0.116 C 
BRANCH   2   3
ATOM      3  N   UNL     1      -9.602   3.642   9.732  1.00  0.00    -0.356 N 
ATOM      4  C   UNL     1      -9.520   2.874   8.607  1.00  0.00     0.227 C 
ATOM      5  O   UNL     1      -9.164   1.711   8.794  1.00  0.00    -0.274 OA
ATOM      6  H   UNL     1      -8.988   3.398  10.461  1.00  0.00     0.163 HD
BRANCH   4   7
ATOM      7  C   UNL     1      -9.861   3.486   7.234  1.00  0.00     0.108 C 
ATOM      8  C   UNL     1     -11.375   3.452   6.998  1.00  0.00     0.023 C 
BRANCH   7   9
ATOM      9  C   UNL     1      -9.141   2.896   6.019  1.00  0.00    -0.000 A 
ATOM     10  C   UNL     1      -8.430   1.691   6.031  1.00  0.00     0.008 A 
ATOM     11  C   UNL     1      -9.218   3.569   4.790  1.00  0.00     0.127 A 
ATOM     12  C   UNL     1      -7.820   1.192   4.878  1.00  0.00     0.004 A 
ATOM     13  C   UNL     1      -8.619   3.074   3.631  1.00  0.00     0.043 A 
ATOM     14  F   UNL     1      -9.878   4.734   4.708  1.00  0.00    -0.207 F 
ATOM     15  C   UNL     1      -7.876   1.891   3.672  1.00  0.00    -0.045 A 
BRANCH  15  16
ATOM     16  C   UNL     1      -7.134   1.387   2.461  1.00  0.00     0.041 C 
BRANCH  16  17
ATOM     17  C   UNL     1      -5.603   1.600   2.421  1.00  0.00     0.022 C 
ATOM     18  C   UNL     1      -4.804   0.900   3.529  1.00  0.00     0.007 C 
ATOM     19  C   UNL     1      -5.095   3.042   2.514  1.00  0.00     0.117 C 
ATOM     20  C   UNL     1      -4.492   1.961   4.590  1.00  0.00     0.003 C 
ATOM     21  C   UNL     1      -4.918   3.303   4.006  1.00  0.00     0.032 C 
BRANCH  19  22
ATOM     22  O   UNL     1      -5.930   3.981   1.870  1.00  0.00    -0.393 OA
ATOM     23  H   UNL     1      -6.812   3.960   2.273  1.00  0.00     0.210 HD
ENDBRANCH  19  22
ENDBRANCH  16  17
ENDBRANCH  15  16
ENDBRANCH   7   9
ENDBRANCH   4   7
ENDBRANCH   2   3
ENDBRANCH   1   2
BRANCH   1  24
ATOM     24  C   UNL     1     -11.600   3.544  11.966  1.00  0.00     0.002 C 
BRANCH  24  25
ATOM     25  C   UNL     1     -10.879   4.347  13.050  1.00  0.00     0.002 C 
BRANCH  25  26
ATOM     26  C   UNL     1     -11.498   5.713  13.346  1.00  0.00     0.021 C 
BRANCH  26  27
ATOM     27  C   UNL     1     -12.958   5.659  13.780  1.00  0.00     0.116 C 
BRANCH  27  28
ATOM     28  N   UNL     1     -13.123   4.976  15.053  1.00  0.00    -0.352 N 
ATOM     29  C   UNL     1     -13.732   5.422  16.198  1.00  0.00     0.251 C 
ATOM     30  H   UNL     1     -12.745   4.069  15.100  1.00  0.00     0.163 HD
ATOM     31  O   UNL     1     -13.604   4.803  17.252  1.00  0.00    -0.269 OA
BRANCH  29  32
ATOM     32  C   UNL     1     -14.527   6.667  16.165  1.00  0.00     0.039 A 
ATOM     33  C   UNL     1     -14.355   7.607  17.183  1.00  0.00     0.014 A 
ATOM     34  C   UNL     1     -15.435   6.907  15.129  1.00  0.00     0.014 A 
ATOM     35  C   UNL     1     -15.049   8.817  17.128  1.00  0.00     0.010 A 
ATOM     36  C   UNL     1     -16.065   8.144  15.035  1.00  0.00     0.010 A 
ATOM     37  C   UNL     1     -15.881   9.110  16.035  1.00  0.00    -0.014 A 
BRANCH  37  38
ATOM     38  C   UNL     1     -16.560  10.426  15.921  1.00  0.00     0.031 A 
ATOM     39  C   UNL     1     -18.061  10.510  15.936  1.00  0.00     0.074 A 
ATOM     40  C   UNL     1     -15.823  11.541  15.748  1.00  0.00     0.049 A 
ATOM     41  N   UNL     1     -18.829  11.563  15.811  1.00  0.00    -0.248 NA
ATOM     42  C   UNL     1     -18.798   9.245  16.089  1.00  0.00     0.031 C 
ATOM     43  C   UNL     1     -14.360  11.589  15.677  1.00  0.00     0.029 A 
ATOM     44  N   UNL     1     -16.205  12.850  15.599  1.00  0.00    -0.354 N 
ATOM     45  C   UNL     1     -20.133  11.087  15.857  1.00  0.00     0.074 A 
ATOM     46  C   UNL     1     -20.054   9.647  15.967  1.00  0.00     0.031 C 
ATOM     47  C   UNL     1     -13.969  12.864  15.531  1.00  0.00     0.029 A 
ATOM     48  C   UNL     1     -15.150  13.718  15.452  1.00  0.00     0.049 A 
ATOM     49  H   UNL     1     -17.145  13.140  15.597  1.00  0.00     0.167 HD
ATOM     50  C   UNL     1     -21.293  11.786  15.832  1.00  0.00     0.031 A 
ATOM     51  C   UNL     1     -15.133  15.052  15.268  1.00  0.00     0.031 A 
ATOM     52  C   UNL     1     -21.371  13.219  15.725  1.00  0.00     0.049 A 
ATOM     53  C   UNL     1     -16.436  15.800  15.214  1.00  0.00     0.074 A 
ATOM     54  C   UNL     1     -22.497  14.024  15.743  1.00  0.00     0.029 A 
ATOM     55  N   UNL     1     -20.280  14.060  15.572  1.00  0.00    -0.354 N 
ATOM     56  N   UNL     1     -17.659  15.343  15.333  1.00  0.00    -0.248 NA
ATOM     57  C   UNL     1     -16.354  17.254  15.011  1.00  0.00     0.031 C 
ATOM     58  C   UNL     1     -22.092  15.347  15.540  1.00  0.00     0.029 A 
ATOM     59  C   UNL     1     -20.709  15.373  15.464  1.00  0.00     0.049 A 
ATOM     60  H   UNL     1     -19.340  13.768  15.545  1.00  0.00     0.167 HD
ATOM     61  C   UNL     1     -18.489  16.453  15.250  1.00  0.00     0.074 A 
ATOM     62  C   UNL     1     -17.629  17.608  15.090  1.00  0.00     0.031 C 
ATOM     63  C   UNL     1     -19.842  16.512  15.302  1.00  0.00     0.031 A 
BRANCH  50  64
ATOM     64  C   UNL     1     -22.576  11.005  15.912  1.00  0.00    -0.014 A 
ATOM     65  C   UNL     1     -22.954  10.340  17.090  1.00  0.00     0.009 A 
ATOM     66  C   UNL     1     -23.441  10.967  14.807  1.00  0.00     0.009 A 
ATOM     67  C   UNL     1     -24.151   9.623  17.147  1.00  0.00     0.001 A 
ATOM     68  C   UNL     1     -24.653  10.277  14.877  1.00  0.00     0.001 A 
ATOM     69  C   UNL     1     -25.002   9.597  16.043  1.00  0.00     0.000 A 
ENDBRANCH  50  64
BRANCH  51  70
ATOM     70  C   UNL     1     -13.839  15.771  15.127  1.00  0.00    -0.014 A 
ATOM     71  C   UNL     1     -13.402  16.655  16.126  1.00  0.00     0.009 A 
ATOM     72  C   UNL     1     -13.041  15.590  13.987  1.00  0.00     0.009 A 
ATOM     73  C   UNL     1     -12.209  17.366  15.971  1.00  0.00     0.001 A 
ATOM     74  C   UNL     1     -11.833  16.277  13.850  1.00  0.00     0.001 A 
ATOM     75  C   UNL     1     -11.424  17.173  14.835  1.00  0.00     0.000 A 
ENDBRANCH  51  70
BRANCH  63  76
ATOM     76  C   UNL     1     -20.475  17.874  15.224  1.00  0.00    -0.014 A 
ATOM     77  C   UNL     1     -20.477  18.613  14.031  1.00  0.00     0.009 A 
ATOM     78  C   UNL     1     -21.113  18.408  16.355  1.00  0.00     0.009 A 
ATOM     79  C   UNL     1     -21.071  19.876  13.984  1.00  0.00     0.001 A 
ATOM     80  C   UNL     1     -21.735  19.655  16.296  1.00  0.00     0.001 A 
ATOM     81  C   UNL     1     -21.705  20.393  15.114  1.00  0.00     0.000 A 
ENDBRANCH  63  76
ENDBRANCH  37  38
ENDBRANCH  29  32
ENDBRANCH  27  28
ENDBRANCH  26  27
ENDBRANCH  25  26
ENDBRANCH  24  25
ENDBRANCH   1  24
TORSDOF 17
