REMARK SMILES CC[C@@H](NS(=O)(=O)c1cc(C)ccc1C)C(=O)NCCCCCCNC(=O)c1ccc(-c2c3nc(c(-c4ccccc4)c4ccc([nH]4)c(-c4ccccc4)c4nc(c(-c5ccccc5)c5ccc2[nH]5)C=C4)C=C3)cc1
REMARK SMILES IDX 21 1 20 2 19 3 18 4 16 5 17 6 3 8 2 9 1 10 4 11 5 13 6 14
REMARK SMILES IDX 7 15 8 16 9 17 14 18 10 19 13 20 15 21 11 22 12 23 22 24
REMARK SMILES IDX 23 25 24 26 25 27 26 28 27 30 28 31 29 32 75 33 30 34 74 35
REMARK SMILES IDX 31 36 32 37 33 38 68 39 34 40 73 41 67 42 69 43 35 44 72 45
REMARK SMILES IDX 66 46 65 47 36 49 58 50 43 51 57 52 44 53 47 54 56 55 70 56
REMARK SMILES IDX 45 57 46 58 55 60 71 61 48 62 37 63 38 64 42 65 39 66 41 67
REMARK SMILES IDX 40 68 59 69 60 70 64 71 61 72 63 73 62 74 49 75 50 76 54 77
REMARK SMILES IDX 51 78 53 79 52 80
REMARK H PARENT 18 7 4 12 25 29 69 48 47 59
REMARK Flexibility Score: inf
ROOT
ATOM      1  C   UNL     1      -3.708  -4.316  -0.818  1.00  0.00     0.002 C 
ENDROOT
BRANCH   1   2
ATOM      2  C   UNL     1      -3.003  -2.955  -0.757  1.00  0.00     0.021 C 
BRANCH   2   3
ATOM      3  C   UNL     1      -1.861  -2.853   0.249  1.00  0.00     0.116 C 
BRANCH   3   4
ATOM      4  N   UNL     1      -0.759  -3.750  -0.054  1.00  0.00    -0.355 N 
ATOM      5  C   UNL     1       0.586  -3.621   0.163  1.00  0.00     0.238 C 
ATOM      6  O   UNL     1       1.304  -4.584  -0.116  1.00  0.00    -0.273 OA
ATOM      7  H   UNL     1      -1.025  -4.592  -0.489  1.00  0.00     0.163 HD
BRANCH   5   8
ATOM      8  C   UNL     1       1.192  -2.325   0.718  1.00  0.00     0.158 C 
BRANCH   8   9
ATOM      9  C   UNL     1       1.061  -1.192  -0.317  1.00  0.00     0.027 C 
ATOM     10  C   UNL     1       1.512   0.180   0.158  1.00  0.00     0.006 C 
ENDBRANCH   8   9
BRANCH   8  11
ATOM     11  N   UNL     1       0.578  -2.019   2.033  1.00  0.00    -0.199 NA
ATOM     12  H   UNL     1      -0.409  -2.268   1.974  1.00  0.00     0.142 HD
BRANCH  11  13
ATOM     13  S   UNL     1       1.218  -2.796   3.403  1.00  0.00     0.241 S 
ATOM     14  O   UNL     1       2.645  -2.802   3.263  1.00  0.00    -0.207 OA
ATOM     15  O   UNL     1       0.588  -2.141   4.543  1.00  0.00    -0.207 OA
BRANCH  13  16
ATOM     16  C   UNL     1       0.601  -4.469   3.349  1.00  0.00     0.085 A 
ATOM     17  C   UNL     1       1.552  -5.507   3.349  1.00  0.00     0.025 A 
ATOM     18  C   UNL     1      -0.771  -4.771   3.347  1.00  0.00    -0.031 A 
ATOM     19  C   UNL     1       1.147  -6.847   3.301  1.00  0.00    -0.050 A 
ATOM     20  C   UNL     1      -1.157  -6.114   3.187  1.00  0.00     0.005 A 
ATOM     21  C   UNL     1      -1.847  -3.773   3.661  1.00  0.00     0.046 C 
ATOM     22  C   UNL     1       2.140  -7.966   3.419  1.00  0.00     0.044 C 
ATOM     23  C   UNL     1      -0.209  -7.138   3.149  1.00  0.00     0.004 A 
ENDBRANCH  13  16
ENDBRANCH  11  13
ENDBRANCH   8  11
ENDBRANCH   5   8
ENDBRANCH   3   4
ENDBRANCH   2   3
ENDBRANCH   1   2
BRANCH   1  24
ATOM     24  C   UNL     1      -4.348  -4.866   0.465  1.00  0.00     0.002 C 
BRANCH  24  25
ATOM     25  C   UNL     1      -5.192  -3.977   1.398  1.00  0.00     0.021 C 
BRANCH  25  26
ATOM     26  C   UNL     1      -6.586  -3.471   0.996  1.00  0.00     0.116 C 
BRANCH  26  27
ATOM     27  N   UNL     1      -7.417  -4.440   0.280  1.00  0.00    -0.352 N 
ATOM     28  C   UNL     1      -8.083  -4.415  -0.933  1.00  0.00     0.251 C 
ATOM     29  H   UNL     1      -7.525  -5.291   0.765  1.00  0.00     0.163 HD
ATOM     30  O   UNL     1      -8.943  -5.265  -1.155  1.00  0.00    -0.269 OA
BRANCH  28  31
ATOM     31  C   UNL     1      -7.777  -3.408  -1.976  1.00  0.00     0.039 A 
ATOM     32  C   UNL     1      -8.526  -3.276  -3.153  1.00  0.00     0.014 A 
ATOM     33  C   UNL     1      -6.664  -2.606  -1.818  1.00  0.00     0.014 A 
ATOM     34  C   UNL     1      -8.072  -2.401  -4.149  1.00  0.00     0.010 A 
ATOM     35  C   UNL     1      -6.389  -1.561  -2.639  1.00  0.00     0.010 A 
ATOM     36  C   UNL     1      -6.962  -1.587  -3.885  1.00  0.00    -0.014 A 
BRANCH  36  37
ATOM     37  C   UNL     1      -6.304  -0.739  -4.859  1.00  0.00     0.031 A 
ATOM     38  C   UNL     1      -7.117   0.375  -5.354  1.00  0.00     0.074 A 
ATOM     39  C   UNL     1      -4.969  -0.744  -5.073  1.00  0.00     0.049 A 
ATOM     40  N   UNL     1      -7.601   0.506  -6.539  1.00  0.00    -0.248 NA
ATOM     41  C   UNL     1      -7.517   1.417  -4.399  1.00  0.00     0.031 C 
ATOM     42  C   UNL     1      -3.928  -1.515  -4.375  1.00  0.00     0.029 A 
ATOM     43  N   UNL     1      -4.243   0.057  -5.900  1.00  0.00    -0.354 N 
ATOM     44  C   UNL     1      -8.213   1.747  -6.547  1.00  0.00     0.074 A 
ATOM     45  C   UNL     1      -8.288   2.182  -5.172  1.00  0.00     0.031 C 
ATOM     46  C   UNL     1      -2.711  -0.997  -4.657  1.00  0.00     0.029 A 
ATOM     47  C   UNL     1      -2.873   0.011  -5.688  1.00  0.00     0.049 A 
ATOM     48  H   UNL     1      -4.656   0.623  -6.592  1.00  0.00     0.167 HD
ATOM     49  C   UNL     1      -8.380   2.438  -7.703  1.00  0.00     0.031 A 
ATOM     50  C   UNL     1      -1.931   0.749  -6.319  1.00  0.00     0.031 A 
ATOM     51  C   UNL     1      -8.099   1.633  -8.865  1.00  0.00     0.049 A 
ATOM     52  C   UNL     1      -2.521   1.222  -7.590  1.00  0.00     0.074 A 
ATOM     53  C   UNL     1      -8.616   0.470  -9.398  1.00  0.00     0.029 A 
ATOM     54  N   UNL     1      -6.859   1.800  -9.437  1.00  0.00    -0.354 N 
ATOM     55  N   UNL     1      -2.844   0.429  -8.570  1.00  0.00    -0.248 NA
ATOM     56  C   UNL     1      -3.100   2.555  -7.659  1.00  0.00     0.031 C 
ATOM     57  C   UNL     1      -7.498  -0.223  -9.953  1.00  0.00     0.029 A 
ATOM     58  C   UNL     1      -6.359   0.562  -9.757  1.00  0.00     0.049 A 
ATOM     59  H   UNL     1      -6.407   2.661  -9.590  1.00  0.00     0.167 HD
ATOM     60  C   UNL     1      -3.984   0.991  -9.121  1.00  0.00     0.074 A 
ATOM     61  C   UNL     1      -3.990   2.366  -8.637  1.00  0.00     0.031 C 
ATOM     62  C   UNL     1      -4.956   0.205  -9.672  1.00  0.00     0.031 A 
BRANCH  49  63
ATOM     63  C   UNL     1      -8.407   3.935  -7.754  1.00  0.00    -0.014 A 
ATOM     64  C   UNL     1      -8.857   4.567  -8.922  1.00  0.00     0.009 A 
ATOM     65  C   UNL     1      -7.780   4.744  -6.785  1.00  0.00     0.009 A 
ATOM     66  C   UNL     1      -8.673   5.940  -9.115  1.00  0.00     0.001 A 
ATOM     67  C   UNL     1      -7.636   6.121  -6.954  1.00  0.00     0.001 A 
ATOM     68  C   UNL     1      -8.067   6.716  -8.130  1.00  0.00     0.000 A 
ENDBRANCH  49  63
BRANCH  50  69
ATOM     69  C   UNL     1      -0.608   1.189  -5.841  1.00  0.00    -0.014 A 
ATOM     70  C   UNL     1       0.400   1.561  -6.743  1.00  0.00     0.009 A 
ATOM     71  C   UNL     1      -0.420   1.494  -4.480  1.00  0.00     0.009 A 
ATOM     72  C   UNL     1       1.536   2.252  -6.304  1.00  0.00     0.001 A 
ATOM     73  C   UNL     1       0.715   2.184  -4.042  1.00  0.00     0.001 A 
ATOM     74  C   UNL     1       1.686   2.577  -4.957  1.00  0.00     0.000 A 
ENDBRANCH  50  69
BRANCH  62  75
ATOM     75  C   UNL     1      -4.596  -1.237  -9.954  1.00  0.00    -0.014 A 
ATOM     76  C   UNL     1      -4.238  -2.146  -8.942  1.00  0.00     0.009 A 
ATOM     77  C   UNL     1      -4.724  -1.723 -11.263  1.00  0.00     0.009 A 
ATOM     78  C   UNL     1      -3.974  -3.487  -9.236  1.00  0.00     0.001 A 
ATOM     79  C   UNL     1      -4.482  -3.069 -11.555  1.00  0.00     0.001 A 
ATOM     80  C   UNL     1      -4.099  -3.948 -10.544  1.00  0.00     0.000 A 
ENDBRANCH  62  75
ENDBRANCH  36  37
ENDBRANCH  28  31
ENDBRANCH  26  27
ENDBRANCH  25  26
ENDBRANCH  24  25
ENDBRANCH   1  24
TORSDOF 17
