REMARK SMILES O=C(NCCCCCCNC(=O)c1ccc(C(F)(F)F)cc1NC(=O)c1ccon1)c1ccc(-c2c3nc(c(-c4ccccc4)c4ccc([nH]4)c(-c4ccccc4)c4nc(c(-c5ccccc5)c5ccc2[nH]5)C=C4)C=C3)cc1
REMARK SMILES IDX 6 1 5 2 4 3 3 4 1 5 2 6 31 8 32 9 78 10 33 11 77 12 34 13
REMARK SMILES IDX 35 14 36 15 71 16 37 17 76 18 70 19 72 20 38 21 75 22 69 23
REMARK SMILES IDX 68 24 39 26 61 27 46 28 60 29 47 30 50 31 59 32 73 33 48 34
REMARK SMILES IDX 49 35 58 37 74 38 51 39 40 40 41 41 45 42 42 43 44 44 43 45
REMARK SMILES IDX 62 46 63 47 67 48 64 49 66 50 65 51 52 52 53 53 57 54 54 55
REMARK SMILES IDX 56 56 55 57 7 58 8 59 9 60 10 61 11 62 12 64 13 65 14 66
REMARK SMILES IDX 22 67 15 68 21 69 16 70 23 71 24 72 25 74 26 75 27 76 30 77
REMARK SMILES IDX 28 78 29 79 17 80 18 81 19 82 20 83
REMARK H PARENT 3 7 72 25 50 36 10 63 23 73
REMARK Flexibility Score: inf
ROOT
ATOM      1  C   UNL     1       4.272  -2.902   2.624  1.00  0.00     0.002 C 
ENDROOT
BRANCH   1   2
ATOM      2  C   UNL     1       4.741  -1.507   2.211  1.00  0.00     0.021 C 
BRANCH   2   3
ATOM      3  C   UNL     1       4.457  -1.135   0.762  1.00  0.00     0.116 C 
BRANCH   3   4
ATOM      4  N   UNL     1       3.036  -1.104   0.460  1.00  0.00    -0.352 N 
ATOM      5  O   UNL     1       1.058  -0.179  -0.112  1.00  0.00    -0.269 OA
ATOM      6  C   UNL     1       2.282  -0.086  -0.066  1.00  0.00     0.251 C 
ATOM      7  H   UNL     1       2.544  -1.933   0.661  1.00  0.00     0.163 HD
BRANCH   6   8
ATOM      8  C   UNL     1       2.945   1.140  -0.558  1.00  0.00     0.039 A 
ATOM      9  C   UNL     1       4.077   1.064  -1.375  1.00  0.00     0.014 A 
ATOM     10  C   UNL     1       2.417   2.383  -0.201  1.00  0.00     0.014 A 
ATOM     11  C   UNL     1       4.756   2.226  -1.724  1.00  0.00     0.010 A 
ATOM     12  C   UNL     1       3.055   3.552  -0.620  1.00  0.00     0.010 A 
ATOM     13  C   UNL     1       4.246   3.482  -1.361  1.00  0.00    -0.014 A 
BRANCH  13  14
ATOM     14  C   UNL     1       4.935   4.720  -1.802  1.00  0.00     0.031 A 
ATOM     15  C   UNL     1       5.541   5.665  -0.803  1.00  0.00     0.074 A 
ATOM     16  C   UNL     1       4.999   4.996  -3.118  1.00  0.00     0.049 A 
ATOM     17  N   UNL     1       6.133   6.814  -1.011  1.00  0.00    -0.248 NA
ATOM     18  C   UNL     1       5.466   5.274   0.613  1.00  0.00     0.031 C 
ATOM     19  C   UNL     1       4.453   4.154  -4.185  1.00  0.00     0.029 A 
ATOM     20  N   UNL     1       5.548   6.062  -3.783  1.00  0.00    -0.354 N 
ATOM     21  C   UNL     1       6.479   7.295   0.246  1.00  0.00     0.074 A 
ATOM     22  C   UNL     1       6.009   6.324   1.211  1.00  0.00     0.031 C 
ATOM     23  C   UNL     1       4.716   4.723  -5.370  1.00  0.00     0.029 A 
ATOM     24  C   UNL     1       5.387   5.998  -5.145  1.00  0.00     0.049 A 
ATOM     25  H   UNL     1       6.012   6.802  -3.328  1.00  0.00     0.167 HD
ATOM     26  C   UNL     1       7.129   8.441   0.564  1.00  0.00     0.031 A 
ATOM     27  C   UNL     1       5.713   6.878  -6.108  1.00  0.00     0.031 A 
ATOM     28  C   UNL     1       7.583   9.409  -0.401  1.00  0.00     0.049 A 
ATOM     29  C   UNL     1       6.383   8.165  -5.726  1.00  0.00     0.074 A 
ATOM     30  C   UNL     1       8.277  10.587  -0.180  1.00  0.00     0.029 A 
ATOM     31  N   UNL     1       7.377   9.319  -1.769  1.00  0.00    -0.354 N 
ATOM     32  N   UNL     1       6.734   8.590  -4.536  1.00  0.00    -0.248 NA
ATOM     33  C   UNL     1       6.706   9.091  -6.819  1.00  0.00     0.031 C 
ATOM     34  C   UNL     1       8.436  11.238  -1.408  1.00  0.00     0.029 A 
ATOM     35  C   UNL     1       7.904  10.432  -2.402  1.00  0.00     0.049 A 
ATOM     36  H   UNL     1       6.922   8.573  -2.224  1.00  0.00     0.167 HD
ATOM     37  C   UNL     1       7.344   9.820  -4.740  1.00  0.00     0.074 A 
ATOM     38  C   UNL     1       7.325  10.066  -6.168  1.00  0.00     0.031 C 
ATOM     39  C   UNL     1       7.878  10.666  -3.824  1.00  0.00     0.031 A 
BRANCH  26  40
ATOM     40  C   UNL     1       7.350   8.728   2.025  1.00  0.00    -0.014 A 
ATOM     41  C   UNL     1       8.246   7.971   2.797  1.00  0.00     0.009 A 
ATOM     42  C   UNL     1       6.667   9.793   2.635  1.00  0.00     0.009 A 
ATOM     43  C   UNL     1       8.419   8.245   4.156  1.00  0.00     0.001 A 
ATOM     44  C   UNL     1       6.865  10.085   3.986  1.00  0.00     0.001 A 
ATOM     45  C   UNL     1       7.731   9.303   4.748  1.00  0.00     0.000 A 
ENDBRANCH  26  40
BRANCH  27  46
ATOM     46  C   UNL     1       5.392   6.567  -7.524  1.00  0.00    -0.014 A 
ATOM     47  C   UNL     1       6.412   6.266  -8.438  1.00  0.00     0.009 A 
ATOM     48  C   UNL     1       4.058   6.538  -7.960  1.00  0.00     0.009 A 
ATOM     49  C   UNL     1       6.102   5.958  -9.765  1.00  0.00     0.001 A 
ATOM     50  C   UNL     1       3.749   6.199  -9.279  1.00  0.00     0.001 A 
ATOM     51  C   UNL     1       4.772   5.918 -10.182  1.00  0.00     0.000 A 
ENDBRANCH  27  46
BRANCH  39  52
ATOM     52  C   UNL     1       8.530  11.918  -4.342  1.00  0.00    -0.014 A 
ATOM     53  C   UNL     1       7.773  12.980  -4.859  1.00  0.00     0.009 A 
ATOM     54  C   UNL     1       9.925  12.049  -4.267  1.00  0.00     0.009 A 
ATOM     55  C   UNL     1       8.405  14.138  -5.319  1.00  0.00     0.001 A 
ATOM     56  C   UNL     1      10.552  13.219  -4.698  1.00  0.00     0.001 A 
ATOM     57  C   UNL     1       9.792  14.259  -5.232  1.00  0.00     0.000 A 
ENDBRANCH  39  52
ENDBRANCH  13  14
ENDBRANCH   6   8
ENDBRANCH   3   4
ENDBRANCH   2   3
ENDBRANCH   1   2
BRANCH   1  58
ATOM     58  C   UNL     1       4.774  -4.052   1.746  1.00  0.00     0.002 C 
BRANCH  58  59
ATOM     59  C   UNL     1       6.293  -4.138   1.560  1.00  0.00     0.021 C 
BRANCH  59  60
ATOM     60  C   UNL     1       7.106  -4.169   2.852  1.00  0.00     0.116 C 
BRANCH  60  61
ATOM     61  N   UNL     1       6.758  -5.302   3.691  1.00  0.00    -0.352 N 
ATOM     62  C   UNL     1       7.567  -6.246   4.264  1.00  0.00     0.253 C 
ATOM     63  H   UNL     1       5.796  -5.407   3.875  1.00  0.00     0.163 HD
ATOM     64  O   UNL     1       7.076  -7.234   4.800  1.00  0.00    -0.269 OA
BRANCH  62  65
ATOM     65  C   UNL     1       9.038  -6.090   4.247  1.00  0.00     0.063 A 
ATOM     66  C   UNL     1       9.758  -7.145   3.667  1.00  0.00     0.016 A 
ATOM     67  C   UNL     1       9.704  -4.984   4.816  1.00  0.00     0.054 A 
ATOM     68  C   UNL     1      11.149  -7.096   3.611  1.00  0.00     0.014 A 
ATOM     69  C   UNL     1      11.101  -5.013   4.840  1.00  0.00     0.040 A 
ATOM     70  C   UNL     1      11.835  -6.025   4.193  1.00  0.00     0.058 A 
BRANCH  67  71
ATOM     71  N   UNL     1       8.950  -3.906   5.333  1.00  0.00    -0.320 N 
ATOM     72  C   UNL     1       9.251  -2.591   5.634  1.00  0.00     0.277 C 
ATOM     73  H   UNL     1       8.012  -4.142   5.517  1.00  0.00     0.170 HD
ATOM     74  O   UNL     1       8.334  -1.881   6.054  1.00  0.00    -0.267 OA
BRANCH  72  75
ATOM     75  C   UNL     1      10.578  -2.047   5.375  1.00  0.00     0.171 A 
ATOM     76  C   UNL     1      11.274  -1.930   4.140  1.00  0.00     0.079 A 
ATOM     77  N   UNL     1      11.333  -1.585   6.386  1.00  0.00    -0.075 NA
ATOM     78  C   UNL     1      12.506  -1.442   4.489  1.00  0.00     0.232 A 
ATOM     79  O   UNL     1      12.543  -1.224   5.825  1.00  0.00    -0.364 OA
ENDBRANCH  72  75
ENDBRANCH  67  71
BRANCH  70  80
ATOM     80  C   UNL     1      13.343  -5.951   4.121  1.00  0.00     0.416 C 
ATOM     81  F   UNL     1      13.956  -6.881   4.899  1.00  0.00    -0.166 F 
ATOM     82  F   UNL     1      13.805  -6.147   2.855  1.00  0.00    -0.166 F 
ATOM     83  F   UNL     1      13.840  -4.742   4.507  1.00  0.00    -0.166 F 
ENDBRANCH  70  80
ENDBRANCH  62  65
ENDBRANCH  60  61
ENDBRANCH  59  60
ENDBRANCH  58  59
ENDBRANCH   1  58
TORSDOF 16
