REMARK SMILES O=C(CCN1C(=O)[C@@H]2[C@@H](C1=O)[C@H]1c3ccccc3[C@]2(Br)c2ccccc21)NCCCCCCNC(=O)c1ccc(-c2c3nc(c(-c4ccccc4)c4ccc([nH]4)c(-c4ccccc4)c4nc(c(-c5ccccc5)c5ccc2[nH]5)C=C4)C=C3)cc1
REMARK SMILES IDX 30 1 29 2 28 3 27 4 1 5 2 6 3 8 4 9 5 10 6 11 10 12 7 13
REMARK SMILES IDX 8 14 9 15 11 16 19 17 12 18 21 19 20 20 18 21 26 22 13 23
REMARK SMILES IDX 22 24 17 25 25 26 14 27 23 28 16 29 24 30 15 31 31 32 32 33
REMARK SMILES IDX 33 34 34 35 35 36 36 38 37 39 38 40 84 41 39 42 83 43 40 44
REMARK SMILES IDX 41 45 42 46 77 47 43 48 82 49 76 50 78 51 44 52 81 53 75 54
REMARK SMILES IDX 74 55 45 57 67 58 52 59 66 60 53 61 56 62 65 63 79 64 54 65
REMARK SMILES IDX 55 66 64 68 80 69 57 70 46 71 47 72 51 73 48 74 50 75 49 76
REMARK SMILES IDX 68 77 69 78 73 79 70 80 72 81 71 82 58 83 59 84 63 85 60 86
REMARK SMILES IDX 62 87 61 88
REMARK H PARENT 27 7 34 37 78 56 56 67
REMARK Flexibility Score: inf
ROOT
ATOM      1  C   UNL     1       3.439  -3.553   1.667  1.00  0.00     0.002 C 
ENDROOT
BRANCH   1   2
ATOM      2  C   UNL     1       1.956  -3.208   1.486  1.00  0.00     0.021 C 
BRANCH   2   3
ATOM      3  C   UNL     1       1.631  -1.716   1.416  1.00  0.00     0.116 C 
BRANCH   3   4
ATOM      4  N   UNL     1       2.417  -1.025   0.415  1.00  0.00    -0.356 N 
ATOM      5  O   UNL     1       0.809   0.522  -0.150  1.00  0.00    -0.275 OA
ATOM      6  C   UNL     1       1.957   0.099  -0.228  1.00  0.00     0.221 C 
ATOM      7  H   UNL     1       3.310  -1.372   0.188  1.00  0.00     0.163 HD
BRANCH   6   8
ATOM      8  C   UNL     1       3.023   0.816  -1.022  1.00  0.00     0.122 C 
BRANCH   8   9
ATOM      9  C   UNL     1       3.716   1.860  -0.151  1.00  0.00     0.138 C 
BRANCH   9  10
ATOM     10  N   UNL     1       4.735   1.301   0.732  1.00  0.00    -0.281 N 
ATOM     11  C   UNL     1       4.528   0.981   2.074  1.00  0.00     0.235 C 
ATOM     12  C   UNL     1       6.052   1.083   0.344  1.00  0.00     0.234 C 
ATOM     13  O   UNL     1       3.471   0.926   2.675  1.00  0.00    -0.274 OA
ATOM     14  C   UNL     1       5.910   0.897   2.649  1.00  0.00     0.118 C 
ATOM     15  C   UNL     1       6.618   0.260   1.451  1.00  0.00     0.105 C 
ATOM     16  O   UNL     1       6.586   1.347  -0.718  1.00  0.00    -0.274 OA
ATOM     17  C   UNL     1       6.509   0.303   3.945  1.00  0.00     0.088 C 
ATOM     18  C   UNL     1       8.084   0.025   1.806  1.00  0.00     0.063 C 
ATOM     19  C   UNL     1       7.804   1.164   4.030  1.00  0.00    -0.022 A 
ATOM     20  Br  UNL     1       5.303   0.528   5.425  1.00  0.00    -0.074 Br
ATOM     21  C   UNL     1       7.085  -1.128   3.784  1.00  0.00    -0.022 A 
ATOM     22  C   UNL     1       8.604   1.051   2.834  1.00  0.00    -0.035 A 
ATOM     23  C   UNL     1       7.945  -1.271   2.638  1.00  0.00    -0.035 A 
ATOM     24  C   UNL     1       8.248   1.933   5.099  1.00  0.00     0.006 A 
ATOM     25  C   UNL     1       7.056  -2.162   4.714  1.00  0.00     0.006 A 
ATOM     26  C   UNL     1       9.821   1.710   2.739  1.00  0.00     0.005 A 
ATOM     27  C   UNL     1       8.645  -2.444   2.382  1.00  0.00     0.005 A 
ATOM     28  C   UNL     1       9.473   2.590   4.986  1.00  0.00     0.000 A 
ATOM     29  C   UNL     1       7.797  -3.325   4.473  1.00  0.00     0.000 A 
ATOM     30  C   UNL     1      10.247   2.482   3.821  1.00  0.00     0.000 A 
ATOM     31  C   UNL     1       8.557  -3.479   3.307  1.00  0.00     0.000 A 
ENDBRANCH   9  10
ENDBRANCH   8   9
ENDBRANCH   6   8
ENDBRANCH   3   4
ENDBRANCH   2   3
ENDBRANCH   1   2
BRANCH   1  32
ATOM     32  C   UNL     1       4.130  -2.902   2.863  1.00  0.00     0.002 C 
BRANCH  32  33
ATOM     33  C   UNL     1       3.578  -3.278   4.236  1.00  0.00     0.021 C 
BRANCH  33  34
ATOM     34  C   UNL     1       3.668  -4.759   4.580  1.00  0.00     0.116 C 
BRANCH  34  35
ATOM     35  N   UNL     1       5.034  -5.265   4.649  1.00  0.00    -0.352 N 
ATOM     36  C   UNL     1       5.575  -6.167   5.538  1.00  0.00     0.251 C 
ATOM     37  H   UNL     1       5.653  -4.914   3.969  1.00  0.00     0.163 HD
ATOM     38  O   UNL     1       6.774  -6.423   5.531  1.00  0.00    -0.269 OA
BRANCH  36  39
ATOM     39  C   UNL     1       4.695  -6.803   6.538  1.00  0.00     0.039 A 
ATOM     40  C   UNL     1       3.468  -7.332   6.141  1.00  0.00     0.014 A 
ATOM     41  C   UNL     1       5.078  -6.830   7.883  1.00  0.00     0.014 A 
ATOM     42  C   UNL     1       2.552  -7.724   7.104  1.00  0.00     0.010 A 
ATOM     43  C   UNL     1       4.188  -7.314   8.845  1.00  0.00     0.010 A 
ATOM     44  C   UNL     1       2.900  -7.720   8.466  1.00  0.00    -0.014 A 
BRANCH  44  45
ATOM     45  C   UNL     1       1.885  -8.170   9.448  1.00  0.00     0.031 A 
ATOM     46  C   UNL     1       1.268  -7.208  10.424  1.00  0.00     0.074 A 
ATOM     47  C   UNL     1       1.436  -9.438   9.364  1.00  0.00     0.049 A 
ATOM     48  N   UNL     1       0.263  -7.404  11.239  1.00  0.00    -0.248 NA
ATOM     49  C   UNL     1       1.846  -5.857  10.499  1.00  0.00     0.031 C 
ATOM     50  C   UNL     1       1.959 -10.450   8.442  1.00  0.00     0.029 A 
ATOM     51  N   UNL     1       0.406 -10.073  10.008  1.00  0.00    -0.354 N 
ATOM     52  C   UNL     1       0.095  -6.209  11.929  1.00  0.00     0.074 A 
ATOM     53  C   UNL     1       1.118  -5.302  11.459  1.00  0.00     0.031 C 
ATOM     54  C   UNL     1       1.187 -11.543   8.509  1.00  0.00     0.029 A 
ATOM     55  C   UNL     1       0.159 -11.335   9.524  1.00  0.00     0.049 A 
ATOM     56  H   UNL     1      -0.105  -9.666  10.743  1.00  0.00     0.167 HD
ATOM     57  C   UNL     1      -0.835  -5.899  12.863  1.00  0.00     0.031 A 
ATOM     58  C   UNL     1      -0.795 -12.227   9.848  1.00  0.00     0.031 A 
ATOM     59  C   UNL     1      -1.853  -6.807  13.322  1.00  0.00     0.049 A 
ATOM     60  C   UNL     1      -1.801 -11.864  10.898  1.00  0.00     0.074 A 
ATOM     61  C   UNL     1      -2.838  -6.586  14.268  1.00  0.00     0.029 A 
ATOM     62  N   UNL     1      -2.019  -8.105  12.865  1.00  0.00    -0.354 N 
ATOM     63  N   UNL     1      -1.944 -10.730  11.540  1.00  0.00    -0.248 NA
ATOM     64  C   UNL     1      -2.772 -12.899  11.275  1.00  0.00     0.031 C 
ATOM     65  C   UNL     1      -3.571  -7.766  14.419  1.00  0.00     0.029 A 
ATOM     66  C   UNL     1      -3.078  -8.704  13.525  1.00  0.00     0.049 A 
ATOM     67  H   UNL     1      -1.465  -8.537  12.175  1.00  0.00     0.167 HD
ATOM     68  C   UNL     1      -3.019 -10.914  12.397  1.00  0.00     0.074 A 
ATOM     69  C   UNL     1      -3.510 -12.258  12.172  1.00  0.00     0.031 C 
ATOM     70  C   UNL     1      -3.545 -10.047  13.296  1.00  0.00     0.031 A 
BRANCH  57  71
ATOM     71  C   UNL     1      -0.793  -4.524  13.470  1.00  0.00    -0.014 A 
ATOM     72  C   UNL     1      -0.407  -4.366  14.811  1.00  0.00     0.009 A 
ATOM     73  C   UNL     1      -1.213  -3.397  12.747  1.00  0.00     0.009 A 
ATOM     74  C   UNL     1      -0.451  -3.110  15.419  1.00  0.00     0.001 A 
ATOM     75  C   UNL     1      -1.232  -2.137  13.351  1.00  0.00     0.001 A 
ATOM     76  C   UNL     1      -0.859  -1.996  14.687  1.00  0.00     0.000 A 
ENDBRANCH  57  71
BRANCH  58  77
ATOM     77  C   UNL     1      -0.837 -13.535   9.144  1.00  0.00    -0.014 A 
ATOM     78  C   UNL     1       0.187 -14.478   9.333  1.00  0.00     0.009 A 
ATOM     79  C   UNL     1      -1.860 -13.820   8.227  1.00  0.00     0.009 A 
ATOM     80  C   UNL     1       0.206 -15.663   8.596  1.00  0.00     0.001 A 
ATOM     81  C   UNL     1      -1.854 -15.021   7.513  1.00  0.00     0.001 A 
ATOM     82  C   UNL     1      -0.816 -15.935   7.689  1.00  0.00     0.000 A 
ENDBRANCH  58  77
BRANCH  70  83
ATOM     83  C   UNL     1      -4.712 -10.520  14.114  1.00  0.00    -0.014 A 
ATOM     84  C   UNL     1      -5.989  -9.986  13.883  1.00  0.00     0.009 A 
ATOM     85  C   UNL     1      -4.528 -11.420  15.174  1.00  0.00     0.009 A 
ATOM     86  C   UNL     1      -7.060 -10.338  14.705  1.00  0.00     0.001 A 
ATOM     87  C   UNL     1      -5.607 -11.789  15.979  1.00  0.00     0.001 A 
ATOM     88  C   UNL     1      -6.869 -11.241  15.749  1.00  0.00     0.000 A 
ENDBRANCH  70  83
ENDBRANCH  44  45
ENDBRANCH  36  39
ENDBRANCH  34  35
ENDBRANCH  33  34
ENDBRANCH  32  33
ENDBRANCH   1  32
TORSDOF 15
