REMARK SMILES NC(=O)N[C@@H]1CCCCC[C@H]1C(=O)NCCCCCCNC(=O)c1ccc(-c2c3nc(c(-c4ccccc4)c4ccc([nH]4)c(-c4ccccc4)c4nc(c(-c5ccccc5)c5ccc2[nH]5)C=C4)C=C3)cc1
REMARK SMILES IDX 17 1 16 2 15 3 14 4 12 5 13 6 11 8 5 9 4 10 1 11 2 12 3 15
REMARK SMILES IDX 6 17 7 18 10 20 9 21 8 22 18 24 19 25 20 26 21 27 22 28
REMARK SMILES IDX 23 30 24 31 25 32 71 33 26 34 70 35 27 36 28 37 29 38 64 39
REMARK SMILES IDX 30 40 69 41 63 42 65 43 31 44 68 45 62 46 61 47 32 49 54 50
REMARK SMILES IDX 39 51 53 52 40 53 43 54 52 55 66 56 41 57 42 58 51 60 67 61
REMARK SMILES IDX 44 62 33 63 34 64 38 65 35 66 37 67 36 68 55 69 56 70 60 71
REMARK SMILES IDX 57 72 59 73 58 74 45 75 46 76 50 77 47 78 49 79 48 80
REMARK H PARENT 14 7 1 13 1 14 4 16 21 29 65 48 43 59
REMARK Flexibility Score: 90.00
ROOT
ATOM      1  C   UNL     1       7.928   2.033  -3.505  1.00  0.00     0.002 C 
ENDROOT
BRANCH   1   2
ATOM      2  C   UNL     1       6.412   2.024  -3.293  1.00  0.00     0.021 C 
BRANCH   2   3
ATOM      3  C   UNL     1       5.983   1.331  -2.007  1.00  0.00     0.116 C 
BRANCH   3   4
ATOM      4  N   UNL     1       5.355   2.186  -1.040  1.00  0.00    -0.356 N 
ATOM      5  C   UNL     1       4.269   1.968  -0.258  1.00  0.00     0.225 C 
ATOM      6  O   UNL     1       4.158   2.721   0.718  1.00  0.00    -0.275 OA
ATOM      7  H   UNL     1       5.779   3.067  -0.927  1.00  0.00     0.163 HD
BRANCH   5   8
ATOM      8  C   UNL     1       3.183   0.899  -0.517  1.00  0.00     0.101 C 
BRANCH   8   9
ATOM      9  C   UNL     1       2.353   1.123  -1.800  1.00  0.00     0.096 C 
BRANCH   9  10
ATOM     10  N   UNL     1       1.001   1.678  -1.527  1.00  0.00    -0.335 N 
ATOM     11  N   UNL     1       0.103   0.116  -0.068  1.00  0.00    -0.352 N 
ATOM     12  C   UNL     1      -0.080   1.133  -0.923  1.00  0.00     0.312 C 
ATOM     13  H   UNL     1      -0.670  -0.294   0.382  1.00  0.00     0.161 HD
ATOM     14  H   UNL     1       1.011  -0.221   0.110  1.00  0.00     0.161 HD
ATOM     15  O   UNL     1      -1.210   1.543  -1.167  1.00  0.00    -0.249 OA
ATOM     16  H   UNL     1       0.870   2.602  -1.841  1.00  0.00     0.165 HD
ENDBRANCH   9  10
BRANCH   9  17
ATOM     17  C   UNL     1       2.147  -0.069  -2.752  1.00  0.00     0.026 C 
BRANCH  17  18
ATOM     18  C   UNL     1       3.390  -0.729  -3.315  1.00  0.00     0.002 CG0
ATOM     19  G   UNL     1       4.032  -1.769  -2.401  1.00  0.00     0.000 G0
ENDBRANCH  17  18
ENDBRANCH   9  17
ENDBRANCH   8   9
BRANCH   8  20
ATOM     20  C   UNL     1       3.513  -0.553  -0.139  1.00  0.00     0.015 C 
BRANCH  20  21
ATOM     21  C   UNL     1       4.460  -1.393  -0.981  1.00  0.00     0.001 C 
BRANCH  21  22
ATOM     22  C   UNL     1       4.032  -1.769  -2.401  1.00  0.00     0.000 CG0
ATOM     23  G   UNL     1       3.390  -0.729  -3.315  1.00  0.00     0.000 G0
ENDBRANCH  21  22
ENDBRANCH  20  21
ENDBRANCH   8  20
ENDBRANCH   5   8
ENDBRANCH   3   4
ENDBRANCH   2   3
ENDBRANCH   1   2
BRANCH   1  24
ATOM     24  C   UNL     1       8.621   0.663  -3.465  1.00  0.00     0.002 C 
BRANCH  24  25
ATOM     25  C   UNL     1       8.088  -0.385  -4.443  1.00  0.00     0.021 C 
BRANCH  25  26
ATOM     26  C   UNL     1       8.103   0.043  -5.907  1.00  0.00     0.116 C 
BRANCH  26  27
ATOM     27  N   UNL     1       9.426   0.472  -6.341  1.00  0.00    -0.352 N 
ATOM     28  C   UNL     1      10.221  -0.024  -7.340  1.00  0.00     0.251 C 
ATOM     29  H   UNL     1       9.804   1.232  -5.843  1.00  0.00     0.163 HD
ATOM     30  O   UNL     1      11.397   0.327  -7.434  1.00  0.00    -0.269 OA
BRANCH  28  31
ATOM     31  C   UNL     1       9.662  -0.990  -8.302  1.00  0.00     0.039 A 
ATOM     32  C   UNL     1      10.387  -2.141  -8.621  1.00  0.00     0.014 A 
ATOM     33  C   UNL     1       8.417  -0.751  -8.887  1.00  0.00     0.014 A 
ATOM     34  C   UNL     1       9.831  -3.089  -9.483  1.00  0.00     0.010 A 
ATOM     35  C   UNL     1       7.834  -1.727  -9.683  1.00  0.00     0.010 A 
ATOM     36  C   UNL     1       8.537  -2.902  -9.994  1.00  0.00    -0.014 A 
BRANCH  36  37
ATOM     37  C   UNL     1       7.888  -3.896 -10.882  1.00  0.00     0.031 A 
ATOM     38  C   UNL     1       7.523  -3.500 -12.286  1.00  0.00     0.074 A 
ATOM     39  C   UNL     1       7.530  -5.101 -10.400  1.00  0.00     0.049 A 
ATOM     40  N   UNL     1       6.796  -4.142 -13.164  1.00  0.00    -0.248 NA
ATOM     41  C   UNL     1       8.013  -2.191 -12.750  1.00  0.00     0.031 C 
ATOM     42  C   UNL     1       7.815  -5.597  -9.052  1.00  0.00     0.029 A 
ATOM     43  N   UNL     1       6.825  -6.121 -10.988  1.00  0.00    -0.354 N 
ATOM     44  C   UNL     1       6.713  -3.301 -14.267  1.00  0.00     0.074 A 
ATOM     45  C   UNL     1       7.426  -2.089 -13.933  1.00  0.00     0.031 C 
ATOM     46  C   UNL     1       7.301  -6.832  -8.921  1.00  0.00     0.029 A 
ATOM     47  C   UNL     1       6.605  -7.191 -10.153  1.00  0.00     0.049 A 
ATOM     48  H   UNL     1       6.507  -6.090 -11.919  1.00  0.00     0.167 HD
ATOM     49  C   UNL     1       6.105  -3.525 -15.455  1.00  0.00     0.031 A 
ATOM     50  C   UNL     1       5.902  -8.322 -10.352  1.00  0.00     0.031 A 
ATOM     51  C   UNL     1       5.413  -4.740 -15.788  1.00  0.00     0.049 A 
ATOM     52  C   UNL     1       5.212  -8.534 -11.672  1.00  0.00     0.074 A 
ATOM     53  C   UNL     1       4.814  -5.089 -16.985  1.00  0.00     0.029 A 
ATOM     54  N   UNL     1       5.231  -5.805 -14.920  1.00  0.00    -0.354 N 
ATOM     55  N   UNL     1       5.183  -7.753 -12.724  1.00  0.00    -0.248 NA
ATOM     56  C   UNL     1       4.461  -9.788 -11.833  1.00  0.00     0.031 C 
ATOM     57  C   UNL     1       4.218  -6.343 -16.823  1.00  0.00     0.029 A 
ATOM     58  C   UNL     1       4.506  -6.803 -15.547  1.00  0.00     0.049 A 
ATOM     59  H   UNL     1       5.566  -5.846 -13.995  1.00  0.00     0.167 HD
ATOM     60  C   UNL     1       4.450  -8.438 -13.685  1.00  0.00     0.074 A 
ATOM     61  C   UNL     1       4.054  -9.698 -13.092  1.00  0.00     0.031 C 
ATOM     62  C   UNL     1       4.140  -8.060 -14.949  1.00  0.00     0.031 A 
BRANCH  49  63
ATOM     63  C   UNL     1       6.146  -2.422 -16.477  1.00  0.00    -0.014 A 
ATOM     64  C   UNL     1       7.343  -2.060 -17.115  1.00  0.00     0.009 A 
ATOM     65  C   UNL     1       4.961  -1.760 -16.833  1.00  0.00     0.009 A 
ATOM     66  C   UNL     1       7.358  -1.031 -18.059  1.00  0.00     0.001 A 
ATOM     67  C   UNL     1       4.973  -0.755 -17.801  1.00  0.00     0.001 A 
ATOM     68  C   UNL     1       6.173  -0.384 -18.406  1.00  0.00     0.000 A 
ENDBRANCH  49  63
BRANCH  50  69
ATOM     69  C   UNL     1       5.817  -9.349  -9.279  1.00  0.00    -0.014 A 
ATOM     70  C   UNL     1       6.458 -10.588  -9.433  1.00  0.00     0.009 A 
ATOM     71  C   UNL     1       5.087  -9.106  -8.106  1.00  0.00     0.009 A 
ATOM     72  C   UNL     1       6.343 -11.573  -8.449  1.00  0.00     0.001 A 
ATOM     73  C   UNL     1       4.999 -10.081  -7.109  1.00  0.00     0.001 A 
ATOM     74  C   UNL     1       5.618 -11.317  -7.286  1.00  0.00     0.000 A 
ENDBRANCH  50  69
BRANCH  62  75
ATOM     75  C   UNL     1       3.392  -9.040 -15.807  1.00  0.00    -0.014 A 
ATOM     76  C   UNL     1       2.030  -9.305 -15.606  1.00  0.00     0.009 A 
ATOM     77  C   UNL     1       4.052  -9.645 -16.890  1.00  0.00     0.009 A 
ATOM     78  C   UNL     1       1.348 -10.173 -16.462  1.00  0.00     0.001 A 
ATOM     79  C   UNL     1       3.361 -10.487 -17.761  1.00  0.00     0.001 A 
ATOM     80  C   UNL     1       2.011 -10.755 -17.542  1.00  0.00     0.000 A 
ENDBRANCH  62  75
ENDBRANCH  36  37
ENDBRANCH  28  31
ENDBRANCH  26  27
ENDBRANCH  25  26
ENDBRANCH  24  25
ENDBRANCH   1  24
TORSDOF 14
