REMARK SMILES CCC([NH3+])(CC)C(=O)N1CCC[N@H+](CC(=O)NCCCCCCNC(=O)c2ccc(-c3c4nc(c(-c5ccccc5)c5ccc([nH]5)c(-c5ccccc5)c5nc(c(-c6ccccc6)c6ccc3[nH]6)C=C5)C=C4)cc2)CC1
REMARK SMILES IDX 18 1 17 2 15 3 16 4 14 6 13 7 75 9 76 10 9 11 7 12 8 13 3 14
REMARK SMILES IDX 2 15 1 16 4 17 5 21 6 22 10 23 11 24 12 26 19 28 20 29 21 30
REMARK SMILES IDX 22 31 23 32 24 33 25 34 26 36 27 37 28 38 74 39 29 40 73 41
REMARK SMILES IDX 30 42 31 43 32 44 67 45 33 46 72 47 66 48 68 49 34 50 71 51
REMARK SMILES IDX 65 52 64 53 35 55 57 56 42 57 56 58 43 59 46 60 55 61 69 62
REMARK SMILES IDX 44 63 45 64 54 66 70 67 47 68 36 69 37 70 41 71 38 72 40 73
REMARK SMILES IDX 39 74 58 75 59 76 63 77 60 78 62 79 61 80 48 81 49 82 53 83
REMARK SMILES IDX 50 84 52 85 51 86
REMARK H PARENT 17 5 13 8 4 18 4 19 4 20 24 35 68 54 46 65
REMARK Flexibility Score: 90.00
ROOT
ATOM      1  C   UNL     1       4.503   3.323  -3.199  1.00  0.00     0.116 C 
ENDROOT
BRANCH   1   2
ATOM      2  N   UNL     1       3.754   4.386  -2.550  1.00  0.00    -0.351 N 
ATOM      3  C   UNL     1       4.171   5.485  -1.857  1.00  0.00     0.275 C 
ATOM      4  O   UNL     1       3.341   6.378  -1.659  1.00  0.00    -0.269 OA
ATOM      5  H   UNL     1       2.776   4.297  -2.622  1.00  0.00     0.163 HD
BRANCH   3   6
ATOM      6  C   UNL     1       5.598   5.602  -1.334  1.00  0.00     0.363 C 
BRANCH   6   7
ATOM      7  N   UNL     1       5.753   5.351   0.101  1.00  0.00    -0.326 N 
ATOM      8  H   UNL     1       6.755   5.539   0.073  1.00  0.00     0.348 HD
BRANCH   7   9
ATOM      9  C   UNL     1       5.797   3.995   0.603  1.00  0.00     0.284 C 
BRANCH   9  10
ATOM     10  C   UNL     1       4.505   3.181   0.662  1.00  0.00     0.181 C 
BRANCH  10  11
ATOM     11  N   UNL     1       3.304   3.665   1.344  1.00  0.00    -0.331 N 
BRANCH  11  12
ATOM     12  C   UNL     1       2.400   2.631   1.663  1.00  0.00     0.284 C 
ATOM     13  O   UNL     1       2.854   1.519   1.968  1.00  0.00    -0.268 OA
BRANCH  12  14
ATOM     14  C   UNL     1       0.822   2.793   1.486  1.00  0.00     0.173 C 
BRANCH  14  15
ATOM     15  C   UNL     1       0.121   1.415   1.760  1.00  0.00     0.075 C 
ATOM     16  C   UNL     1       0.357   0.291   0.752  1.00  0.00     0.011 C 
ENDBRANCH  14  15
BRANCH  14  17
ATOM     17  N   UNL     1       0.517   3.179   0.083  1.00  0.00    -0.345 N 
ATOM     18  H   UNL     1      -0.491   3.282  -0.030  1.00  0.00     0.345 HD
ATOM     19  H   UNL     1       0.858   2.454  -0.550  1.00  0.00     0.345 HD
ATOM     20  H   UNL     1       0.976   4.063  -0.135  1.00  0.00     0.345 HD
ENDBRANCH  14  17
BRANCH  14  21
ATOM     21  C   UNL     1       0.140   3.828   2.413  1.00  0.00     0.075 C 
ATOM     22  C   UNL     1       0.596   3.759   3.863  1.00  0.00     0.011 C 
ENDBRANCH  14  21
ENDBRANCH  12  14
ENDBRANCH  11  12
BRANCH  11  23
ATOM     23  C   UNL     1       2.950   5.075   1.227  1.00  0.00     0.126 C 
BRANCH  23  24
ATOM     24  C   UNL     1       3.941   6.109   1.749  1.00  0.00     0.083 CG0
ATOM     25  G   UNL     1       5.266   6.343   1.028  1.00  0.00     0.000 G0
ENDBRANCH  23  24
ENDBRANCH  11  23
ENDBRANCH  10  11
ENDBRANCH   9  10
ENDBRANCH   7   9
BRANCH   7  26
ATOM     26  C   UNL     1       5.266   6.343   1.028  1.00  0.00     0.264 CG0
ATOM     27  G   UNL     1       3.941   6.109   1.749  1.00  0.00     0.000 G0
ENDBRANCH   7  26
ENDBRANCH   6   7
ENDBRANCH   3   6
ENDBRANCH   1   2
BRANCH   1  28
ATOM     28  C   UNL     1       4.208   1.897  -2.707  1.00  0.00     0.021 C 
BRANCH  28  29
ATOM     29  C   UNL     1       2.741   1.588  -2.367  1.00  0.00     0.002 C 
BRANCH  29  30
ATOM     30  C   UNL     1       2.059   0.561  -3.274  1.00  0.00     0.002 C 
BRANCH  30  31
ATOM     31  C   UNL     1       2.704  -0.825  -3.311  1.00  0.00     0.021 C 
BRANCH  31  32
ATOM     32  C   UNL     1       2.789  -1.533  -1.964  1.00  0.00     0.116 C 
BRANCH  32  33
ATOM     33  N   UNL     1       1.500  -2.046  -1.522  1.00  0.00    -0.352 N 
ATOM     34  C   UNL     1       1.114  -3.346  -1.301  1.00  0.00     0.251 C 
ATOM     35  H   UNL     1       0.807  -1.365  -1.358  1.00  0.00     0.163 HD
ATOM     36  O   UNL     1      -0.052  -3.627  -1.044  1.00  0.00    -0.269 OA
BRANCH  34  37
ATOM     37  C   UNL     1       2.119  -4.418  -1.433  1.00  0.00     0.039 A 
ATOM     38  C   UNL     1       1.882  -5.451  -2.341  1.00  0.00     0.014 A 
ATOM     39  C   UNL     1       3.321  -4.351  -0.723  1.00  0.00     0.014 A 
ATOM     40  C   UNL     1       2.893  -6.373  -2.607  1.00  0.00     0.010 A 
ATOM     41  C   UNL     1       4.352  -5.229  -1.042  1.00  0.00     0.010 A 
ATOM     42  C   UNL     1       4.150  -6.240  -1.994  1.00  0.00    -0.014 A 
BRANCH  42  43
ATOM     43  C   UNL     1       5.270  -7.141  -2.360  1.00  0.00     0.031 A 
ATOM     44  C   UNL     1       5.830  -8.098  -1.348  1.00  0.00     0.074 A 
ATOM     45  C   UNL     1       5.814  -7.059  -3.590  1.00  0.00     0.049 A 
ATOM     46  N   UNL     1       6.815  -8.950  -1.476  1.00  0.00    -0.248 NA
ATOM     47  C   UNL     1       5.219  -8.079  -0.010  1.00  0.00     0.031 C 
ATOM     48  C   UNL     1       5.390  -6.135  -4.646  1.00  0.00     0.029 A 
ATOM     49  N   UNL     1       6.845  -7.763  -4.160  1.00  0.00    -0.354 N 
ATOM     50  C   UNL     1       6.946  -9.561  -0.236  1.00  0.00     0.074 A 
ATOM     51  C   UNL     1       5.979  -8.944   0.645  1.00  0.00     0.031 C 
ATOM     52  C   UNL     1       6.134  -6.351  -5.743  1.00  0.00     0.029 A 
ATOM     53  C   UNL     1       7.106  -7.402  -5.460  1.00  0.00     0.049 A 
ATOM     54  H   UNL     1       7.350  -8.460  -3.683  1.00  0.00     0.167 HD
ATOM     55  C   UNL     1       7.782 -10.560   0.131  1.00  0.00     0.031 A 
ATOM     56  C   UNL     1       8.024  -7.867  -6.327  1.00  0.00     0.031 A 
ATOM     57  C   UNL     1       8.743 -11.173  -0.745  1.00  0.00     0.049 A 
ATOM     58  C   UNL     1       8.946  -8.972  -5.894  1.00  0.00     0.074 A 
ATOM     59  C   UNL     1       9.604 -12.224  -0.483  1.00  0.00     0.029 A 
ATOM     60  N   UNL     1       8.972 -10.784  -2.056  1.00  0.00    -0.354 N 
ATOM     61  N   UNL     1       9.008  -9.589  -4.739  1.00  0.00    -0.248 NA
ATOM     62  C   UNL     1       9.915  -9.454  -6.889  1.00  0.00     0.031 C 
ATOM     63  C   UNL     1      10.386 -12.441  -1.623  1.00  0.00     0.029 A 
ATOM     64  C   UNL     1       9.976 -11.559  -2.610  1.00  0.00     0.049 A 
ATOM     65  H   UNL     1       8.491 -10.063  -2.524  1.00  0.00     0.167 HD
ATOM     66  C   UNL     1      10.006 -10.545  -4.874  1.00  0.00     0.074 A 
ATOM     67  C   UNL     1      10.509 -10.438  -6.229  1.00  0.00     0.031 C 
ATOM     68  C   UNL     1      10.466 -11.432  -3.958  1.00  0.00     0.031 A 
BRANCH  55  69
ATOM     69  C   UNL     1       7.688 -11.044   1.551  1.00  0.00    -0.014 A 
ATOM     70  C   UNL     1       6.571 -11.770   1.997  1.00  0.00     0.009 A 
ATOM     71  C   UNL     1       8.732 -10.783   2.451  1.00  0.00     0.009 A 
ATOM     72  C   UNL     1       6.483 -12.187   3.326  1.00  0.00     0.001 A 
ATOM     73  C   UNL     1       8.654 -11.227   3.773  1.00  0.00     0.001 A 
ATOM     74  C   UNL     1       7.525 -11.918   4.212  1.00  0.00     0.000 A 
ENDBRANCH  55  69
BRANCH  56  75
ATOM     75  C   UNL     1       8.104  -7.304  -7.700  1.00  0.00    -0.014 A 
ATOM     76  C   UNL     1       7.685  -8.059  -8.806  1.00  0.00     0.009 A 
ATOM     77  C   UNL     1       8.601  -6.008  -7.913  1.00  0.00     0.009 A 
ATOM     78  C   UNL     1       7.783  -7.538 -10.098  1.00  0.00     0.001 A 
ATOM     79  C   UNL     1       8.673  -5.480  -9.204  1.00  0.00     0.001 A 
ATOM     80  C   UNL     1       8.273  -6.248 -10.296  1.00  0.00     0.000 A 
ENDBRANCH  56  75
BRANCH  68  81
ATOM     81  C   UNL     1      11.552 -12.370  -4.401  1.00  0.00    -0.014 A 
ATOM     82  C   UNL     1      12.869 -11.921  -4.584  1.00  0.00     0.009 A 
ATOM     83  C   UNL     1      11.261 -13.729  -4.596  1.00  0.00     0.009 A 
ATOM     84  C   UNL     1      13.867 -12.811  -4.985  1.00  0.00     0.001 A 
ATOM     85  C   UNL     1      12.266 -14.621  -4.970  1.00  0.00     0.001 A 
ATOM     86  C   UNL     1      13.566 -14.160  -5.172  1.00  0.00     0.000 A 
ENDBRANCH  68  81
ENDBRANCH  42  43
ENDBRANCH  34  37
ENDBRANCH  32  33
ENDBRANCH  31  32
ENDBRANCH  30  31
ENDBRANCH  29  30
ENDBRANCH  28  29
ENDBRANCH   1  28
TORSDOF 19
