REMARK SMILES C=C(C(=O)NCCCCCCNC(=O)c1ccc(-c2c3nc(c(-c4ccccc4)c4ccc([nH]4)c(-c4ccccc4)c4nc(c(-c5ccccc5)c5ccc2[nH]5)C=C4)C=C3)cc1)[C@@H]1CC[C@]2(C)CCCC(=C)[C@H]2[C@H]1O
REMARK SMILES IDX 8 1 7 2 6 3 5 4 3 5 4 6 2 8 1 9 63 10 64 11 74 12 65 13
REMARK SMILES IDX 73 14 66 15 71 16 67 17 68 18 70 19 72 20 69 21 75 22 9 24
REMARK SMILES IDX 10 25 11 26 12 27 13 28 14 30 15 31 16 32 62 33 17 34 61 35
REMARK SMILES IDX 18 36 19 37 20 38 55 39 21 40 60 41 54 42 56 43 22 44 59 45
REMARK SMILES IDX 53 46 52 47 23 49 45 50 30 51 44 52 31 53 34 54 43 55 57 56
REMARK SMILES IDX 32 57 33 58 42 60 58 61 35 62 24 63 25 64 29 65 26 66 28 67
REMARK SMILES IDX 27 68 46 69 47 70 51 71 48 72 50 73 49 74 36 75 37 76 41 77
REMARK SMILES IDX 38 78 40 79 39 80
REMARK H PARENT 5 7 75 23 12 29 56 48 34 59
REMARK Flexibility Score: inf
ROOT
ATOM      1  C   UNL     1      -3.492  -1.672   2.018  1.00  0.00     0.002 C 
ENDROOT
BRANCH   1   2
ATOM      2  C   UNL     1      -2.020  -1.266   2.156  1.00  0.00     0.021 C 
BRANCH   2   3
ATOM      3  C   UNL     1      -1.272  -1.017   0.849  1.00  0.00     0.116 C 
BRANCH   3   4
ATOM      4  N   UNL     1      -1.792   0.113   0.100  1.00  0.00    -0.352 N 
ATOM      5  C   UNL     1      -1.161   0.945  -0.778  1.00  0.00     0.246 C 
ATOM      6  O   UNL     1      -1.797   1.838  -1.331  1.00  0.00    -0.270 OA
ATOM      7  H   UNL     1      -2.746   0.308   0.248  1.00  0.00     0.163 HD
BRANCH   5   8
ATOM      8  C   UNL     1       0.290   0.763  -1.073  1.00  0.00     0.015 C 
ATOM      9  C   UNL     1       0.654  -0.461  -1.506  1.00  0.00     0.019 C 
BRANCH   8  10
ATOM     10  C   UNL     1       1.209   1.989  -1.158  1.00  0.00     0.053 C 
ATOM     11  C   UNL     1       2.680   1.666  -0.796  1.00  0.00     0.012 C 
ATOM     12  C   UNL     1       0.801   3.308  -0.408  1.00  0.00     0.129 C 
ATOM     13  C   UNL     1       2.877   1.515   0.711  1.00  0.00     0.008 C 
ATOM     14  C   UNL     1       1.074   3.255   1.129  1.00  0.00     0.050 C 
ATOM     15  C   UNL     1       2.530   2.806   1.490  1.00  0.00    -0.024 C 
ATOM     16  C   UNL     1       0.720   4.485   1.979  1.00  0.00    -0.071 C 
ATOM     17  C   UNL     1       3.603   3.882   1.176  1.00  0.00     0.012 C 
ATOM     18  C   UNL     1       2.584   2.490   3.013  1.00  0.00     0.008 C 
ATOM     19  C   UNL     1       0.783   4.231   3.470  1.00  0.00     0.031 C 
ATOM     20  C   UNL     1       0.416   5.709   1.517  1.00  0.00     0.008 C 
ATOM     21  C   UNL     1       2.136   3.661   3.895  1.00  0.00     0.005 C 
BRANCH  12  22
ATOM     22  O   UNL     1       1.505   4.420  -0.992  1.00  0.00    -0.392 OA
ATOM     23  H   UNL     1       2.460   4.295  -0.876  1.00  0.00     0.211 HD
ENDBRANCH  12  22
ENDBRANCH   8  10
ENDBRANCH   5   8
ENDBRANCH   3   4
ENDBRANCH   2   3
ENDBRANCH   1   2
BRANCH   1  24
ATOM     24  C   UNL     1      -3.782  -2.911   1.165  1.00  0.00     0.002 C 
BRANCH  24  25
ATOM     25  C   UNL     1      -3.022  -4.184   1.544  1.00  0.00     0.021 C 
BRANCH  25  26
ATOM     26  C   UNL     1      -3.134  -4.616   3.003  1.00  0.00     0.116 C 
BRANCH  26  27
ATOM     27  N   UNL     1      -4.501  -4.887   3.414  1.00  0.00    -0.352 N 
ATOM     28  C   UNL     1      -5.022  -5.973   4.067  1.00  0.00     0.251 C 
ATOM     29  H   UNL     1      -5.152  -4.183   3.188  1.00  0.00     0.163 HD
ATOM     30  O   UNL     1      -6.242  -6.076   4.211  1.00  0.00    -0.269 OA
BRANCH  28  31
ATOM     31  C   UNL     1      -4.138  -7.043   4.578  1.00  0.00     0.039 A 
ATOM     32  C   UNL     1      -4.514  -8.375   4.378  1.00  0.00     0.014 A 
ATOM     33  C   UNL     1      -2.956  -6.748   5.264  1.00  0.00     0.014 A 
ATOM     34  C   UNL     1      -3.678  -9.407   4.809  1.00  0.00     0.010 A 
ATOM     35  C   UNL     1      -2.089  -7.776   5.631  1.00  0.00     0.010 A 
ATOM     36  C   UNL     1      -2.441  -9.116   5.407  1.00  0.00    -0.014 A 
BRANCH  36  37
ATOM     37  C   UNL     1      -1.502 -10.204   5.782  1.00  0.00     0.031 A 
ATOM     38  C   UNL     1      -1.153 -10.456   7.222  1.00  0.00     0.074 A 
ATOM     39  C   UNL     1      -0.924 -10.940   4.812  1.00  0.00     0.049 A 
ATOM     40  N   UNL     1      -0.350 -11.357   7.730  1.00  0.00    -0.248 NA
ATOM     41  C   UNL     1      -1.766  -9.566   8.219  1.00  0.00     0.031 C 
ATOM     42  C   UNL     1      -1.144 -10.770   3.375  1.00  0.00     0.029 A 
ATOM     43  N   UNL     1      -0.032 -11.980   4.891  1.00  0.00    -0.354 N 
ATOM     44  C   UNL     1      -0.352 -11.134   9.102  1.00  0.00     0.074 A 
ATOM     45  C   UNL     1      -1.195  -9.983   9.340  1.00  0.00     0.031 C 
ATOM     46  C   UNL     1      -0.438 -11.698   2.710  1.00  0.00     0.029 A 
ATOM     47  C   UNL     1       0.312 -12.502   3.668  1.00  0.00     0.049 A 
ATOM     48  H   UNL     1       0.326 -12.320   5.743  1.00  0.00     0.167 HD
ATOM     49  C   UNL     1       0.276 -11.834  10.077  1.00  0.00     0.031 A 
ATOM     50  C   UNL     1       1.139 -13.516   3.352  1.00  0.00     0.031 A 
ATOM     51  C   UNL     1       1.114 -12.981   9.841  1.00  0.00     0.049 A 
ATOM     52  C   UNL     1       1.836 -14.268   4.449  1.00  0.00     0.074 A 
ATOM     53  C   UNL     1       1.742 -13.795  10.768  1.00  0.00     0.029 A 
ATOM     54  N   UNL     1       1.448 -13.470   8.588  1.00  0.00    -0.354 N 
ATOM     55  N   UNL     1       1.762 -14.094   5.746  1.00  0.00    -0.248 NA
ATOM     56  C   UNL     1       2.724 -15.364   4.036  1.00  0.00     0.031 C 
ATOM     57  C   UNL     1       2.502 -14.743  10.073  1.00  0.00     0.029 A 
ATOM     58  C   UNL     1       2.300 -14.555   8.715  1.00  0.00     0.049 A 
ATOM     59  H   UNL     1       1.127 -13.101   7.734  1.00  0.00     0.167 HD
ATOM     60  C   UNL     1       2.574 -15.071   6.306  1.00  0.00     0.074 A 
ATOM     61  C   UNL     1       3.115 -15.846   5.208  1.00  0.00     0.031 C 
ATOM     62  C   UNL     1       2.845 -15.307   7.613  1.00  0.00     0.031 A 
BRANCH  49  63
ATOM     63  C   UNL     1       0.089 -11.362  11.493  1.00  0.00    -0.014 A 
ATOM     64  C   UNL     1      -1.149 -11.483  12.146  1.00  0.00     0.009 A 
ATOM     65  C   UNL     1       1.172 -10.807  12.193  1.00  0.00     0.009 A 
ATOM     66  C   UNL     1      -1.309 -11.016  13.453  1.00  0.00     0.001 A 
ATOM     67  C   UNL     1       1.017 -10.370  13.510  1.00  0.00     0.001 A 
ATOM     68  C   UNL     1      -0.226 -10.463  14.135  1.00  0.00     0.000 A 
ENDBRANCH  49  63
BRANCH  50  69
ATOM     69  C   UNL     1       1.328 -13.899   1.928  1.00  0.00    -0.014 A 
ATOM     70  C   UNL     1       0.782 -15.094   1.436  1.00  0.00     0.009 A 
ATOM     71  C   UNL     1       2.045 -13.068   1.053  1.00  0.00     0.009 A 
ATOM     72  C   UNL     1       0.966 -15.458   0.101  1.00  0.00     0.001 A 
ATOM     73  C   UNL     1       2.204 -13.422  -0.289  1.00  0.00     0.001 A 
ATOM     74  C   UNL     1       1.671 -14.620  -0.762  1.00  0.00     0.000 A 
ENDBRANCH  50  69
BRANCH  62  75
ATOM     75  C   UNL     1       3.755 -16.462   7.925  1.00  0.00    -0.014 A 
ATOM     76  C   UNL     1       5.130 -16.401   7.649  1.00  0.00     0.009 A 
ATOM     77  C   UNL     1       3.232 -17.617   8.527  1.00  0.00     0.009 A 
ATOM     78  C   UNL     1       5.956 -17.490   7.937  1.00  0.00     0.001 A 
ATOM     79  C   UNL     1       4.065 -18.692   8.840  1.00  0.00     0.001 A 
ATOM     80  C   UNL     1       5.424 -18.632   8.536  1.00  0.00     0.000 A 
ENDBRANCH  62  75
ENDBRANCH  36  37
ENDBRANCH  28  31
ENDBRANCH  26  27
ENDBRANCH  25  26
ENDBRANCH  24  25
ENDBRANCH   1  24
TORSDOF 15
