REMARK SMILES C[C@@H]([C@H]1CC=CS1)n1nccc1NC(=O)CC1(CC(=O)NCCCCCCNC(=O)c2ccc(-c3c4nc(c(-c5ccccc5)c5ccc([nH]5)c(-c5ccccc5)c5nc(c(-c6ccccc6)c6ccc3[nH]6)C=C5)C=C4)cc2)CCCCC1
REMARK SMILES IDX 22 1 21 2 19 3 20 4 18 6 17 7 79 8 83 9 80 10 82 11 81 12
REMARK SMILES IDX 16 13 14 14 13 15 15 17 12 18 8 19 9 20 10 21 11 22 2 23
REMARK SMILES IDX 1 24 3 25 4 26 7 27 5 28 6 29 23 30 24 31 25 32 26 33 27 34
REMARK SMILES IDX 28 35 29 36 30 38 31 39 32 40 78 41 33 42 77 43 34 44 35 45
REMARK SMILES IDX 36 46 71 47 37 48 76 49 70 50 72 51 38 52 75 53 69 54 68 55
REMARK SMILES IDX 39 57 61 58 46 59 60 60 47 61 50 62 59 63 73 64 48 65 49 66
REMARK SMILES IDX 58 68 74 69 51 70 40 71 41 72 45 73 42 74 44 75 43 76 62 77
REMARK SMILES IDX 63 78 67 79 64 80 66 81 65 82 52 83 53 84 57 85 54 86 56 87
REMARK SMILES IDX 55 88
REMARK H PARENT 21 5 13 16 28 37 72 56 50 67
REMARK Flexibility Score: inf
ROOT
ATOM      1  C   UNL     1       3.073   7.820   2.113  1.00  0.00     0.116 C 
ENDROOT
BRANCH   1   2
ATOM      2  N   UNL     1       2.081   7.207   2.962  1.00  0.00    -0.356 N 
ATOM      3  C   UNL     1       1.927   5.906   3.307  1.00  0.00     0.220 C 
ATOM      4  O   UNL     1       1.023   5.610   4.087  1.00  0.00    -0.275 OA
ATOM      5  H   UNL     1       1.419   7.825   3.349  1.00  0.00     0.163 HD
BRANCH   3   6
ATOM      6  C   UNL     1       2.846   4.826   2.757  1.00  0.00     0.107 C 
BRANCH   6   7
ATOM      7  C   UNL     1       2.539   4.223   1.353  1.00  0.00    -0.012 C 
ATOM      8  C   UNL     1       3.284   2.865   1.260  1.00  0.00     0.008 C 
ATOM      9  C   UNL     1       3.089   5.055   0.157  1.00  0.00     0.008 C 
ATOM     10  C   UNL     1       4.811   2.944   1.185  1.00  0.00     0.001 C 
ATOM     11  C   UNL     1       4.611   5.180   0.087  1.00  0.00     0.001 C 
ATOM     12  C   UNL     1       5.261   3.809   0.014  1.00  0.00     0.000 C 
BRANCH   7  13
ATOM     13  C   UNL     1       0.997   4.103   1.094  1.00  0.00     0.108 C 
BRANCH  13  14
ATOM     14  C   UNL     1       0.132   3.210   1.965  1.00  0.00     0.226 C 
ATOM     15  N   UNL     1       0.134   1.782   1.858  1.00  0.00    -0.311 N 
ATOM     16  H   UNL     1      -0.391   1.292   2.532  1.00  0.00     0.171 HD
ATOM     17  O   UNL     1      -0.643   3.627   2.800  1.00  0.00    -0.275 OA
BRANCH  15  18
ATOM     18  C   UNL     1       0.788   1.020   0.918  1.00  0.00     0.131 A 
ATOM     19  N   UNL     1       1.475  -0.159   1.109  1.00  0.00    -0.246 N 
ATOM     20  N   UNL     1       2.283  -0.442   0.057  1.00  0.00    -0.179 NA
ATOM     21  C   UNL     1       1.862   0.378  -0.904  1.00  0.00     0.137 A 
ATOM     22  C   UNL     1       0.892   1.280  -0.433  1.00  0.00     0.068 A 
BRANCH  19  23
ATOM     23  C   UNL     1       1.390  -1.178   2.166  1.00  0.00     0.120 C 
ATOM     24  C   UNL     1       0.725  -0.719   3.464  1.00  0.00     0.034 C 
BRANCH  23  25
ATOM     25  C   UNL     1       0.764  -2.428   1.502  1.00  0.00     0.079 C 
ATOM     26  C   UNL     1       1.827  -3.438   1.026  1.00  0.00     0.045 C 
ATOM     27  S   UNL     1      -0.436  -3.455   2.438  1.00  0.00    -0.128 SA
ATOM     28  C   UNL     1       1.119  -4.745   0.842  1.00  0.00    -0.019 C 
ATOM     29  C   UNL     1      -0.039  -4.857   1.500  1.00  0.00     0.037 C 
ENDBRANCH  23  25
ENDBRANCH  19  23
ENDBRANCH  15  18
ENDBRANCH  13  14
ENDBRANCH   7  13
ENDBRANCH   6   7
ENDBRANCH   3   6
ENDBRANCH   1   2
BRANCH   1  30
ATOM     30  C   UNL     1       2.438   8.388   0.843  1.00  0.00     0.021 C 
BRANCH  30  31
ATOM     31  C   UNL     1       2.159   9.884   0.912  1.00  0.00     0.002 C 
BRANCH  31  32
ATOM     32  C   UNL     1       3.399  10.750   1.168  1.00  0.00     0.002 C 
BRANCH  32  33
ATOM     33  C   UNL     1       4.583  10.530   0.213  1.00  0.00     0.021 C 
BRANCH  33  34
ATOM     34  C   UNL     1       4.275  10.914  -1.227  1.00  0.00     0.116 C 
BRANCH  34  35
ATOM     35  N   UNL     1       3.921  12.325  -1.333  1.00  0.00    -0.352 N 
ATOM     36  C   UNL     1       3.562  13.061  -2.436  1.00  0.00     0.251 C 
ATOM     37  H   UNL     1       3.944  12.826  -0.486  1.00  0.00     0.163 HD
ATOM     38  O   UNL     1       3.622  14.284  -2.410  1.00  0.00    -0.269 OA
BRANCH  36  39
ATOM     39  C   UNL     1       3.096  12.372  -3.650  1.00  0.00     0.039 A 
ATOM     40  C   UNL     1       3.432  12.869  -4.913  1.00  0.00     0.014 A 
ATOM     41  C   UNL     1       2.291  11.241  -3.519  1.00  0.00     0.014 A 
ATOM     42  C   UNL     1       3.002  12.183  -6.043  1.00  0.00     0.010 A 
ATOM     43  C   UNL     1       1.970  10.496  -4.625  1.00  0.00     0.010 A 
ATOM     44  C   UNL     1       2.282  10.990  -5.888  1.00  0.00    -0.014 A 
BRANCH  44  45
ATOM     45  C   UNL     1       1.993  10.144  -7.036  1.00  0.00     0.031 A 
ATOM     46  C   UNL     1       3.217   9.665  -7.726  1.00  0.00     0.074 A 
ATOM     47  C   UNL     1       0.767   9.634  -7.283  1.00  0.00     0.049 A 
ATOM     48  N   UNL     1       3.658  10.025  -8.884  1.00  0.00    -0.248 NA
ATOM     49  C   UNL     1       4.161   8.826  -6.963  1.00  0.00     0.031 C 
ATOM     50  C   UNL     1      -0.442   9.783  -6.465  1.00  0.00     0.029 A 
ATOM     51  N   UNL     1       0.368   8.759  -8.247  1.00  0.00    -0.354 N 
ATOM     52  C   UNL     1       4.792   9.251  -9.104  1.00  0.00     0.074 A 
ATOM     53  C   UNL     1       5.185   8.745  -7.814  1.00  0.00     0.031 C 
ATOM     54  C   UNL     1      -1.347   8.844  -6.821  1.00  0.00     0.029 A 
ATOM     55  C   UNL     1      -0.848   8.133  -7.985  1.00  0.00     0.049 A 
ATOM     56  H   UNL     1       0.895   8.583  -9.059  1.00  0.00     0.167 HD
ATOM     57  C   UNL     1       5.079   8.791 -10.355  1.00  0.00     0.031 A 
ATOM     58  C   UNL     1      -1.386   7.079  -8.650  1.00  0.00     0.031 A 
ATOM     59  C   UNL     1       4.324   9.508 -11.359  1.00  0.00     0.049 A 
ATOM     60  C   UNL     1      -0.705   6.989  -9.959  1.00  0.00     0.074 A 
ATOM     61  C   UNL     1       4.156  10.834 -11.710  1.00  0.00     0.029 A 
ATOM     62  N   UNL     1       3.265   8.835 -11.920  1.00  0.00    -0.354 N 
ATOM     63  N   UNL     1      -0.849   7.871 -10.904  1.00  0.00    -0.248 NA
ATOM     64  C   UNL     1       0.481   6.154 -10.059  1.00  0.00     0.031 C 
ATOM     65  C   UNL     1       2.779  10.952 -12.070  1.00  0.00     0.029 A 
ATOM     66  C   UNL     1       2.199   9.684 -12.001  1.00  0.00     0.049 A 
ATOM     67  H   UNL     1       3.274   7.896 -12.215  1.00  0.00     0.167 HD
ATOM     68  C   UNL     1       0.426   8.033 -11.422  1.00  0.00     0.074 A 
ATOM     69  C   UNL     1       1.173   6.865 -10.954  1.00  0.00     0.031 C 
ATOM     70  C   UNL     1       0.825   9.242 -11.919  1.00  0.00     0.031 A 
BRANCH  57  71
ATOM     71  C   UNL     1       5.580   7.379 -10.616  1.00  0.00    -0.014 A 
ATOM     72  C   UNL     1       5.730   6.971 -11.955  1.00  0.00     0.009 A 
ATOM     73  C   UNL     1       5.585   6.355  -9.649  1.00  0.00     0.009 A 
ATOM     74  C   UNL     1       5.727   5.617 -12.311  1.00  0.00     0.001 A 
ATOM     75  C   UNL     1       5.630   5.002  -9.997  1.00  0.00     0.001 A 
ATOM     76  C   UNL     1       5.658   4.633 -11.332  1.00  0.00     0.000 A 
ENDBRANCH  57  71
BRANCH  58  77
ATOM     77  C   UNL     1      -2.272   5.996  -8.164  1.00  0.00    -0.014 A 
ATOM     78  C   UNL     1      -2.937   5.155  -9.073  1.00  0.00     0.009 A 
ATOM     79  C   UNL     1      -2.246   5.604  -6.814  1.00  0.00     0.009 A 
ATOM     80  C   UNL     1      -3.506   3.944  -8.656  1.00  0.00     0.001 A 
ATOM     81  C   UNL     1      -2.821   4.397  -6.396  1.00  0.00     0.001 A 
ATOM     82  C   UNL     1      -3.434   3.558  -7.320  1.00  0.00     0.000 A 
ENDBRANCH  58  77
BRANCH  70  83
ATOM     83  C   UNL     1      -0.235  10.278 -12.193  1.00  0.00    -0.014 A 
ATOM     84  C   UNL     1      -1.091  10.803 -11.209  1.00  0.00     0.009 A 
ATOM     85  C   UNL     1      -0.285  10.830 -13.481  1.00  0.00     0.009 A 
ATOM     86  C   UNL     1      -1.998  11.821 -11.521  1.00  0.00     0.001 A 
ATOM     87  C   UNL     1      -1.173  11.862 -13.786  1.00  0.00     0.001 A 
ATOM     88  C   UNL     1      -2.036  12.351 -12.809  1.00  0.00     0.000 A 
ENDBRANCH  70  83
ENDBRANCH  44  45
ENDBRANCH  36  39
ENDBRANCH  34  35
ENDBRANCH  33  34
ENDBRANCH  32  33
ENDBRANCH  31  32
ENDBRANCH  30  31
ENDBRANCH   1  30
TORSDOF 19
