REMARK SMILES Cc1ccc(-c2csc(NC(=O)[C@H]3[C@@H](C(=O)NCCCCCCNC(=O)c4ccc(-c5c6nc(c(-c7ccccc7)c7ccc([nH]7)c(-c7ccccc7)c7nc(c(-c8ccccc8)c8ccc5[nH]8)C=C7)C=C6)cc4)[C@H]4C=C[C@@H]3C4)c2C(=O)NC2CC2)cc1
REMARK SMILES IDX 19 1 18 2 17 3 15 4 16 5 14 7 13 8 78 9 75 10 77 11 79 12
REMARK SMILES IDX 76 13 11 14 10 15 12 17 9 18 6 19 7 20 80 21 8 22 5 23 1 24
REMARK SMILES IDX 2 25 3 26 88 27 4 28 87 29 81 30 82 31 83 32 84 34 85 35
REMARK SMILES IDX 86 36 20 37 21 38 22 39 23 40 24 41 25 42 26 44 27 45 28 46
REMARK SMILES IDX 74 47 29 48 73 49 30 50 31 51 32 52 67 53 33 54 72 55 66 56
REMARK SMILES IDX 68 57 34 58 71 59 65 60 64 61 35 63 57 64 42 65 56 66 43 67
REMARK SMILES IDX 46 68 55 69 69 70 44 71 45 72 54 74 70 75 47 76 36 77 37 78
REMARK SMILES IDX 41 79 38 80 40 81 39 82 58 83 59 84 63 85 60 86 62 87 61 88
REMARK SMILES IDX 48 89 49 90 53 91 50 92 52 93 51 94
REMARK H PARENT 17 6 10 16 83 33 24 43 68 62 46 73
REMARK Flexibility Score: inf
ROOT
ATOM      1  C   UNL     1      -3.275   0.453   0.089  1.00  0.00     0.021 C 
ENDROOT
BRANCH   1   2
ATOM      2  C   UNL     1      -4.410   1.470  -0.021  1.00  0.00     0.116 C 
BRANCH   2   3
ATOM      3  N   UNL     1      -5.202   1.270  -1.214  1.00  0.00    -0.356 N 
ATOM      4  C   UNL     1      -6.549   1.161  -1.385  1.00  0.00     0.224 C 
ATOM      5  O   UNL     1      -6.951   0.984  -2.536  1.00  0.00    -0.275 OA
ATOM      6  H   UNL     1      -4.679   1.200  -2.044  1.00  0.00     0.163 HD
BRANCH   4   7
ATOM      7  C   UNL     1      -7.487   1.369  -0.196  1.00  0.00     0.098 C 
ATOM      8  C   UNL     1      -8.655   0.329   0.039  1.00  0.00     0.099 C 
ATOM      9  C   UNL     1      -9.904   1.246  -0.080  1.00  0.00     0.025 C 
ATOM     10  C   UNL     1      -8.250   2.720  -0.350  1.00  0.00     0.025 C 
ATOM     11  C   UNL     1     -10.033   1.802  -1.472  1.00  0.00    -0.027 C 
ATOM     12  C   UNL     1      -9.397   2.511   0.635  1.00  0.00     0.017 C 
ATOM     13  C   UNL     1      -9.065   2.716  -1.622  1.00  0.00    -0.027 C 
BRANCH   8  14
ATOM     14  C   UNL     1      -8.541  -0.951  -0.791  1.00  0.00     0.229 C 
ATOM     15  N   UNL     1      -9.631  -1.657  -1.206  1.00  0.00    -0.317 N 
ATOM     16  H   UNL     1      -9.500  -2.175  -2.033  1.00  0.00     0.170 HD
ATOM     17  O   UNL     1      -7.430  -1.422  -1.061  1.00  0.00    -0.274 OA
BRANCH  15  18
ATOM     18  C   UNL     1     -10.889  -1.757  -0.647  1.00  0.00     0.108 A 
ATOM     19  C   UNL     1     -13.181  -1.952  -0.330  1.00  0.00     0.007 A 
ATOM     20  C   UNL     1     -12.716  -1.683   0.948  1.00  0.00     0.076 A 
ATOM     21  C   UNL     1     -12.088  -2.077  -1.290  1.00  0.00     0.082 A 
ATOM     22  S   UNL     1     -11.025  -1.701   1.046  1.00  0.00    -0.125 S 
BRANCH  19  23
ATOM     23  C   UNL     1     -14.625  -2.093  -0.477  1.00  0.00    -0.017 A 
ATOM     24  C   UNL     1     -18.720  -3.114  -1.280  1.00  0.00     0.044 C 
ATOM     25  C   UNL     1     -17.346  -2.657  -0.888  1.00  0.00    -0.051 A 
ATOM     26  C   UNL     1     -16.598  -3.434  -0.003  1.00  0.00     0.004 A 
ATOM     27  C   UNL     1     -16.747  -1.539  -1.492  1.00  0.00     0.004 A 
ATOM     28  C   UNL     1     -15.258  -3.135   0.222  1.00  0.00     0.009 A 
ATOM     29  C   UNL     1     -15.388  -1.255  -1.290  1.00  0.00     0.009 A 
ENDBRANCH  19  23
BRANCH  21  30
ATOM     30  C   UNL     1     -12.075  -2.229  -2.751  1.00  0.00     0.255 C 
ATOM     31  O   UNL     1     -11.461  -1.401  -3.436  1.00  0.00    -0.269 OA
ATOM     32  N   UNL     1     -12.575  -3.282  -3.478  1.00  0.00    -0.349 N 
ATOM     33  H   UNL     1     -12.383  -3.162  -4.436  1.00  0.00     0.164 HD
BRANCH  32  34
ATOM     34  C   UNL     1     -13.287  -4.492  -3.262  1.00  0.00     0.082 C 
ATOM     35  C   UNL     1     -13.842  -5.050  -2.002  1.00  0.00     0.027 C 
ATOM     36  C   UNL     1     -14.760  -4.393  -2.997  1.00  0.00     0.027 C 
ENDBRANCH  32  34
ENDBRANCH  21  30
ENDBRANCH  15  18
ENDBRANCH   8  14
ENDBRANCH   4   7
ENDBRANCH   2   3
ENDBRANCH   1   2
BRANCH   1  37
ATOM     37  C   UNL     1      -2.215   0.510  -1.019  1.00  0.00     0.002 C 
BRANCH  37  38
ATOM     38  C   UNL     1      -1.598   1.885  -1.320  1.00  0.00     0.002 C 
BRANCH  38  39
ATOM     39  C   UNL     1      -1.116   2.695  -0.116  1.00  0.00     0.021 C 
BRANCH  39  40
ATOM     40  C   UNL     1       0.028   2.058   0.657  1.00  0.00     0.116 C 
BRANCH  40  41
ATOM     41  N   UNL     1       1.356   2.508   0.262  1.00  0.00    -0.352 N 
ATOM     42  C   UNL     1       2.594   2.025   0.668  1.00  0.00     0.251 C 
ATOM     43  H   UNL     1       1.379   3.254  -0.380  1.00  0.00     0.163 HD
ATOM     44  O   UNL     1       3.620   2.513   0.253  1.00  0.00    -0.269 OA
BRANCH  42  45
ATOM     45  C   UNL     1       2.631   0.803   1.516  1.00  0.00     0.039 A 
ATOM     46  C   UNL     1       3.444  -0.252   1.093  1.00  0.00     0.014 A 
ATOM     47  C   UNL     1       1.711   0.614   2.544  1.00  0.00     0.014 A 
ATOM     48  C   UNL     1       3.136  -1.547   1.501  1.00  0.00     0.010 A 
ATOM     49  C   UNL     1       1.340  -0.673   2.875  1.00  0.00     0.010 A 
ATOM     50  C   UNL     1       2.003  -1.753   2.292  1.00  0.00    -0.014 A 
BRANCH  50  51
ATOM     51  C   UNL     1       1.419  -3.070   2.498  1.00  0.00     0.031 A 
ATOM     52  C   UNL     1       1.776  -3.829   3.714  1.00  0.00     0.074 A 
ATOM     53  C   UNL     1       0.590  -3.616   1.577  1.00  0.00     0.049 A 
ATOM     54  N   UNL     1       1.962  -5.106   3.740  1.00  0.00    -0.248 NA
ATOM     55  C   UNL     1       1.985  -3.182   5.008  1.00  0.00     0.031 C 
ATOM     56  C   UNL     1      -0.116  -4.891   1.696  1.00  0.00     0.029 A 
ATOM     57  N   UNL     1       0.364  -3.245   0.249  1.00  0.00    -0.354 N 
ATOM     58  C   UNL     1       2.010  -5.475   5.064  1.00  0.00     0.074 A 
ATOM     59  C   UNL     1       2.119  -4.242   5.811  1.00  0.00     0.031 C 
ATOM     60  C   UNL     1      -0.383  -5.346   0.460  1.00  0.00     0.029 A 
ATOM     61  C   UNL     1       0.260  -4.440  -0.478  1.00  0.00     0.049 A 
ATOM     62  H   UNL     1       0.293  -2.329  -0.105  1.00  0.00     0.167 HD
ATOM     63  C   UNL     1       1.781  -6.767   5.425  1.00  0.00     0.031 A 
ATOM     64  C   UNL     1       1.121  -4.818  -1.468  1.00  0.00     0.031 A 
ATOM     65  C   UNL     1       1.479  -7.612   4.277  1.00  0.00     0.049 A 
ATOM     66  C   UNL     1       1.793  -6.153  -1.198  1.00  0.00     0.074 A 
ATOM     67  C   UNL     1       0.281  -8.048   3.733  1.00  0.00     0.029 A 
ATOM     68  N   UNL     1       2.457  -7.849   3.320  1.00  0.00    -0.354 N 
ATOM     69  N   UNL     1       1.838  -6.711  -0.019  1.00  0.00    -0.248 NA
ATOM     70  C   UNL     1       2.503  -6.941  -2.205  1.00  0.00     0.031 C 
ATOM     71  C   UNL     1       0.535  -8.489   2.410  1.00  0.00     0.029 A 
ATOM     72  C   UNL     1       1.889  -8.351   2.164  1.00  0.00     0.049 A 
ATOM     73  H   UNL     1       3.419  -7.683   3.446  1.00  0.00     0.167 HD
ATOM     74  C   UNL     1       2.531  -7.892  -0.088  1.00  0.00     0.074 A 
ATOM     75  C   UNL     1       2.927  -7.993  -1.480  1.00  0.00     0.031 C 
ATOM     76  C   UNL     1       2.717  -8.680   1.013  1.00  0.00     0.031 A 
BRANCH  63  77
ATOM     77  C   UNL     1       1.500  -7.146   6.854  1.00  0.00    -0.014 A 
ATOM     78  C   UNL     1       0.495  -8.083   7.149  1.00  0.00     0.009 A 
ATOM     79  C   UNL     1       2.165  -6.570   7.950  1.00  0.00     0.009 A 
ATOM     80  C   UNL     1       0.101  -8.354   8.464  1.00  0.00     0.001 A 
ATOM     81  C   UNL     1       1.750  -6.807   9.268  1.00  0.00     0.001 A 
ATOM     82  C   UNL     1       0.709  -7.691   9.524  1.00  0.00     0.000 A 
ENDBRANCH  63  77
BRANCH  64  83
ATOM     83  C   UNL     1       1.746  -3.688  -2.206  1.00  0.00    -0.014 A 
ATOM     84  C   UNL     1       0.928  -2.917  -3.054  1.00  0.00     0.009 A 
ATOM     85  C   UNL     1       2.976  -3.156  -1.796  1.00  0.00     0.009 A 
ATOM     86  C   UNL     1       1.269  -1.599  -3.373  1.00  0.00     0.001 A 
ATOM     87  C   UNL     1       3.317  -1.839  -2.127  1.00  0.00     0.001 A 
ATOM     88  C   UNL     1       2.447  -1.048  -2.877  1.00  0.00     0.000 A 
ENDBRANCH  64  83
BRANCH  76  89
ATOM     89  C   UNL     1       3.619  -9.888   1.120  1.00  0.00    -0.014 A 
ATOM     90  C   UNL     1       4.702 -10.150   0.272  1.00  0.00     0.009 A 
ATOM     91  C   UNL     1       3.458 -10.760   2.224  1.00  0.00     0.009 A 
ATOM     92  C   UNL     1       5.551 -11.246   0.492  1.00  0.00     0.001 A 
ATOM     93  C   UNL     1       4.329 -11.823   2.474  1.00  0.00     0.001 A 
ATOM     94  C   UNL     1       5.372 -12.073   1.597  1.00  0.00     0.000 A 
ENDBRANCH  76  89
ENDBRANCH  50  51
ENDBRANCH  42  45
ENDBRANCH  40  41
ENDBRANCH  39  40
ENDBRANCH  38  39
ENDBRANCH  37  38
ENDBRANCH   1  37
TORSDOF 18
