REMARK SMILES O=C(C[C@H](c1ccsc1)n1cccc1)NCCCCCCNC(=O)c1ccc(-c2c3nc(c(-c4ccccc4)c4ccc([nH]4)c(-c4ccccc4)c4nc(c(-c5ccccc5)c5ccc2[nH]5)C=C4)C=C3)cc1
REMARK SMILES IDX 18 1 17 2 16 3 15 4 1 5 2 6 3 8 4 9 10 10 11 11 14 12 12 13
REMARK SMILES IDX 13 14 5 15 6 16 9 17 7 18 8 19 19 20 20 21 21 22 22 23 23 24
REMARK SMILES IDX 24 26 25 27 26 28 72 29 27 30 71 31 28 32 29 33 30 34 65 35
REMARK SMILES IDX 31 36 70 37 64 38 66 39 32 40 69 41 63 42 62 43 33 45 55 46
REMARK SMILES IDX 40 47 54 48 41 49 44 50 53 51 67 52 42 53 43 54 52 56 68 57
REMARK SMILES IDX 45 58 34 59 35 60 39 61 36 62 38 63 37 64 56 65 57 66 61 67
REMARK SMILES IDX 58 68 60 69 59 70 46 71 47 72 51 73 48 74 50 75 49 76
REMARK H PARENT 15 7 22 25 66 44 44 55
REMARK Flexibility Score: inf
ROOT
ATOM      1  C   UNL     1       6.988   3.300   4.869  1.00  0.00     0.002 C 
ENDROOT
BRANCH   1   2
ATOM      2  C   UNL     1       7.243   1.803   5.090  1.00  0.00     0.021 C 
BRANCH   2   3
ATOM      3  C   UNL     1       6.025   0.906   4.869  1.00  0.00     0.116 C 
BRANCH   3   4
ATOM      4  N   UNL     1       5.535   1.015   3.509  1.00  0.00    -0.356 N 
ATOM      5  O   UNL     1       5.541  -1.224   3.089  1.00  0.00    -0.275 OA
ATOM      6  C   UNL     1       5.328  -0.075   2.705  1.00  0.00     0.222 C 
ATOM      7  H   UNL     1       5.342   1.910   3.148  1.00  0.00     0.163 HD
BRANCH   6   8
ATOM      8  C   UNL     1       4.898   0.178   1.273  1.00  0.00     0.130 C 
BRANCH   8   9
ATOM      9  C   UNL     1       4.027   1.420   1.039  1.00  0.00     0.127 C 
BRANCH   9  10
ATOM     10  N   UNL     1       4.746   2.703   0.955  1.00  0.00    -0.346 N 
ATOM     11  C   UNL     1       4.146   3.927   1.157  1.00  0.00     0.086 A 
ATOM     12  C   UNL     1       6.085   2.907   0.728  1.00  0.00     0.086 A 
ATOM     13  C   UNL     1       5.106   4.908   1.040  1.00  0.00     0.019 A 
ATOM     14  C   UNL     1       6.333   4.262   0.777  1.00  0.00     0.019 A 
ENDBRANCH   9  10
BRANCH   9  15
ATOM     15  C   UNL     1       3.155   1.256  -0.193  1.00  0.00    -0.014 A 
ATOM     16  C   UNL     1       3.627   1.205  -1.549  1.00  0.00     0.017 A 
ATOM     17  C   UNL     1       1.778   1.118  -0.153  1.00  0.00     0.070 A 
ATOM     18  C   UNL     1       2.608   1.033  -2.459  1.00  0.00     0.065 A 
ATOM     19  S   UNL     1       1.081   0.932  -1.702  1.00  0.00    -0.152 S 
ENDBRANCH   9  15
ENDBRANCH   8   9
ENDBRANCH   6   8
ENDBRANCH   3   4
ENDBRANCH   2   3
ENDBRANCH   1   2
BRANCH   1  20
ATOM     20  C   UNL     1       5.860   3.906   5.710  1.00  0.00     0.002 C 
BRANCH  20  21
ATOM     21  C   UNL     1       6.023   3.747   7.228  1.00  0.00     0.021 C 
BRANCH  21  22
ATOM     22  C   UNL     1       7.256   4.450   7.795  1.00  0.00     0.116 C 
BRANCH  22  23
ATOM     23  N   UNL     1       7.129   5.893   7.687  1.00  0.00    -0.352 N 
ATOM     24  C   UNL     1       7.958   6.885   8.142  1.00  0.00     0.251 C 
ATOM     25  H   UNL     1       6.324   6.207   7.214  1.00  0.00     0.163 HD
ATOM     26  O   UNL     1       7.512   8.017   8.292  1.00  0.00    -0.269 OA
BRANCH  24  27
ATOM     27  C   UNL     1       9.376   6.619   8.462  1.00  0.00     0.039 A 
ATOM     28  C   UNL     1       9.940   7.295   9.552  1.00  0.00     0.014 A 
ATOM     29  C   UNL     1      10.175   5.809   7.647  1.00  0.00     0.014 A 
ATOM     30  C   UNL     1      11.285   7.115   9.859  1.00  0.00     0.010 A 
ATOM     31  C   UNL     1      11.516   5.609   7.963  1.00  0.00     0.010 A 
ATOM     32  C   UNL     1      12.065   6.252   9.078  1.00  0.00    -0.014 A 
BRANCH  32  33
ATOM     33  C   UNL     1      13.413   5.880   9.561  1.00  0.00     0.031 A 
ATOM     34  C   UNL     1      13.341   4.819  10.674  1.00  0.00     0.074 A 
ATOM     35  C   UNL     1      14.482   6.527   9.002  1.00  0.00     0.049 A 
ATOM     36  N   UNL     1      14.197   4.539  11.605  1.00  0.00    -0.248 NA
ATOM     37  C   UNL     1      12.118   3.975  10.808  1.00  0.00     0.031 C 
ATOM     38  C   UNL     1      14.384   7.502   7.892  1.00  0.00     0.029 A 
ATOM     39  N   UNL     1      15.845   6.516   9.232  1.00  0.00    -0.354 N 
ATOM     40  C   UNL     1      13.707   3.429  12.332  1.00  0.00     0.074 A 
ATOM     41  C   UNL     1      12.388   3.174  11.842  1.00  0.00     0.031 C 
ATOM     42  C   UNL     1      15.592   8.036   7.606  1.00  0.00     0.029 A 
ATOM     43  C   UNL     1      16.594   7.466   8.485  1.00  0.00     0.049 A 
ATOM     44  H   UNL     1      16.267   5.895   9.868  1.00  0.00     0.167 HD
ATOM     45  C   UNL     1      14.474   2.724  13.215  1.00  0.00     0.031 A 
ATOM     46  C   UNL     1      17.915   7.809   8.594  1.00  0.00     0.031 A 
ATOM     47  C   UNL     1      15.739   3.352  13.371  1.00  0.00     0.049 A 
ATOM     48  C   UNL     1      18.506   6.866   9.551  1.00  0.00     0.074 A 
ATOM     49  C   UNL     1      16.120   4.526  13.966  1.00  0.00     0.029 A 
ATOM     50  N   UNL     1      16.732   2.924  12.526  1.00  0.00    -0.354 N 
ATOM     51  N   UNL     1      18.784   5.625   9.297  1.00  0.00    -0.248 NA
ATOM     52  C   UNL     1      18.772   7.324  10.921  1.00  0.00     0.031 C 
ATOM     53  C   UNL     1      17.091   5.028  13.075  1.00  0.00     0.029 A 
ATOM     54  C   UNL     1      17.419   4.043  12.136  1.00  0.00     0.049 A 
ATOM     55  H   UNL     1      16.915   1.996  12.254  1.00  0.00     0.167 HD
ATOM     56  C   UNL     1      18.856   5.090  10.558  1.00  0.00     0.074 A 
ATOM     57  C   UNL     1      19.188   6.178  11.453  1.00  0.00     0.031 C 
ATOM     58  C   UNL     1      18.090   4.011  10.861  1.00  0.00     0.031 A 
BRANCH  45  59
ATOM     59  C   UNL     1      14.321   1.349  13.806  1.00  0.00    -0.014 A 
ATOM     60  C   UNL     1      15.217   0.987  14.844  1.00  0.00     0.009 A 
ATOM     61  C   UNL     1      13.616   0.317  13.182  1.00  0.00     0.009 A 
ATOM     62  C   UNL     1      15.498  -0.346  15.147  1.00  0.00     0.001 A 
ATOM     63  C   UNL     1      13.869  -1.023  13.515  1.00  0.00     0.001 A 
ATOM     64  C   UNL     1      14.835  -1.354  14.464  1.00  0.00     0.000 A 
ENDBRANCH  45  59
BRANCH  46  65
ATOM     65  C   UNL     1      18.855   8.879   8.088  1.00  0.00    -0.014 A 
ATOM     66  C   UNL     1      18.580   9.822   7.096  1.00  0.00     0.009 A 
ATOM     67  C   UNL     1      20.133   9.007   8.708  1.00  0.00     0.009 A 
ATOM     68  C   UNL     1      19.485  10.873   6.820  1.00  0.00     0.001 A 
ATOM     69  C   UNL     1      21.009  10.069   8.475  1.00  0.00     0.001 A 
ATOM     70  C   UNL     1      20.676  11.018   7.532  1.00  0.00     0.000 A 
ENDBRANCH  46  65
BRANCH  58  71
ATOM     71  C   UNL     1      17.695   3.142   9.678  1.00  0.00    -0.014 A 
ATOM     72  C   UNL     1      18.697   2.551   8.890  1.00  0.00     0.009 A 
ATOM     73  C   UNL     1      16.365   2.980   9.251  1.00  0.00     0.009 A 
ATOM     74  C   UNL     1      18.387   1.846   7.720  1.00  0.00     0.001 A 
ATOM     75  C   UNL     1      16.050   2.272   8.079  1.00  0.00     0.001 A 
ATOM     76  C   UNL     1      17.064   1.707   7.312  1.00  0.00     0.000 A 
ENDBRANCH  58  71
ENDBRANCH  32  33
ENDBRANCH  24  27
ENDBRANCH  22  23
ENDBRANCH  21  22
ENDBRANCH  20  21
ENDBRANCH   1  20
TORSDOF 16
