REMARK SMILES COc1ccc(/C=C2/SC(=S)N(NC(=O)c3ccc(C(C)(C)C)cc3)C2=O)c(C(=O)NCCCCCCNC(=O)c2ccc(-c3c4nc(c(-c5ccccc5)c5ccc([nH]5)c(-c5ccccc5)c5nc(c(-c6ccccc6)c6ccc3[nH]6)C=C5)C=C4)cc2)c1OC
REMARK SMILES IDX 33 1 32 2 31 3 29 4 30 5 28 7 3 8 4 9 89 10 5 11 6 12 2 13
REMARK SMILES IDX 1 14 90 15 91 16 7 17 8 18 9 19 26 20 10 21 12 22 27 23
REMARK SMILES IDX 11 24 13 25 14 26 15 28 16 29 17 30 25 31 18 32 24 33 19 34
REMARK SMILES IDX 20 35 21 36 22 37 23 38 34 39 35 40 36 41 37 42 38 43 39 44
REMARK SMILES IDX 40 46 41 47 42 48 88 49 43 50 87 51 44 52 45 53 46 54 81 55
REMARK SMILES IDX 47 56 86 57 80 58 82 59 48 60 85 61 79 62 78 63 49 65 71 66
REMARK SMILES IDX 56 67 70 68 57 69 60 70 69 71 83 72 58 73 59 74 68 76 84 77
REMARK SMILES IDX 61 78 50 79 51 80 55 81 52 82 54 83 53 84 72 85 73 86 77 87
REMARK SMILES IDX 74 88 76 89 75 90 62 91 63 92 67 93 64 94 66 95 65 96
REMARK H PARENT 31 6 13 27 38 45 82 64 60 75
REMARK Flexibility Score: inf
ROOT
ATOM      1  C   UNL     1       5.829   0.342   1.819  1.00  0.00     0.021 C 
ENDROOT
BRANCH   1   2
ATOM      2  C   UNL     1       4.741  -0.720   1.915  1.00  0.00     0.116 C 
BRANCH   2   3
ATOM      3  N   UNL     1       4.975  -1.795   2.851  1.00  0.00    -0.352 N 
ATOM      4  C   UNL     1       4.035  -2.586   3.481  1.00  0.00     0.255 C 
ATOM      5  O   UNL     1       4.413  -3.473   4.246  1.00  0.00    -0.269 OA
ATOM      6  H   UNL     1       5.917  -1.986   3.066  1.00  0.00     0.163 HD
BRANCH   4   7
ATOM      7  C   UNL     1       2.575  -2.322   3.322  1.00  0.00     0.092 A 
ATOM      8  C   UNL     1       0.566  -2.174   1.934  1.00  0.00     0.161 A 
ATOM      9  C   UNL     1      -0.196  -1.903   3.071  1.00  0.00     0.051 A 
ATOM     10  C   UNL     1       1.954  -2.390   2.048  1.00  0.00     0.174 A 
ATOM     11  C   UNL     1       0.410  -1.871   4.330  1.00  0.00     0.013 A 
ATOM     12  C   UNL     1       1.792  -2.096   4.480  1.00  0.00    -0.007 A 
BRANCH   8  13
ATOM     13  O   UNL     1      -0.091  -2.434   0.756  1.00  0.00    -0.493 OA
ATOM     14  C   UNL     1      -0.576  -1.262   0.103  1.00  0.00     0.278 C 
ENDBRANCH   8  13
BRANCH  10  15
ATOM     15  O   UNL     1       2.719  -2.806   0.983  1.00  0.00    -0.492 OA
ATOM     16  C   UNL     1       2.584  -2.020  -0.200  1.00  0.00     0.278 C 
ENDBRANCH  10  15
BRANCH  12  17
ATOM     17  C   UNL     1       2.259  -2.237   5.875  1.00  0.00     0.030 C 
ATOM     18  C   UNL     1       3.181  -1.540   6.557  1.00  0.00     0.082 C 
ATOM     19  S   UNL     1       3.522  -1.877   8.224  1.00  0.00    -0.052 SA
ATOM     20  C   UNL     1       4.005  -0.387   6.097  1.00  0.00     0.285 C 
ATOM     21  C   UNL     1       4.620  -0.518   8.381  1.00  0.00     0.168 C 
ATOM     22  N   UNL     1       4.656   0.178   7.187  1.00  0.00    -0.198 N 
ATOM     23  O   UNL     1       4.078  -0.020   4.933  1.00  0.00    -0.266 OA
ATOM     24  S   UNL     1       5.473  -0.186   9.776  1.00  0.00    -0.050 S 
BRANCH  22  25
ATOM     25  N   UNL     1       5.492   1.307   7.065  1.00  0.00    -0.255 N 
ATOM     26  C   UNL     1       5.228   2.507   6.436  1.00  0.00     0.270 C 
ATOM     27  H   UNL     1       6.381   1.228   7.482  1.00  0.00     0.192 HD
ATOM     28  O   UNL     1       6.074   3.401   6.459  1.00  0.00    -0.267 OA
BRANCH  26  29
ATOM     29  C   UNL     1       3.995   2.724   5.653  1.00  0.00     0.041 A 
ATOM     30  C   UNL     1       4.154   3.106   4.320  1.00  0.00     0.014 A 
ATOM     31  C   UNL     1       2.720   2.472   6.159  1.00  0.00     0.014 A 
ATOM     32  C   UNL     1       3.058   3.092   3.458  1.00  0.00     0.005 A 
ATOM     33  C   UNL     1       1.626   2.446   5.285  1.00  0.00     0.005 A 
ATOM     34  C   UNL     1       1.786   2.687   3.907  1.00  0.00    -0.043 A 
BRANCH  34  35
ATOM     35  C   UNL     1       0.690   2.375   2.875  1.00  0.00    -0.013 C 
ATOM     36  C   UNL     1       0.296   3.613   2.052  1.00  0.00     0.016 C 
ATOM     37  C   UNL     1       1.252   1.321   1.904  1.00  0.00     0.016 C 
ATOM     38  C   UNL     1      -0.600   1.786   3.488  1.00  0.00     0.016 C 
ENDBRANCH  34  35
ENDBRANCH  26  29
ENDBRANCH  22  25
ENDBRANCH  12  17
ENDBRANCH   4   7
ENDBRANCH   2   3
ENDBRANCH   1   2
BRANCH   1  39
ATOM     39  C   UNL     1       7.221  -0.160   1.425  1.00  0.00     0.002 C 
BRANCH  39  40
ATOM     40  C   UNL     1       7.296  -1.133   0.243  1.00  0.00     0.002 C 
BRANCH  40  41
ATOM     41  C   UNL     1       6.692  -0.651  -1.078  1.00  0.00     0.021 C 
BRANCH  41  42
ATOM     42  C   UNL     1       7.226   0.676  -1.604  1.00  0.00     0.116 C 
BRANCH  42  43
ATOM     43  N   UNL     1       8.662   0.658  -1.826  1.00  0.00    -0.352 N 
ATOM     44  C   UNL     1       9.383   0.914  -2.966  1.00  0.00     0.251 C 
ATOM     45  H   UNL     1       9.202   0.426  -1.036  1.00  0.00     0.163 HD
ATOM     46  O   UNL     1      10.590   0.691  -2.995  1.00  0.00    -0.269 OA
BRANCH  44  47
ATOM     47  C   UNL     1       8.706   1.433  -4.174  1.00  0.00     0.039 A 
ATOM     48  C   UNL     1       9.014   0.866  -5.414  1.00  0.00     0.014 A 
ATOM     49  C   UNL     1       7.778   2.474  -4.091  1.00  0.00     0.014 A 
ATOM     50  C   UNL     1       8.332   1.288  -6.558  1.00  0.00     0.010 A 
ATOM     51  C   UNL     1       7.047   2.842  -5.218  1.00  0.00     0.010 A 
ATOM     52  C   UNL     1       7.311   2.247  -6.462  1.00  0.00    -0.014 A 
BRANCH  52  53
ATOM     53  C   UNL     1       6.489   2.619  -7.642  1.00  0.00     0.031 A 
ATOM     54  C   UNL     1       6.512   4.025  -8.175  1.00  0.00     0.074 A 
ATOM     55  C   UNL     1       5.669   1.704  -8.194  1.00  0.00     0.049 A 
ATOM     56  N   UNL     1       5.812   4.550  -9.149  1.00  0.00    -0.248 NA
ATOM     57  C   UNL     1       7.425   4.971  -7.513  1.00  0.00     0.031 C 
ATOM     58  C   UNL     1       5.532   0.313  -7.756  1.00  0.00     0.029 A 
ATOM     59  N   UNL     1       4.788   1.808  -9.242  1.00  0.00    -0.354 N 
ATOM     60  C   UNL     1       6.190   5.885  -9.210  1.00  0.00     0.074 A 
ATOM     61  C   UNL     1       7.142   6.103  -8.141  1.00  0.00     0.031 C 
ATOM     62  C   UNL     1       4.644  -0.312  -8.546  1.00  0.00     0.029 A 
ATOM     63  C   UNL     1       4.111   0.643  -9.512  1.00  0.00     0.049 A 
ATOM     64  H   UNL     1       4.653   2.639  -9.753  1.00  0.00     0.167 HD
ATOM     65  C   UNL     1       5.796   6.840 -10.086  1.00  0.00     0.031 A 
ATOM     66  C   UNL     1       3.158   0.373 -10.424  1.00  0.00     0.031 A 
ATOM     67  C   UNL     1       4.846   6.623 -11.146  1.00  0.00     0.049 A 
ATOM     68  C   UNL     1       2.701   1.465 -11.352  1.00  0.00     0.074 A 
ATOM     69  C   UNL     1       4.417   7.516 -12.113  1.00  0.00     0.029 A 
ATOM     70  N   UNL     1       4.173   5.433 -11.374  1.00  0.00    -0.354 N 
ATOM     71  N   UNL     1       3.116   2.705 -11.437  1.00  0.00    -0.248 NA
ATOM     72  C   UNL     1       1.647   1.115 -12.315  1.00  0.00     0.031 C 
ATOM     73  C   UNL     1       3.436   6.886 -12.884  1.00  0.00     0.029 A 
ATOM     74  C   UNL     1       3.306   5.579 -12.444  1.00  0.00     0.049 A 
ATOM     75  H   UNL     1       4.294   4.607 -10.852  1.00  0.00     0.167 HD
ATOM     76  C   UNL     1       2.396   3.275 -12.480  1.00  0.00     0.074 A 
ATOM     77  C   UNL     1       1.532   2.240 -13.008  1.00  0.00     0.031 C 
ATOM     78  C   UNL     1       2.448   4.542 -12.958  1.00  0.00     0.031 A 
BRANCH  65  79
ATOM     79  C   UNL     1       6.383   8.216  -9.925  1.00  0.00    -0.014 A 
ATOM     80  C   UNL     1       7.738   8.467 -10.193  1.00  0.00     0.009 A 
ATOM     81  C   UNL     1       5.560   9.286  -9.539  1.00  0.00     0.009 A 
ATOM     82  C   UNL     1       8.265   9.752 -10.041  1.00  0.00     0.001 A 
ATOM     83  C   UNL     1       6.081  10.575  -9.419  1.00  0.00     0.001 A 
ATOM     84  C   UNL     1       7.435  10.805  -9.660  1.00  0.00     0.000 A 
ENDBRANCH  65  79
BRANCH  66  85
ATOM     85  C   UNL     1       2.568  -0.990 -10.509  1.00  0.00    -0.014 A 
ATOM     86  C   UNL     1       2.810  -1.803 -11.627  1.00  0.00     0.009 A 
ATOM     87  C   UNL     1       1.750  -1.481  -9.480  1.00  0.00     0.009 A 
ATOM     88  C   UNL     1       2.221  -3.065 -11.726  1.00  0.00     0.001 A 
ATOM     89  C   UNL     1       1.189  -2.757  -9.566  1.00  0.00     0.001 A 
ATOM     90  C   UNL     1       1.416  -3.543 -10.694  1.00  0.00     0.000 A 
ENDBRANCH  66  85
BRANCH  78  91
ATOM     91  C   UNL     1       1.570   4.874 -14.133  1.00  0.00    -0.014 A 
ATOM     92  C   UNL     1       0.177   4.979 -13.998  1.00  0.00     0.009 A 
ATOM     93  C   UNL     1       2.154   5.135 -15.383  1.00  0.00     0.009 A 
ATOM     94  C   UNL     1      -0.615   5.307 -15.101  1.00  0.00     0.001 A 
ATOM     95  C   UNL     1       1.363   5.495 -16.474  1.00  0.00     0.001 A 
ATOM     96  C   UNL     1      -0.022   5.572 -16.335  1.00  0.00     0.000 A 
ENDBRANCH  78  91
ENDBRANCH  52  53
ENDBRANCH  44  47
ENDBRANCH  42  43
ENDBRANCH  41  42
ENDBRANCH  40  41
ENDBRANCH  39  40
ENDBRANCH   1  39
TORSDOF 19
