REMARK SMILES O=C(NCCCCCCNC(=O)[C@H](CO)NC(=O)[C@H](Cc1ccc(O)cc1)NC(=O)c1ccc(F)cc1)c1ccc(-c2c3nc(c(-c4ccccc4)c4ccc([nH]4)c(-c4ccccc4)c4nc(c(-c5ccccc5)c5ccc2[nH]5)C=C4)C=C3)cc1
REMARK SMILES IDX 8 1 7 2 6 3 5 4 4 5 3 6 1 7 2 8 38 10 39 11 85 12 40 13
REMARK SMILES IDX 84 14 41 15 42 16 43 17 78 18 44 19 83 20 77 21 79 22 45 23
REMARK SMILES IDX 82 24 76 25 75 26 46 28 68 29 53 30 67 31 54 32 57 33 66 34
REMARK SMILES IDX 80 35 55 36 56 37 65 39 81 40 58 41 47 42 48 43 52 44 49 45
REMARK SMILES IDX 51 46 50 47 69 48 70 49 74 50 71 51 73 52 72 53 59 54 60 55
REMARK SMILES IDX 64 56 61 57 63 58 62 59 9 60 10 61 11 62 12 64 13 65 16 66
REMARK SMILES IDX 17 67 18 69 19 70 28 71 29 72 30 74 31 75 32 76 37 77 33 78
REMARK SMILES IDX 36 79 34 80 35 81 20 82 21 83 22 84 27 85 23 86 26 87 24 88
REMARK SMILES IDX 25 89 14 91 15 92
REMARK H PARENT 3 9 79 27 57 38 10 63 16 68 28 73 25 90 15 93
REMARK Flexibility Score: inf
ROOT
ATOM      1  C   UNL     1       7.237  -1.591  -6.868  1.00  0.00     0.021 C 
ENDROOT
BRANCH   1   2
ATOM      2  C   UNL     1       5.745  -1.313  -7.023  1.00  0.00     0.002 C 
BRANCH   2   3
ATOM      3  C   UNL     1       4.965  -2.218  -7.979  1.00  0.00     0.002 C 
BRANCH   3   4
ATOM      4  C   UNL     1       5.160  -3.730  -7.840  1.00  0.00     0.021 C 
BRANCH   4   5
ATOM      5  C   UNL     1       5.030  -4.312  -6.438  1.00  0.00     0.116 C 
BRANCH   5   6
ATOM      6  N   UNL     1       3.743  -4.049  -5.826  1.00  0.00    -0.352 N 
ATOM      7  O   UNL     1       1.740  -4.505  -4.907  1.00  0.00    -0.269 OA
ATOM      8  C   UNL     1       2.830  -4.921  -5.290  1.00  0.00     0.251 C 
ATOM      9  H   UNL     1       3.485  -3.099  -5.789  1.00  0.00     0.163 HD
BRANCH   8  10
ATOM     10  C   UNL     1       3.135  -6.367  -5.194  1.00  0.00     0.039 A 
ATOM     11  C   UNL     1       4.366  -6.826  -4.716  1.00  0.00     0.014 A 
ATOM     12  C   UNL     1       2.141  -7.282  -5.556  1.00  0.00     0.014 A 
ATOM     13  C   UNL     1       4.642  -8.192  -4.709  1.00  0.00     0.010 A 
ATOM     14  C   UNL     1       2.395  -8.654  -5.482  1.00  0.00     0.010 A 
ATOM     15  C   UNL     1       3.655  -9.120  -5.079  1.00  0.00    -0.014 A 
BRANCH  15  16
ATOM     16  C   UNL     1       3.930 -10.573  -4.965  1.00  0.00     0.031 A 
ATOM     17  C   UNL     1       4.014 -11.449  -6.182  1.00  0.00     0.074 A 
ATOM     18  C   UNL     1       4.107 -11.103  -3.739  1.00  0.00     0.049 A 
ATOM     19  N   UNL     1       4.256 -12.735  -6.253  1.00  0.00    -0.248 NA
ATOM     20  C   UNL     1       3.792 -10.806  -7.486  1.00  0.00     0.031 C 
ATOM     21  C   UNL     1       4.031 -10.359  -2.480  1.00  0.00     0.029 A 
ATOM     22  N   UNL     1       4.398 -12.386  -3.352  1.00  0.00    -0.354 N 
ATOM     23  C   UNL     1       4.195 -13.058  -7.602  1.00  0.00     0.074 A 
ATOM     24  C   UNL     1       3.878 -11.838  -8.315  1.00  0.00     0.031 C 
ATOM     25  C   UNL     1       4.308 -11.189  -1.463  1.00  0.00     0.029 A 
ATOM     26  C   UNL     1       4.531 -12.529  -1.993  1.00  0.00     0.049 A 
ATOM     27  H   UNL     1       4.500 -13.131  -3.986  1.00  0.00     0.167 HD
ATOM     28  C   UNL     1       4.389 -14.262  -8.193  1.00  0.00     0.031 A 
ATOM     29  C   UNL     1       4.795 -13.619  -1.250  1.00  0.00     0.031 A 
ATOM     30  C   UNL     1       4.711 -15.475  -7.487  1.00  0.00     0.049 A 
ATOM     31  C   UNL     1       4.997 -14.939  -1.929  1.00  0.00     0.074 A 
ATOM     32  C   UNL     1       4.966 -16.733  -8.006  1.00  0.00     0.029 A 
ATOM     33  N   UNL     1       4.817 -15.582  -6.109  1.00  0.00    -0.354 N 
ATOM     34  N   UNL     1       4.974 -15.218  -3.209  1.00  0.00    -0.248 NA
ATOM     35  C   UNL     1       5.261 -16.094  -1.061  1.00  0.00     0.031 C 
ATOM     36  C   UNL     1       5.188 -17.611  -6.939  1.00  0.00     0.029 A 
ATOM     37  C   UNL     1       5.112 -16.889  -5.758  1.00  0.00     0.049 A 
ATOM     38  H   UNL     1       4.701 -14.838  -5.474  1.00  0.00     0.167 HD
ATOM     39  C   UNL     1       5.228 -16.579  -3.303  1.00  0.00     0.074 A 
ATOM     40  C   UNL     1       5.424 -17.064  -1.951  1.00  0.00     0.031 C 
ATOM     41  C   UNL     1       5.291 -17.357  -4.410  1.00  0.00     0.031 A 
BRANCH  28  42
ATOM     42  C   UNL     1       4.236 -14.335  -9.686  1.00  0.00    -0.014 A 
ATOM     43  C   UNL     1       5.223 -13.827 -10.544  1.00  0.00     0.009 A 
ATOM     44  C   UNL     1       3.111 -14.967 -10.240  1.00  0.00     0.009 A 
ATOM     45  C   UNL     1       5.073 -13.928 -11.930  1.00  0.00     0.001 A 
ATOM     46  C   UNL     1       2.974 -15.085 -11.624  1.00  0.00     0.001 A 
ATOM     47  C   UNL     1       3.952 -14.560 -12.468  1.00  0.00     0.000 A 
ENDBRANCH  28  42
BRANCH  29  48
ATOM     48  C   UNL     1       4.876 -13.496   0.226  1.00  0.00    -0.014 A 
ATOM     49  C   UNL     1       6.116 -13.558   0.878  1.00  0.00     0.009 A 
ATOM     50  C   UNL     1       3.715 -13.284   0.986  1.00  0.00     0.009 A 
ATOM     51  C   UNL     1       6.190 -13.423   2.266  1.00  0.00     0.001 A 
ATOM     52  C   UNL     1       3.796 -13.126   2.370  1.00  0.00     0.001 A 
ATOM     53  C   UNL     1       5.032 -13.201   3.009  1.00  0.00     0.000 A 
ENDBRANCH  29  48
BRANCH  41  54
ATOM     54  C   UNL     1       5.594 -18.811  -4.199  1.00  0.00    -0.014 A 
ATOM     55  C   UNL     1       4.614 -19.689  -3.709  1.00  0.00     0.009 A 
ATOM     56  C   UNL     1       6.865 -19.312  -4.516  1.00  0.00     0.009 A 
ATOM     57  C   UNL     1       4.914 -21.038  -3.512  1.00  0.00     0.001 A 
ATOM     58  C   UNL     1       7.154 -20.666  -4.338  1.00  0.00     0.001 A 
ATOM     59  C   UNL     1       6.181 -21.525  -3.829  1.00  0.00     0.000 A 
ENDBRANCH  41  54
ENDBRANCH  15  16
ENDBRANCH   8  10
ENDBRANCH   5   6
ENDBRANCH   4   5
ENDBRANCH   3   4
ENDBRANCH   2   3
ENDBRANCH   1   2
BRANCH   1  60
ATOM     60  C   UNL     1       8.028  -1.752  -8.155  1.00  0.00     0.116 C 
BRANCH  60  61
ATOM     61  N   UNL     1       8.258  -0.538  -8.890  1.00  0.00    -0.354 N 
ATOM     62  C   UNL     1       9.259  -0.298  -9.794  1.00  0.00     0.244 C 
ATOM     63  H   UNL     1       7.628   0.201  -8.725  1.00  0.00     0.163 HD
ATOM     64  O   UNL     1       9.242   0.797 -10.365  1.00  0.00    -0.273 OA
BRANCH  62  65
ATOM     65  C   UNL     1      10.475  -1.265  -9.930  1.00  0.00     0.197 C 
BRANCH  65  66
ATOM     66  N   UNL     1      10.143  -2.702  -9.906  1.00  0.00    -0.340 N 
ATOM     67  C   UNL     1      10.546  -3.761  -9.152  1.00  0.00     0.243 C 
ATOM     68  H   UNL     1       9.479  -2.951 -10.588  1.00  0.00     0.164 HD
ATOM     69  O   UNL     1       9.941  -4.823  -9.349  1.00  0.00    -0.273 OA
BRANCH  67  70
ATOM     70  C   UNL     1      11.558  -3.683  -7.976  1.00  0.00     0.176 C 
BRANCH  70  71
ATOM     71  N   UNL     1      12.550  -2.618  -8.090  1.00  0.00    -0.340 N 
ATOM     72  C   UNL     1      13.844  -2.665  -8.532  1.00  0.00     0.251 C 
ATOM     73  H   UNL     1      12.240  -1.728  -7.804  1.00  0.00     0.164 HD
ATOM     74  O   UNL     1      14.502  -1.635  -8.604  1.00  0.00    -0.269 OA
BRANCH  72  75
ATOM     75  C   UNL     1      14.478  -3.966  -8.810  1.00  0.00     0.040 A 
ATOM     76  C   UNL     1      14.002  -4.826  -9.806  1.00  0.00     0.017 A 
ATOM     77  C   UNL     1      15.575  -4.326  -8.016  1.00  0.00     0.017 A 
ATOM     78  C   UNL     1      14.598  -6.079  -9.965  1.00  0.00     0.040 A 
ATOM     79  C   UNL     1      16.170  -5.574  -8.188  1.00  0.00     0.040 A 
ATOM     80  C   UNL     1      15.670  -6.442  -9.153  1.00  0.00     0.123 A 
ATOM     81  F   UNL     1      16.229  -7.649  -9.302  1.00  0.00    -0.207 F 
ENDBRANCH  72  75
ENDBRANCH  70  71
BRANCH  70  82
ATOM     82  C   UNL     1      10.815  -3.756  -6.615  1.00  0.00     0.070 C 
BRANCH  82  83
ATOM     83  C   UNL     1      11.263  -2.799  -5.534  1.00  0.00    -0.045 A 
ATOM     84  C   UNL     1      10.918  -1.439  -5.578  1.00  0.00     0.007 A 
ATOM     85  C   UNL     1      12.048  -3.262  -4.469  1.00  0.00     0.007 A 
ATOM     86  C   UNL     1      11.379  -0.553  -4.603  1.00  0.00     0.046 A 
ATOM     87  C   UNL     1      12.497  -2.379  -3.485  1.00  0.00     0.046 A 
ATOM     88  C   UNL     1      12.172  -1.031  -3.567  1.00  0.00     0.115 A 
BRANCH  88  89
ATOM     89  O   UNL     1      12.660  -0.199  -2.605  1.00  0.00    -0.508 OA
ATOM     90  H   UNL     1      12.460   0.716  -2.631  1.00  0.00     0.293 HD
ENDBRANCH  88  89
ENDBRANCH  82  83
ENDBRANCH  70  82
ENDBRANCH  67  70
ENDBRANCH  65  66
BRANCH  65  91
ATOM     91  C   UNL     1      11.225  -0.943 -11.235  1.00  0.00     0.191 C 
BRANCH  91  92
ATOM     92  O   UNL     1      10.394  -1.214 -12.370  1.00  0.00    -0.394 OA
ATOM     93  H   UNL     1      10.151  -2.153 -12.377  1.00  0.00     0.210 HD
ENDBRANCH  91  92
ENDBRANCH  65  91
ENDBRANCH  62  65
ENDBRANCH  60  61
ENDBRANCH   1  60
TORSDOF 22
