REMARK SMILES O=C(NCCCCCCNC(=O)[C@]1(NC(=O)C2CCN(C(=O)C3CC3)CC2)CCCc2ccccc21)c1ccc(-c2c3nc(c(-c4ccccc4)c4ccc([nH]4)c(-c4ccccc4)c4nc(c(-c5ccccc5)c5ccc2[nH]5)C=C4)C=C3)cc1
REMARK SMILES IDX 7 1 6 2 5 3 4 4 3 5 1 6 2 7 37 9 38 10 84 11 39 12 83 13
REMARK SMILES IDX 40 14 41 15 42 16 77 17 43 18 82 19 76 20 78 21 44 22 81 23
REMARK SMILES IDX 75 24 74 25 45 27 67 28 52 29 66 30 53 31 56 32 65 33 79 34
REMARK SMILES IDX 54 35 55 36 64 38 80 39 57 40 46 41 47 42 51 43 48 44 50 45
REMARK SMILES IDX 49 46 68 47 69 48 73 49 70 50 72 51 71 52 58 53 59 54 63 55
REMARK SMILES IDX 60 56 62 57 61 58 8 59 9 60 10 61 11 62 12 64 13 65 28 66
REMARK SMILES IDX 36 67 29 68 31 69 35 70 30 71 32 72 34 73 33 74 14 75 15 76
REMARK SMILES IDX 16 78 17 79 18 80 27 81 19 82 26 83 20 84 21 85 22 86 23 87
REMARK SMILES IDX 24 88 25 89
REMARK H PARENT 3 8 78 26 56 37 10 63 14 77
REMARK Flexibility Score: inf
ROOT
ATOM      1  C   UNL     1       5.128  -3.096   3.147  1.00  0.00     0.002 C 
ENDROOT
BRANCH   1   2
ATOM      2  C   UNL     1       4.225  -1.404   3.353  1.00  0.00     0.002 C 
BRANCH   2   3
ATOM      3  C   UNL     1       4.564   0.084   2.182  1.00  0.00     0.021 C 
BRANCH   3   4
ATOM      4  C   UNL     1       4.837   0.200   0.458  1.00  0.00     0.116 C 
BRANCH   4   5
ATOM      5  N   UNL     1       4.040  -0.555  -0.579  1.00  0.00    -0.352 N 
ATOM      6  O   UNL     1       2.088  -0.886  -1.782  1.00  0.00    -0.269 OA
ATOM      7  C   UNL     1       2.994  -0.187  -1.400  1.00  0.00     0.251 C 
ATOM      8  H   UNL     1       4.322  -1.492  -0.691  1.00  0.00     0.163 HD
BRANCH   7   9
ATOM      9  C   UNL     1       3.232   1.101  -1.995  1.00  0.00     0.039 A 
ATOM     10  C   UNL     1       4.465   1.121  -2.648  1.00  0.00     0.014 A 
ATOM     11  C   UNL     1       2.452   2.215  -1.709  1.00  0.00     0.014 A 
ATOM     12  C   UNL     1       5.039   2.327  -2.867  1.00  0.00     0.010 A 
ATOM     13  C   UNL     1       2.976   3.437  -2.064  1.00  0.00     0.010 A 
ATOM     14  C   UNL     1       4.262   3.468  -2.629  1.00  0.00    -0.014 A 
BRANCH  14  15
ATOM     15  C   UNL     1       4.776   4.676  -3.240  1.00  0.00     0.031 A 
ATOM     16  C   UNL     1       5.434   5.697  -2.405  1.00  0.00     0.074 A 
ATOM     17  C   UNL     1       4.721   4.665  -4.581  1.00  0.00     0.049 A 
ATOM     18  N   UNL     1       6.020   6.788  -2.797  1.00  0.00    -0.248 NA
ATOM     19  C   UNL     1       5.437   5.481  -0.948  1.00  0.00     0.031 C 
ATOM     20  C   UNL     1       4.113   3.590  -5.388  1.00  0.00     0.029 A 
ATOM     21  N   UNL     1       5.228   5.523  -5.499  1.00  0.00    -0.354 N 
ATOM     22  C   UNL     1       6.429   7.419  -1.637  1.00  0.00     0.074 A 
ATOM     23  C   UNL     1       6.037   6.584  -0.522  1.00  0.00     0.031 C 
ATOM     24  C   UNL     1       4.352   3.823  -6.681  1.00  0.00     0.029 A 
ATOM     25  C   UNL     1       5.012   5.110  -6.788  1.00  0.00     0.049 A 
ATOM     26  H   UNL     1       5.700   6.354  -5.266  1.00  0.00     0.167 HD
ATOM     27  C   UNL     1       7.050   8.614  -1.553  1.00  0.00     0.031 A 
ATOM     28  C   UNL     1       5.277   5.749  -7.934  1.00  0.00     0.031 A 
ATOM     29  C   UNL     1       7.362   9.395  -2.723  1.00  0.00     0.049 A 
ATOM     30  C   UNL     1       5.920   7.088  -7.801  1.00  0.00     0.074 A 
ATOM     31  C   UNL     1       7.968  10.631  -2.804  1.00  0.00     0.029 A 
ATOM     32  N   UNL     1       7.071   8.999  -4.028  1.00  0.00    -0.354 N 
ATOM     33  N   UNL     1       6.292   7.707  -6.703  1.00  0.00    -0.248 NA
ATOM     34  C   UNL     1       6.170   7.822  -9.038  1.00  0.00     0.031 C 
ATOM     35  C   UNL     1       7.992  11.007  -4.153  1.00  0.00     0.029 A 
ATOM     36  C   UNL     1       7.463   9.977  -4.922  1.00  0.00     0.049 A 
ATOM     37  H   UNL     1       6.648   8.145  -4.277  1.00  0.00     0.167 HD
ATOM     38  C   UNL     1       6.829   8.911  -7.110  1.00  0.00     0.074 A 
ATOM     39  C   UNL     1       6.748   8.918  -8.564  1.00  0.00     0.031 C 
ATOM     40  C   UNL     1       7.342   9.919  -6.361  1.00  0.00     0.031 A 
BRANCH  27  41
ATOM     41  C   UNL     1       7.318   9.154  -0.179  1.00  0.00    -0.014 A 
ATOM     42  C   UNL     1       8.260   8.566   0.680  1.00  0.00     0.009 A 
ATOM     43  C   UNL     1       6.585  10.260   0.278  1.00  0.00     0.009 A 
ATOM     44  C   UNL     1       8.436   9.053   1.979  1.00  0.00     0.001 A 
ATOM     45  C   UNL     1       6.782  10.762   1.566  1.00  0.00     0.001 A 
ATOM     46  C   UNL     1       7.699  10.152   2.419  1.00  0.00     0.000 A 
ENDBRANCH  27  41
BRANCH  28  47
ATOM     47  C   UNL     1       4.862   5.128  -9.213  1.00  0.00    -0.014 A 
ATOM     48  C   UNL     1       5.807   4.595 -10.095  1.00  0.00     0.009 A 
ATOM     49  C   UNL     1       3.493   4.933  -9.482  1.00  0.00     0.009 A 
ATOM     50  C   UNL     1       5.391   3.877 -11.221  1.00  0.00     0.001 A 
ATOM     51  C   UNL     1       3.083   4.188 -10.587  1.00  0.00     0.001 A 
ATOM     52  C   UNL     1       4.033   3.664 -11.459  1.00  0.00     0.000 A 
ENDBRANCH  28  47
BRANCH  40  53
ATOM     53  C   UNL     1       7.884  11.081  -7.130  1.00  0.00    -0.014 A 
ATOM     54  C   UNL     1       7.030  12.014  -7.735  1.00  0.00     0.009 A 
ATOM     55  C   UNL     1       9.273  11.257  -7.210  1.00  0.00     0.009 A 
ATOM     56  C   UNL     1       7.564  13.094  -8.435  1.00  0.00     0.001 A 
ATOM     57  C   UNL     1       9.802  12.354  -7.883  1.00  0.00     0.001 A 
ATOM     58  C   UNL     1       8.947  13.266  -8.502  1.00  0.00     0.000 A 
ENDBRANCH  40  53
ENDBRANCH  14  15
ENDBRANCH   7   9
ENDBRANCH   4   5
ENDBRANCH   3   4
ENDBRANCH   2   3
ENDBRANCH   1   2
BRANCH   1  59
ATOM     59  C   UNL     1       7.203  -3.150   2.737  1.00  0.00     0.021 C 
BRANCH  59  60
ATOM     60  C   UNL     1       8.582  -2.791   3.963  1.00  0.00     0.116 C 
BRANCH  60  61
ATOM     61  N   UNL     1       8.503  -3.252   5.493  1.00  0.00    -0.354 N 
ATOM     62  C   UNL     1       8.357  -4.500   6.159  1.00  0.00     0.250 C 
ATOM     63  H   UNL     1       8.570  -2.495   6.119  1.00  0.00     0.163 HD
ATOM     64  O   UNL     1       7.628  -4.607   7.142  1.00  0.00    -0.272 OA
BRANCH  62  65
ATOM     65  C   UNL     1       9.466  -5.506   5.787  1.00  0.00     0.145 C 
ATOM     66  C   UNL     1       9.342  -7.047   5.868  1.00  0.00     0.044 C 
ATOM     67  C   UNL     1      10.643  -4.993   6.714  1.00  0.00    -0.010 A 
ATOM     68  C   UNL     1       9.547  -7.712   7.209  1.00  0.00     0.008 C 
ATOM     69  C   UNL     1      10.909  -5.755   7.882  1.00  0.00    -0.042 A 
ATOM     70  C   UNL     1      10.942  -3.612   6.794  1.00  0.00     0.007 A 
ATOM     71  C   UNL     1      10.835  -7.253   7.854  1.00  0.00     0.036 C 
ATOM     72  C   UNL     1      11.194  -5.126   9.108  1.00  0.00     0.004 A 
ATOM     73  C   UNL     1      11.145  -2.988   8.036  1.00  0.00     0.000 A 
ATOM     74  C   UNL     1      11.231  -3.743   9.198  1.00  0.00     0.000 A 
BRANCH  65  75
ATOM     75  N   UNL     1       9.379  -5.262   4.356  1.00  0.00    -0.338 N 
ATOM     76  C   UNL     1       8.150  -5.495   3.733  1.00  0.00     0.224 C 
ATOM     77  H   UNL     1      10.158  -4.945   3.844  1.00  0.00     0.164 HD
ATOM     78  O   UNL     1       8.227  -6.358   2.849  1.00  0.00    -0.275 OA
BRANCH  76  79
ATOM     79  C   UNL     1       6.617  -4.634   4.038  1.00  0.00     0.082 C 
ATOM     80  C   UNL     1       5.904  -5.023   2.285  1.00  0.00     0.035 C 
ATOM     81  C   UNL     1       6.376  -2.711   4.592  1.00  0.00     0.035 C 
ATOM     82  C   UNL     1       5.873  -3.686   0.963  1.00  0.00     0.120 C 
ATOM     83  C   UNL     1       6.327  -1.397   3.078  1.00  0.00     0.120 C 
ATOM     84  N   UNL     1       5.412  -2.073   1.495  1.00  0.00    -0.342 N 
ATOM     85  C   UNL     1       3.724  -2.121   1.130  1.00  0.00     0.225 C 
ATOM     86  O   UNL     1       3.439  -3.014   0.313  1.00  0.00    -0.275 OA
BRANCH  85  87
ATOM     87  C   UNL     1       2.303  -1.259   1.494  1.00  0.00     0.079 C 
ATOM     88  C   UNL     1       1.764  -0.307   2.577  1.00  0.00     0.014 C 
ATOM     89  C   UNL     1       1.895   0.200   1.187  1.00  0.00     0.014 C 
ENDBRANCH  85  87
ENDBRANCH  76  79
ENDBRANCH  65  75
ENDBRANCH  62  65
ENDBRANCH  60  61
ENDBRANCH  59  60
ENDBRANCH   1  59
TORSDOF 16
