REMARK SMILES NC(=O)c1c(F)cccc1N1CCC[C@H](CC(=O)NCCCCCCNC(=O)c2ccc(-c3c4nc(c(-c5ccccc5)c5ccc([nH]5)c(-c5ccccc5)c5nc(c(-c6ccccc6)c6ccc3[nH]6)C=C5)C=C4)cc2)C1
REMARK SMILES IDX 22 1 21 2 20 3 19 4 17 5 18 6 16 8 15 9 11 10 12 11 77 12
REMARK SMILES IDX 13 13 14 14 10 15 4 16 5 17 6 18 7 19 9 20 8 21 2 22 1 23
REMARK SMILES IDX 3 26 23 27 24 28 25 29 26 30 27 31 28 33 29 34 30 35 76 36
REMARK SMILES IDX 31 37 75 38 32 39 33 40 34 41 69 42 35 43 74 44 68 45 70 46
REMARK SMILES IDX 36 47 73 48 67 49 66 50 37 52 59 53 44 54 58 55 45 56 48 57
REMARK SMILES IDX 57 58 71 59 46 60 47 61 56 63 72 64 49 65 38 66 39 67 43 68
REMARK SMILES IDX 40 69 42 70 41 71 60 72 61 73 65 74 62 75 64 76 63 77 50 78
REMARK SMILES IDX 51 79 55 80 52 81 54 82 53 83
REMARK H PARENT 19 7 1 24 1 25 26 32 70 51 48 62
REMARK Flexibility Score: inf
ROOT
ATOM      1  C   UNL     1      -4.011  -2.319   9.616  1.00  0.00     0.002 C 
ENDROOT
BRANCH   1   2
ATOM      2  C   UNL     1      -3.342  -1.958   8.289  1.00  0.00     0.021 C 
BRANCH   2   3
ATOM      3  C   UNL     1      -1.870  -1.564   8.433  1.00  0.00     0.116 C 
BRANCH   3   4
ATOM      4  N   UNL     1      -1.010  -2.673   8.070  1.00  0.00    -0.356 N 
ATOM      5  C   UNL     1      -0.240  -2.856   6.963  1.00  0.00     0.220 C 
ATOM      6  O   UNL     1       0.299  -3.951   6.798  1.00  0.00    -0.275 OA
ATOM      7  H   UNL     1      -0.979  -3.408   8.726  1.00  0.00     0.163 HD
BRANCH   5   8
ATOM      8  C   UNL     1      -0.035  -1.732   5.971  1.00  0.00     0.105 C 
BRANCH   8   9
ATOM      9  C   UNL     1      -0.873  -1.896   4.687  1.00  0.00     0.018 C 
ATOM     10  N   UNL     1      -0.280   0.290   3.815  1.00  0.00    -0.371 N 
ATOM     11  C   UNL     1      -1.625   0.862   3.873  1.00  0.00     0.116 C 
ATOM     12  C   UNL     1      -0.200  -1.142   3.528  1.00  0.00     0.120 C 
ATOM     13  C   UNL     1      -2.423   0.133   4.955  1.00  0.00     0.022 C 
ATOM     14  C   UNL     1      -2.323  -1.391   4.815  1.00  0.00     0.008 C 
BRANCH  10  15
ATOM     15  C   UNL     1       0.744   1.116   3.368  1.00  0.00     0.053 A 
ATOM     16  C   UNL     1       1.172   1.256   2.032  1.00  0.00     0.098 A 
ATOM     17  C   UNL     1       2.282   2.063   1.744  1.00  0.00     0.138 A 
ATOM     18  F   UNL     1       2.717   2.209   0.483  1.00  0.00    -0.206 F 
ATOM     19  C   UNL     1       2.971   2.739   2.748  1.00  0.00     0.040 A 
ATOM     20  C   UNL     1       1.446   1.824   4.365  1.00  0.00     0.027 A 
ATOM     21  C   UNL     1       2.549   2.624   4.065  1.00  0.00     0.005 A 
BRANCH  16  22
ATOM     22  C   UNL     1       0.456   0.616   0.903  1.00  0.00     0.253 C 
ATOM     23  N   UNL     1       1.225  -0.008  -0.040  1.00  0.00    -0.365 N 
ATOM     24  H   UNL     1       0.798  -0.449  -0.810  1.00  0.00     0.159 HD
ATOM     25  H   UNL     1       2.205  -0.017   0.051  1.00  0.00     0.159 HD
ATOM     26  O   UNL     1      -0.762   0.631   0.796  1.00  0.00    -0.269 OA
ENDBRANCH  16  22
ENDBRANCH  10  15
ENDBRANCH   8   9
ENDBRANCH   5   8
ENDBRANCH   3   4
ENDBRANCH   2   3
ENDBRANCH   1   2
BRANCH   1  27
ATOM     27  C   UNL     1      -4.240  -1.134  10.560  1.00  0.00     0.002 C 
BRANCH  27  28
ATOM     28  C   UNL     1      -5.058   0.026   9.982  1.00  0.00     0.021 C 
BRANCH  28  29
ATOM     29  C   UNL     1      -6.410  -0.362   9.385  1.00  0.00     0.116 C 
BRANCH  29  30
ATOM     30  N   UNL     1      -7.277  -1.004  10.360  1.00  0.00    -0.352 N 
ATOM     31  C   UNL     1      -8.471  -0.585  10.892  1.00  0.00     0.251 C 
ATOM     32  H   UNL     1      -6.959  -1.875  10.690  1.00  0.00     0.163 HD
ATOM     33  O   UNL     1      -8.955  -1.172  11.855  1.00  0.00    -0.269 OA
BRANCH  31  34
ATOM     34  C   UNL     1      -9.171   0.585  10.322  1.00  0.00     0.039 A 
ATOM     35  C   UNL     1      -9.664   1.562  11.191  1.00  0.00     0.014 A 
ATOM     36  C   UNL     1      -9.361   0.708   8.943  1.00  0.00     0.014 A 
ATOM     37  C   UNL     1     -10.281   2.702  10.672  1.00  0.00     0.010 A 
ATOM     38  C   UNL     1      -9.929   1.870   8.424  1.00  0.00     0.010 A 
ATOM     39  C   UNL     1     -10.383   2.882   9.284  1.00  0.00    -0.014 A 
BRANCH  39  40
ATOM     40  C   UNL     1     -10.914   4.144   8.711  1.00  0.00     0.031 A 
ATOM     41  C   UNL     1     -12.204   4.153   7.943  1.00  0.00     0.074 A 
ATOM     42  C   UNL     1     -10.185   5.271   8.819  1.00  0.00     0.049 A 
ATOM     43  N   UNL     1     -12.778   5.146   7.310  1.00  0.00    -0.248 NA
ATOM     44  C   UNL     1     -12.935   2.880   7.856  1.00  0.00     0.031 C 
ATOM     45  C   UNL     1      -8.896   5.385   9.505  1.00  0.00     0.029 A 
ATOM     46  N   UNL     1     -10.417   6.535   8.336  1.00  0.00    -0.354 N 
ATOM     47  C   UNL     1     -13.927   4.615   6.739  1.00  0.00     0.074 A 
ATOM     48  C   UNL     1     -13.952   3.206   7.070  1.00  0.00     0.031 C 
ATOM     49  C   UNL     1      -8.459   6.651   9.410  1.00  0.00     0.029 A 
ATOM     50  C   UNL     1      -9.413   7.426   8.626  1.00  0.00     0.049 A 
ATOM     51  H   UNL     1     -11.226   6.779   7.830  1.00  0.00     0.167 HD
ATOM     52  C   UNL     1     -14.880   5.247   6.013  1.00  0.00     0.031 A 
ATOM     53  C   UNL     1      -9.268   8.720   8.286  1.00  0.00     0.031 A 
ATOM     54  C   UNL     1     -14.862   6.649   5.690  1.00  0.00     0.049 A 
ATOM     55  C   UNL     1     -10.327   9.390   7.459  1.00  0.00     0.074 A 
ATOM     56  C   UNL     1     -15.823   7.393   5.028  1.00  0.00     0.029 A 
ATOM     57  N   UNL     1     -13.826   7.515   5.998  1.00  0.00    -0.354 N 
ATOM     58  N   UNL     1     -11.445   8.891   6.992  1.00  0.00    -0.248 NA
ATOM     59  C   UNL     1     -10.103  10.801   7.114  1.00  0.00     0.031 C 
ATOM     60  C   UNL     1     -15.345   8.701   4.891  1.00  0.00     0.029 A 
ATOM     61  C   UNL     1     -14.107   8.780   5.507  1.00  0.00     0.049 A 
ATOM     62  H   UNL     1     -13.011   7.269   6.492  1.00  0.00     0.167 HD
ATOM     63  C   UNL     1     -12.064   9.929   6.308  1.00  0.00     0.074 A 
ATOM     64  C   UNL     1     -11.207  11.089   6.439  1.00  0.00     0.031 C 
ATOM     65  C   UNL     1     -13.237   9.919   5.630  1.00  0.00     0.031 A 
BRANCH  52  66
ATOM     66  C   UNL     1     -16.027   4.419   5.506  1.00  0.00    -0.014 A 
ATOM     67  C   UNL     1     -17.028   3.957   6.374  1.00  0.00     0.009 A 
ATOM     68  C   UNL     1     -16.131   4.137   4.135  1.00  0.00     0.009 A 
ATOM     69  C   UNL     1     -18.097   3.204   5.883  1.00  0.00     0.001 A 
ATOM     70  C   UNL     1     -17.213   3.404   3.643  1.00  0.00     0.001 A 
ATOM     71  C   UNL     1     -18.190   2.931   4.519  1.00  0.00     0.000 A 
ENDBRANCH  52  66
BRANCH  53  72
ATOM     72  C   UNL     1      -8.062   9.469   8.721  1.00  0.00    -0.014 A 
ATOM     73  C   UNL     1      -8.154  10.438   9.730  1.00  0.00     0.009 A 
ATOM     74  C   UNL     1      -6.814   9.215   8.132  1.00  0.00     0.009 A 
ATOM     75  C   UNL     1      -7.022  11.154  10.127  1.00  0.00     0.001 A 
ATOM     76  C   UNL     1      -5.679   9.915   8.547  1.00  0.00     0.001 A 
ATOM     77  C   UNL     1      -5.786  10.889   9.538  1.00  0.00     0.000 A 
ENDBRANCH  53  72
BRANCH  65  78
ATOM     78  C   UNL     1     -13.659  11.204   4.981  1.00  0.00    -0.014 A 
ATOM     79  C   UNL     1     -13.041  11.654   3.804  1.00  0.00     0.009 A 
ATOM     80  C   UNL     1     -14.709  11.955   5.531  1.00  0.00     0.009 A 
ATOM     81  C   UNL     1     -13.450  12.846   3.204  1.00  0.00     0.001 A 
ATOM     82  C   UNL     1     -15.132  13.134   4.916  1.00  0.00     0.001 A 
ATOM     83  C   UNL     1     -14.497  13.582   3.758  1.00  0.00     0.000 A 
ENDBRANCH  65  78
ENDBRANCH  39  40
ENDBRANCH  31  34
ENDBRANCH  29  30
ENDBRANCH  28  29
ENDBRANCH  27  28
ENDBRANCH   1  27
TORSDOF 16
