REMARK SMILES CC[C@@H]1CCCN1C(=O)N(CC(=O)NCCCCCCNC(=O)c1ccc(-c2c3nc(c(-c4ccccc4)c4ccc([nH]4)c(-c4ccccc4)c4nc(c(-c5ccccc5)c5ccc2[nH]5)C=C4)C=C3)cc1)CC(F)(F)F
REMARK SMILES IDX 16 1 15 2 14 3 12 4 13 5 11 7 10 8 8 9 9 10 7 11 3 12 4 13
REMARK SMILES IDX 5 14 6 15 2 16 1 17 72 18 73 19 74 20 75 21 76 22 17 23
REMARK SMILES IDX 18 24 19 25 20 26 21 27 22 28 23 30 24 31 25 32 71 33 26 34
REMARK SMILES IDX 70 35 27 36 28 37 29 38 64 39 30 40 69 41 63 42 65 43 31 44
REMARK SMILES IDX 68 45 62 46 61 47 32 49 54 50 39 51 53 52 40 53 43 54 52 55
REMARK SMILES IDX 66 56 41 57 42 58 51 60 67 61 44 62 33 63 34 64 38 65 35 66
REMARK SMILES IDX 37 67 36 68 55 69 56 70 60 71 57 72 59 73 58 74 45 75 46 76
REMARK SMILES IDX 50 77 47 78 49 79 48 80
REMARK H PARENT 14 6 21 29 65 48 43 59
REMARK Flexibility Score: inf
ROOT
ATOM      1  C   UNL     1       1.288   3.818   3.715  1.00  0.00     0.021 C 
ENDROOT
BRANCH   1   2
ATOM      2  C   UNL     1       1.073   2.808   2.597  1.00  0.00     0.116 C 
BRANCH   2   3
ATOM      3  N   UNL     1       0.143   1.756   2.952  1.00  0.00    -0.355 N 
ATOM      4  C   UNL     1      -0.963   1.260   2.341  1.00  0.00     0.239 C 
ATOM      5  O   UNL     1      -1.405   0.201   2.808  1.00  0.00    -0.273 OA
ATOM      6  H   UNL     1       0.354   1.314   3.806  1.00  0.00     0.163 HD
BRANCH   4   7
ATOM      7  C   UNL     1      -1.608   1.821   1.054  1.00  0.00     0.221 C 
BRANCH   7   8
ATOM      8  N   UNL     1      -1.540   3.212   0.660  1.00  0.00    -0.306 N 
BRANCH   8   9
ATOM      9  C   UNL     1      -0.648   3.863  -0.146  1.00  0.00     0.321 C 
ATOM     10  O   UNL     1      -0.808   5.092  -0.247  1.00  0.00    -0.248 OA
BRANCH   9  11
ATOM     11  N   UNL     1       0.451   3.304  -0.765  1.00  0.00    -0.322 N 
ATOM     12  C   UNL     1       0.994   1.974  -1.216  1.00  0.00     0.086 C 
ATOM     13  C   UNL     1       2.472   2.314  -1.509  1.00  0.00     0.027 C 
ATOM     14  C   UNL     1       2.409   3.677  -2.143  1.00  0.00     0.024 C 
ATOM     15  C   UNL     1       1.309   4.352  -1.358  1.00  0.00     0.122 C 
BRANCH  12  16
ATOM     16  C   UNL     1       0.947   0.694  -0.368  1.00  0.00     0.022 C 
ATOM     17  C   UNL     1       1.939  -0.404  -0.756  1.00  0.00     0.006 C 
ENDBRANCH  12  16
ENDBRANCH   9  11
ENDBRANCH   8   9
BRANCH   8  18
ATOM     18  C   UNL     1      -2.592   4.071   1.285  1.00  0.00     0.237 C 
BRANCH  18  19
ATOM     19  C   UNL     1      -2.224   4.731   2.615  1.00  0.00     0.406 C 
ATOM     20  F   UNL     1      -1.117   5.496   2.545  1.00  0.00    -0.169 F 
ATOM     21  F   UNL     1      -3.238   5.519   3.048  1.00  0.00    -0.169 F 
ATOM     22  F   UNL     1      -2.022   3.797   3.574  1.00  0.00    -0.169 F 
ENDBRANCH  18  19
ENDBRANCH   8  18
ENDBRANCH   7   8
ENDBRANCH   4   7
ENDBRANCH   2   3
ENDBRANCH   1   2
BRANCH   1  23
ATOM     23  C   UNL     1       2.009   3.272   4.948  1.00  0.00     0.002 C 
BRANCH  23  24
ATOM     24  C   UNL     1       3.428   2.751   4.708  1.00  0.00     0.002 C 
BRANCH  24  25
ATOM     25  C   UNL     1       4.381   3.726   4.015  1.00  0.00     0.021 C 
BRANCH  25  26
ATOM     26  C   UNL     1       4.478   5.105   4.656  1.00  0.00     0.116 C 
BRANCH  26  27
ATOM     27  N   UNL     1       4.987   5.061   6.017  1.00  0.00    -0.352 N 
ATOM     28  C   UNL     1       5.938   5.868   6.601  1.00  0.00     0.251 C 
ATOM     29  H   UNL     1       4.603   4.364   6.596  1.00  0.00     0.163 HD
ATOM     30  O   UNL     1       6.360   5.639   7.721  1.00  0.00    -0.269 OA
BRANCH  28  31
ATOM     31  C   UNL     1       6.463   7.012   5.827  1.00  0.00     0.039 A 
ATOM     32  C   UNL     1       7.845   7.150   5.668  1.00  0.00     0.014 A 
ATOM     33  C   UNL     1       5.583   7.917   5.227  1.00  0.00     0.014 A 
ATOM     34  C   UNL     1       8.346   8.164   4.851  1.00  0.00     0.010 A 
ATOM     35  C   UNL     1       6.081   8.884   4.364  1.00  0.00     0.010 A 
ATOM     36  C   UNL     1       7.466   9.018   4.169  1.00  0.00    -0.014 A 
BRANCH  36  37
ATOM     37  C   UNL     1       7.949  10.088   3.264  1.00  0.00     0.031 A 
ATOM     38  C   UNL     1       7.687  11.524   3.616  1.00  0.00     0.074 A 
ATOM     39  C   UNL     1       8.524   9.774   2.088  1.00  0.00     0.049 A 
ATOM     40  N   UNL     1       7.866  12.601   2.895  1.00  0.00    -0.248 NA
ATOM     41  C   UNL     1       7.118  11.776   4.950  1.00  0.00     0.031 C 
ATOM     42  C   UNL     1       8.832   8.419   1.626  1.00  0.00     0.029 A 
ATOM     43  N   UNL     1       8.936  10.580   1.057  1.00  0.00    -0.354 N 
ATOM     44  C   UNL     1       7.396  13.652   3.672  1.00  0.00     0.074 A 
ATOM     45  C   UNL     1       6.891  13.079   4.901  1.00  0.00     0.031 C 
ATOM     46  C   UNL     1       9.403   8.491   0.411  1.00  0.00     0.029 A 
ATOM     47  C   UNL     1       9.452   9.888  -0.011  1.00  0.00     0.049 A 
ATOM     48  H   UNL     1       8.869  11.562   1.081  1.00  0.00     0.167 HD
ATOM     49  C   UNL     1       7.394  14.977   3.393  1.00  0.00     0.031 A 
ATOM     50  C   UNL     1       9.899  10.328  -1.202  1.00  0.00     0.031 A 
ATOM     51  C   UNL     1       7.908  15.544   2.176  1.00  0.00     0.049 A 
ATOM     52  C   UNL     1       9.852  11.799  -1.508  1.00  0.00     0.074 A 
ATOM     53  C   UNL     1       7.997  16.877   1.815  1.00  0.00     0.029 A 
ATOM     54  N   UNL     1       8.420  14.806   1.120  1.00  0.00    -0.354 N 
ATOM     55  N   UNL     1       9.436  12.787  -0.753  1.00  0.00    -0.248 NA
ATOM     56  C   UNL     1      10.336  12.215  -2.833  1.00  0.00     0.031 C 
ATOM     57  C   UNL     1       8.523  16.942   0.521  1.00  0.00     0.029 A 
ATOM     58  C   UNL     1       8.809  15.654   0.098  1.00  0.00     0.049 A 
ATOM     59  H   UNL     1       8.495  13.825   1.100  1.00  0.00     0.167 HD
ATOM     60  C   UNL     1       9.644  13.943  -1.494  1.00  0.00     0.074 A 
ATOM     61  C   UNL     1      10.219  13.534  -2.759  1.00  0.00     0.031 C 
ATOM     62  C   UNL     1       9.391  15.229  -1.150  1.00  0.00     0.031 A 
BRANCH  49  63
ATOM     63  C   UNL     1       6.790  15.890   4.422  1.00  0.00    -0.014 A 
ATOM     64  C   UNL     1       7.411  16.104   5.664  1.00  0.00     0.009 A 
ATOM     65  C   UNL     1       5.576  16.539   4.151  1.00  0.00     0.009 A 
ATOM     66  C   UNL     1       6.800  16.903   6.632  1.00  0.00     0.001 A 
ATOM     67  C   UNL     1       4.983  17.363   5.108  1.00  0.00     0.001 A 
ATOM     68  C   UNL     1       5.588  17.533   6.353  1.00  0.00     0.000 A 
ENDBRANCH  49  63
BRANCH  50  69
ATOM     69  C   UNL     1      10.456   9.364  -2.185  1.00  0.00    -0.014 A 
ATOM     70  C   UNL     1      11.840   9.319  -2.414  1.00  0.00     0.009 A 
ATOM     71  C   UNL     1       9.622   8.478  -2.882  1.00  0.00     0.009 A 
ATOM     72  C   UNL     1      12.376   8.414  -3.333  1.00  0.00     0.001 A 
ATOM     73  C   UNL     1      10.163   7.558  -3.783  1.00  0.00     0.001 A 
ATOM     74  C   UNL     1      11.538   7.531  -4.012  1.00  0.00     0.000 A 
ENDBRANCH  50  69
BRANCH  62  75
ATOM     75  C   UNL     1       9.784  16.299  -2.128  1.00  0.00    -0.014 A 
ATOM     76  C   UNL     1       9.030  16.547  -3.283  1.00  0.00     0.009 A 
ATOM     77  C   UNL     1      10.890  17.117  -1.844  1.00  0.00     0.009 A 
ATOM     78  C   UNL     1       9.386  17.587  -4.146  1.00  0.00     0.001 A 
ATOM     79  C   UNL     1      11.228  18.169  -2.695  1.00  0.00     0.001 A 
ATOM     80  C   UNL     1      10.479  18.401  -3.847  1.00  0.00     0.000 A 
ENDBRANCH  62  75
ENDBRANCH  36  37
ENDBRANCH  28  31
ENDBRANCH  26  27
ENDBRANCH  25  26
ENDBRANCH  24  25
ENDBRANCH  23  24
ENDBRANCH   1  23
TORSDOF 19
