REMARK SMILES O=C(COc1ccccc1Br)Nc1ccc(C(=O)NCCCCCCNC(=O)c2ccc(-c3c4nc(c(-c5ccccc5)c5ccc([nH]5)c(-c5ccccc5)c5nc(c(-c6ccccc6)c6ccc3[nH]6)C=C5)C=C4)cc2)c(O)c1
REMARK SMILES IDX 21 1 20 2 19 3 17 4 18 5 16 7 13 8 14 9 79 10 15 11 77 12
REMARK SMILES IDX 12 13 1 14 2 15 3 17 4 18 5 19 6 20 10 21 7 22 9 23 11 24
REMARK SMILES IDX 8 25 78 26 22 28 23 29 24 30 25 31 26 32 27 33 28 35 29 36
REMARK SMILES IDX 30 37 76 38 31 39 75 40 32 41 33 42 34 43 69 44 35 45 74 46
REMARK SMILES IDX 68 47 70 48 36 49 73 50 67 51 66 52 37 54 59 55 44 56 58 57
REMARK SMILES IDX 45 58 48 59 57 60 71 61 46 62 47 63 56 65 72 66 49 67 38 68
REMARK SMILES IDX 39 69 43 70 40 71 42 72 41 73 60 74 61 75 65 76 62 77 64 78
REMARK SMILES IDX 63 79 50 80 51 81 55 82 52 83 54 84 53 85
REMARK H PARENT 19 6 12 16 78 27 26 34 70 53 48 64
REMARK Flexibility Score: inf
ROOT
ATOM      1  C   UNL     1       0.570   6.620  -5.046  1.00  0.00     0.021 C 
ENDROOT
BRANCH   1   2
ATOM      2  C   UNL     1       1.293   6.302  -3.737  1.00  0.00     0.116 C 
BRANCH   2   3
ATOM      3  N   UNL     1       0.583   6.738  -2.547  1.00  0.00    -0.352 N 
ATOM      4  C   UNL     1       0.527   6.215  -1.277  1.00  0.00     0.255 C 
ATOM      5  O   UNL     1      -0.204   6.769  -0.457  1.00  0.00    -0.269 OA
ATOM      6  H   UNL     1       0.047   7.554  -2.672  1.00  0.00     0.163 HD
BRANCH   4   7
ATOM      7  C   UNL     1       1.273   4.996  -0.864  1.00  0.00     0.081 A 
ATOM      8  C   UNL     1       2.427   2.537  -0.096  1.00  0.00     0.045 A 
ATOM      9  C   UNL     1       1.179   2.905   0.398  1.00  0.00     0.027 A 
ATOM     10  C   UNL     1       3.138   3.445  -0.888  1.00  0.00     0.073 A 
ATOM     11  C   UNL     1       0.602   4.120   0.005  1.00  0.00     0.020 A 
ATOM     12  C   UNL     1       2.581   4.678  -1.235  1.00  0.00     0.130 A 
BRANCH   8  13
ATOM     13  N   UNL     1       2.973   1.247   0.038  1.00  0.00    -0.323 N 
ATOM     14  O   UNL     1       1.415   0.093   1.345  1.00  0.00    -0.271 OA
ATOM     15  C   UNL     1       2.350   0.119   0.551  1.00  0.00     0.262 C 
ATOM     16  H   UNL     1       3.902   1.133  -0.268  1.00  0.00     0.170 HD
BRANCH  15  17
ATOM     17  C   UNL     1       2.963  -1.171  -0.009  1.00  0.00     0.329 C 
BRANCH  17  18
ATOM     18  O   UNL     1       3.618  -0.901  -1.257  1.00  0.00    -0.483 OA
BRANCH  18  19
ATOM     19  C   UNL     1       3.064  -1.562  -2.322  1.00  0.00     0.134 A 
ATOM     20  C   UNL     1       3.732  -2.710  -2.756  1.00  0.00     0.047 A 
ATOM     21  C   UNL     1       1.998  -1.059  -3.080  1.00  0.00     0.060 A 
ATOM     22  C   UNL     1       3.336  -3.355  -3.930  1.00  0.00     0.004 A 
ATOM     23  C   UNL     1       1.606  -1.709  -4.254  1.00  0.00     0.019 A 
ATOM     24  Br  UNL     1       1.042   0.515  -2.648  1.00  0.00    -0.047 Br
ATOM     25  C   UNL     1       2.278  -2.851  -4.682  1.00  0.00     0.001 A 
ENDBRANCH  18  19
ENDBRANCH  17  18
ENDBRANCH  15  17
ENDBRANCH   8  13
BRANCH  12  26
ATOM     26  O   UNL     1       3.413   5.528  -1.910  1.00  0.00    -0.507 OA
ATOM     27  H   UNL     1       3.106   6.373  -2.174  1.00  0.00     0.293 HD
ENDBRANCH  12  26
ENDBRANCH   4   7
ENDBRANCH   2   3
ENDBRANCH   1   2
BRANCH   1  28
ATOM     28  C   UNL     1       0.259   8.097  -5.320  1.00  0.00     0.002 C 
BRANCH  28  29
ATOM     29  C   UNL     1       1.419   9.089  -5.197  1.00  0.00     0.002 C 
BRANCH  29  30
ATOM     30  C   UNL     1       2.678   8.771  -6.005  1.00  0.00     0.021 C 
BRANCH  30  31
ATOM     31  C   UNL     1       2.471   8.509  -7.492  1.00  0.00     0.116 C 
BRANCH  31  32
ATOM     32  N   UNL     1       1.890   9.639  -8.197  1.00  0.00    -0.352 N 
ATOM     33  C   UNL     1       2.313  10.272  -9.339  1.00  0.00     0.251 C 
ATOM     34  H   UNL     1       1.069  10.007  -7.795  1.00  0.00     0.163 HD
ATOM     35  O   UNL     1       1.754  11.301  -9.716  1.00  0.00    -0.269 OA
BRANCH  33  36
ATOM     36  C   UNL     1       3.463   9.743 -10.106  1.00  0.00     0.039 A 
ATOM     37  C   UNL     1       4.441  10.638 -10.550  1.00  0.00     0.014 A 
ATOM     38  C   UNL     1       3.583   8.380 -10.390  1.00  0.00     0.014 A 
ATOM     39  C   UNL     1       5.573  10.158 -11.213  1.00  0.00     0.010 A 
ATOM     40  C   UNL     1       4.746   7.895 -10.986  1.00  0.00     0.010 A 
ATOM     41  C   UNL     1       5.756   8.777 -11.399  1.00  0.00    -0.014 A 
BRANCH  41  42
ATOM     42  C   UNL     1       7.008   8.243 -11.998  1.00  0.00     0.031 A 
ATOM     43  C   UNL     1       6.971   7.494 -13.302  1.00  0.00     0.074 A 
ATOM     44  C   UNL     1       8.173   8.380 -11.333  1.00  0.00     0.049 A 
ATOM     45  N   UNL     1       7.952   6.910 -13.944  1.00  0.00    -0.248 NA
ATOM     46  C   UNL     1       5.662   7.364 -13.961  1.00  0.00     0.031 C 
ATOM     47  C   UNL     1       8.339   9.052 -10.042  1.00  0.00     0.029 A 
ATOM     48  N   UNL     1       9.440   7.954 -11.649  1.00  0.00    -0.354 N 
ATOM     49  C   UNL     1       7.377   6.334 -15.071  1.00  0.00     0.074 A 
ATOM     50  C   UNL     1       5.957   6.599 -15.002  1.00  0.00     0.031 C 
ATOM     51  C   UNL     1       9.634   9.014  -9.689  1.00  0.00     0.029 A 
ATOM     52  C   UNL     1      10.382   8.275 -10.700  1.00  0.00     0.049 A 
ATOM     53  H   UNL     1       9.653   7.464 -12.476  1.00  0.00     0.167 HD
ATOM     54  C   UNL     1       7.979   5.659 -16.079  1.00  0.00     0.031 A 
ATOM     55  C   UNL     1      11.698   7.994 -10.642  1.00  0.00     0.031 A 
ATOM     56  C   UNL     1       9.393   5.402 -16.152  1.00  0.00     0.049 A 
ATOM     57  C   UNL     1      12.334   7.218 -11.763  1.00  0.00     0.074 A 
ATOM     58  C   UNL     1      10.102   4.779 -17.165  1.00  0.00     0.029 A 
ATOM     59  N   UNL     1      10.311   5.745 -15.172  1.00  0.00    -0.354 N 
ATOM     60  N   UNL     1      11.787   6.750 -12.858  1.00  0.00    -0.248 NA
ATOM     61  C   UNL     1      13.772   6.941 -11.642  1.00  0.00     0.031 C 
ATOM     62  C   UNL     1      11.440   4.688 -16.769  1.00  0.00     0.029 A 
ATOM     63  C   UNL     1      11.575   5.316 -15.541  1.00  0.00     0.049 A 
ATOM     64  H   UNL     1      10.097   6.223 -14.339  1.00  0.00     0.167 HD
ATOM     65  C   UNL     1      12.819   6.150 -13.569  1.00  0.00     0.074 A 
ATOM     66  C   UNL     1      14.026   6.332 -12.792  1.00  0.00     0.031 C 
ATOM     67  C   UNL     1      12.769   5.504 -14.760  1.00  0.00     0.031 A 
BRANCH  54  68
ATOM     68  C   UNL     1       7.110   5.138 -17.191  1.00  0.00    -0.014 A 
ATOM     69  C   UNL     1       6.506   6.006 -18.113  1.00  0.00     0.009 A 
ATOM     70  C   UNL     1       6.948   3.753 -17.357  1.00  0.00     0.009 A 
ATOM     71  C   UNL     1       5.735   5.499 -19.163  1.00  0.00     0.001 A 
ATOM     72  C   UNL     1       6.203   3.248 -18.424  1.00  0.00     0.001 A 
ATOM     73  C   UNL     1       5.591   4.122 -19.321  1.00  0.00     0.000 A 
ENDBRANCH  54  68
BRANCH  55  74
ATOM     74  C   UNL     1      12.510   8.437  -9.476  1.00  0.00    -0.014 A 
ATOM     75  C   UNL     1      13.514   9.406  -9.628  1.00  0.00     0.009 A 
ATOM     76  C   UNL     1      12.307   7.868  -8.209  1.00  0.00     0.009 A 
ATOM     77  C   UNL     1      14.321   9.766  -8.546  1.00  0.00     0.001 A 
ATOM     78  C   UNL     1      13.092   8.256  -7.121  1.00  0.00     0.001 A 
ATOM     79  C   UNL     1      14.107   9.194  -7.293  1.00  0.00     0.000 A 
ENDBRANCH  55  74
BRANCH  67  80
ATOM     80  C   UNL     1      14.065   4.979 -15.314  1.00  0.00    -0.014 A 
ATOM     81  C   UNL     1      14.717   3.880 -14.734  1.00  0.00     0.009 A 
ATOM     82  C   UNL     1      14.618   5.569 -16.461  1.00  0.00     0.009 A 
ATOM     83  C   UNL     1      15.916   3.406 -15.271  1.00  0.00     0.001 A 
ATOM     84  C   UNL     1      15.798   5.072 -17.016  1.00  0.00     0.001 A 
ATOM     85  C   UNL     1      16.451   3.998 -16.415  1.00  0.00     0.000 A 
ENDBRANCH  67  80
ENDBRANCH  41  42
ENDBRANCH  33  36
ENDBRANCH  31  32
ENDBRANCH  30  31
ENDBRANCH  29  30
ENDBRANCH  28  29
ENDBRANCH   1  28
TORSDOF 18
