REMARK SMILES CCN1C(=O)N(CC)[C@H]2NC(=O)N(CCCC(=O)NCCCCCCNC(=O)c3ccc(-c4c5nc(c(-c6ccccc6)c6ccc([nH]6)c(-c6ccccc6)c6nc(c(-c7ccccc7)c7ccc4[nH]7)C=C6)C=C5)cc3)[C@@H]21
REMARK SMILES IDX 21 1 20 2 19 3 17 4 18 5 16 7 15 8 14 9 13 10 3 11 4 12
REMARK SMILES IDX 77 13 5 14 6 15 9 16 10 17 11 18 12 20 2 21 1 22 7 23 8 24
REMARK SMILES IDX 22 25 23 26 24 27 25 28 26 29 27 30 28 32 29 33 30 34 76 35
REMARK SMILES IDX 31 36 75 37 32 38 33 39 34 40 69 41 35 42 74 43 68 44 70 45
REMARK SMILES IDX 36 46 73 47 67 48 66 49 37 51 59 52 44 53 58 54 45 55 48 56
REMARK SMILES IDX 57 57 71 58 46 59 47 60 56 62 72 63 49 64 38 65 39 66 43 67
REMARK SMILES IDX 40 68 42 69 41 70 60 71 61 72 65 73 62 74 64 75 63 76 50 77
REMARK SMILES IDX 51 78 55 79 52 80 54 81 53 82
REMARK H PARENT 19 6 10 19 26 31 70 50 48 61
REMARK Flexibility Score: inf
ROOT
ATOM      1  C   UNL     1      -2.293   1.145   0.993  1.00  0.00     0.021 C 
ENDROOT
BRANCH   1   2
ATOM      2  C   UNL     1      -1.243   0.165   0.464  1.00  0.00     0.116 C 
BRANCH   2   3
ATOM      3  N   UNL     1      -0.869   0.493  -0.894  1.00  0.00    -0.356 N 
ATOM      4  C   UNL     1       0.235   1.001  -1.483  1.00  0.00     0.220 C 
ATOM      5  O   UNL     1       0.136   1.200  -2.701  1.00  0.00    -0.275 OA
ATOM      6  H   UNL     1      -1.587   0.301  -1.540  1.00  0.00     0.163 HD
BRANCH   4   7
ATOM      7  C   UNL     1       1.598   1.159  -0.823  1.00  0.00     0.102 C 
BRANCH   7   8
ATOM      8  C   UNL     1       1.961   2.066   0.355  1.00  0.00     0.031 C 
BRANCH   8   9
ATOM      9  C   UNL     1       1.078   2.179   1.585  1.00  0.00     0.124 C 
BRANCH   9  10
ATOM     10  N   UNL     1       1.419   1.478   2.824  1.00  0.00    -0.300 N 
ATOM     11  N   UNL     1       1.300  -1.225   2.857  1.00  0.00    -0.300 N 
ATOM     12  C   UNL     1       1.588  -2.014   4.036  1.00  0.00     0.323 C 
ATOM     13  C   UNL     1       1.790   0.109   3.143  1.00  0.00     0.231 C 
ATOM     14  O   UNL     1       1.641  -3.237   4.088  1.00  0.00    -0.248 OA
ATOM     15  N   UNL     1       1.858  -1.132   5.091  1.00  0.00    -0.300 N 
ATOM     16  C   UNL     1       1.466   0.145   4.645  1.00  0.00     0.228 C 
ATOM     17  N   UNL     1       2.003   1.375   5.049  1.00  0.00    -0.314 N 
ATOM     18  C   UNL     1       1.760   2.248   3.985  1.00  0.00     0.320 C 
ATOM     19  H   UNL     1       2.454   1.580   5.900  1.00  0.00     0.167 HD
ATOM     20  O   UNL     1       1.796   3.471   4.087  1.00  0.00    -0.249 OA
BRANCH  11  21
ATOM     21  C   UNL     1       1.335  -1.919   1.582  1.00  0.00     0.120 C 
ATOM     22  C   UNL     1       2.656  -1.792   0.854  1.00  0.00     0.027 C 
ENDBRANCH  11  21
BRANCH  15  23
ATOM     23  C   UNL     1       2.365  -1.451   6.409  1.00  0.00     0.120 C 
ATOM     24  C   UNL     1       1.555  -2.495   7.159  1.00  0.00     0.027 C 
ENDBRANCH  15  23
ENDBRANCH   9  10
ENDBRANCH   8   9
ENDBRANCH   7   8
ENDBRANCH   4   7
ENDBRANCH   2   3
ENDBRANCH   1   2
BRANCH   1  25
ATOM     25  C   UNL     1      -3.635   0.474   1.261  1.00  0.00     0.002 C 
BRANCH  25  26
ATOM     26  C   UNL     1      -3.624  -0.458   2.478  1.00  0.00     0.002 C 
BRANCH  26  27
ATOM     27  C   UNL     1      -3.359   0.217   3.830  1.00  0.00     0.021 C 
BRANCH  27  28
ATOM     28  C   UNL     1      -4.229   1.432   4.144  1.00  0.00     0.116 C 
BRANCH  28  29
ATOM     29  N   UNL     1      -5.646   1.162   3.975  1.00  0.00    -0.352 N 
ATOM     30  C   UNL     1      -6.713   1.455   4.781  1.00  0.00     0.251 C 
ATOM     31  H   UNL     1      -5.878   0.689   3.143  1.00  0.00     0.163 HD
ATOM     32  O   UNL     1      -7.822   1.009   4.500  1.00  0.00    -0.269 OA
BRANCH  30  33
ATOM     33  C   UNL     1      -6.546   2.286   5.993  1.00  0.00     0.039 A 
ATOM     34  C   UNL     1      -7.260   1.927   7.140  1.00  0.00     0.014 A 
ATOM     35  C   UNL     1      -5.753   3.437   5.995  1.00  0.00     0.014 A 
ATOM     36  C   UNL     1      -7.155   2.701   8.296  1.00  0.00     0.010 A 
ATOM     37  C   UNL     1      -5.598   4.173   7.169  1.00  0.00     0.010 A 
ATOM     38  C   UNL     1      -6.310   3.821   8.325  1.00  0.00    -0.014 A 
BRANCH  38  39
ATOM     39  C   UNL     1      -6.196   4.648   9.551  1.00  0.00     0.031 A 
ATOM     40  C   UNL     1      -6.721   6.058   9.563  1.00  0.00     0.074 A 
ATOM     41  C   UNL     1      -5.609   4.135  10.650  1.00  0.00     0.049 A 
ATOM     42  N   UNL     1      -6.710   6.934  10.537  1.00  0.00    -0.248 NA
ATOM     43  C   UNL     1      -7.323   6.555   8.315  1.00  0.00     0.031 C 
ATOM     44  C   UNL     1      -5.041   2.790  10.759  1.00  0.00     0.029 A 
ATOM     45  N   UNL     1      -5.401   4.685  11.889  1.00  0.00    -0.354 N 
ATOM     46  C   UNL     1      -7.298   8.081  10.018  1.00  0.00     0.074 A 
ATOM     47  C   UNL     1      -7.604   7.811   8.631  1.00  0.00     0.031 C 
ATOM     48  C   UNL     1      -4.580   2.608  12.007  1.00  0.00     0.029 A 
ATOM     49  C   UNL     1      -4.790   3.831  12.775  1.00  0.00     0.049 A 
ATOM     50  H   UNL     1      -5.665   5.605  12.122  1.00  0.00     0.167 HD
ATOM     51  C   UNL     1      -7.582   9.248  10.645  1.00  0.00     0.031 A 
ATOM     52  C   UNL     1      -4.441   4.014  14.062  1.00  0.00     0.031 A 
ATOM     53  C   UNL     1      -7.285   9.518  12.025  1.00  0.00     0.049 A 
ATOM     54  C   UNL     1      -4.743   5.329  14.725  1.00  0.00     0.074 A 
ATOM     55  C   UNL     1      -7.554  10.661  12.759  1.00  0.00     0.029 A 
ATOM     56  N   UNL     1      -6.655   8.630  12.883  1.00  0.00    -0.354 N 
ATOM     57  N   UNL     1      -5.342   6.386  14.232  1.00  0.00    -0.248 NA
ATOM     58  C   UNL     1      -4.329   5.470  16.129  1.00  0.00     0.031 C 
ATOM     59  C   UNL     1      -7.056  10.477  14.053  1.00  0.00     0.029 A 
ATOM     60  C   UNL     1      -6.517   9.203  14.136  1.00  0.00     0.049 A 
ATOM     61  H   UNL     1      -6.352   7.727  12.638  1.00  0.00     0.167 HD
ATOM     62  C   UNL     1      -5.404   7.303  15.272  1.00  0.00     0.074 A 
ATOM     63  C   UNL     1      -4.797   6.673  16.426  1.00  0.00     0.031 C 
ATOM     64  C   UNL     1      -5.918   8.557  15.273  1.00  0.00     0.031 A 
BRANCH  51  65
ATOM     65  C   UNL     1      -8.259  10.318   9.837  1.00  0.00    -0.014 A 
ATOM     66  C   UNL     1      -9.605  10.191   9.457  1.00  0.00     0.009 A 
ATOM     67  C   UNL     1      -7.560  11.483   9.484  1.00  0.00     0.009 A 
ATOM     68  C   UNL     1     -10.228  11.194   8.712  1.00  0.00     0.001 A 
ATOM     69  C   UNL     1      -8.194  12.496   8.761  1.00  0.00     0.001 A 
ATOM     70  C   UNL     1      -9.524  12.347   8.369  1.00  0.00     0.000 A 
ENDBRANCH  51  65
BRANCH  52  71
ATOM     71  C   UNL     1      -3.785   2.920  14.825  1.00  0.00    -0.014 A 
ATOM     72  C   UNL     1      -4.474   2.262  15.856  1.00  0.00     0.009 A 
ATOM     73  C   UNL     1      -2.460   2.550  14.549  1.00  0.00     0.009 A 
ATOM     74  C   UNL     1      -3.837   1.280  16.618  1.00  0.00     0.001 A 
ATOM     75  C   UNL     1      -1.835   1.548  15.294  1.00  0.00     0.001 A 
ATOM     76  C   UNL     1      -2.520   0.922  16.335  1.00  0.00     0.000 A 
ENDBRANCH  52  71
BRANCH  64  77
ATOM     77  C   UNL     1      -5.880   9.311  16.571  1.00  0.00    -0.014 A 
ATOM     78  C   UNL     1      -4.680   9.837  17.072  1.00  0.00     0.009 A 
ATOM     79  C   UNL     1      -7.070   9.523  17.284  1.00  0.00     0.009 A 
ATOM     80  C   UNL     1      -4.668  10.533  18.282  1.00  0.00     0.001 A 
ATOM     81  C   UNL     1      -7.059  10.243  18.480  1.00  0.00     0.001 A 
ATOM     82  C   UNL     1      -5.857  10.739  18.982  1.00  0.00     0.000 A 
ENDBRANCH  64  77
ENDBRANCH  38  39
ENDBRANCH  30  33
ENDBRANCH  28  29
ENDBRANCH  27  28
ENDBRANCH  26  27
ENDBRANCH  25  26
ENDBRANCH   1  25
TORSDOF 18
