REMARK SMILES C/C(=N\Nc1nc(-c2ccc(Cl)cc2)cs1)c1nnn(-c2ccc(C(=O)NCCCCCCNC(=O)c3ccc(-c4c5nc(c(-c6ccccc6)c6ccc([nH]6)c(-c6ccccc6)c6nc(c(-c7ccccc7)c7ccc4[nH]7)C=C6)C=C5)cc3)cc2)c1C
REMARK SMILES IDX 29 1 28 2 27 3 25 4 26 5 24 7 21 8 22 9 86 10 23 11 85 12
REMARK SMILES IDX 20 13 17 14 18 15 87 16 19 17 88 18 2 19 1 20 3 21 4 22 5 24
REMARK SMILES IDX 6 25 16 26 7 27 15 28 8 29 9 30 14 31 10 32 13 33 11 34
REMARK SMILES IDX 12 35 30 36 31 37 32 38 33 39 34 40 35 41 36 43 37 44 38 45
REMARK SMILES IDX 84 46 39 47 83 48 40 49 41 50 42 51 77 52 43 53 82 54 76 55
REMARK SMILES IDX 78 56 44 57 81 58 75 59 74 60 45 62 67 63 52 64 66 65 53 66
REMARK SMILES IDX 56 67 65 68 79 69 54 70 55 71 64 73 80 74 57 75 46 76 47 77
REMARK SMILES IDX 51 78 48 79 50 80 49 81 68 82 69 83 73 84 70 85 72 86 71 87
REMARK SMILES IDX 58 88 59 89 63 90 60 91 62 92 61 93
REMARK H PARENT 27 6 4 23 34 42 78 61 56 72
REMARK Flexibility Score: inf
ROOT
ATOM      1  C   UNL     1       8.280   5.428   5.209  1.00  0.00     0.021 C 
ENDROOT
BRANCH   1   2
ATOM      2  C   UNL     1       8.100   3.913   5.071  1.00  0.00     0.116 C 
BRANCH   2   3
ATOM      3  N   UNL     1       7.722   3.329   6.345  1.00  0.00    -0.352 N 
ATOM      4  C   UNL     1       6.524   2.890   6.853  1.00  0.00     0.251 C 
ATOM      5  O   UNL     1       6.528   2.404   7.984  1.00  0.00    -0.269 OA
ATOM      6  H   UNL     1       8.475   3.228   6.971  1.00  0.00     0.163 HD
BRANCH   4   7
ATOM      7  C   UNL     1       5.252   2.905   6.078  1.00  0.00     0.039 A 
ATOM      8  C   UNL     1       2.947   2.617   4.527  1.00  0.00     0.067 A 
ATOM      9  C   UNL     1       3.122   1.793   5.638  1.00  0.00     0.029 A 
ATOM     10  C   UNL     1       3.844   3.653   4.256  1.00  0.00     0.029 A 
ATOM     11  C   UNL     1       4.291   1.925   6.393  1.00  0.00     0.016 A 
ATOM     12  C   UNL     1       4.966   3.823   5.066  1.00  0.00     0.016 A 
BRANCH   8  13
ATOM     13  N   UNL     1       1.941   2.318   3.591  1.00  0.00    -0.217 N 
ATOM     14  C   UNL     1       0.867   1.640   1.825  1.00  0.00     0.132 A 
ATOM     15  N   UNL     1      -0.027   1.799   2.848  1.00  0.00    -0.128 NA
ATOM     16  C   UNL     1       2.138   1.971   2.268  1.00  0.00     0.071 A 
ATOM     17  N   UNL     1       0.654   2.126   3.941  1.00  0.00    -0.061 NA
ATOM     18  C   UNL     1       3.468   1.810   1.624  1.00  0.00     0.069 C 
BRANCH  14  19
ATOM     19  C   UNL     1       0.554   1.014   0.550  1.00  0.00     0.087 C 
ATOM     20  C   UNL     1       1.283  -0.286   0.294  1.00  0.00     0.071 C 
ATOM     21  N   UNL     1      -0.252   1.669  -0.241  1.00  0.00    -0.176 NA
BRANCH  21  22
ATOM     22  N   UNL     1      -0.533   1.253  -1.523  1.00  0.00    -0.252 N 
ATOM     23  H   UNL     1      -0.764   1.973  -2.153  1.00  0.00     0.193 HD
BRANCH  22  24
ATOM     24  C   UNL     1      -0.542   0.003  -2.051  1.00  0.00     0.203 A 
ATOM     25  N   UNL     1      -0.774  -1.106  -1.391  1.00  0.00    -0.219 NA
ATOM     26  S   UNL     1      -0.081  -0.254  -3.699  1.00  0.00    -0.103 S 
ATOM     27  C   UNL     1      -0.269  -2.191  -2.076  1.00  0.00     0.084 A 
ATOM     28  C   UNL     1       0.163  -1.923  -3.357  1.00  0.00     0.097 A 
BRANCH  27  29
ATOM     29  C   UNL     1      -0.131  -3.459  -1.387  1.00  0.00     0.001 A 
ATOM     30  C   UNL     1      -1.232  -3.990  -0.704  1.00  0.00     0.012 A 
ATOM     31  C   UNL     1       1.120  -4.082  -1.269  1.00  0.00     0.012 A 
ATOM     32  C   UNL     1      -1.094  -5.143   0.071  1.00  0.00     0.021 A 
ATOM     33  C   UNL     1       1.260  -5.230  -0.483  1.00  0.00     0.021 A 
ATOM     34  C   UNL     1       0.152  -5.757   0.180  1.00  0.00     0.041 A 
ATOM     35  Cl  UNL     1       0.331  -7.161   1.158  1.00  0.00    -0.084 Cl
ENDBRANCH  27  29
ENDBRANCH  22  24
ENDBRANCH  21  22
ENDBRANCH  14  19
ENDBRANCH   8  13
ENDBRANCH   4   7
ENDBRANCH   2   3
ENDBRANCH   1   2
BRANCH   1  36
ATOM     36  C   UNL     1       9.645   5.834   5.781  1.00  0.00     0.002 C 
BRANCH  36  37
ATOM     37  C   UNL     1      10.859   5.435   4.929  1.00  0.00     0.002 C 
BRANCH  37  38
ATOM     38  C   UNL     1      10.815   5.880   3.460  1.00  0.00     0.021 C 
BRANCH  38  39
ATOM     39  C   UNL     1      10.892   7.392   3.280  1.00  0.00     0.116 C 
BRANCH  39  40
ATOM     40  N   UNL     1      12.205   7.904   3.646  1.00  0.00    -0.352 N 
ATOM     41  C   UNL     1      12.669   9.196   3.613  1.00  0.00     0.251 C 
ATOM     42  H   UNL     1      12.849   7.230   3.961  1.00  0.00     0.163 HD
ATOM     43  O   UNL     1      13.874   9.418   3.616  1.00  0.00    -0.269 OA
BRANCH  41  44
ATOM     44  C   UNL     1      11.717  10.319   3.553  1.00  0.00     0.039 A 
ATOM     45  C   UNL     1      11.989  11.395   2.704  1.00  0.00     0.014 A 
ATOM     46  C   UNL     1      10.573  10.319   4.354  1.00  0.00     0.014 A 
ATOM     47  C   UNL     1      11.069  12.433   2.605  1.00  0.00     0.010 A 
ATOM     48  C   UNL     1       9.626  11.319   4.209  1.00  0.00     0.010 A 
ATOM     49  C   UNL     1       9.872  12.380   3.337  1.00  0.00    -0.014 A 
BRANCH  49  50
ATOM     50  C   UNL     1       8.815  13.345   3.026  1.00  0.00     0.031 A 
ATOM     51  C   UNL     1       8.388  13.350   1.596  1.00  0.00     0.074 A 
ATOM     52  C   UNL     1       8.101  14.034   3.939  1.00  0.00     0.049 A 
ATOM     53  N   UNL     1       8.461  14.319   0.744  1.00  0.00    -0.248 NA
ATOM     54  C   UNL     1       7.910  12.082   1.020  1.00  0.00     0.031 C 
ATOM     55  C   UNL     1       8.149  13.907   5.398  1.00  0.00     0.029 A 
ATOM     56  N   UNL     1       7.081  14.922   3.741  1.00  0.00    -0.354 N 
ATOM     57  C   UNL     1       7.879  13.846  -0.431  1.00  0.00     0.074 A 
ATOM     58  C   UNL     1       7.696  12.429  -0.250  1.00  0.00     0.031 C 
ATOM     59  C   UNL     1       7.062  14.506   5.935  1.00  0.00     0.029 A 
ATOM     60  C   UNL     1       6.329  15.184   4.880  1.00  0.00     0.049 A 
ATOM     61  H   UNL     1       6.896  15.339   2.869  1.00  0.00     0.167 HD
ATOM     62  C   UNL     1       7.378  14.695  -1.371  1.00  0.00     0.031 A 
ATOM     63  C   UNL     1       5.169  15.879   4.953  1.00  0.00     0.031 A 
ATOM     64  C   UNL     1       7.858  16.040  -1.181  1.00  0.00     0.049 A 
ATOM     65  C   UNL     1       5.052  16.699   3.731  1.00  0.00     0.074 A 
ATOM     66  C   UNL     1       9.090  16.660  -1.183  1.00  0.00     0.029 A 
ATOM     67  N   UNL     1       6.986  16.917  -0.585  1.00  0.00    -0.354 N 
ATOM     68  N   UNL     1       5.797  17.735   3.479  1.00  0.00    -0.248 NA
ATOM     69  C   UNL     1       4.314  16.170   2.595  1.00  0.00     0.031 C 
ATOM     70  C   UNL     1       8.987  17.694  -0.206  1.00  0.00     0.029 A 
ATOM     71  C   UNL     1       7.687  17.684   0.302  1.00  0.00     0.049 A 
ATOM     72  H   UNL     1       6.021  16.982  -0.766  1.00  0.00     0.167 HD
ATOM     73  C   UNL     1       5.975  17.710   2.107  1.00  0.00     0.074 A 
ATOM     74  C   UNL     1       4.922  16.832   1.608  1.00  0.00     0.031 C 
ATOM     75  C   UNL     1       7.133  18.169   1.548  1.00  0.00     0.031 A 
BRANCH  62  76
ATOM     76  C   UNL     1       6.112  14.421  -2.160  1.00  0.00    -0.014 A 
ATOM     77  C   UNL     1       5.632  15.425  -3.026  1.00  0.00     0.009 A 
ATOM     78  C   UNL     1       5.218  13.376  -1.861  1.00  0.00     0.009 A 
ATOM     79  C   UNL     1       4.302  15.443  -3.464  1.00  0.00     0.001 A 
ATOM     80  C   UNL     1       3.902  13.367  -2.334  1.00  0.00     0.001 A 
ATOM     81  C   UNL     1       3.433  14.420  -3.104  1.00  0.00     0.000 A 
ENDBRANCH  62  76
BRANCH  63  82
ATOM     82  C   UNL     1       4.056  15.777   5.920  1.00  0.00    -0.014 A 
ATOM     83  C   UNL     1       3.121  16.819   6.043  1.00  0.00     0.009 A 
ATOM     84  C   UNL     1       3.751  14.548   6.529  1.00  0.00     0.009 A 
ATOM     85  C   UNL     1       1.903  16.620   6.706  1.00  0.00     0.001 A 
ATOM     86  C   UNL     1       2.538  14.351   7.198  1.00  0.00     0.001 A 
ATOM     87  C   UNL     1       1.607  15.382   7.270  1.00  0.00     0.000 A 
ENDBRANCH  63  82
BRANCH  75  88
ATOM     88  C   UNL     1       8.033  19.035   2.392  1.00  0.00    -0.014 A 
ATOM     89  C   UNL     1       8.597  18.614   3.609  1.00  0.00     0.009 A 
ATOM     90  C   UNL     1       8.423  20.278   1.871  1.00  0.00     0.009 A 
ATOM     91  C   UNL     1       9.496  19.432   4.299  1.00  0.00     0.001 A 
ATOM     92  C   UNL     1       9.341  21.082   2.547  1.00  0.00     0.001 A 
ATOM     93  C   UNL     1       9.871  20.663   3.765  1.00  0.00     0.000 A 
ENDBRANCH  75  88
ENDBRANCH  49  50
ENDBRANCH  41  44
ENDBRANCH  39  40
ENDBRANCH  38  39
ENDBRANCH  37  38
ENDBRANCH  36  37
ENDBRANCH   1  36
TORSDOF 18
