REMARK SMILES C[C@]1(C(=O)NCCCCCCNC(=O)c2ccc(-c3c4nc(c(-c5ccccc5)c5ccc([nH]5)c(-c5ccccc5)c5nc(c(-c6ccccc6)c6ccc3[nH]6)C=C5)C=C4)cc2)[NH2+]C2(C(=O)c3ccccc3C2=O)[C@@H]2C(=O)N(c3ccccc3)C(=O)[C@H]21
REMARK SMILES IDX 9 1 8 2 7 3 6 4 5 5 3 6 4 7 2 9 1 10 63 11 87 12 64 13 75 16
REMARK SMILES IDX 85 17 65 18 73 19 76 20 78 21 86 22 66 23 67 24 72 25 74 26
REMARK SMILES IDX 77 27 68 28 71 29 69 30 70 31 79 32 80 33 84 34 81 35 83 36
REMARK SMILES IDX 82 37 10 38 11 39 12 40 13 41 14 43 15 44 16 45 62 46 17 47
REMARK SMILES IDX 61 48 18 49 19 50 20 51 55 52 21 53 60 54 54 55 56 56 22 57
REMARK SMILES IDX 59 58 53 59 52 60 23 62 45 63 30 64 44 65 31 66 34 67 43 68
REMARK SMILES IDX 57 69 32 70 33 71 42 73 58 74 35 75 24 76 25 77 29 78 26 79
REMARK SMILES IDX 28 80 27 81 46 82 47 83 51 84 48 85 50 86 49 87 36 88 37 89
REMARK SMILES IDX 41 90 38 91 40 92 39 93
REMARK H PARENT 5 8 63 14 63 15 12 42 56 61 34 72
REMARK Flexibility Score: inf
ROOT
ATOM      1  C   UNL     1      -4.146   1.870  -5.232  1.00  0.00     0.002 C 
ENDROOT
BRANCH   1   2
ATOM      2  C   UNL     1      -4.178   0.443  -4.670  1.00  0.00     0.002 C 
BRANCH   2   3
ATOM      3  C   UNL     1      -2.841  -0.199  -4.313  1.00  0.00     0.021 C 
BRANCH   3   4
ATOM      4  C   UNL     1      -1.915   0.605  -3.411  1.00  0.00     0.116 C 
BRANCH   4   5
ATOM      5  N   UNL     1      -1.935   0.322  -2.006  1.00  0.00    -0.351 N 
ATOM      6  C   UNL     1      -0.916   0.226  -1.103  1.00  0.00     0.281 C 
ATOM      7  O   UNL     1      -1.298  -0.080   0.038  1.00  0.00    -0.268 OA
ATOM      8  H   UNL     1      -2.832   0.173  -1.630  1.00  0.00     0.163 HD
BRANCH   6   9
ATOM      9  C   UNL     1       0.638   0.469  -1.380  1.00  0.00     0.186 C 
ATOM     10  C   UNL     1       1.352   0.116  -0.046  1.00  0.00     0.091 C 
ATOM     11  N   UNL     1       1.217  -0.409  -2.482  1.00  0.00    -0.314 N 
ATOM     12  C   UNL     1       1.114   1.833  -1.802  1.00  0.00     0.170 C 
ATOM     13  C   UNL     1       1.718   0.481  -3.621  1.00  0.00     0.236 C 
ATOM     14  H   UNL     1       0.495  -1.038  -2.832  1.00  0.00     0.348 HD
ATOM     15  H   UNL     1       1.991  -0.960  -2.111  1.00  0.00     0.348 HD
ATOM     16  C   UNL     1       1.095   1.809  -3.313  1.00  0.00     0.177 C 
ATOM     17  C   UNL     1       0.452   3.134  -1.530  1.00  0.00     0.244 C 
ATOM     18  C   UNL     1       3.244   0.478  -3.767  1.00  0.00     0.232 C 
ATOM     19  C   UNL     1       1.272  -0.146  -4.958  1.00  0.00     0.232 C 
ATOM     20  C   UNL     1       1.504   3.215  -3.594  1.00  0.00     0.245 C 
ATOM     21  N   UNL     1       0.884   3.950  -2.579  1.00  0.00    -0.250 N 
ATOM     22  O   UNL     1      -0.264   3.383  -0.583  1.00  0.00    -0.273 OA
ATOM     23  O   UNL     1       4.053   0.837  -2.931  1.00  0.00    -0.286 OA
ATOM     24  C   UNL     1       3.594  -0.085  -5.084  1.00  0.00     0.036 A 
ATOM     25  C   UNL     1       2.442  -0.478  -5.744  1.00  0.00     0.036 A 
ATOM     26  O   UNL     1       0.158  -0.361  -5.398  1.00  0.00    -0.286 OA
ATOM     27  O   UNL     1       2.084   3.581  -4.602  1.00  0.00    -0.273 OA
ATOM     28  C   UNL     1       4.827  -0.261  -5.682  1.00  0.00     0.013 A 
ATOM     29  C   UNL     1       2.449  -1.085  -6.989  1.00  0.00     0.013 A 
ATOM     30  C   UNL     1       4.862  -0.856  -6.956  1.00  0.00     0.001 A 
ATOM     31  C   UNL     1       3.683  -1.273  -7.601  1.00  0.00     0.001 A 
BRANCH  21  32
ATOM     32  C   UNL     1       0.485   5.295  -2.667  1.00  0.00     0.052 A 
ATOM     33  C   UNL     1       0.650   6.150  -1.570  1.00  0.00     0.027 A 
ATOM     34  C   UNL     1      -0.222   5.742  -3.789  1.00  0.00     0.027 A 
ATOM     35  C   UNL     1       0.120   7.440  -1.596  1.00  0.00     0.002 A 
ATOM     36  C   UNL     1      -0.800   7.014  -3.788  1.00  0.00     0.002 A 
ATOM     37  C   UNL     1      -0.623   7.864  -2.696  1.00  0.00     0.000 A 
ENDBRANCH  21  32
ENDBRANCH   6   9
ENDBRANCH   4   5
ENDBRANCH   3   4
ENDBRANCH   2   3
ENDBRANCH   1   2
BRANCH   1  38
ATOM     38  C   UNL     1      -3.171   2.169  -6.375  1.00  0.00     0.021 C 
BRANCH  38  39
ATOM     39  C   UNL     1      -3.237   1.258  -7.598  1.00  0.00     0.116 C 
BRANCH  39  40
ATOM     40  N   UNL     1      -4.562   1.173  -8.193  1.00  0.00    -0.352 N 
ATOM     41  C   UNL     1      -4.991   1.449  -9.469  1.00  0.00     0.251 C 
ATOM     42  H   UNL     1      -5.269   0.868  -7.579  1.00  0.00     0.163 HD
ATOM     43  O   UNL     1      -6.187   1.393  -9.740  1.00  0.00    -0.269 OA
BRANCH  41  44
ATOM     44  C   UNL     1      -4.026   1.859 -10.513  1.00  0.00     0.039 A 
ATOM     45  C   UNL     1      -2.820   1.181 -10.694  1.00  0.00     0.014 A 
ATOM     46  C   UNL     1      -4.338   2.957 -11.322  1.00  0.00     0.014 A 
ATOM     47  C   UNL     1      -1.853   1.708 -11.547  1.00  0.00     0.010 A 
ATOM     48  C   UNL     1      -3.398   3.438 -12.236  1.00  0.00     0.010 A 
ATOM     49  C   UNL     1      -2.124   2.854 -12.313  1.00  0.00    -0.014 A 
BRANCH  49  50
ATOM     50  C   UNL     1      -1.057   3.452 -13.158  1.00  0.00     0.031 A 
ATOM     51  C   UNL     1      -0.513   4.821 -12.844  1.00  0.00     0.074 A 
ATOM     52  C   UNL     1      -0.541   2.745 -14.182  1.00  0.00     0.049 A 
ATOM     53  N   UNL     1       0.414   5.502 -13.470  1.00  0.00    -0.248 NA
ATOM     54  C   UNL     1      -1.079   5.517 -11.676  1.00  0.00     0.031 C 
ATOM     55  C   UNL     1      -0.960   1.397 -14.569  1.00  0.00     0.029 A 
ATOM     56  N   UNL     1       0.460   3.052 -15.070  1.00  0.00    -0.354 N 
ATOM     57  C   UNL     1       0.530   6.706 -12.784  1.00  0.00     0.074 A 
ATOM     58  C   UNL     1      -0.442   6.679 -11.714  1.00  0.00     0.031 C 
ATOM     59  C   UNL     1      -0.193   0.976 -15.586  1.00  0.00     0.029 A 
ATOM     60  C   UNL     1       0.725   2.046 -15.968  1.00  0.00     0.049 A 
ATOM     61  H   UNL     1       0.943   3.910 -15.064  1.00  0.00     0.167 HD
ATOM     62  C   UNL     1       1.379   7.734 -13.017  1.00  0.00     0.031 A 
ATOM     63  C   UNL     1       1.593   1.990 -16.996  1.00  0.00     0.031 A 
ATOM     64  C   UNL     1       2.353   7.755 -14.077  1.00  0.00     0.049 A 
ATOM     65  C   UNL     1       2.480   3.169 -17.276  1.00  0.00     0.074 A 
ATOM     66  C   UNL     1       3.266   8.750 -14.381  1.00  0.00     0.029 A 
ATOM     67  N   UNL     1       2.543   6.739 -14.999  1.00  0.00    -0.354 N 
ATOM     68  N   UNL     1       2.579   4.297 -16.615  1.00  0.00    -0.248 NA
ATOM     69  C   UNL     1       3.374   3.073 -18.438  1.00  0.00     0.031 C 
ATOM     70  C   UNL     1       3.965   8.364 -15.525  1.00  0.00     0.029 A 
ATOM     71  C   UNL     1       3.541   7.096 -15.890  1.00  0.00     0.049 A 
ATOM     72  H   UNL     1       2.044   5.890 -15.018  1.00  0.00     0.167 HD
ATOM     73  C   UNL     1       3.555   5.037 -17.269  1.00  0.00     0.074 A 
ATOM     74  C   UNL     1       4.031   4.224 -18.369  1.00  0.00     0.031 C 
ATOM     75  C   UNL     1       4.011   6.279 -16.980  1.00  0.00     0.031 A 
BRANCH  62  76
ATOM     76  C   UNL     1       1.300   8.940 -12.120  1.00  0.00    -0.014 A 
ATOM     77  C   UNL     1       0.857  10.167 -12.640  1.00  0.00     0.009 A 
ATOM     78  C   UNL     1       1.758   8.891 -10.794  1.00  0.00     0.009 A 
ATOM     79  C   UNL     1       0.890  11.323 -11.858  1.00  0.00     0.001 A 
ATOM     80  C   UNL     1       1.761  10.043 -10.005  1.00  0.00     0.001 A 
ATOM     81  C   UNL     1       1.338  11.259 -10.540  1.00  0.00     0.000 A 
ENDBRANCH  62  76
BRANCH  63  82
ATOM     82  C   UNL     1       1.651   0.759 -17.829  1.00  0.00    -0.014 A 
ATOM     83  C   UNL     1       0.561   0.395 -18.638  1.00  0.00     0.009 A 
ATOM     84  C   UNL     1       2.763  -0.094 -17.769  1.00  0.00     0.009 A 
ATOM     85  C   UNL     1       0.567  -0.812 -19.339  1.00  0.00     0.001 A 
ATOM     86  C   UNL     1       2.780  -1.286 -18.498  1.00  0.00     0.001 A 
ATOM     87  C   UNL     1       1.678  -1.650 -19.271  1.00  0.00     0.000 A 
ENDBRANCH  63  82
BRANCH  75  88
ATOM     88  C   UNL     1       5.097   6.856 -17.845  1.00  0.00    -0.014 A 
ATOM     89  C   UNL     1       6.380   7.057 -17.308  1.00  0.00     0.009 A 
ATOM     90  C   UNL     1       4.820   7.323 -19.139  1.00  0.00     0.009 A 
ATOM     91  C   UNL     1       7.356   7.736 -18.039  1.00  0.00     0.001 A 
ATOM     92  C   UNL     1       5.808   7.976 -19.879  1.00  0.00     0.001 A 
ATOM     93  C   UNL     1       7.070   8.193 -19.324  1.00  0.00     0.000 A 
ENDBRANCH  75  88
ENDBRANCH  49  50
ENDBRANCH  41  44
ENDBRANCH  39  40
ENDBRANCH  38  39
ENDBRANCH   1  38
TORSDOF 14
