REMARK SMILES Cc1cc(NCc2ccc(C(=O)NCCCCCCNC(=O)c3ccc(-c4c5nc(c(-c6ccccc6)c6ccc([nH]6)c(-c6ccccc6)c6nc(c(-c7ccccc7)c7ccc4[nH]7)C=C6)C=C5)cc3)o2)ccc1F
REMARK SMILES IDX 16 1 15 2 14 3 13 4 11 5 12 6 10 8 7 9 8 10 71 11 9 12 6 13
REMARK SMILES IDX 5 14 4 16 1 17 2 18 3 19 74 20 73 21 75 22 72 23 17 24 18 25
REMARK SMILES IDX 19 26 20 27 21 28 22 30 23 31 24 32 70 33 25 34 69 35 26 36
REMARK SMILES IDX 27 37 28 38 63 39 29 40 68 41 62 42 64 43 30 44 67 45 61 46
REMARK SMILES IDX 60 47 31 49 53 50 38 51 52 52 39 53 42 54 51 55 65 56 40 57
REMARK SMILES IDX 41 58 50 60 66 61 43 62 32 63 33 64 37 65 34 66 36 67 35 68
REMARK SMILES IDX 54 69 55 70 59 71 56 72 58 73 57 74 44 75 45 76 49 77 46 78
REMARK SMILES IDX 48 79 47 80
REMARK H PARENT 13 7 5 15 20 29 64 48 42 59
REMARK Flexibility Score: inf
ROOT
ATOM      1  C   UNL     1      -8.458   1.659   7.430  1.00  0.00     0.002 C 
ENDROOT
BRANCH   1   2
ATOM      2  C   UNL     1      -7.882   0.735   6.346  1.00  0.00     0.021 C 
BRANCH   2   3
ATOM      3  C   UNL     1      -8.417   1.027   4.944  1.00  0.00     0.116 C 
BRANCH   3   4
ATOM      4  N   UNL     1      -7.753   2.175   4.367  1.00  0.00    -0.349 N 
ATOM      5  C   UNL     1      -6.848   2.296   3.341  1.00  0.00     0.286 C 
ATOM      6  O   UNL     1      -6.533   3.455   3.058  1.00  0.00    -0.266 OA
ATOM      7  H   UNL     1      -7.996   3.030   4.789  1.00  0.00     0.163 HD
BRANCH   5   8
ATOM      8  C   UNL     1      -6.319   1.145   2.628  1.00  0.00     0.191 A 
ATOM      9  C   UNL     1      -5.252   0.251   0.898  1.00  0.00     0.124 A 
ATOM     10  C   UNL     1      -5.581  -0.795   1.727  1.00  0.00     0.048 A 
ATOM     11  O   UNL     1      -5.703   1.419   1.430  1.00  0.00    -0.454 OA
ATOM     12  C   UNL     1      -6.236  -0.220   2.848  1.00  0.00     0.056 A 
BRANCH   9  13
ATOM     13  C   UNL     1      -4.526   0.362  -0.396  1.00  0.00     0.188 C 
BRANCH  13  14
ATOM     14  N   UNL     1      -3.258   1.067  -0.303  1.00  0.00    -0.378 N 
ATOM     15  H   UNL     1      -3.290   2.048  -0.380  1.00  0.00     0.161 HD
BRANCH  14  16
ATOM     16  C   UNL     1      -2.015   0.499  -0.116  1.00  0.00     0.035 A 
ATOM     17  C   UNL     1       1.596   1.774   0.036  1.00  0.00     0.047 C 
ATOM     18  C   UNL     1       0.414   0.854   0.019  1.00  0.00    -0.013 A 
ATOM     19  C   UNL     1      -0.895   1.350  -0.080  1.00  0.00     0.032 A 
ATOM     20  C   UNL     1       0.598  -0.524   0.074  1.00  0.00     0.126 A 
ATOM     21  C   UNL     1      -0.486  -1.391   0.036  1.00  0.00     0.041 A 
ATOM     22  F   UNL     1       1.835  -1.033   0.155  1.00  0.00    -0.207 F 
ATOM     23  C   UNL     1      -1.784  -0.879  -0.066  1.00  0.00     0.029 A 
ENDBRANCH  14  16
ENDBRANCH  13  14
ENDBRANCH   9  13
ENDBRANCH   5   8
ENDBRANCH   3   4
ENDBRANCH   2   3
ENDBRANCH   1   2
BRANCH   1  24
ATOM     24  C   UNL     1      -9.981   1.593   7.606  1.00  0.00     0.002 C 
BRANCH  24  25
ATOM     25  C   UNL     1     -10.556   0.188   7.808  1.00  0.00     0.021 C 
BRANCH  25  26
ATOM     26  C   UNL     1     -10.028  -0.542   9.039  1.00  0.00     0.116 C 
BRANCH  26  27
ATOM     27  N   UNL     1     -10.431   0.112  10.274  1.00  0.00    -0.352 N 
ATOM     28  C   UNL     1     -11.120  -0.398  11.346  1.00  0.00     0.251 C 
ATOM     29  H   UNL     1     -10.172   1.058  10.352  1.00  0.00     0.163 HD
ATOM     30  O   UNL     1     -11.554   0.352  12.214  1.00  0.00    -0.269 OA
BRANCH  28  31
ATOM     31  C   UNL     1     -11.353  -1.854  11.449  1.00  0.00     0.039 A 
ATOM     32  C   UNL     1     -12.622  -2.310  11.818  1.00  0.00     0.014 A 
ATOM     33  C   UNL     1     -10.322  -2.766  11.204  1.00  0.00     0.014 A 
ATOM     34  C   UNL     1     -12.872  -3.683  11.886  1.00  0.00     0.010 A 
ATOM     35  C   UNL     1     -10.590  -4.132  11.208  1.00  0.00     0.010 A 
ATOM     36  C   UNL     1     -11.866  -4.604  11.552  1.00  0.00    -0.014 A 
BRANCH  36  37
ATOM     37  C   UNL     1     -12.131  -6.064  11.555  1.00  0.00     0.031 A 
ATOM     38  C   UNL     1     -11.420  -6.962  12.530  1.00  0.00     0.074 A 
ATOM     39  C   UNL     1     -12.964  -6.591  10.638  1.00  0.00     0.049 A 
ATOM     40  N   UNL     1     -11.479  -8.264  12.646  1.00  0.00    -0.248 NA
ATOM     41  C   UNL     1     -10.506  -6.314  13.484  1.00  0.00     0.031 C 
ATOM     42  C   UNL     1     -13.687  -5.834   9.614  1.00  0.00     0.029 A 
ATOM     43  N   UNL     1     -13.340  -7.893  10.416  1.00  0.00    -0.354 N 
ATOM     44  C   UNL     1     -10.600  -8.592  13.671  1.00  0.00     0.074 A 
ATOM     45  C   UNL     1      -9.986  -7.358  14.112  1.00  0.00     0.031 C 
ATOM     46  C   UNL     1     -14.437  -6.681   8.890  1.00  0.00     0.029 A 
ATOM     47  C   UNL     1     -14.219  -8.041   9.371  1.00  0.00     0.049 A 
ATOM     48  H   UNL     1     -13.009  -8.648  10.954  1.00  0.00     0.167 HD
ATOM     49  C   UNL     1     -10.340  -9.807  14.210  1.00  0.00     0.031 A 
ATOM     50  C   UNL     1     -14.784  -9.148   8.855  1.00  0.00     0.031 A 
ATOM     51  C   UNL     1     -10.958 -11.033  13.780  1.00  0.00     0.049 A 
ATOM     52  C   UNL     1     -14.467 -10.487   9.460  1.00  0.00     0.074 A 
ATOM     53  C   UNL     1     -10.806 -12.305  14.304  1.00  0.00     0.029 A 
ATOM     54  N   UNL     1     -11.845 -11.139  12.720  1.00  0.00    -0.354 N 
ATOM     55  N   UNL     1     -13.686 -10.770  10.473  1.00  0.00    -0.248 NA
ATOM     56  C   UNL     1     -15.118 -11.657   8.853  1.00  0.00     0.031 C 
ATOM     57  C   UNL     1     -11.563 -13.190  13.528  1.00  0.00     0.029 A 
ATOM     58  C   UNL     1     -12.227 -12.460  12.556  1.00  0.00     0.049 A 
ATOM     59  H   UNL     1     -12.157 -10.387  12.166  1.00  0.00     0.167 HD
ATOM     60  C   UNL     1     -13.769 -12.146  10.641  1.00  0.00     0.074 A 
ATOM     61  C   UNL     1     -14.689 -12.637   9.636  1.00  0.00     0.031 C 
ATOM     62  C   UNL     1     -13.139 -12.933  11.547  1.00  0.00     0.031 A 
BRANCH  49  63
ATOM     63  C   UNL     1      -9.332  -9.867  15.324  1.00  0.00    -0.014 A 
ATOM     64  C   UNL     1      -9.620  -9.344  16.594  1.00  0.00     0.009 A 
ATOM     65  C   UNL     1      -8.090 -10.484  15.110  1.00  0.00     0.009 A 
ATOM     66  C   UNL     1      -8.670  -9.403  17.616  1.00  0.00     0.001 A 
ATOM     67  C   UNL     1      -7.153 -10.567  16.141  1.00  0.00     0.001 A 
ATOM     68  C   UNL     1      -7.440 -10.018  17.390  1.00  0.00     0.000 A 
ENDBRANCH  49  63
BRANCH  50  69
ATOM     69  C   UNL     1     -15.720  -9.038   7.707  1.00  0.00    -0.014 A 
ATOM     70  C   UNL     1     -17.094  -9.263   7.886  1.00  0.00     0.009 A 
ATOM     71  C   UNL     1     -15.247  -8.712   6.426  1.00  0.00     0.009 A 
ATOM     72  C   UNL     1     -17.971  -9.187   6.802  1.00  0.00     0.001 A 
ATOM     73  C   UNL     1     -16.131  -8.610   5.350  1.00  0.00     0.001 A 
ATOM     74  C   UNL     1     -17.490  -8.856   5.537  1.00  0.00     0.000 A 
ENDBRANCH  50  69
BRANCH  62  75
ATOM     75  C   UNL     1     -13.443 -14.403  11.508  1.00  0.00    -0.014 A 
ATOM     76  C   UNL     1     -12.940 -15.223  10.486  1.00  0.00     0.009 A 
ATOM     77  C   UNL     1     -14.210 -14.983  12.530  1.00  0.00     0.009 A 
ATOM     78  C   UNL     1     -13.224 -16.590  10.473  1.00  0.00     0.001 A 
ATOM     79  C   UNL     1     -14.470 -16.354  12.530  1.00  0.00     0.001 A 
ATOM     80  C   UNL     1     -13.984 -17.154  11.497  1.00  0.00     0.000 A 
ENDBRANCH  62  75
ENDBRANCH  36  37
ENDBRANCH  28  31
ENDBRANCH  26  27
ENDBRANCH  25  26
ENDBRANCH  24  25
ENDBRANCH   1  24
TORSDOF 16
