REMARK SMILES COc1cccc([C@@H]2CN(C(=O)c3cnn(C)c3)C[C@H]2C(=O)NCCCCCCNC(=O)c2ccc(-c3c4nc(c(-c5ccccc5)c5ccc([nH]5)c(-c5ccccc5)c5nc(c(-c6ccccc6)c6ccc3[nH]6)C=C5)C=C4)cc2)c1OC
REMARK SMILES IDX 26 1 25 2 24 3 23 4 21 5 22 6 20 8 8 9 9 10 10 11 19 12 7 13
REMARK SMILES IDX 3 14 4 15 81 16 5 17 6 18 2 19 1 20 82 21 83 22 11 23 12 24
REMARK SMILES IDX 13 25 14 26 18 27 15 28 16 29 17 30 27 31 28 32 29 33 30 34
REMARK SMILES IDX 31 35 32 37 33 38 34 39 80 40 35 41 79 42 36 43 37 44 38 45
REMARK SMILES IDX 73 46 39 47 78 48 72 49 74 50 40 51 77 52 71 53 70 54 41 56
REMARK SMILES IDX 63 57 48 58 62 59 49 60 52 61 61 62 75 63 50 64 51 65 60 67
REMARK SMILES IDX 76 68 53 69 42 70 43 71 47 72 44 73 46 74 45 75 64 76 65 77
REMARK SMILES IDX 69 78 66 79 68 80 67 81 54 82 55 83 59 84 56 85 58 86 57 87
REMARK H PARENT 23 7 30 36 74 55 52 66
REMARK Flexibility Score: inf
ROOT
ATOM      1  C   UNL     1       4.630   1.901   8.812  1.00  0.00     0.002 C 
ENDROOT
BRANCH   1   2
ATOM      2  C   UNL     1       4.810   2.458   7.395  1.00  0.00     0.021 C 
BRANCH   2   3
ATOM      3  C   UNL     1       5.567   1.545   6.433  1.00  0.00     0.116 C 
BRANCH   3   4
ATOM      4  N   UNL     1       4.809   0.352   6.108  1.00  0.00    -0.356 N 
ATOM      5  C   UNL     1       4.363  -0.139   4.921  1.00  0.00     0.225 C 
ATOM      6  O   UNL     1       3.761  -1.217   4.955  1.00  0.00    -0.275 OA
ATOM      7  H   UNL     1       4.574  -0.202   6.887  1.00  0.00     0.163 HD
BRANCH   5   8
ATOM      8  C   UNL     1       4.568   0.575   3.596  1.00  0.00     0.107 C 
ATOM      9  C   UNL     1       3.871   1.947   3.516  1.00  0.00     0.057 C 
ATOM     10  C   UNL     1       4.849   2.838   2.743  1.00  0.00     0.129 C 
ATOM     11  N   UNL     1       6.160   2.244   2.969  1.00  0.00    -0.337 N 
ATOM     12  C   UNL     1       6.035   0.827   3.271  1.00  0.00     0.134 C 
BRANCH   9  13
ATOM     13  C   UNL     1       2.462   1.934   2.951  1.00  0.00     0.004 A 
ATOM     14  C   UNL     1       0.825   1.496   1.198  1.00  0.00     0.161 A 
ATOM     15  C   UNL     1      -0.192   1.986   2.025  1.00  0.00     0.050 A 
ATOM     16  C   UNL     1       2.157   1.479   1.649  1.00  0.00     0.164 A 
ATOM     17  C   UNL     1       0.101   2.422   3.313  1.00  0.00     0.004 A 
ATOM     18  C   UNL     1       1.414   2.389   3.774  1.00  0.00     0.008 A 
BRANCH  14  19
ATOM     19  O   UNL     1       0.531   1.122  -0.088  1.00  0.00    -0.493 OA
ATOM     20  C   UNL     1      -0.448   0.083  -0.136  1.00  0.00     0.278 C 
ENDBRANCH  14  19
BRANCH  16  21
ATOM     21  O   UNL     1       3.232   1.101   0.884  1.00  0.00    -0.493 OA
ATOM     22  C   UNL     1       3.044  -0.033   0.046  1.00  0.00     0.278 C 
ENDBRANCH  16  21
ENDBRANCH   9  13
BRANCH  11  23
ATOM     23  C   UNL     1       7.393   2.775   2.647  1.00  0.00     0.257 C 
ATOM     24  O   UNL     1       8.415   2.074   2.667  1.00  0.00    -0.269 OA
BRANCH  23  25
ATOM     25  C   UNL     1       7.477   4.165   2.251  1.00  0.00     0.077 A 
ATOM     26  C   UNL     1       8.267   4.701   1.207  1.00  0.00     0.149 A 
ATOM     27  C   UNL     1       6.897   5.284   2.825  1.00  0.00     0.122 A 
ATOM     28  N   UNL     1       8.132   6.024   1.079  1.00  0.00    -0.181 NA
ATOM     29  N   UNL     1       7.285   6.351   2.069  1.00  0.00    -0.275 N 
ATOM     30  C   UNL     1       6.875   7.724   2.230  1.00  0.00     0.173 C 
ENDBRANCH  23  25
ENDBRANCH  11  23
ENDBRANCH   5   8
ENDBRANCH   3   4
ENDBRANCH   2   3
ENDBRANCH   1   2
BRANCH   1  31
ATOM     31  C   UNL     1       5.917   1.505   9.543  1.00  0.00     0.002 C 
BRANCH  31  32
ATOM     32  C   UNL     1       7.026   2.561   9.568  1.00  0.00     0.021 C 
BRANCH  32  33
ATOM     33  C   UNL     1       6.631   3.917  10.145  1.00  0.00     0.116 C 
BRANCH  33  34
ATOM     34  N   UNL     1       6.279   3.848  11.552  1.00  0.00    -0.352 N 
ATOM     35  C   UNL     1       6.646   4.686  12.576  1.00  0.00     0.251 C 
ATOM     36  H   UNL     1       5.696   3.097  11.807  1.00  0.00     0.163 HD
ATOM     37  O   UNL     1       6.357   4.406  13.736  1.00  0.00    -0.269 OA
BRANCH  35  38
ATOM     38  C   UNL     1       7.412   5.919  12.290  1.00  0.00     0.039 A 
ATOM     39  C   UNL     1       8.533   6.209  13.075  1.00  0.00     0.014 A 
ATOM     40  C   UNL     1       7.016   6.800  11.279  1.00  0.00     0.014 A 
ATOM     41  C   UNL     1       9.286   7.356  12.815  1.00  0.00     0.010 A 
ATOM     42  C   UNL     1       7.793   7.921  10.993  1.00  0.00     0.010 A 
ATOM     43  C   UNL     1       8.932   8.210  11.760  1.00  0.00    -0.014 A 
BRANCH  43  44
ATOM     44  C   UNL     1       9.728   9.424  11.456  1.00  0.00     0.031 A 
ATOM     45  C   UNL     1       9.150  10.786  11.717  1.00  0.00     0.074 A 
ATOM     46  C   UNL     1      10.945   9.306  10.893  1.00  0.00     0.049 A 
ATOM     47  N   UNL     1       9.650  11.963  11.435  1.00  0.00    -0.248 NA
ATOM     48  C   UNL     1       7.829  10.830  12.362  1.00  0.00     0.031 C 
ATOM     49  C   UNL     1      11.613   8.045  10.569  1.00  0.00     0.029 A 
ATOM     50  N   UNL     1      11.832  10.270  10.485  1.00  0.00    -0.354 N 
ATOM     51  C   UNL     1       8.695  12.884  11.842  1.00  0.00     0.074 A 
ATOM     52  C   UNL     1       7.577  12.131  12.370  1.00  0.00     0.031 C 
ATOM     53  C   UNL     1      12.813   8.312  10.027  1.00  0.00     0.029 A 
ATOM     54  C   UNL     1      12.983   9.760   9.938  1.00  0.00     0.049 A 
ATOM     55  H   UNL     1      11.660  11.235  10.575  1.00  0.00     0.167 HD
ATOM     56  C   UNL     1       8.745  14.236  11.790  1.00  0.00     0.031 A 
ATOM     57  C   UNL     1      14.055  10.387   9.419  1.00  0.00     0.031 A 
ATOM     58  C   UNL     1       9.861  14.993  11.292  1.00  0.00     0.049 A 
ATOM     59  C   UNL     1      14.094  11.888   9.386  1.00  0.00     0.074 A 
ATOM     60  C   UNL     1      10.017  16.368  11.237  1.00  0.00     0.029 A 
ATOM     61  N   UNL     1      11.017  14.437  10.770  1.00  0.00    -0.354 N 
ATOM     62  N   UNL     1      13.191  12.744   9.797  1.00  0.00    -0.248 NA
ATOM     63  C   UNL     1      15.302  12.506   8.822  1.00  0.00     0.031 C 
ATOM     64  C   UNL     1      11.262  16.643  10.661  1.00  0.00     0.029 A 
ATOM     65  C   UNL     1      11.889  15.440  10.384  1.00  0.00     0.049 A 
ATOM     66  H   UNL     1      11.191  13.472  10.685  1.00  0.00     0.167 HD
ATOM     67  C   UNL     1      13.731  14.001   9.562  1.00  0.00     0.074 A 
ATOM     68  C   UNL     1      15.041  13.796   8.978  1.00  0.00     0.031 C 
ATOM     69  C   UNL     1      13.189  15.218   9.810  1.00  0.00     0.031 A 
BRANCH  56  70
ATOM     70  C   UNL     1       7.540  14.982  12.282  1.00  0.00    -0.014 A 
ATOM     71  C   UNL     1       7.277  15.108  13.655  1.00  0.00     0.009 A 
ATOM     72  C   UNL     1       6.665  15.579  11.361  1.00  0.00     0.009 A 
ATOM     73  C   UNL     1       6.142  15.790  14.095  1.00  0.00     0.001 A 
ATOM     74  C   UNL     1       5.542  16.278  11.806  1.00  0.00     0.001 A 
ATOM     75  C   UNL     1       5.277  16.376  13.171  1.00  0.00     0.000 A 
ENDBRANCH  56  70
BRANCH  57  76
ATOM     76  C   UNL     1      15.196   9.594   8.902  1.00  0.00    -0.014 A 
ATOM     77  C   UNL     1      16.371   9.473   9.659  1.00  0.00     0.009 A 
ATOM     78  C   UNL     1      15.117   8.953   7.657  1.00  0.00     0.009 A 
ATOM     79  C   UNL     1      17.453   8.740   9.170  1.00  0.00     0.001 A 
ATOM     80  C   UNL     1      16.195   8.206   7.179  1.00  0.00     0.001 A 
ATOM     81  C   UNL     1      17.363   8.104   7.933  1.00  0.00     0.000 A 
ENDBRANCH  57  76
BRANCH  69  82
ATOM     82  C   UNL     1      14.026  16.417   9.481  1.00  0.00    -0.014 A 
ATOM     83  C   UNL     1      14.142  16.876   8.161  1.00  0.00     0.009 A 
ATOM     84  C   UNL     1      14.676  17.115  10.510  1.00  0.00     0.009 A 
ATOM     85  C   UNL     1      14.915  18.003   7.874  1.00  0.00     0.001 A 
ATOM     86  C   UNL     1      15.434  18.250  10.222  1.00  0.00     0.001 A 
ATOM     87  C   UNL     1      15.557  18.690   8.904  1.00  0.00     0.000 A 
ENDBRANCH  69  82
ENDBRANCH  43  44
ENDBRANCH  35  38
ENDBRANCH  33  34
ENDBRANCH  32  33
ENDBRANCH  31  32
ENDBRANCH   1  31
TORSDOF 18
