REMARK SMILES N#Cc1nccnc1N(CC(=O)NCCCCCCNC(=O)c1ccc(-c2c3nc(c(-c4ccccc4)c4ccc([nH]4)c(-c4ccccc4)c4nc(c(-c5ccccc5)c5ccc2[nH]5)C=C4)C=C3)cc1)CC(F)(F)F
REMARK SMILES IDX 16 1 15 2 14 3 13 4 11 5 12 6 10 8 9 9 8 10 3 11 4 12 5 13
REMARK SMILES IDX 7 14 6 15 2 16 1 17 71 18 72 19 73 20 74 21 75 22 17 23
REMARK SMILES IDX 18 24 19 25 20 26 21 27 22 29 23 30 24 31 70 32 25 33 69 34
REMARK SMILES IDX 26 35 27 36 28 37 63 38 29 39 68 40 62 41 64 42 30 43 67 44
REMARK SMILES IDX 61 45 60 46 31 48 53 49 38 50 52 51 39 52 42 53 51 54 65 55
REMARK SMILES IDX 40 56 41 57 50 59 66 60 43 61 32 62 33 63 37 64 34 65 36 66
REMARK SMILES IDX 35 67 54 68 55 69 59 70 56 71 58 72 57 73 44 74 45 75 49 76
REMARK SMILES IDX 46 77 48 78 47 79
REMARK H PARENT 13 7 20 28 64 47 42 58
REMARK Flexibility Score: inf
ROOT
ATOM      1  C   UNL     1       2.867  -3.298   4.450  1.00  0.00     0.002 C 
ENDROOT
BRANCH   1   2
ATOM      2  C   UNL     1       3.476  -2.518   3.280  1.00  0.00     0.021 C 
BRANCH   2   3
ATOM      3  C   UNL     1       4.568  -3.288   2.543  1.00  0.00     0.116 C 
BRANCH   3   4
ATOM      4  N   UNL     1       4.014  -4.410   1.814  1.00  0.00    -0.355 N 
ATOM      5  C   UNL     1       3.805  -4.528   0.470  1.00  0.00     0.239 C 
ATOM      6  O   UNL     1       3.208  -5.520   0.048  1.00  0.00    -0.273 OA
ATOM      7  H   UNL     1       3.754  -5.188   2.358  1.00  0.00     0.163 HD
BRANCH   5   8
ATOM      8  C   UNL     1       4.321  -3.447  -0.485  1.00  0.00     0.218 C 
BRANCH   8   9
ATOM      9  N   UNL     1       3.520  -2.192  -0.439  1.00  0.00    -0.336 N 
BRANCH   9  10
ATOM     10  C   UNL     1       4.204  -0.996  -0.279  1.00  0.00     0.166 A 
ATOM     11  C   UNL     1       3.709   0.322  -0.356  1.00  0.00     0.183 A 
ATOM     12  N   UNL     1       4.469   1.445  -0.133  1.00  0.00    -0.240 NA
ATOM     13  C   UNL     1       5.764   1.244   0.160  1.00  0.00     0.133 A 
ATOM     14  N   UNL     1       5.532  -1.122   0.006  1.00  0.00    -0.235 NA
ATOM     15  C   UNL     1       6.289  -0.021   0.222  1.00  0.00     0.133 A 
BRANCH  11  16
ATOM     16  C   UNL     1       2.365   0.662  -0.720  1.00  0.00     0.123 C 
ATOM     17  N   UNL     1       1.274   0.912  -1.031  1.00  0.00    -0.191 NA
ENDBRANCH  11  16
ENDBRANCH   9  10
BRANCH   9  18
ATOM     18  C   UNL     1       2.076  -2.350  -0.783  1.00  0.00     0.234 C 
BRANCH  18  19
ATOM     19  C   UNL     1       1.069  -2.236   0.378  1.00  0.00     0.405 C 
ATOM     20  F   UNL     1       1.297  -1.145   1.145  1.00  0.00    -0.169 F 
ATOM     21  F   UNL     1      -0.196  -2.145  -0.092  1.00  0.00    -0.169 F 
ATOM     22  F   UNL     1       1.115  -3.316   1.189  1.00  0.00    -0.169 F 
ENDBRANCH  18  19
ENDBRANCH   9  18
ENDBRANCH   8   9
ENDBRANCH   5   8
ENDBRANCH   3   4
ENDBRANCH   2   3
ENDBRANCH   1   2
BRANCH   1  23
ATOM     23  C   UNL     1       3.862  -3.611   5.572  1.00  0.00     0.002 C 
BRANCH  23  24
ATOM     24  C   UNL     1       4.578  -2.383   6.131  1.00  0.00     0.021 C 
BRANCH  24  25
ATOM     25  C   UNL     1       3.634  -1.319   6.672  1.00  0.00     0.116 C 
BRANCH  25  26
ATOM     26  N   UNL     1       2.908  -1.781   7.847  1.00  0.00    -0.352 N 
ATOM     27  C   UNL     1       2.893  -1.249   9.114  1.00  0.00     0.251 C 
ATOM     28  H   UNL     1       2.352  -2.584   7.716  1.00  0.00     0.163 HD
ATOM     29  O   UNL     1       2.406  -1.868  10.053  1.00  0.00    -0.269 OA
BRANCH  27  30
ATOM     30  C   UNL     1       3.513   0.073   9.331  1.00  0.00     0.039 A 
ATOM     31  C   UNL     1       3.263   1.112   8.433  1.00  0.00     0.014 A 
ATOM     32  C   UNL     1       4.413   0.246  10.384  1.00  0.00     0.014 A 
ATOM     33  C   UNL     1       4.066   2.242   8.461  1.00  0.00     0.010 A 
ATOM     34  C   UNL     1       5.136   1.437  10.478  1.00  0.00     0.010 A 
ATOM     35  C   UNL     1       5.013   2.420   9.482  1.00  0.00    -0.014 A 
BRANCH  35  36
ATOM     36  C   UNL     1       5.865   3.637   9.484  1.00  0.00     0.031 A 
ATOM     37  C   UNL     1       7.363   3.533   9.368  1.00  0.00     0.074 A 
ATOM     38  C   UNL     1       5.277   4.848   9.543  1.00  0.00     0.049 A 
ATOM     39  N   UNL     1       8.252   4.495   9.346  1.00  0.00    -0.248 NA
ATOM     40  C   UNL     1       7.944   2.184   9.267  1.00  0.00     0.031 C 
ATOM     41  C   UNL     1       3.832   5.075   9.626  1.00  0.00     0.029 A 
ATOM     42  N   UNL     1       5.810   6.112   9.515  1.00  0.00    -0.354 N 
ATOM     43  C   UNL     1       9.489   3.869   9.249  1.00  0.00     0.074 A 
ATOM     44  C   UNL     1       9.244   2.444   9.254  1.00  0.00     0.031 C 
ATOM     45  C   UNL     1       3.592   6.392   9.584  1.00  0.00     0.029 A 
ATOM     46  C   UNL     1       4.864   7.106   9.563  1.00  0.00     0.049 A 
ATOM     47  H   UNL     1       6.777   6.288   9.465  1.00  0.00     0.167 HD
ATOM     48  C   UNL     1      10.715   4.435   9.150  1.00  0.00     0.031 A 
ATOM     49  C   UNL     1       4.993   8.446   9.609  1.00  0.00     0.031 A 
ATOM     50  C   UNL     1      10.947   5.857   9.134  1.00  0.00     0.049 A 
ATOM     51  C   UNL     1       6.370   9.046   9.570  1.00  0.00     0.074 A 
ATOM     52  C   UNL     1      12.154   6.523   9.007  1.00  0.00     0.029 A 
ATOM     53  N   UNL     1       9.964   6.828   9.251  1.00  0.00    -0.354 N 
ATOM     54  N   UNL     1       7.526   8.441   9.444  1.00  0.00    -0.248 NA
ATOM     55  C   UNL     1       6.463  10.508   9.669  1.00  0.00     0.031 C 
ATOM     56  C   UNL     1      11.913   7.890   9.142  1.00  0.00     0.029 A 
ATOM     57  C   UNL     1      10.545   8.086   9.243  1.00  0.00     0.049 A 
ATOM     58  H   UNL     1       8.999   6.650   9.328  1.00  0.00     0.167 HD
ATOM     59  C   UNL     1       8.482   9.448   9.427  1.00  0.00     0.074 A 
ATOM     60  C   UNL     1       7.768  10.704   9.528  1.00  0.00     0.031 C 
ATOM     61  C   UNL     1       9.830   9.336   9.339  1.00  0.00     0.031 A 
BRANCH  48  62
ATOM     62  C   UNL     1      11.921   3.535   9.056  1.00  0.00    -0.014 A 
ATOM     63  C   UNL     1      12.894   3.568  10.070  1.00  0.00     0.009 A 
ATOM     64  C   UNL     1      12.167   2.758   7.913  1.00  0.00     0.009 A 
ATOM     65  C   UNL     1      14.096   2.873   9.929  1.00  0.00     0.001 A 
ATOM     66  C   UNL     1      13.355   2.032   7.791  1.00  0.00     0.001 A 
ATOM     67  C   UNL     1      14.325   2.103   8.791  1.00  0.00     0.000 A 
ENDBRANCH  48  62
BRANCH  49  68
ATOM     68  C   UNL     1       3.770   9.291   9.690  1.00  0.00    -0.014 A 
ATOM     69  C   UNL     1       2.913   9.204  10.802  1.00  0.00     0.009 A 
ATOM     70  C   UNL     1       3.409  10.132   8.628  1.00  0.00     0.009 A 
ATOM     71  C   UNL     1       1.704   9.901  10.827  1.00  0.00     0.001 A 
ATOM     72  C   UNL     1       2.219  10.863   8.675  1.00  0.00     0.001 A 
ATOM     73  C   UNL     1       1.359  10.733   9.766  1.00  0.00     0.000 A 
ENDBRANCH  49  68
BRANCH  61  74
ATOM     74  C   UNL     1      10.653  10.598   9.329  1.00  0.00    -0.014 A 
ATOM     75  C   UNL     1      11.425  10.917   8.199  1.00  0.00     0.009 A 
ATOM     76  C   UNL     1      10.772  11.397  10.476  1.00  0.00     0.009 A 
ATOM     77  C   UNL     1      12.323  11.984   8.228  1.00  0.00     0.001 A 
ATOM     78  C   UNL     1      11.641  12.491  10.488  1.00  0.00     0.001 A 
ATOM     79  C   UNL     1      12.427  12.773   9.371  1.00  0.00     0.000 A 
ENDBRANCH  61  74
ENDBRANCH  35  36
ENDBRANCH  27  30
ENDBRANCH  25  26
ENDBRANCH  24  25
ENDBRANCH  23  24
ENDBRANCH   1  23
TORSDOF 18
