REMARK SMILES COc1c[nH]c(C[N@H+]2CCC[C@@H](c3ccc(C(=O)NCCCCCCNC(=O)c4ccc(-c5c6nc(c(-c7ccccc7)c7ccc([nH]7)c(-c7ccccc7)c7nc(c(-c8ccccc8)c8ccc5[nH]8)C=C7)C=C6)cc4)cc3)C2)cc1=O
REMARK SMILES IDX 21 1 20 2 19 3 17 4 18 5 16 7 13 8 14 9 78 10 15 11 77 12
REMARK SMILES IDX 12 13 8 14 9 15 79 16 10 18 11 19 7 20 6 21 3 22 4 23 81 24
REMARK SMILES IDX 5 25 80 26 82 27 2 29 1 30 22 31 23 32 24 33 25 34 26 35
REMARK SMILES IDX 27 36 28 38 29 39 30 40 76 41 31 42 75 43 32 44 33 45 34 46
REMARK SMILES IDX 69 47 35 48 74 49 68 50 70 51 36 52 73 53 67 54 66 55 37 57
REMARK SMILES IDX 59 58 44 59 58 60 45 61 48 62 57 63 71 64 46 65 47 66 56 68
REMARK SMILES IDX 72 69 49 70 38 71 39 72 43 73 40 74 42 75 41 76 60 77 61 78
REMARK SMILES IDX 65 79 62 80 64 81 63 82 50 83 51 84 55 85 52 86 54 87 53 88
REMARK H PARENT 19 6 8 17 5 28 26 37 70 56 48 67
REMARK Flexibility Score: inf
ROOT
ATOM      1  C   UNL     1      -7.055   6.658  -8.978  1.00  0.00     0.021 C 
ENDROOT
BRANCH   1   2
ATOM      2  C   UNL     1      -6.780   6.372  -7.501  1.00  0.00     0.116 C 
BRANCH   2   3
ATOM      3  N   UNL     1      -6.859   4.947  -7.268  1.00  0.00    -0.352 N 
ATOM      4  C   UNL     1      -5.893   3.981  -7.188  1.00  0.00     0.251 C 
ATOM      5  O   UNL     1      -6.261   2.815  -7.042  1.00  0.00    -0.269 OA
ATOM      6  H   UNL     1      -7.776   4.610  -7.144  1.00  0.00     0.163 HD
BRANCH   4   7
ATOM      7  C   UNL     1      -4.438   4.293  -7.184  1.00  0.00     0.039 A 
ATOM      8  C   UNL     1      -1.681   4.819  -6.878  1.00  0.00    -0.039 A 
ATOM      9  C   UNL     1      -2.262   3.671  -6.316  1.00  0.00     0.005 A 
ATOM     10  C   UNL     1      -2.480   5.649  -7.670  1.00  0.00     0.005 A 
ATOM     11  C   UNL     1      -3.626   3.423  -6.451  1.00  0.00     0.014 A 
ATOM     12  C   UNL     1      -3.838   5.365  -7.849  1.00  0.00     0.014 A 
BRANCH   8  13
ATOM     13  C   UNL     1      -0.216   5.161  -6.653  1.00  0.00     0.074 C 
ATOM     14  N   UNL     1       1.563   5.311  -4.864  1.00  0.00    -0.329 N 
ATOM     15  C   UNL     1       2.397   4.361  -5.613  1.00  0.00     0.262 C 
ATOM     16  C   UNL     1       0.138   5.111  -5.151  1.00  0.00     0.270 C 
ATOM     17  H   UNL     1       1.802   6.250  -5.184  1.00  0.00     0.348 HD
ATOM     18  C   UNL     1       2.151   4.466  -7.120  1.00  0.00     0.062 C 
ATOM     19  C   UNL     1       0.685   4.220  -7.460  1.00  0.00     0.020 C 
BRANCH  14  20
ATOM     20  C   UNL     1       1.859   5.284  -3.413  1.00  0.00     0.317 C 
BRANCH  20  21
ATOM     21  C   UNL     1       1.604   3.964  -2.687  1.00  0.00     0.074 A 
ATOM     22  C   UNL     1       0.880   1.423  -1.602  1.00  0.00     0.182 A 
ATOM     23  C   UNL     1      -0.025   2.334  -1.980  1.00  0.00     0.133 A 
ATOM     24  C   UNL     1       2.325   1.837  -1.701  1.00  0.00     0.223 A 
ATOM     25  N   UNL     1       0.298   3.583  -2.435  1.00  0.00    -0.357 N 
ATOM     26  C   UNL     1       2.621   3.167  -2.309  1.00  0.00     0.083 A 
ATOM     27  O   UNL     1       3.253   1.123  -1.331  1.00  0.00    -0.286 OA
ATOM     28  H   UNL     1      -0.425   4.233  -2.590  1.00  0.00     0.166 HD
BRANCH  22  29
ATOM     29  O   UNL     1       0.491   0.152  -1.226  1.00  0.00    -0.491 OA
ATOM     30  C   UNL     1       0.923  -0.178   0.089  1.00  0.00     0.278 C 
ENDBRANCH  22  29
ENDBRANCH  20  21
ENDBRANCH  14  20
ENDBRANCH   8  13
ENDBRANCH   4   7
ENDBRANCH   2   3
ENDBRANCH   1   2
BRANCH   1  31
ATOM     31  C   UNL     1      -8.548   6.585  -9.324  1.00  0.00     0.002 C 
BRANCH  31  32
ATOM     32  C   UNL     1      -9.418   7.602  -8.577  1.00  0.00     0.002 C 
BRANCH  32  33
ATOM     33  C   UNL     1      -8.959   9.053  -8.728  1.00  0.00     0.021 C 
BRANCH  33  34
ATOM     34  C   UNL     1      -8.993   9.551 -10.166  1.00  0.00     0.116 C 
BRANCH  34  35
ATOM     35  N   UNL     1     -10.357   9.609 -10.672  1.00  0.00    -0.352 N 
ATOM     36  C   UNL     1     -11.032  10.688 -11.186  1.00  0.00     0.251 C 
ATOM     37  H   UNL     1     -10.861   8.764 -10.641  1.00  0.00     0.163 HD
ATOM     38  O   UNL     1     -12.246  10.658 -11.335  1.00  0.00    -0.269 OA
BRANCH  36  39
ATOM     39  C   UNL     1     -10.264  11.893 -11.550  1.00  0.00     0.039 A 
ATOM     40  C   UNL     1     -10.719  13.147 -11.141  1.00  0.00     0.014 A 
ATOM     41  C   UNL     1      -9.079  11.767 -12.281  1.00  0.00     0.014 A 
ATOM     42  C   UNL     1      -9.954  14.279 -11.424  1.00  0.00     0.010 A 
ATOM     43  C   UNL     1      -8.280  12.882 -12.488  1.00  0.00     0.010 A 
ATOM     44  C   UNL     1      -8.716  14.151 -12.075  1.00  0.00    -0.014 A 
BRANCH  44  45
ATOM     45  C   UNL     1      -7.864  15.327 -12.374  1.00  0.00     0.031 A 
ATOM     46  C   UNL     1      -7.561  15.676 -13.805  1.00  0.00     0.074 A 
ATOM     47  C   UNL     1      -7.299  16.023 -11.370  1.00  0.00     0.049 A 
ATOM     48  N   UNL     1      -6.745  16.580 -14.281  1.00  0.00    -0.248 NA
ATOM     49  C   UNL     1      -8.243  14.878 -14.839  1.00  0.00     0.031 C 
ATOM     50  C   UNL     1      -7.495  15.767  -9.941  1.00  0.00     0.029 A 
ATOM     51  N   UNL     1      -6.430  17.084 -11.402  1.00  0.00    -0.354 N 
ATOM     52  C   UNL     1      -6.797  16.442 -15.662  1.00  0.00     0.074 A 
ATOM     53  C   UNL     1      -7.680  15.334 -15.947  1.00  0.00     0.031 C 
ATOM     54  C   UNL     1      -6.783  16.661  -9.235  1.00  0.00     0.029 A 
ATOM     55  C   UNL     1      -6.043  17.517 -10.156  1.00  0.00     0.049 A 
ATOM     56  H   UNL     1      -6.112  17.496 -12.238  1.00  0.00     0.167 HD
ATOM     57  C   UNL     1      -6.179  17.184 -16.611  1.00  0.00     0.031 A 
ATOM     58  C   UNL     1      -5.178  18.485  -9.799  1.00  0.00     0.031 A 
ATOM     59  C   UNL     1      -5.311  18.294 -16.324  1.00  0.00     0.049 A 
ATOM     60  C   UNL     1      -4.482  19.278 -10.872  1.00  0.00     0.074 A 
ATOM     61  C   UNL     1      -4.676  19.142 -17.213  1.00  0.00     0.029 A 
ATOM     62  N   UNL     1      -4.955  18.707 -15.049  1.00  0.00    -0.354 N 
ATOM     63  N   UNL     1      -4.583  19.173 -12.175  1.00  0.00    -0.248 NA
ATOM     64  C   UNL     1      -3.561  20.331 -10.423  1.00  0.00     0.031 C 
ATOM     65  C   UNL     1      -3.889  20.033 -16.477  1.00  0.00     0.029 A 
ATOM     66  C   UNL     1      -4.090  19.784 -15.129  1.00  0.00     0.049 A 
ATOM     67  H   UNL     1      -5.272  18.296 -14.213  1.00  0.00     0.167 HD
ATOM     68  C   UNL     1      -3.771  20.170 -12.700  1.00  0.00     0.074 A 
ATOM     69  C   UNL     1      -3.192  20.874 -11.575  1.00  0.00     0.031 C 
ATOM     70  C   UNL     1      -3.531  20.479 -13.998  1.00  0.00     0.031 A 
BRANCH  57  71
ATOM     71  C   UNL     1      -6.414  16.807 -18.048  1.00  0.00    -0.014 A 
ATOM     72  C   UNL     1      -7.670  16.976 -18.653  1.00  0.00     0.009 A 
ATOM     73  C   UNL     1      -5.355  16.300 -18.817  1.00  0.00     0.009 A 
ATOM     74  C   UNL     1      -7.870  16.606 -19.985  1.00  0.00     0.001 A 
ATOM     75  C   UNL     1      -5.549  15.964 -20.158  1.00  0.00     0.001 A 
ATOM     76  C   UNL     1      -6.809  16.106 -20.737  1.00  0.00     0.000 A 
ENDBRANCH  57  71
BRANCH  58  77
ATOM     77  C   UNL     1      -4.924  18.767  -8.361  1.00  0.00    -0.014 A 
ATOM     78  C   UNL     1      -5.361  19.970  -7.784  1.00  0.00     0.009 A 
ATOM     79  C   UNL     1      -4.233  17.844  -7.561  1.00  0.00     0.009 A 
ATOM     80  C   UNL     1      -5.081  20.256  -6.445  1.00  0.00     0.001 A 
ATOM     81  C   UNL     1      -3.984  18.118  -6.215  1.00  0.00     0.001 A 
ATOM     82  C   UNL     1      -4.398  19.328  -5.661  1.00  0.00     0.000 A 
ENDBRANCH  58  77
BRANCH  70  83
ATOM     83  C   UNL     1      -2.650  21.665 -14.277  1.00  0.00    -0.014 A 
ATOM     84  C   UNL     1      -1.267  21.627 -14.042  1.00  0.00     0.009 A 
ATOM     85  C   UNL     1      -3.213  22.821 -14.842  1.00  0.00     0.009 A 
ATOM     86  C   UNL     1      -0.471  22.735 -14.340  1.00  0.00     0.001 A 
ATOM     87  C   UNL     1      -2.410  23.914 -15.169  1.00  0.00     0.001 A 
ATOM     88  C   UNL     1      -1.042  23.874 -14.909  1.00  0.00     0.000 A 
ENDBRANCH  70  83
ENDBRANCH  44  45
ENDBRANCH  36  39
ENDBRANCH  34  35
ENDBRANCH  33  34
ENDBRANCH  32  33
ENDBRANCH  31  32
ENDBRANCH   1  31
TORSDOF 17
