REMARK SMILES C[C@@H](C(=O)NCCCCCCNC(=O)c1ccc(-c2c3nc(c(-c4ccccc4)c4ccc([nH]4)c(-c4ccccc4)c4nc(c(-c5ccccc5)c5ccc2[nH]5)C=C4)C=C3)cc1)S(=O)(=O)N[C@@]12C[C@@H]3C[C@@](C)(C[C@@](C)(C3)C1)C2
REMARK SMILES IDX 8 1 7 2 6 3 5 4 3 5 4 6 2 8 1 9 63 10 64 11 65 12 66 13
REMARK SMILES IDX 67 15 68 16 77 17 78 18 69 19 74 20 71 21 76 22 70 23 73 24
REMARK SMILES IDX 75 25 72 26 9 27 10 28 11 29 12 30 13 31 14 33 15 34 16 35
REMARK SMILES IDX 62 36 17 37 61 38 18 39 19 40 20 41 55 42 21 43 60 44 54 45
REMARK SMILES IDX 56 46 22 47 59 48 53 49 52 50 23 52 45 53 30 54 44 55 31 56
REMARK SMILES IDX 34 57 43 58 57 59 32 60 33 61 42 63 58 64 35 65 24 66 25 67
REMARK SMILES IDX 29 68 26 69 28 70 27 71 46 72 47 73 51 74 48 75 50 76 49 77
REMARK SMILES IDX 36 78 37 79 41 80 38 81 40 82 39 83
REMARK H PARENT 5 7 66 14 12 32 56 51 34 62
REMARK Flexibility Score: inf
ROOT
ATOM      1  C   UNL     1       4.905   2.100   1.874  1.00  0.00     0.002 C 
ENDROOT
BRANCH   1   2
ATOM      2  C   UNL     1       4.131   0.894   1.316  1.00  0.00     0.021 C 
BRANCH   2   3
ATOM      3  C   UNL     1       3.352   0.134   2.393  1.00  0.00     0.116 C 
BRANCH   3   4
ATOM      4  N   UNL     1       2.175   0.892   2.763  1.00  0.00    -0.355 N 
ATOM      5  C   UNL     1       0.870   0.798   2.374  1.00  0.00     0.239 C 
ATOM      6  O   UNL     1       0.194   1.806   2.596  1.00  0.00    -0.274 OA
ATOM      7  H   UNL     1       2.348   1.608   3.416  1.00  0.00     0.163 HD
BRANCH   5   8
ATOM      8  C   UNL     1       0.299  -0.489   1.797  1.00  0.00     0.209 C 
ATOM      9  C   UNL     1       0.931  -1.089   0.543  1.00  0.00     0.037 C 
BRANCH   8  10
ATOM     10  S   UNL     1      -1.513  -0.316   1.623  1.00  0.00     0.223 S 
ATOM     11  O   UNL     1      -2.009  -1.445   0.864  1.00  0.00    -0.212 OA
ATOM     12  O   UNL     1      -2.061  -0.087   2.947  1.00  0.00    -0.212 OA
BRANCH  10  13
ATOM     13  N   UNL     1      -1.854   1.077   0.759  1.00  0.00    -0.208 NA
ATOM     14  H   UNL     1      -1.438   1.831   1.306  1.00  0.00     0.141 HD
BRANCH  13  15
ATOM     15  C   UNL     1      -1.489   1.383  -0.641  1.00  0.00     0.034 C 
ATOM     16  C   UNL     1      -2.506   2.407  -1.218  1.00  0.00     0.027 C 
ATOM     17  C   UNL     1      -0.120   2.089  -0.679  1.00  0.00     0.030 C 
ATOM     18  C   UNL     1      -1.549   0.146  -1.551  1.00  0.00     0.030 C 
ATOM     19  C   UNL     1      -2.127   2.783  -2.670  1.00  0.00    -0.008 C 
ATOM     20  C   UNL     1       0.312   2.400  -2.126  1.00  0.00    -0.030 C 
ATOM     21  C   UNL     1      -1.139   0.484  -2.994  1.00  0.00    -0.030 C 
ATOM     22  C   UNL     1      -0.713   3.396  -2.707  1.00  0.00     0.010 C 
ATOM     23  C   UNL     1      -2.138   1.520  -3.547  1.00  0.00     0.010 C 
ATOM     24  C   UNL     1       0.277   1.103  -2.972  1.00  0.00     0.013 C 
ATOM     25  C   UNL     1       1.730   2.992  -2.128  1.00  0.00     0.011 C 
ATOM     26  C   UNL     1      -1.151  -0.795  -3.840  1.00  0.00     0.011 C 
ENDBRANCH  13  15
ENDBRANCH  10  13
ENDBRANCH   8  10
ENDBRANCH   5   8
ENDBRANCH   3   4
ENDBRANCH   2   3
ENDBRANCH   1   2
BRANCH   1  27
ATOM     27  C   UNL     1       5.975   1.750   2.917  1.00  0.00     0.002 C 
BRANCH  27  28
ATOM     28  C   UNL     1       7.030   0.749   2.438  1.00  0.00     0.021 C 
BRANCH  28  29
ATOM     29  C   UNL     1       7.879   1.250   1.273  1.00  0.00     0.116 C 
BRANCH  29  30
ATOM     30  N   UNL     1       8.709   2.381   1.660  1.00  0.00    -0.352 N 
ATOM     31  C   UNL     1      10.076   2.500   1.652  1.00  0.00     0.251 C 
ATOM     32  H   UNL     1       8.219   3.175   1.974  1.00  0.00     0.163 HD
ATOM     33  O   UNL     1      10.620   3.434   2.232  1.00  0.00    -0.269 OA
BRANCH  31  34
ATOM     34  C   UNL     1      10.895   1.486   0.957  1.00  0.00     0.039 A 
ATOM     35  C   UNL     1      12.010   0.954   1.608  1.00  0.00     0.014 A 
ATOM     36  C   UNL     1      10.557   1.058  -0.331  1.00  0.00     0.014 A 
ATOM     37  C   UNL     1      12.741  -0.068   0.999  1.00  0.00     0.010 A 
ATOM     38  C   UNL     1      11.249  -0.003  -0.909  1.00  0.00     0.010 A 
ATOM     39  C   UNL     1      12.338  -0.586  -0.244  1.00  0.00    -0.014 A 
BRANCH  39  40
ATOM     40  C   UNL     1      13.004  -1.775  -0.831  1.00  0.00     0.031 A 
ATOM     41  C   UNL     1      13.752  -1.672  -2.131  1.00  0.00     0.074 A 
ATOM     42  C   UNL     1      12.860  -2.972  -0.227  1.00  0.00     0.049 A 
ATOM     43  N   UNL     1      14.331  -2.620  -2.823  1.00  0.00    -0.248 NA
ATOM     44  C   UNL     1      13.846  -0.337  -2.744  1.00  0.00     0.031 C 
ATOM     45  C   UNL     1      12.118  -3.212   1.015  1.00  0.00     0.029 A 
ATOM     46  N   UNL     1      13.318  -4.216  -0.582  1.00  0.00    -0.354 N 
ATOM     47  C   UNL     1      14.842  -2.003  -3.958  1.00  0.00     0.074 A 
ATOM     48  C   UNL     1      14.477  -0.605  -3.879  1.00  0.00     0.031 C 
ATOM     49  C   UNL     1      12.185  -4.516   1.323  1.00  0.00     0.029 A 
ATOM     50  C   UNL     1      12.932  -5.213   0.282  1.00  0.00     0.049 A 
ATOM     51  H   UNL     1      13.870  -4.379  -1.381  1.00  0.00     0.167 HD
ATOM     52  C   UNL     1      15.559  -2.551  -4.966  1.00  0.00     0.031 A 
ATOM     53  C   UNL     1      13.139  -6.543   0.234  1.00  0.00     0.031 A 
ATOM     54  C   UNL     1      15.936  -3.938  -5.034  1.00  0.00     0.049 A 
ATOM     55  C   UNL     1      13.921  -7.122  -0.912  1.00  0.00     0.074 A 
ATOM     56  C   UNL     1      16.735  -4.566  -5.974  1.00  0.00     0.029 A 
ATOM     57  N   UNL     1      15.532  -4.913  -4.137  1.00  0.00    -0.354 N 
ATOM     58  N   UNL     1      14.481  -6.506  -1.924  1.00  0.00    -0.248 NA
ATOM     59  C   UNL     1      14.100  -8.581  -0.921  1.00  0.00     0.031 C 
ATOM     60  C   UNL     1      16.762  -5.932  -5.682  1.00  0.00     0.029 A 
ATOM     61  C   UNL     1      16.028  -6.145  -4.527  1.00  0.00     0.049 A 
ATOM     62  H   UNL     1      14.975  -4.753  -3.341  1.00  0.00     0.167 HD
ATOM     63  C   UNL     1      15.095  -7.499  -2.677  1.00  0.00     0.074 A 
ATOM     64  C   UNL     1      14.862  -8.752  -1.992  1.00  0.00     0.031 C 
ATOM     65  C   UNL     1      15.784  -7.384  -3.838  1.00  0.00     0.031 A 
BRANCH  52  66
ATOM     66  C   UNL     1      15.988  -1.657  -6.096  1.00  0.00    -0.014 A 
ATOM     67  C   UNL     1      17.013  -0.714  -5.928  1.00  0.00     0.009 A 
ATOM     68  C   UNL     1      15.422  -1.829  -7.369  1.00  0.00     0.009 A 
ATOM     69  C   UNL     1      17.451   0.051  -7.012  1.00  0.00     0.001 A 
ATOM     70  C   UNL     1      15.879  -1.080  -8.455  1.00  0.00     0.001 A 
ATOM     71  C   UNL     1      16.890  -0.138  -8.274  1.00  0.00     0.000 A 
ENDBRANCH  52  66
BRANCH  53  72
ATOM     72  C   UNL     1      12.576  -7.432   1.285  1.00  0.00    -0.014 A 
ATOM     73  C   UNL     1      13.421  -8.115   2.173  1.00  0.00     0.009 A 
ATOM     74  C   UNL     1      11.190  -7.634   1.378  1.00  0.00     0.009 A 
ATOM     75  C   UNL     1      12.893  -9.012   3.104  1.00  0.00     0.001 A 
ATOM     76  C   UNL     1      10.662  -8.505   2.333  1.00  0.00     0.001 A 
ATOM     77  C   UNL     1      11.514  -9.204   3.185  1.00  0.00     0.000 A 
ENDBRANCH  53  72
BRANCH  65  78
ATOM     78  C   UNL     1      16.347  -8.645  -4.430  1.00  0.00    -0.014 A 
ATOM     79  C   UNL     1      15.510  -9.600  -5.028  1.00  0.00     0.009 A 
ATOM     80  C   UNL     1      17.733  -8.860  -4.425  1.00  0.00     0.009 A 
ATOM     81  C   UNL     1      16.050 -10.762  -5.581  1.00  0.00     0.001 A 
ATOM     82  C   UNL     1      18.273 -10.008  -5.006  1.00  0.00     0.001 A 
ATOM     83  C   UNL     1      17.430 -10.962  -5.575  1.00  0.00     0.000 A 
ENDBRANCH  65  78
ENDBRANCH  39  40
ENDBRANCH  31  34
ENDBRANCH  29  30
ENDBRANCH  28  29
ENDBRANCH  27  28
ENDBRANCH   1  27
TORSDOF 16
