REMARK SMILES O=C(NCCCCCCNC(=O)c1ccc(-c2c3nc(c(-c4ccccc4)c4ccc([nH]4)c(-c4ccccc4)c4nc(c(-c5ccccc5)c5ccc2[nH]5)C=C4)C=C3)cc1)c1ccc(CNC(=O)c2ccccc2I)cc1
REMARK SMILES IDX 6 1 5 2 4 3 3 4 1 5 2 6 61 8 62 9 77 10 63 11 76 12 64 13
REMARK SMILES IDX 65 14 66 15 67 16 68 18 69 19 70 20 74 21 71 22 73 23 75 24
REMARK SMILES IDX 72 25 7 26 8 27 9 28 10 29 11 30 12 32 13 33 14 34 60 35
REMARK SMILES IDX 15 36 59 37 16 38 17 39 18 40 53 41 19 42 58 43 52 44 54 45
REMARK SMILES IDX 20 46 57 47 51 48 50 49 21 51 43 52 28 53 42 54 29 55 32 56
REMARK SMILES IDX 41 57 55 58 30 59 31 60 40 62 56 63 33 64 22 65 23 66 27 67
REMARK SMILES IDX 24 68 26 69 25 70 44 71 45 72 49 73 46 74 48 75 47 76 34 77
REMARK SMILES IDX 35 78 39 79 36 80 38 81 37 82
REMARK H PARENT 3 7 66 17 10 31 54 50 32 61
REMARK Flexibility Score: inf
ROOT
ATOM      1  C   UNL     1       4.090  -3.666  -0.998  1.00  0.00     0.002 C 
ENDROOT
BRANCH   1   2
ATOM      2  C   UNL     1       4.587  -2.557  -0.068  1.00  0.00     0.021 C 
BRANCH   2   3
ATOM      3  C   UNL     1       4.370  -1.134  -0.577  1.00  0.00     0.116 C 
BRANCH   3   4
ATOM      4  N   UNL     1       2.963  -0.812  -0.733  1.00  0.00    -0.352 N 
ATOM      5  O   UNL     1       1.020   0.239  -0.252  1.00  0.00    -0.269 OA
ATOM      6  C   UNL     1       2.240   0.184  -0.129  1.00  0.00     0.251 C 
ATOM      7  H   UNL     1       2.461  -1.386  -1.356  1.00  0.00     0.163 HD
BRANCH   6   8
ATOM      8  C   UNL     1       2.943   1.183   0.697  1.00  0.00     0.039 A 
ATOM      9  C   UNL     1       3.978   1.952   0.157  1.00  0.00     0.014 A 
ATOM     10  C   UNL     1       2.558   1.345   2.029  1.00  0.00     0.014 A 
ATOM     11  C   UNL     1       4.676   2.840   0.974  1.00  0.00     0.006 A 
ATOM     12  C   UNL     1       3.252   2.242   2.841  1.00  0.00     0.006 A 
ATOM     13  C   UNL     1       4.323   2.987   2.324  1.00  0.00    -0.029 A 
BRANCH  13  14
ATOM     14  C   UNL     1       5.058   3.975   3.189  1.00  0.00     0.152 C 
BRANCH  14  15
ATOM     15  N   UNL     1       6.423   3.558   3.447  1.00  0.00    -0.348 N 
ATOM     16  C   UNL     1       7.597   4.213   3.178  1.00  0.00     0.252 C 
ATOM     17  H   UNL     1       6.520   2.679   3.878  1.00  0.00     0.164 HD
ATOM     18  O   UNL     1       8.676   3.697   3.454  1.00  0.00    -0.269 OA
BRANCH  16  19
ATOM     19  C   UNL     1       7.577   5.496   2.449  1.00  0.00     0.053 A 
ATOM     20  C   UNL     1       8.126   5.470   1.157  1.00  0.00     0.015 A 
ATOM     21  C   UNL     1       7.081   6.697   2.971  1.00  0.00     0.026 A 
ATOM     22  C   UNL     1       8.117   6.616   0.364  1.00  0.00     0.001 A 
ATOM     23  C   UNL     1       7.046   7.837   2.156  1.00  0.00     0.015 A 
ATOM     24  I   UNL     1       6.453   6.931   4.958  1.00  0.00    -0.043 I 
ATOM     25  C   UNL     1       7.556   7.793   0.856  1.00  0.00     0.001 A 
ENDBRANCH  16  19
ENDBRANCH  14  15
ENDBRANCH  13  14
ENDBRANCH   6   8
ENDBRANCH   3   4
ENDBRANCH   2   3
ENDBRANCH   1   2
BRANCH   1  26
ATOM     26  C   UNL     1       4.599  -3.602  -2.441  1.00  0.00     0.002 C 
BRANCH  26  27
ATOM     27  C   UNL     1       6.117  -3.516  -2.608  1.00  0.00     0.021 C 
BRANCH  27  28
ATOM     28  C   UNL     1       6.915  -4.624  -1.928  1.00  0.00     0.116 C 
BRANCH  28  29
ATOM     29  N   UNL     1       6.599  -5.943  -2.448  1.00  0.00    -0.352 N 
ATOM     30  C   UNL     1       7.442  -6.935  -2.883  1.00  0.00     0.251 C 
ATOM     31  H   UNL     1       5.639  -6.157  -2.495  1.00  0.00     0.163 HD
ATOM     32  O   UNL     1       6.985  -7.937  -3.425  1.00  0.00    -0.269 OA
BRANCH  30  33
ATOM     33  C   UNL     1       8.906  -6.790  -2.727  1.00  0.00     0.039 A 
ATOM     34  C   UNL     1       9.731  -7.121  -3.806  1.00  0.00     0.014 A 
ATOM     35  C   UNL     1       9.468  -6.346  -1.527  1.00  0.00     0.014 A 
ATOM     36  C   UNL     1      11.114  -6.951  -3.702  1.00  0.00     0.010 A 
ATOM     37  C   UNL     1      10.839  -6.116  -1.446  1.00  0.00     0.010 A 
ATOM     38  C   UNL     1      11.676  -6.418  -2.531  1.00  0.00    -0.014 A 
BRANCH  38  39
ATOM     39  C   UNL     1      13.135  -6.166  -2.426  1.00  0.00     0.031 A 
ATOM     40  C   UNL     1      13.970  -6.940  -1.444  1.00  0.00     0.074 A 
ATOM     41  C   UNL     1      13.699  -5.194  -3.169  1.00  0.00     0.049 A 
ATOM     42  N   UNL     1      15.246  -6.823  -1.173  1.00  0.00    -0.248 NA
ATOM     43  C   UNL     1      13.277  -7.964  -0.647  1.00  0.00     0.031 C 
ATOM     44  C   UNL     1      12.996  -4.347  -4.134  1.00  0.00     0.029 A 
ATOM     45  N   UNL     1      14.998  -4.752  -3.223  1.00  0.00    -0.354 N 
ATOM     46  C   UNL     1      15.502  -7.737  -0.159  1.00  0.00     0.074 A 
ATOM     47  C   UNL     1      14.243  -8.375   0.162  1.00  0.00     0.031 C 
ATOM     48  C   UNL     1      13.876  -3.509  -4.705  1.00  0.00     0.029 A 
ATOM     49  C   UNL     1      15.194  -3.732  -4.120  1.00  0.00     0.049 A 
ATOM     50  H   UNL     1      15.719  -5.131  -2.670  1.00  0.00     0.167 HD
ATOM     51  C   UNL     1      16.680  -8.031   0.442  1.00  0.00     0.031 A 
ATOM     52  C   UNL     1      16.311  -3.049  -4.436  1.00  0.00     0.031 A 
ATOM     53  C   UNL     1      17.936  -7.414   0.111  1.00  0.00     0.049 A 
ATOM     54  C   UNL     1      17.603  -3.388  -3.748  1.00  0.00     0.074 A 
ATOM     55  C   UNL     1      19.195  -7.699   0.611  1.00  0.00     0.029 A 
ATOM     56  N   UNL     1      18.092  -6.384  -0.803  1.00  0.00    -0.354 N 
ATOM     57  N   UNL     1      17.841  -4.305  -2.844  1.00  0.00    -0.248 NA
ATOM     58  C   UNL     1      18.782  -2.599  -4.134  1.00  0.00     0.031 C 
ATOM     59  C   UNL     1      20.106  -6.808   0.034  1.00  0.00     0.029 A 
ATOM     60  C   UNL     1      19.422  -6.002  -0.862  1.00  0.00     0.049 A 
ATOM     61  H   UNL     1      17.365  -5.983  -1.333  1.00  0.00     0.167 HD
ATOM     62  C   UNL     1      19.201  -4.224  -2.572  1.00  0.00     0.074 A 
ATOM     63  C   UNL     1      19.736  -3.175  -3.416  1.00  0.00     0.031 C 
ATOM     64  C   UNL     1      19.940  -4.957  -1.704  1.00  0.00     0.031 A 
BRANCH  51  65
ATOM     65  C   UNL     1      16.659  -9.062   1.535  1.00  0.00    -0.014 A 
ATOM     66  C   UNL     1      16.460 -10.423   1.250  1.00  0.00     0.009 A 
ATOM     67  C   UNL     1      16.870  -8.670   2.866  1.00  0.00     0.009 A 
ATOM     68  C   UNL     1      16.435 -11.364   2.282  1.00  0.00     0.001 A 
ATOM     69  C   UNL     1      16.871  -9.617   3.892  1.00  0.00     0.001 A 
ATOM     70  C   UNL     1      16.644 -10.961   3.600  1.00  0.00     0.000 A 
ENDBRANCH  51  65
BRANCH  52  71
ATOM     71  C   UNL     1      16.264  -1.989  -5.475  1.00  0.00    -0.014 A 
ATOM     72  C   UNL     1      16.846  -2.207  -6.733  1.00  0.00     0.009 A 
ATOM     73  C   UNL     1      15.644  -0.757  -5.216  1.00  0.00     0.009 A 
ATOM     74  C   UNL     1      16.827  -1.205  -7.705  1.00  0.00     0.001 A 
ATOM     75  C   UNL     1      15.605   0.235  -6.199  1.00  0.00     0.001 A 
ATOM     76  C   UNL     1      16.203   0.013  -7.439  1.00  0.00     0.000 A 
ENDBRANCH  52  71
BRANCH  64  77
ATOM     77  C   UNL     1      21.413  -4.672  -1.648  1.00  0.00    -0.014 A 
ATOM     78  C   UNL     1      21.907  -3.514  -1.029  1.00  0.00     0.009 A 
ATOM     79  C   UNL     1      22.320  -5.596  -2.191  1.00  0.00     0.009 A 
ATOM     80  C   UNL     1      23.282  -3.272  -0.982  1.00  0.00     0.001 A 
ATOM     81  C   UNL     1      23.694  -5.364  -2.119  1.00  0.00     0.001 A 
ATOM     82  C   UNL     1      24.173  -4.199  -1.522  1.00  0.00     0.000 A 
ENDBRANCH  64  77
ENDBRANCH  38  39
ENDBRANCH  30  33
ENDBRANCH  28  29
ENDBRANCH  27  28
ENDBRANCH  26  27
ENDBRANCH   1  26
TORSDOF 16
