REMARK SMILES NC(=S)S/C=C/C(=O)NCCCCCCNC(=O)c1ccc(-c2c3nc(c(-c4ccccc4)c4ccc([nH]4)c(-c4ccccc4)c4nc(c(-c5ccccc5)c5ccc2[nH]5)C=C4)C=C3)cc1
REMARK SMILES IDX 12 1 11 2 10 3 9 4 7 5 8 6 6 8 5 9 4 10 2 11 3 12 1 13 13 16
REMARK SMILES IDX 14 17 15 18 16 19 17 20 18 22 19 23 20 24 66 25 21 26 65 27
REMARK SMILES IDX 22 28 23 29 24 30 59 31 25 32 64 33 58 34 60 35 26 36 63 37
REMARK SMILES IDX 57 38 56 39 27 41 49 42 34 43 48 44 35 45 38 46 47 47 61 48
REMARK SMILES IDX 36 49 37 50 46 52 62 53 39 54 28 55 29 56 33 57 30 58 32 59
REMARK SMILES IDX 31 60 50 61 51 62 55 63 52 64 54 65 53 66 40 67 41 68 45 69
REMARK SMILES IDX 42 70 44 71 43 72
REMARK H PARENT 9 7 1 14 1 15 16 21 60 40 38 51
REMARK Flexibility Score: inf
ROOT
ATOM      1  C   UNL     1      -0.933   7.452   5.072  1.00  0.00     0.002 C 
ENDROOT
BRANCH   1   2
ATOM      2  C   UNL     1      -0.141   6.426   4.246  1.00  0.00     0.021 C 
BRANCH   2   3
ATOM      3  C   UNL     1      -0.414   4.973   4.639  1.00  0.00     0.116 C 
BRANCH   3   4
ATOM      4  N   UNL     1      -1.737   4.582   4.189  1.00  0.00    -0.353 N 
ATOM      5  C   UNL     1      -2.168   3.601   3.358  1.00  0.00     0.244 C 
ATOM      6  O   UNL     1      -3.373   3.487   3.147  1.00  0.00    -0.270 OA
ATOM      7  H   UNL     1      -2.462   5.136   4.559  1.00  0.00     0.163 HD
BRANCH   5   8
ATOM      8  C   UNL     1      -1.240   2.590   2.814  1.00  0.00     0.078 C 
ATOM      9  C   UNL     1      -0.092   2.843   2.173  1.00  0.00     0.054 C 
BRANCH   9  10
ATOM     10  S   UNL     1       1.006   1.608   1.653  1.00  0.00    -0.069 SA
BRANCH  10  11
ATOM     11  C   UNL     1       0.204   0.611   0.467  1.00  0.00     0.135 C 
ATOM     12  S   UNL     1      -1.389   0.517   0.018  1.00  0.00    -0.053 S 
BRANCH  11  13
ATOM     13  N   UNL     1       1.114  -0.209  -0.128  1.00  0.00    -0.384 N 
ATOM     14  H   UNL     1       0.826  -0.841  -0.826  1.00  0.00     0.158 HD
ATOM     15  H   UNL     1       2.061  -0.170   0.140  1.00  0.00     0.158 HD
ENDBRANCH  11  13
ENDBRANCH  10  11
ENDBRANCH   9  10
ENDBRANCH   5   8
ENDBRANCH   3   4
ENDBRANCH   2   3
ENDBRANCH   1   2
BRANCH   1  16
ATOM     16  C   UNL     1      -0.656   7.425   6.580  1.00  0.00     0.002 C 
BRANCH  16  17
ATOM     17  C   UNL     1       0.820   7.540   6.967  1.00  0.00     0.021 C 
BRANCH  17  18
ATOM     18  C   UNL     1       1.498   8.816   6.479  1.00  0.00     0.116 C 
BRANCH  18  19
ATOM     19  N   UNL     1       0.930  10.003   7.097  1.00  0.00    -0.352 N 
ATOM     20  C   UNL     1       1.555  10.993   7.814  1.00  0.00     0.251 C 
ATOM     21  H   UNL     1      -0.042  10.112   6.986  1.00  0.00     0.163 HD
ATOM     22  O   UNL     1       0.897  11.806   8.452  1.00  0.00    -0.269 OA
BRANCH  20  23
ATOM     23  C   UNL     1       3.031  11.066   7.826  1.00  0.00     0.039 A 
ATOM     24  C   UNL     1       3.687  11.294   9.037  1.00  0.00     0.014 A 
ATOM     25  C   UNL     1       3.763  10.921   6.644  1.00  0.00     0.014 A 
ATOM     26  C   UNL     1       5.083  11.322   9.072  1.00  0.00     0.010 A 
ATOM     27  C   UNL     1       5.152  10.873   6.692  1.00  0.00     0.010 A 
ATOM     28  C   UNL     1       5.827  11.080   7.905  1.00  0.00    -0.014 A 
BRANCH  28  29
ATOM     29  C   UNL     1       7.310  11.041   7.934  1.00  0.00     0.031 A 
ATOM     30  C   UNL     1       8.109  12.057   7.164  1.00  0.00     0.074 A 
ATOM     31  C   UNL     1       7.937  10.056   8.606  1.00  0.00     0.049 A 
ATOM     32  N   UNL     1       9.408  12.156   7.031  1.00  0.00    -0.248 NA
ATOM     33  C   UNL     1       7.350  13.082   6.429  1.00  0.00     0.031 C 
ATOM     34  C   UNL     1       7.276   8.991   9.363  1.00  0.00     0.029 A 
ATOM     35  N   UNL     1       9.275   9.790   8.758  1.00  0.00    -0.354 N 
ATOM     36  C   UNL     1       9.618  13.239   6.186  1.00  0.00     0.074 A 
ATOM     37  C   UNL     1       8.316  13.732   5.797  1.00  0.00     0.031 C 
ATOM     38  C   UNL     1       8.210   8.207   9.925  1.00  0.00     0.029 A 
ATOM     39  C   UNL     1       9.531   8.685   9.533  1.00  0.00     0.049 A 
ATOM     40  H   UNL     1       9.983  10.338   8.350  1.00  0.00     0.167 HD
ATOM     41  C   UNL     1      10.791  13.785   5.784  1.00  0.00     0.031 A 
ATOM     42  C   UNL     1      10.700   8.117   9.884  1.00  0.00     0.031 A 
ATOM     43  C   UNL     1      12.086  13.298   6.178  1.00  0.00     0.049 A 
ATOM     44  C   UNL     1      11.987   8.728   9.402  1.00  0.00     0.074 A 
ATOM     45  C   UNL     1      13.331  13.819   5.872  1.00  0.00     0.029 A 
ATOM     46  N   UNL     1      12.302  12.174   6.959  1.00  0.00    -0.354 N 
ATOM     47  N   UNL     1      12.170   9.795   8.663  1.00  0.00    -0.248 NA
ATOM     48  C   UNL     1      13.229   8.059   9.813  1.00  0.00     0.031 C 
ATOM     49  C   UNL     1      14.303  12.974   6.417  1.00  0.00     0.029 A 
ATOM     50  C   UNL     1      13.662  11.966   7.119  1.00  0.00     0.049 A 
ATOM     51  H   UNL     1      11.594  11.607   7.343  1.00  0.00     0.167 HD
ATOM     52  C   UNL     1      13.546   9.944   8.548  1.00  0.00     0.074 A 
ATOM     53  C   UNL     1      14.149   8.868   9.307  1.00  0.00     0.031 C 
ATOM     54  C   UNL     1      14.247  10.890   7.877  1.00  0.00     0.031 A 
BRANCH  41  55
ATOM     55  C   UNL     1      10.725  14.967   4.856  1.00  0.00    -0.014 A 
ATOM     56  C   UNL     1      10.250  16.215   5.293  1.00  0.00     0.009 A 
ATOM     57  C   UNL     1      11.182  14.842   3.534  1.00  0.00     0.009 A 
ATOM     58  C   UNL     1      10.200  17.300   4.415  1.00  0.00     0.001 A 
ATOM     59  C   UNL     1      11.160  15.938   2.669  1.00  0.00     0.001 A 
ATOM     60  C   UNL     1      10.660  17.163   3.107  1.00  0.00     0.000 A 
ENDBRANCH  41  55
BRANCH  42  61
ATOM     61  C   UNL     1      10.714   6.907  10.749  1.00  0.00    -0.014 A 
ATOM     62  C   UNL     1      11.202   6.977  12.063  1.00  0.00     0.009 A 
ATOM     63  C   UNL     1      10.254   5.673  10.263  1.00  0.00     0.009 A 
ATOM     64  C   UNL     1      11.258   5.832  12.861  1.00  0.00     0.001 A 
ATOM     65  C   UNL     1      10.281   4.536  11.073  1.00  0.00     0.001 A 
ATOM     66  C   UNL     1      10.794   4.614  12.367  1.00  0.00     0.000 A 
ENDBRANCH  42  61
BRANCH  54  67
ATOM     67  C   UNL     1      15.747  10.827   7.965  1.00  0.00    -0.014 A 
ATOM     68  C   UNL     1      16.478   9.818   7.319  1.00  0.00     0.009 A 
ATOM     69  C   UNL     1      16.440  11.820   8.675  1.00  0.00     0.009 A 
ATOM     70  C   UNL     1      17.870   9.785   7.413  1.00  0.00     0.001 A 
ATOM     71  C   UNL     1      17.834  11.803   8.740  1.00  0.00     0.001 A 
ATOM     72  C   UNL     1      18.547  10.780   8.118  1.00  0.00     0.000 A 
ENDBRANCH  54  67
ENDBRANCH  28  29
ENDBRANCH  20  23
ENDBRANCH  18  19
ENDBRANCH  17  18
ENDBRANCH  16  17
ENDBRANCH   1  16
TORSDOF 16
