REMARK SMILES C[C@@H](NC(=O)CNC(=O)N1CC(=O)Nc2ccccc21)C(=O)NCCCCCCNC(=O)c1ccc(-c2c3nc(c(-c4ccccc4)c4ccc([nH]4)c(-c4ccccc4)c4nc(c(-c5ccccc5)c5ccc2[nH]5)C=C4)C=C3)cc1
REMARK SMILES IDX 25 1 24 2 23 3 21 4 22 5 2 7 1 8 3 9 4 10 5 12 6 13 7 14
REMARK SMILES IDX 8 15 9 17 10 18 11 19 20 20 12 21 15 22 19 23 13 24 14 25
REMARK SMILES IDX 16 26 18 27 17 29 26 30 27 31 28 32 29 33 30 34 31 35 32 37
REMARK SMILES IDX 33 38 34 39 80 40 35 41 79 42 36 43 37 44 38 45 73 46 39 47
REMARK SMILES IDX 78 48 72 49 74 50 40 51 77 52 71 53 70 54 41 56 63 57 48 58
REMARK SMILES IDX 62 59 49 60 52 61 61 62 75 63 50 64 51 65 60 67 76 68 53 69
REMARK SMILES IDX 42 70 43 71 47 72 44 73 46 74 45 75 64 76 65 77 69 78 66 79
REMARK SMILES IDX 68 80 67 81 54 82 55 83 59 84 56 85 58 86 57 87
REMARK H PARENT 23 6 3 11 7 16 14 28 30 36 74 55 52 66
REMARK Flexibility Score: inf
ROOT
ATOM      1  C   UNL     1      -1.364   2.782  -1.445  1.00  0.00     0.021 C 
ENDROOT
BRANCH   1   2
ATOM      2  C   UNL     1      -0.637   2.097  -0.295  1.00  0.00     0.116 C 
BRANCH   2   3
ATOM      3  N   UNL     1      -0.870   0.667  -0.295  1.00  0.00    -0.354 N 
ATOM      4  C   UNL     1      -0.199  -0.313   0.370  1.00  0.00     0.242 C 
ATOM      5  O   UNL     1      -0.367  -1.484   0.024  1.00  0.00    -0.273 OA
ATOM      6  H   UNL     1      -1.621   0.361  -0.854  1.00  0.00     0.163 HD
BRANCH   4   7
ATOM      7  C   UNL     1       0.894   0.013   1.392  1.00  0.00     0.168 C 
ATOM      8  C   UNL     1       2.198   0.123   0.598  1.00  0.00     0.041 C 
BRANCH   7   9
ATOM      9  N   UNL     1       0.657   1.202   2.207  1.00  0.00    -0.343 N 
ATOM     10  C   UNL     1      -0.352   1.444   3.097  1.00  0.00     0.240 C 
ATOM     11  H   UNL     1       1.313   1.928   2.100  1.00  0.00     0.164 HD
ATOM     12  O   UNL     1      -0.334   2.521   3.700  1.00  0.00    -0.273 OA
BRANCH  10  13
ATOM     13  C   UNL     1      -1.544   0.481   3.229  1.00  0.00     0.218 C 
BRANCH  13  14
ATOM     14  N   UNL     1      -2.642   0.793   2.316  1.00  0.00    -0.329 N 
ATOM     15  C   UNL     1      -3.408  -0.068   1.573  1.00  0.00     0.322 C 
ATOM     16  H   UNL     1      -2.861   1.748   2.222  1.00  0.00     0.165 HD
ATOM     17  O   UNL     1      -4.026   0.378   0.610  1.00  0.00    -0.248 OA
BRANCH  15  18
ATOM     18  N   UNL     1      -3.387  -1.389   1.941  1.00  0.00    -0.283 N 
ATOM     19  C   UNL     1      -3.720  -1.772   3.307  1.00  0.00     0.227 C 
ATOM     20  C   UNL     1      -3.103  -2.457   1.039  1.00  0.00     0.070 A 
ATOM     21  C   UNL     1      -2.766  -2.808   3.865  1.00  0.00     0.244 C 
ATOM     22  C   UNL     1      -2.509  -3.616   1.580  1.00  0.00     0.065 A 
ATOM     23  C   UNL     1      -3.229  -2.353  -0.351  1.00  0.00     0.028 A 
ATOM     24  O   UNL     1      -2.550  -2.930   5.069  1.00  0.00    -0.273 OA
ATOM     25  N   UNL     1      -2.293  -3.726   2.964  1.00  0.00    -0.323 N 
ATOM     26  C   UNL     1      -2.020  -4.626   0.749  1.00  0.00     0.028 A 
ATOM     27  C   UNL     1      -2.749  -3.374  -1.182  1.00  0.00     0.002 A 
ATOM     28  H   UNL     1      -1.779  -4.495   3.301  1.00  0.00     0.170 HD
ATOM     29  C   UNL     1      -2.135  -4.500  -0.634  1.00  0.00     0.002 A 
ENDBRANCH  15  18
ENDBRANCH  13  14
ENDBRANCH  10  13
ENDBRANCH   7   9
ENDBRANCH   4   7
ENDBRANCH   2   3
ENDBRANCH   1   2
BRANCH   1  30
ATOM     30  C   UNL     1      -2.871   2.937  -1.217  1.00  0.00     0.002 C 
BRANCH  30  31
ATOM     31  C   UNL     1      -3.269   3.862  -0.060  1.00  0.00     0.002 C 
BRANCH  31  32
ATOM     32  C   UNL     1      -2.699   5.276  -0.135  1.00  0.00     0.021 C 
BRANCH  32  33
ATOM     33  C   UNL     1      -2.919   5.968  -1.470  1.00  0.00     0.116 C 
BRANCH  33  34
ATOM     34  N   UNL     1      -4.325   6.133  -1.801  1.00  0.00    -0.352 N 
ATOM     35  C   UNL     1      -4.922   7.212  -2.406  1.00  0.00     0.251 C 
ATOM     36  H   UNL     1      -4.919   5.385  -1.564  1.00  0.00     0.163 HD
ATOM     37  O   UNL     1      -6.140   7.285  -2.528  1.00  0.00    -0.269 OA
BRANCH  35  38
ATOM     38  C   UNL     1      -4.057   8.311  -2.875  1.00  0.00     0.039 A 
ATOM     39  C   UNL     1      -4.314   9.610  -2.438  1.00  0.00     0.014 A 
ATOM     40  C   UNL     1      -2.939   8.029  -3.666  1.00  0.00     0.014 A 
ATOM     41  C   UNL     1      -3.409  10.626  -2.747  1.00  0.00     0.010 A 
ATOM     42  C   UNL     1      -1.996   9.022  -3.894  1.00  0.00     0.010 A 
ATOM     43  C   UNL     1      -2.226  10.332  -3.446  1.00  0.00    -0.014 A 
BRANCH  43  44
ATOM     44  C   UNL     1      -1.224  11.384  -3.744  1.00  0.00     0.031 A 
ATOM     45  C   UNL     1      -0.914  11.730  -5.175  1.00  0.00     0.074 A 
ATOM     46  C   UNL     1      -0.550  11.978  -2.740  1.00  0.00     0.049 A 
ATOM     47  N   UNL     1      -0.022  12.562  -5.648  1.00  0.00    -0.248 NA
ATOM     48  C   UNL     1      -1.687  11.025  -6.212  1.00  0.00     0.031 C 
ATOM     49  C   UNL     1      -0.730  11.701  -1.312  1.00  0.00     0.029 A 
ATOM     50  N   UNL     1       0.431  12.938  -2.769  1.00  0.00    -0.354 N 
ATOM     51  C   UNL     1      -0.115  12.464  -7.031  1.00  0.00     0.074 A 
ATOM     52  C   UNL     1      -1.105  11.452  -7.321  1.00  0.00     0.031 C 
ATOM     53  C   UNL     1       0.090  12.495  -0.604  1.00  0.00     0.029 A 
ATOM     54  C   UNL     1       0.883  13.303  -1.524  1.00  0.00     0.049 A 
ATOM     55  H   UNL     1       0.778  13.328  -3.604  1.00  0.00     0.167 HD
ATOM     56  C   UNL     1       0.548  13.170  -7.976  1.00  0.00     0.031 A 
ATOM     57  C   UNL     1       1.836  14.185  -1.166  1.00  0.00     0.031 A 
ATOM     58  C   UNL     1       1.517  14.191  -7.686  1.00  0.00     0.049 A 
ATOM     59  C   UNL     1       2.567  14.947  -2.239  1.00  0.00     0.074 A 
ATOM     60  C   UNL     1       2.202  15.004  -8.572  1.00  0.00     0.029 A 
ATOM     61  N   UNL     1       1.937  14.539  -6.412  1.00  0.00    -0.354 N 
ATOM     62  N   UNL     1       2.419  14.891  -3.540  1.00  0.00    -0.248 NA
ATOM     63  C   UNL     1       3.588  15.904  -1.790  1.00  0.00     0.031 C 
ATOM     64  C   UNL     1       3.077  15.808  -7.836  1.00  0.00     0.029 A 
ATOM     65  C   UNL     1       2.889  15.540  -6.489  1.00  0.00     0.049 A 
ATOM     66  H   UNL     1       1.607  14.134  -5.578  1.00  0.00     0.167 HD
ATOM     67  C   UNL     1       3.301  15.829  -4.062  1.00  0.00     0.074 A 
ATOM     68  C   UNL     1       3.969  16.448  -2.937  1.00  0.00     0.031 C 
ATOM     69  C   UNL     1       3.536  16.151  -5.357  1.00  0.00     0.031 A 
BRANCH  56  70
ATOM     70  C   UNL     1       0.245  12.858  -9.415  1.00  0.00    -0.014 A 
ATOM     71  C   UNL     1      -0.996  13.185  -9.987  1.00  0.00     0.009 A 
ATOM     72  C   UNL     1       1.227  12.263 -10.222  1.00  0.00     0.009 A 
ATOM     73  C   UNL     1      -1.258  12.891 -11.326  1.00  0.00     0.001 A 
ATOM     74  C   UNL     1       0.974  11.998 -11.569  1.00  0.00     0.001 A 
ATOM     75  C   UNL     1      -0.271  12.304 -12.117  1.00  0.00     0.000 A 
ENDBRANCH  56  70
BRANCH  57  76
ATOM     76  C   UNL     1       2.152  14.410   0.270  1.00  0.00    -0.014 A 
ATOM     77  C   UNL     1       1.843  15.633   0.886  1.00  0.00     0.009 A 
ATOM     78  C   UNL     1       2.790  13.414   1.026  1.00  0.00     0.009 A 
ATOM     79  C   UNL     1       2.197  15.867   2.217  1.00  0.00     0.001 A 
ATOM     80  C   UNL     1       3.114  13.639   2.366  1.00  0.00     0.001 A 
ATOM     81  C   UNL     1       2.829  14.869   2.957  1.00  0.00     0.000 A 
ENDBRANCH  57  76
BRANCH  69  82
ATOM     82  C   UNL     1       4.518  17.255  -5.628  1.00  0.00    -0.014 A 
ATOM     83  C   UNL     1       5.896  17.074  -5.436  1.00  0.00     0.009 A 
ATOM     84  C   UNL     1       4.056  18.481  -6.135  1.00  0.00     0.009 A 
ATOM     85  C   UNL     1       6.788  18.111  -5.715  1.00  0.00     0.001 A 
ATOM     86  C   UNL     1       4.953  19.503  -6.443  1.00  0.00     0.001 A 
ATOM     87  C   UNL     1       6.317  19.321  -6.224  1.00  0.00     0.000 A 
ENDBRANCH  69  82
ENDBRANCH  43  44
ENDBRANCH  35  38
ENDBRANCH  33  34
ENDBRANCH  32  33
ENDBRANCH  31  32
ENDBRANCH  30  31
ENDBRANCH   1  30
TORSDOF 17
