REMARK SMILES CC(C)CN(C)c1cc2c(cc1Cl)C=C(C(=O)NCCCCCCNC(=O)c1ccc(-c3c4nc(c(-c5ccccc5)c5ccc([nH]5)c(-c5ccccc5)c5nc(c(-c6ccccc6)c6ccc3[nH]6)C=C5)C=C4)cc1)[C@@H](C(F)(F)F)O2
REMARK SMILES IDX 21 1 20 2 19 3 18 4 16 5 17 6 15 8 7 9 8 10 12 11 9 12 11 13
REMARK SMILES IDX 13 14 10 15 81 16 14 17 76 18 5 19 6 20 4 21 2 22 1 23 3 24
REMARK SMILES IDX 77 25 78 26 79 27 80 28 22 29 23 30 24 31 25 32 26 33 27 35
REMARK SMILES IDX 28 36 29 37 75 38 30 39 74 40 31 41 32 42 33 43 68 44 34 45
REMARK SMILES IDX 73 46 67 47 69 48 35 49 72 50 66 51 65 52 36 54 58 55 43 56
REMARK SMILES IDX 57 57 44 58 47 59 56 60 70 61 45 62 46 63 55 65 71 66 48 67
REMARK SMILES IDX 37 68 38 69 42 70 39 71 41 72 40 73 59 74 60 75 64 76 61 77
REMARK SMILES IDX 63 78 62 79 49 80 50 81 54 82 51 83 53 84 52 85
REMARK H PARENT 18 7 25 34 69 53 47 64
REMARK Flexibility Score: inf
ROOT
ATOM      1  C   UNL     1      -3.329  -4.976  -9.599  1.00  0.00     0.002 C 
ENDROOT
BRANCH   1   2
ATOM      2  C   UNL     1      -3.523  -4.330  -8.224  1.00  0.00     0.021 C 
BRANCH   2   3
ATOM      3  C   UNL     1      -2.748  -5.017  -7.105  1.00  0.00     0.116 C 
BRANCH   3   4
ATOM      4  N   UNL     1      -1.363  -4.587  -7.091  1.00  0.00    -0.352 N 
ATOM      5  C   UNL     1      -0.513  -4.018  -6.208  1.00  0.00     0.251 C 
ATOM      6  O   UNL     1       0.631  -3.827  -6.631  1.00  0.00    -0.270 OA
ATOM      7  H   UNL     1      -0.924  -4.755  -7.956  1.00  0.00     0.163 HD
BRANCH   5   8
ATOM      8  C   UNL     1      -0.856  -3.629  -4.812  1.00  0.00     0.067 C 
ATOM      9  C   UNL     1      -0.694  -1.986  -0.043  1.00  0.00     0.059 A 
ATOM     10  C   UNL     1      -1.701  -2.074  -1.018  1.00  0.00     0.074 A 
ATOM     11  C   UNL     1       0.600  -2.430  -0.402  1.00  0.00     0.065 A 
ATOM     12  C   UNL     1      -1.412  -2.547  -2.295  1.00  0.00     0.130 A 
ATOM     13  C   UNL     1       0.905  -2.797  -1.718  1.00  0.00     0.034 A 
ATOM     14  Cl  UNL     1       1.873  -2.602   0.759  1.00  0.00    -0.082 Cl
ATOM     15  C   UNL     1      -0.103  -2.842  -2.672  1.00  0.00     0.019 A 
ATOM     16  O   UNL     1      -2.459  -2.707  -3.162  1.00  0.00    -0.475 OA
ATOM     17  C   UNL     1       0.171  -3.198  -4.058  1.00  0.00     0.025 C 
ATOM     18  C   UNL     1      -2.224  -3.714  -4.194  1.00  0.00     0.314 C 
BRANCH   9  19
ATOM     19  N   UNL     1      -0.980  -1.448   1.222  1.00  0.00    -0.373 N 
ATOM     20  C   UNL     1      -2.068  -2.100   1.949  1.00  0.00     0.143 C 
BRANCH  19  21
ATOM     21  C   UNL     1      -0.910   0.027   1.339  1.00  0.00     0.119 C 
BRANCH  21  22
ATOM     22  C   UNL     1       0.537   0.559   1.390  1.00  0.00     0.002 C 
ATOM     23  C   UNL     1       1.047   0.987   0.010  1.00  0.00     0.009 C 
ATOM     24  C   UNL     1       0.663   1.743   2.353  1.00  0.00     0.009 C 
ENDBRANCH  21  22
ENDBRANCH  19  21
ENDBRANCH   9  19
BRANCH  18  25
ATOM     25  C   UNL     1      -2.526  -5.132  -3.659  1.00  0.00     0.429 C 
ATOM     26  F   UNL     1      -3.854  -5.284  -3.430  1.00  0.00    -0.167 F 
ATOM     27  F   UNL     1      -2.180  -6.098  -4.546  1.00  0.00    -0.167 F 
ATOM     28  F   UNL     1      -1.881  -5.416  -2.506  1.00  0.00    -0.167 F 
ENDBRANCH  18  25
ENDBRANCH   5   8
ENDBRANCH   3   4
ENDBRANCH   2   3
ENDBRANCH   1   2
BRANCH   1  29
ATOM     29  C   UNL     1      -3.685  -6.466  -9.678  1.00  0.00     0.002 C 
BRANCH  29  30
ATOM     30  C   UNL     1      -5.046  -6.845  -9.091  1.00  0.00     0.021 C 
BRANCH  30  31
ATOM     31  C   UNL     1      -6.228  -6.105  -9.703  1.00  0.00     0.116 C 
BRANCH  31  32
ATOM     32  N   UNL     1      -6.396  -6.397 -11.118  1.00  0.00    -0.352 N 
ATOM     33  C   UNL     1      -7.520  -6.814 -11.787  1.00  0.00     0.251 C 
ATOM     34  H   UNL     1      -5.591  -6.279 -11.673  1.00  0.00     0.163 HD
ATOM     35  O   UNL     1      -7.454  -7.172 -12.958  1.00  0.00    -0.269 OA
BRANCH  33  36
ATOM     36  C   UNL     1      -8.810  -6.862 -11.069  1.00  0.00     0.039 A 
ATOM     37  C   UNL     1      -9.214  -5.788 -10.272  1.00  0.00     0.014 A 
ATOM     38  C   UNL     1      -9.599  -8.011 -11.161  1.00  0.00     0.014 A 
ATOM     39  C   UNL     1     -10.316  -5.931  -9.439  1.00  0.00     0.010 A 
ATOM     40  C   UNL     1     -10.758  -8.115 -10.389  1.00  0.00     0.010 A 
ATOM     41  C   UNL     1     -11.098  -7.097  -9.484  1.00  0.00    -0.014 A 
BRANCH  41  42
ATOM     42  C   UNL     1     -12.263  -7.229  -8.574  1.00  0.00     0.031 A 
ATOM     43  C   UNL     1     -12.284  -8.279  -7.497  1.00  0.00     0.074 A 
ATOM     44  C   UNL     1     -13.279  -6.351  -8.680  1.00  0.00     0.049 A 
ATOM     45  N   UNL     1     -13.204  -8.510  -6.593  1.00  0.00    -0.248 NA
ATOM     46  C   UNL     1     -11.127  -9.185  -7.419  1.00  0.00     0.031 C 
ATOM     47  C   UNL     1     -13.353  -5.268  -9.662  1.00  0.00     0.029 A 
ATOM     48  N   UNL     1     -14.421  -6.205  -7.934  1.00  0.00    -0.354 N 
ATOM     49  C   UNL     1     -12.742  -9.588  -5.848  1.00  0.00     0.074 A 
ATOM     50  C   UNL     1     -11.480  -9.992  -6.428  1.00  0.00     0.031 C 
ATOM     51  C   UNL     1     -14.441  -4.527  -9.414  1.00  0.00     0.029 A 
ATOM     52  C   UNL     1     -15.181  -5.124  -8.307  1.00  0.00     0.049 A 
ATOM     53  H   UNL     1     -14.670  -6.815  -7.203  1.00  0.00     0.167 HD
ATOM     54  C   UNL     1     -13.310 -10.176  -4.768  1.00  0.00     0.031 A 
ATOM     55  C   UNL     1     -16.350  -4.663  -7.822  1.00  0.00     0.031 A 
ATOM     56  C   UNL     1     -14.570  -9.775  -4.200  1.00  0.00     0.049 A 
ATOM     57  C   UNL     1     -17.002  -5.382  -6.678  1.00  0.00     0.074 A 
ATOM     58  C   UNL     1     -15.234 -10.318  -3.113  1.00  0.00     0.029 A 
ATOM     59  N   UNL     1     -15.356  -8.733  -4.669  1.00  0.00    -0.354 N 
ATOM     60  N   UNL     1     -16.560  -6.410  -5.995  1.00  0.00    -0.248 NA
ATOM     61  C   UNL     1     -18.313  -4.884  -6.241  1.00  0.00     0.031 C 
ATOM     62  C   UNL     1     -16.449  -9.644  -2.962  1.00  0.00     0.029 A 
ATOM     63  C   UNL     1     -16.509  -8.633  -3.908  1.00  0.00     0.049 A 
ATOM     64  H   UNL     1     -15.128  -8.151  -5.429  1.00  0.00     0.167 HD
ATOM     65  C   UNL     1     -17.531  -6.676  -5.040  1.00  0.00     0.074 A 
ATOM     66  C   UNL     1     -18.576  -5.689  -5.219  1.00  0.00     0.031 C 
ATOM     67  C   UNL     1     -17.550  -7.654  -4.101  1.00  0.00     0.031 A 
BRANCH  54  68
ATOM     68  C   UNL     1     -12.582 -11.330  -4.133  1.00  0.00    -0.014 A 
ATOM     69  C   UNL     1     -13.130 -12.622  -4.190  1.00  0.00     0.009 A 
ATOM     70  C   UNL     1     -11.393 -11.132  -3.414  1.00  0.00     0.009 A 
ATOM     71  C   UNL     1     -12.509 -13.688  -3.536  1.00  0.00     0.001 A 
ATOM     72  C   UNL     1     -10.755 -12.206  -2.788  1.00  0.00     0.001 A 
ATOM     73  C   UNL     1     -11.318 -13.480  -2.842  1.00  0.00     0.000 A 
ENDBRANCH  54  68
BRANCH  55  74
ATOM     74  C   UNL     1     -16.948  -3.442  -8.422  1.00  0.00    -0.014 A 
ATOM     75  C   UNL     1     -17.430  -3.455  -9.742  1.00  0.00     0.009 A 
ATOM     76  C   UNL     1     -16.957  -2.234  -7.710  1.00  0.00     0.009 A 
ATOM     77  C   UNL     1     -17.869  -2.277 -10.349  1.00  0.00     0.001 A 
ATOM     78  C   UNL     1     -17.426  -1.063  -8.310  1.00  0.00     0.001 A 
ATOM     79  C   UNL     1     -17.867  -1.083  -9.633  1.00  0.00     0.000 A 
ENDBRANCH  55  74
BRANCH  67  80
ATOM     80  C   UNL     1     -18.733  -7.715  -3.176  1.00  0.00    -0.014 A 
ATOM     81  C   UNL     1     -18.568  -7.418  -1.813  1.00  0.00     0.009 A 
ATOM     82  C   UNL     1     -19.981  -8.170  -3.626  1.00  0.00     0.009 A 
ATOM     83  C   UNL     1     -19.622  -7.594  -0.916  1.00  0.00     0.001 A 
ATOM     84  C   UNL     1     -21.043  -8.316  -2.731  1.00  0.00     0.001 A 
ATOM     85  C   UNL     1     -20.860  -8.040  -1.376  1.00  0.00     0.000 A 
ENDBRANCH  67  80
ENDBRANCH  41  42
ENDBRANCH  33  36
ENDBRANCH  31  32
ENDBRANCH  30  31
ENDBRANCH  29  30
ENDBRANCH   1  29
TORSDOF 17
