REMARK SMILES C/C=C(\C)[C@H]1C(C)=C[C@H]2CC[C@@H](OS(=O)(=O)[O-])[C@@H](C)[C@H]2[C@H]1/C=C/C=C/C(=O)NCCCCCCNC(=O)c1ccc(-c2c3nc(c(-c4ccccc4)c4ccc([nH]4)c(-c4ccccc4)c4nc(c(-c5ccccc5)c5ccc2[nH]5)C=C4)C=C3)cc1
REMARK SMILES IDX 30 1 29 2 28 3 26 4 27 5 25 7 24 8 23 9 22 10 21 11 5 12
REMARK SMILES IDX 6 13 7 14 8 15 20 16 9 17 18 18 10 19 12 20 19 21 11 22 3 23
REMARK SMILES IDX 1 24 2 25 4 26 13 27 14 28 15 29 16 30 17 31 31 32 32 33
REMARK SMILES IDX 33 34 34 35 35 36 36 37 37 39 38 40 39 41 85 42 40 43 84 44
REMARK SMILES IDX 41 45 42 46 43 47 78 48 44 49 83 50 77 51 79 52 45 53 82 54
REMARK SMILES IDX 76 55 75 56 46 58 68 59 53 60 67 61 54 62 57 63 66 64 80 65
REMARK SMILES IDX 55 66 56 67 65 69 81 70 58 71 47 72 48 73 52 74 49 75 51 76
REMARK SMILES IDX 50 77 69 78 70 79 74 80 71 81 73 82 72 83 59 84 60 85 64 86
REMARK SMILES IDX 61 87 63 88 62 89
REMARK H PARENT 28 6 35 38 79 57 57 68
REMARK Flexibility Score: inf
ROOT
ATOM      1  C   UNL     1       4.107  -0.294  -3.722  1.00  0.00     0.021 C 
ENDROOT
BRANCH   1   2
ATOM      2  C   UNL     1       4.470   1.142  -4.112  1.00  0.00     0.116 C 
BRANCH   2   3
ATOM      3  N   UNL     1       4.238   1.352  -5.533  1.00  0.00    -0.353 N 
ATOM      4  C   UNL     1       3.382   2.151  -6.226  1.00  0.00     0.243 C 
ATOM      5  O   UNL     1       3.436   2.156  -7.455  1.00  0.00    -0.270 OA
ATOM      6  H   UNL     1       4.818   0.805  -6.111  1.00  0.00     0.163 HD
BRANCH   4   7
ATOM      7  C   UNL     1       2.455   3.087  -5.547  1.00  0.00     0.071 C 
ATOM      8  C   UNL     1       1.818   2.807  -4.407  1.00  0.00     0.005 C 
BRANCH   8   9
ATOM      9  C   UNL     1       0.990   3.719  -3.654  1.00  0.00    -0.004 C 
ATOM     10  C   UNL     1       0.994   3.596  -2.317  1.00  0.00    -0.022 C 
BRANCH  10  11
ATOM     11  C   UNL     1       0.056   4.233  -1.319  1.00  0.00     0.027 C 
ATOM     12  C   UNL     1      -0.798   3.166  -0.495  1.00  0.00     0.047 C 
ATOM     13  C   UNL     1      -1.049   3.542   0.967  1.00  0.00    -0.069 C 
ATOM     14  C   UNL     1      -1.713   2.538   1.874  1.00  0.00     0.040 C 
ATOM     15  C   UNL     1      -0.789   4.776   1.440  1.00  0.00    -0.024 C 
ATOM     16  C   UNL     1       0.764   5.343  -0.474  1.00  0.00     0.009 C 
ATOM     17  C   UNL     1      -0.207   5.880   0.604  1.00  0.00     0.016 C 
ATOM     18  C   UNL     1       2.210   5.055   0.061  1.00  0.00     0.021 C 
ATOM     19  C   UNL     1       0.424   6.990   1.460  1.00  0.00     0.011 C 
ATOM     20  C   UNL     1       2.749   6.272   0.856  1.00  0.00     0.141 C 
ATOM     21  C   UNL     1       2.391   3.759   0.858  1.00  0.00     0.011 C 
ATOM     22  C   UNL     1       1.804   6.640   1.997  1.00  0.00     0.034 C 
BRANCH  12  23
ATOM     23  C   UNL     1      -0.396   1.683  -0.740  1.00  0.00    -0.070 C 
ATOM     24  C   UNL     1       1.016  -0.373  -0.114  1.00  0.00     0.035 C 
ATOM     25  C   UNL     1       0.457   1.003   0.056  1.00  0.00    -0.031 C 
ATOM     26  C   UNL     1      -1.045   1.073  -1.965  1.00  0.00     0.040 C 
ENDBRANCH  12  23
BRANCH  20  27
ATOM     27  O   UNL     1       4.039   5.953   1.365  1.00  0.00    -0.276 OA
BRANCH  27  28
ATOM     28  S   UNL     1       5.102   7.136   1.668  1.00  0.00     0.217 S 
ATOM     29  O   UNL     1       5.255   7.955   0.486  1.00  0.00    -0.213 OA
ATOM     30  O   UNL     1       4.810   7.715   2.957  1.00  0.00    -0.213 OA
ATOM     31  O   UNL     1       6.482   6.330   1.859  1.00  0.00    -0.726 OA
ENDBRANCH  27  28
ENDBRANCH  20  27
ENDBRANCH  10  11
ENDBRANCH   8   9
ENDBRANCH   4   7
ENDBRANCH   2   3
ENDBRANCH   1   2
BRANCH   1  32
ATOM     32  C   UNL     1       5.185  -1.315  -4.115  1.00  0.00     0.002 C 
BRANCH  32  33
ATOM     33  C   UNL     1       6.548  -1.097  -3.445  1.00  0.00     0.002 C 
BRANCH  33  34
ATOM     34  C   UNL     1       6.514  -1.063  -1.916  1.00  0.00     0.021 C 
BRANCH  34  35
ATOM     35  C   UNL     1       6.021  -2.357  -1.277  1.00  0.00     0.116 C 
BRANCH  35  36
ATOM     36  N   UNL     1       6.911  -3.472  -1.565  1.00  0.00    -0.352 N 
ATOM     37  C   UNL     1       7.580  -4.298  -0.699  1.00  0.00     0.251 C 
ATOM     38  H   UNL     1       7.053  -3.660  -2.521  1.00  0.00     0.163 HD
ATOM     39  O   UNL     1       8.474  -5.031  -1.107  1.00  0.00    -0.269 OA
BRANCH  37  40
ATOM     40  C   UNL     1       7.226  -4.294   0.735  1.00  0.00     0.039 A 
ATOM     41  C   UNL     1       8.248  -4.308   1.686  1.00  0.00     0.014 A 
ATOM     42  C   UNL     1       5.887  -4.287   1.138  1.00  0.00     0.014 A 
ATOM     43  C   UNL     1       7.927  -4.260   3.043  1.00  0.00     0.010 A 
ATOM     44  C   UNL     1       5.572  -4.158   2.486  1.00  0.00     0.010 A 
ATOM     45  C   UNL     1       6.588  -4.151   3.453  1.00  0.00    -0.014 A 
BRANCH  45  46
ATOM     46  C   UNL     1       6.233  -4.026   4.889  1.00  0.00     0.031 A 
ATOM     47  C   UNL     1       5.407  -5.089   5.560  1.00  0.00     0.074 A 
ATOM     48  C   UNL     1       6.604  -2.926   5.572  1.00  0.00     0.049 A 
ATOM     49  N   UNL     1       4.958  -5.130   6.789  1.00  0.00    -0.248 NA
ATOM     50  C   UNL     1       5.012  -6.245   4.738  1.00  0.00     0.031 C 
ATOM     51  C   UNL     1       7.373  -1.806   5.023  1.00  0.00     0.029 A 
ATOM     52  N   UNL     1       6.379  -2.566   6.877  1.00  0.00    -0.354 N 
ATOM     53  C   UNL     1       4.217  -6.302   6.881  1.00  0.00     0.074 A 
ATOM     54  C   UNL     1       4.232  -6.916   5.572  1.00  0.00     0.031 C 
ATOM     55  C   UNL     1       7.580  -0.900   5.991  1.00  0.00     0.029 A 
ATOM     56  C   UNL     1       6.921  -1.349   7.213  1.00  0.00     0.049 A 
ATOM     57  H   UNL     1       5.877  -3.126   7.512  1.00  0.00     0.167 HD
ATOM     58  C   UNL     1       3.595  -6.829   7.963  1.00  0.00     0.031 A 
ATOM     59  C   UNL     1       6.882  -0.664   8.371  1.00  0.00     0.031 A 
ATOM     60  C   UNL     1       3.586  -6.218   9.265  1.00  0.00     0.049 A 
ATOM     61  C   UNL     1       6.164  -1.261   9.550  1.00  0.00     0.074 A 
ATOM     62  C   UNL     1       3.034  -6.702  10.439  1.00  0.00     0.029 A 
ATOM     63  N   UNL     1       4.147  -4.986   9.564  1.00  0.00    -0.354 N 
ATOM     64  N   UNL     1       5.534  -2.407   9.642  1.00  0.00    -0.248 NA
ATOM     65  C   UNL     1       6.163  -0.473  10.791  1.00  0.00     0.031 C 
ATOM     66  C   UNL     1       3.202  -5.732  11.432  1.00  0.00     0.029 A 
ATOM     67  C   UNL     1       3.925  -4.678  10.896  1.00  0.00     0.049 A 
ATOM     68  H   UNL     1       4.631  -4.415   8.925  1.00  0.00     0.167 HD
ATOM     69  C   UNL     1       5.090  -2.491  10.955  1.00  0.00     0.074 A 
ATOM     70  C   UNL     1       5.539  -1.290  11.627  1.00  0.00     0.031 C 
ATOM     71  C   UNL     1       4.376  -3.477  11.552  1.00  0.00     0.031 A 
BRANCH  58  72
ATOM     72  C   UNL     1       2.857  -8.127   7.779  1.00  0.00    -0.014 A 
ATOM     73  C   UNL     1       3.540  -9.329   7.530  1.00  0.00     0.009 A 
ATOM     74  C   UNL     1       1.459  -8.156   7.900  1.00  0.00     0.009 A 
ATOM     75  C   UNL     1       2.835 -10.524   7.370  1.00  0.00     0.001 A 
ATOM     76  C   UNL     1       0.759  -9.357   7.772  1.00  0.00     0.001 A 
ATOM     77  C   UNL     1       1.446 -10.538   7.497  1.00  0.00     0.000 A 
ENDBRANCH  58  72
BRANCH  59  78
ATOM     78  C   UNL     1       7.544   0.663   8.477  1.00  0.00    -0.014 A 
ATOM     79  C   UNL     1       8.678   0.836   9.287  1.00  0.00     0.009 A 
ATOM     80  C   UNL     1       7.038   1.771   7.779  1.00  0.00     0.009 A 
ATOM     81  C   UNL     1       9.268   2.095   9.421  1.00  0.00     0.001 A 
ATOM     82  C   UNL     1       7.650   3.021   7.888  1.00  0.00     0.001 A 
ATOM     83  C   UNL     1       8.757   3.185   8.718  1.00  0.00     0.000 A 
ENDBRANCH  59  78
BRANCH  71  84
ATOM     84  C   UNL     1       4.071  -3.319  13.016  1.00  0.00    -0.014 A 
ATOM     85  C   UNL     1       3.157  -2.358  13.476  1.00  0.00     0.009 A 
ATOM     86  C   UNL     1       4.678  -4.178  13.945  1.00  0.00     0.009 A 
ATOM     87  C   UNL     1       2.888  -2.237  14.841  1.00  0.00     0.001 A 
ATOM     88  C   UNL     1       4.380  -4.079  15.305  1.00  0.00     0.001 A 
ATOM     89  C   UNL     1       3.494  -3.101  15.753  1.00  0.00     0.000 A 
ENDBRANCH  71  84
ENDBRANCH  45  46
ENDBRANCH  37  40
ENDBRANCH  35  36
ENDBRANCH  34  35
ENDBRANCH  33  34
ENDBRANCH  32  33
ENDBRANCH   1  32
TORSDOF 18
