REMARK SMILES N#C[C@H]1CN(c2cc(C(=O)NCCCCCCNC(=O)c3ccc(-c4c5nc(c(-c6ccccc6)c6ccc([nH]6)c(-c6ccccc6)c6nc(c(-c7ccccc7)c7ccc4[nH]7)C=C6)C=C5)cc3)c(N)cc2F)CCO1
REMARK SMILES IDX 14 1 13 2 12 3 11 4 9 5 10 6 8 8 6 9 7 10 72 11 71 12 73 13
REMARK SMILES IDX 69 14 5 15 3 16 4 17 76 18 75 19 74 20 2 21 1 22 70 23 15 26
REMARK SMILES IDX 16 27 17 28 18 29 19 30 20 32 21 33 22 34 68 35 23 36 67 37
REMARK SMILES IDX 24 38 25 39 26 40 61 41 27 42 66 43 60 44 62 45 28 46 65 47
REMARK SMILES IDX 59 48 58 49 29 51 51 52 36 53 50 54 37 55 40 56 49 57 63 58
REMARK SMILES IDX 38 59 39 60 48 62 64 63 41 64 30 65 31 66 35 67 32 68 34 69
REMARK SMILES IDX 33 70 52 71 53 72 57 73 54 74 56 75 55 76 42 77 43 78 47 79
REMARK SMILES IDX 44 80 46 81 45 82
REMARK H PARENT 11 7 70 24 70 25 18 31 62 50 40 61
REMARK Flexibility Score: inf
ROOT
ATOM      1  C   UNL     1       1.170   8.082  -6.817  1.00  0.00     0.002 C 
ENDROOT
BRANCH   1   2
ATOM      2  C   UNL     1       0.645   6.970  -5.907  1.00  0.00     0.021 C 
BRANCH   2   3
ATOM      3  C   UNL     1       1.326   5.615  -6.038  1.00  0.00     0.116 C 
BRANCH   3   4
ATOM      4  N   UNL     1       2.732   5.593  -5.697  1.00  0.00    -0.352 N 
ATOM      5  C   UNL     1       3.509   4.565  -5.208  1.00  0.00     0.253 C 
ATOM      6  O   UNL     1       4.707   4.794  -5.035  1.00  0.00    -0.269 OA
ATOM      7  H   UNL     1       3.208   6.444  -5.835  1.00  0.00     0.163 HD
BRANCH   5   8
ATOM      8  C   UNL     1       2.964   3.224  -4.813  1.00  0.00     0.065 A 
ATOM      9  C   UNL     1       3.252   1.338  -3.256  1.00  0.00     0.074 A 
ATOM     10  C   UNL     1       3.621   2.607  -3.718  1.00  0.00     0.045 A 
ATOM     11  C   UNL     1       2.092   0.780  -3.805  1.00  0.00     0.148 A 
ATOM     12  C   UNL     1       1.437   1.357  -4.883  1.00  0.00     0.067 A 
ATOM     13  F   UNL     1       1.617  -0.383  -3.328  1.00  0.00    -0.205 F 
ATOM     14  C   UNL     1       1.943   2.515  -5.478  1.00  0.00     0.047 A 
BRANCH   9  15
ATOM     15  N   UNL     1       4.052   0.634  -2.384  1.00  0.00    -0.363 N 
ATOM     16  C   UNL     1       3.894   0.046   0.002  1.00  0.00     0.240 C 
ATOM     17  C   UNL     1       4.389   1.091  -1.032  1.00  0.00     0.164 C 
ATOM     18  O   UNL     1       4.381  -1.283  -0.317  1.00  0.00    -0.360 OA
ATOM     19  C   UNL     1       3.929  -1.694  -1.619  1.00  0.00     0.183 C 
ATOM     20  C   UNL     1       4.444  -0.745  -2.706  1.00  0.00     0.145 C 
BRANCH  16  21
ATOM     21  C   UNL     1       4.346   0.430   1.353  1.00  0.00     0.096 C 
ATOM     22  N   UNL     1       4.690   0.751   2.412  1.00  0.00    -0.195 NA
ENDBRANCH  16  21
ENDBRANCH   9  15
BRANCH  14  23
ATOM     23  N   UNL     1       1.415   2.866  -6.715  1.00  0.00    -0.398 N 
ATOM     24  H   UNL     1       1.738   3.673  -7.177  1.00  0.00     0.156 HD
ATOM     25  H   UNL     1       0.719   2.307  -7.130  1.00  0.00     0.156 HD
ENDBRANCH  14  23
ENDBRANCH   5   8
ENDBRANCH   3   4
ENDBRANCH   2   3
ENDBRANCH   1   2
BRANCH   1  26
ATOM     26  C   UNL     1       1.274   7.761  -8.312  1.00  0.00     0.002 C 
BRANCH  26  27
ATOM     27  C   UNL     1       0.012   7.216  -8.983  1.00  0.00     0.021 C 
BRANCH  27  28
ATOM     28  C   UNL     1      -1.254   8.035  -8.768  1.00  0.00     0.116 C 
BRANCH  28  29
ATOM     29  N   UNL     1      -1.132   9.400  -9.251  1.00  0.00    -0.352 N 
ATOM     30  C   UNL     1      -1.955  10.104 -10.094  1.00  0.00     0.251 C 
ATOM     31  H   UNL     1      -0.343   9.892  -8.925  1.00  0.00     0.163 HD
ATOM     32  O   UNL     1      -1.613  11.203 -10.519  1.00  0.00    -0.269 OA
BRANCH  30  33
ATOM     33  C   UNL     1      -3.248   9.522 -10.514  1.00  0.00     0.039 A 
ATOM     34  C   UNL     1      -3.618   9.601 -11.859  1.00  0.00     0.014 A 
ATOM     35  C   UNL     1      -4.087   8.898  -9.588  1.00  0.00     0.014 A 
ATOM     36  C   UNL     1      -4.803   8.997 -12.285  1.00  0.00     0.010 A 
ATOM     37  C   UNL     1      -5.220   8.222 -10.029  1.00  0.00     0.010 A 
ATOM     38  C   UNL     1      -5.594   8.270 -11.381  1.00  0.00    -0.014 A 
BRANCH  38  39
ATOM     39  C   UNL     1      -6.819   7.559 -11.825  1.00  0.00     0.031 A 
ATOM     40  C   UNL     1      -8.163   7.951 -11.276  1.00  0.00     0.074 A 
ATOM     41  C   UNL     1      -6.718   6.522 -12.679  1.00  0.00     0.049 A 
ATOM     42  N   UNL     1      -9.338   7.420 -11.506  1.00  0.00    -0.248 NA
ATOM     43  C   UNL     1      -8.186   9.072 -10.323  1.00  0.00     0.031 C 
ATOM     44  C   UNL     1      -5.473   6.027 -13.269  1.00  0.00     0.029 A 
ATOM     45  N   UNL     1      -7.684   5.699 -13.201  1.00  0.00    -0.354 N 
ATOM     46  C   UNL     1     -10.233   8.135 -10.720  1.00  0.00     0.074 A 
ATOM     47  C   UNL     1      -9.457   9.087  -9.956  1.00  0.00     0.031 C 
ATOM     48  C   UNL     1      -5.756   5.016 -14.105  1.00  0.00     0.029 A 
ATOM     49  C   UNL     1      -7.191   4.755 -14.070  1.00  0.00     0.049 A 
ATOM     50  H   UNL     1      -8.639   5.777 -12.975  1.00  0.00     0.167 HD
ATOM     51  C   UNL     1     -11.582   8.029 -10.656  1.00  0.00     0.031 A 
ATOM     52  C   UNL     1      -7.823   3.786 -14.758  1.00  0.00     0.031 A 
ATOM     53  C   UNL     1     -12.351   7.068 -11.403  1.00  0.00     0.049 A 
ATOM     54  C   UNL     1      -9.313   3.639 -14.617  1.00  0.00     0.074 A 
ATOM     55  C   UNL     1     -13.724   6.896 -11.433  1.00  0.00     0.029 A 
ATOM     56  N   UNL     1     -11.809   6.106 -12.243  1.00  0.00    -0.354 N 
ATOM     57  N   UNL     1     -10.154   4.359 -13.916  1.00  0.00    -0.248 NA
ATOM     58  C   UNL     1      -9.940   2.546 -15.374  1.00  0.00     0.031 C 
ATOM     59  C   UNL     1     -14.007   5.785 -12.234  1.00  0.00     0.029 A 
ATOM     60  C   UNL     1     -12.818   5.315 -12.769  1.00  0.00     0.049 A 
ATOM     61  H   UNL     1     -10.850   6.001 -12.437  1.00  0.00     0.167 HD
ATOM     62  C   UNL     1     -11.413   3.833 -14.176  1.00  0.00     0.074 A 
ATOM     63  C   UNL     1     -11.224   2.740 -15.108  1.00  0.00     0.031 C 
ATOM     64  C   UNL     1     -12.618   4.225 -13.692  1.00  0.00     0.031 A 
BRANCH  51  65
ATOM     65  C   UNL     1     -12.300   8.966  -9.720  1.00  0.00    -0.014 A 
ATOM     66  C   UNL     1     -12.312  10.354  -9.941  1.00  0.00     0.009 A 
ATOM     67  C   UNL     1     -12.972   8.457  -8.598  1.00  0.00     0.009 A 
ATOM     68  C   UNL     1     -12.924  11.214  -9.025  1.00  0.00     0.001 A 
ATOM     69  C   UNL     1     -13.619   9.315  -7.707  1.00  0.00     0.001 A 
ATOM     70  C   UNL     1     -13.579  10.693  -7.911  1.00  0.00     0.000 A 
ENDBRANCH  51  65
BRANCH  52  71
ATOM     71  C   UNL     1      -7.052   2.896 -15.666  1.00  0.00    -0.014 A 
ATOM     72  C   UNL     1      -7.226   2.982 -17.056  1.00  0.00     0.009 A 
ATOM     73  C   UNL     1      -6.138   1.961 -15.155  1.00  0.00     0.009 A 
ATOM     74  C   UNL     1      -6.520   2.134 -17.913  1.00  0.00     0.001 A 
ATOM     75  C   UNL     1      -5.409   1.138 -16.015  1.00  0.00     0.001 A 
ATOM     76  C   UNL     1      -5.607   1.218 -17.392  1.00  0.00     0.000 A 
ENDBRANCH  52  71
BRANCH  64  77
ATOM     77  C   UNL     1     -13.836   3.499 -14.197  1.00  0.00    -0.014 A 
ATOM     78  C   UNL     1     -14.099   2.166 -13.845  1.00  0.00     0.009 A 
ATOM     79  C   UNL     1     -14.760   4.181 -15.006  1.00  0.00     0.009 A 
ATOM     80  C   UNL     1     -15.243   1.522 -14.324  1.00  0.00     0.001 A 
ATOM     81  C   UNL     1     -15.920   3.547 -15.452  1.00  0.00     0.001 A 
ATOM     82  C   UNL     1     -16.155   2.214 -15.120  1.00  0.00     0.000 A 
ENDBRANCH  64  77
ENDBRANCH  38  39
ENDBRANCH  30  33
ENDBRANCH  28  29
ENDBRANCH  27  28
ENDBRANCH  26  27
ENDBRANCH   1  26
TORSDOF 16
