REMARK SMILES CC(C)C[C@H](NC(=O)[C@H](Cc1ccccc1)NC(=O)CNC(=O)CNC(=O)OCc1ccccc1)C(=O)NCCCCCCNC(=O)c1ccc(-c2c3nc(c(-c4ccccc4)c4ccc([nH]4)c(-c4ccccc4)c4nc(c(-c5ccccc5)c5ccc2[nH]5)C=C4)C=C3)cc1
REMARK SMILES IDX 36 1 37 2 38 3 5 5 4 6 2 7 1 8 3 9 6 10 7 11 8 13 9 14 17 15
REMARK SMILES IDX 18 16 19 18 20 19 21 20 22 21 23 23 24 24 25 25 26 26 27 28
REMARK SMILES IDX 28 29 29 30 30 31 31 32 35 33 32 34 34 35 33 36 10 37 11 38
REMARK SMILES IDX 12 39 16 40 13 41 15 42 14 43 39 44 40 45 41 46 42 47 43 48
REMARK SMILES IDX 44 49 45 50 46 51 47 53 48 54 49 55 95 56 50 57 94 58 51 59
REMARK SMILES IDX 52 60 53 61 88 62 54 63 93 64 87 65 89 66 55 67 92 68 86 69
REMARK SMILES IDX 85 70 56 72 78 73 63 74 77 75 64 76 67 77 76 78 90 79 65 80
REMARK SMILES IDX 66 81 75 83 91 84 68 85 57 86 58 87 62 88 59 89 61 90 60 91
REMARK SMILES IDX 79 92 80 93 84 94 81 95 83 96 82 97 69 98 70 99 74 100
REMARK SMILES IDX 71 101 73 102 72 103
REMARK H PARENT 38 4 6 12 17 17 21 22 25 27 45 52 89 71 67 82
REMARK Flexibility Score: inf
ROOT
ATOM      1  C   UNL     1       0.354   6.261   0.718  1.00  0.00     0.242 C 
ATOM      2  O   UNL     1       0.937   6.745   1.707  1.00  0.00    -0.273 OA
ATOM      3  N   UNL     1       0.219   7.175  -0.322  1.00  0.00    -0.354 N 
ATOM      4  H   UNL     1      -0.124   8.047  -0.021  1.00  0.00     0.163 HD
ENDROOT
BRANCH   1   5
ATOM      5  C   UNL     1      -0.269   4.749   0.927  1.00  0.00     0.171 C 
BRANCH   5   6
ATOM      6  C   UNL     1       0.650   3.485   1.522  1.00  0.00     0.038 C 
BRANCH   6   7
ATOM      7  C   UNL     1       0.930   2.058   0.790  1.00  0.00    -0.015 C 
ATOM      8  C   UNL     1       2.181   1.926  -0.131  1.00  0.00     0.007 C 
ATOM      9  C   UNL     1       1.140   0.912   1.794  1.00  0.00     0.007 C 
ENDBRANCH   6   7
ENDBRANCH   5   6
BRANCH   5  10
ATOM     10  N   UNL     1      -1.503   4.343   0.249  1.00  0.00    -0.343 N 
ATOM     11  C   UNL     1      -1.793   3.650  -0.877  1.00  0.00     0.243 C 
ATOM     12  H   UNL     1      -2.311   4.644   0.724  1.00  0.00     0.164 HD
ATOM     13  O   UNL     1      -2.969   3.307  -1.020  1.00  0.00    -0.273 OA
BRANCH  11  14
ATOM     14  C   UNL     1      -0.731   3.319  -1.940  1.00  0.00     0.175 C 
BRANCH  14  15
ATOM     15  N   UNL     1       0.560   3.802  -1.510  1.00  0.00    -0.342 N 
ATOM     16  C   UNL     1       1.646   4.427  -1.958  1.00  0.00     0.240 C 
ATOM     17  H   UNL     1       0.678   3.599  -0.554  1.00  0.00     0.164 HD
ATOM     18  O   UNL     1       2.458   4.796  -1.103  1.00  0.00    -0.273 OA
BRANCH  16  19
ATOM     19  C   UNL     1       1.865   4.745  -3.391  1.00  0.00     0.216 C 
BRANCH  19  20
ATOM     20  N   UNL     1       0.962   4.214  -4.393  1.00  0.00    -0.346 N 
ATOM     21  C   UNL     1      -0.174   4.580  -5.028  1.00  0.00     0.239 C 
ATOM     22  H   UNL     1       1.263   3.329  -4.701  1.00  0.00     0.164 HD
ATOM     23  O   UNL     1      -0.072   4.326  -6.246  1.00  0.00    -0.273 OA
BRANCH  21  24
ATOM     24  C   UNL     1      -1.506   5.355  -4.582  1.00  0.00     0.219 C 
BRANCH  24  25
ATOM     25  N   UNL     1      -2.531   5.222  -3.506  1.00  0.00    -0.312 N 
ATOM     26  C   UNL     1      -3.099   6.044  -2.566  1.00  0.00     0.407 C 
ATOM     27  H   UNL     1      -2.893   4.307  -3.458  1.00  0.00     0.167 HD
ATOM     28  O   UNL     1      -4.210   5.770  -2.094  1.00  0.00    -0.225 OA
BRANCH  26  29
ATOM     29  O   UNL     1      -2.359   7.074  -2.140  1.00  0.00    -0.445 OA
BRANCH  29  30
ATOM     30  C   UNL     1      -2.757   7.791  -0.933  1.00  0.00     0.270 C 
BRANCH  30  31
ATOM     31  C   UNL     1      -3.928   8.714  -1.105  1.00  0.00    -0.011 A 
ATOM     32  C   UNL     1      -4.166   9.371  -2.317  1.00  0.00     0.007 A 
ATOM     33  C   UNL     1      -4.778   8.952  -0.016  1.00  0.00     0.007 A 
ATOM     34  C   UNL     1      -5.321  10.131  -2.482  1.00  0.00     0.000 A 
ATOM     35  C   UNL     1      -5.931   9.713  -0.182  1.00  0.00     0.000 A 
ATOM     36  C   UNL     1      -6.219  10.274  -1.424  1.00  0.00     0.000 A 
ENDBRANCH  30  31
ENDBRANCH  29  30
ENDBRANCH  26  29
ENDBRANCH  24  25
ENDBRANCH  21  24
ENDBRANCH  19  20
ENDBRANCH  16  19
ENDBRANCH  14  15
BRANCH  14  37
ATOM     37  C   UNL     1      -0.812   1.823  -2.290  1.00  0.00     0.070 C 
BRANCH  37  38
ATOM     38  C   UNL     1      -1.496   1.601  -3.622  1.00  0.00    -0.045 A 
ATOM     39  C   UNL     1      -0.725   1.343  -4.760  1.00  0.00     0.004 A 
ATOM     40  C   UNL     1      -2.888   1.721  -3.758  1.00  0.00     0.004 A 
ATOM     41  C   UNL     1      -1.325   1.259  -6.016  1.00  0.00     0.000 A 
ATOM     42  C   UNL     1      -3.486   1.639  -5.016  1.00  0.00     0.000 A 
ATOM     43  C   UNL     1      -2.702   1.417  -6.145  1.00  0.00     0.000 A 
ENDBRANCH  37  38
ENDBRANCH  14  37
ENDBRANCH  11  14
ENDBRANCH   5  10
ENDBRANCH   1   5
BRANCH   3  44
ATOM     44  C   UNL     1       0.476   7.129  -1.785  1.00  0.00     0.116 C 
BRANCH  44  45
ATOM     45  C   UNL     1      -0.106   8.210  -2.757  1.00  0.00     0.021 C 
BRANCH  45  46
ATOM     46  C   UNL     1       0.691   9.246  -3.549  1.00  0.00     0.002 C 
BRANCH  46  47
ATOM     47  C   UNL     1       1.849   8.810  -4.438  1.00  0.00     0.002 C 
BRANCH  47  48
ATOM     48  C   UNL     1       1.604   7.737  -5.499  1.00  0.00     0.021 C 
BRANCH  48  49
ATOM     49  C   UNL     1       0.408   7.864  -6.427  1.00  0.00     0.116 C 
BRANCH  49  50
ATOM     50  N   UNL     1       0.465   9.015  -7.291  1.00  0.00    -0.352 N 
ATOM     51  C   UNL     1       0.537   9.054  -8.660  1.00  0.00     0.251 C 
ATOM     52  H   UNL     1       0.451   9.889  -6.839  1.00  0.00     0.163 HD
ATOM     53  O   UNL     1       0.698  10.122  -9.241  1.00  0.00    -0.269 OA
BRANCH  51  54
ATOM     54  C   UNL     1       0.446   7.800  -9.439  1.00  0.00     0.039 A 
ATOM     55  C   UNL     1       1.455   7.514 -10.360  1.00  0.00     0.014 A 
ATOM     56  C   UNL     1      -0.632   6.923  -9.277  1.00  0.00     0.014 A 
ATOM     57  C   UNL     1       1.398   6.336 -11.106  1.00  0.00     0.010 A 
ATOM     58  C   UNL     1      -0.653   5.717  -9.976  1.00  0.00     0.010 A 
ATOM     59  C   UNL     1       0.350   5.421 -10.913  1.00  0.00    -0.014 A 
BRANCH  59  60
ATOM     60  C   UNL     1       0.263   4.181 -11.727  1.00  0.00     0.031 A 
ATOM     61  C   UNL     1      -0.871   4.009 -12.703  1.00  0.00     0.074 A 
ATOM     62  C   UNL     1       1.183   3.207 -11.578  1.00  0.00     0.049 A 
ATOM     63  N   UNL     1      -1.146   2.991 -13.480  1.00  0.00    -0.248 NA
ATOM     64  C   UNL     1      -1.835   5.118 -12.809  1.00  0.00     0.031 C 
ATOM     65  C   UNL     1       2.319   3.248 -10.654  1.00  0.00     0.029 A 
ATOM     66  N   UNL     1       1.308   1.990 -12.201  1.00  0.00    -0.354 N 
ATOM     67  C   UNL     1      -2.321   3.327 -14.141  1.00  0.00     0.074 A 
ATOM     68  C   UNL     1      -2.731   4.623 -13.650  1.00  0.00     0.031 C 
ATOM     69  C   UNL     1       3.038   2.121 -10.791  1.00  0.00     0.029 A 
ATOM     70  C   UNL     1       2.391   1.258 -11.775  1.00  0.00     0.049 A 
ATOM     71  H   UNL     1       0.680   1.671 -12.889  1.00  0.00     0.167 HD
ATOM     72  C   UNL     1      -2.992   2.625 -15.084  1.00  0.00     0.031 A 
ATOM     73  C   UNL     1       2.806   0.026 -12.129  1.00  0.00     0.031 A 
ATOM     74  C   UNL     1      -2.568   1.348 -15.590  1.00  0.00     0.049 A 
ATOM     75  C   UNL     1       2.022  -0.740 -13.163  1.00  0.00     0.074 A 
ATOM     76  C   UNL     1      -3.144   0.587 -16.592  1.00  0.00     0.029 A 
ATOM     77  N   UNL     1      -1.468   0.643 -15.130  1.00  0.00    -0.354 N 
ATOM     78  N   UNL     1       0.956  -0.373 -13.832  1.00  0.00    -0.248 NA
ATOM     79  C   UNL     1       2.506  -2.088 -13.496  1.00  0.00     0.031 C 
ATOM     80  C   UNL     1      -2.430  -0.609 -16.694  1.00  0.00     0.029 A 
ATOM     81  C   UNL     1      -1.367  -0.559 -15.807  1.00  0.00     0.049 A 
ATOM     82  H   UNL     1      -0.851   0.952 -14.428  1.00  0.00     0.167 HD
ATOM     83  C   UNL     1       0.669  -1.425 -14.693  1.00  0.00     0.074 A 
ATOM     84  C   UNL     1       1.680  -2.438 -14.472  1.00  0.00     0.031 C 
ATOM     85  C   UNL     1      -0.341  -1.544 -15.589  1.00  0.00     0.031 A 
BRANCH  72  86
ATOM     86  C   UNL     1      -4.265   3.210 -15.630  1.00  0.00    -0.014 A 
ATOM     87  C   UNL     1      -4.254   4.327 -16.479  1.00  0.00     0.009 A 
ATOM     88  C   UNL     1      -5.490   2.582 -15.351  1.00  0.00     0.009 A 
ATOM     89  C   UNL     1      -5.445   4.816 -17.020  1.00  0.00     0.001 A 
ATOM     90  C   UNL     1      -6.675   3.054 -15.917  1.00  0.00     0.001 A 
ATOM     91  C   UNL     1      -6.653   4.174 -16.746  1.00  0.00     0.000 A 
ENDBRANCH  72  86
BRANCH  73  92
ATOM     92  C   UNL     1       4.013  -0.581 -11.502  1.00  0.00    -0.014 A 
ATOM     93  C   UNL     1       5.155  -0.861 -12.268  1.00  0.00     0.009 A 
ATOM     94  C   UNL     1       4.007  -0.939 -10.144  1.00  0.00     0.009 A 
ATOM     95  C   UNL     1       6.244  -1.531 -11.702  1.00  0.00     0.001 A 
ATOM     96  C   UNL     1       5.112  -1.574  -9.571  1.00  0.00     0.001 A 
ATOM     97  C   UNL     1       6.222  -1.885 -10.354  1.00  0.00     0.000 A 
ENDBRANCH  73  92
BRANCH  85  98
ATOM     98  C   UNL     1      -0.371  -2.780 -16.443  1.00  0.00    -0.014 A 
ATOM     99  C   UNL     1      -0.711  -4.033 -15.912  1.00  0.00     0.009 A 
ATOM    100  C   UNL     1      -0.117  -2.670 -17.820  1.00  0.00     0.009 A 
ATOM    101  C   UNL     1      -0.765  -5.157 -16.738  1.00  0.00     0.001 A 
ATOM    102  C   UNL     1      -0.206  -3.788 -18.649  1.00  0.00     0.001 A 
ATOM    103  C   UNL     1      -0.520  -5.032 -18.106  1.00  0.00     0.000 A 
ENDBRANCH  85  98
ENDBRANCH  59  60
ENDBRANCH  51  54
ENDBRANCH  49  50
ENDBRANCH  48  49
ENDBRANCH  47  48
ENDBRANCH  46  47
ENDBRANCH  45  46
ENDBRANCH  44  45
ENDBRANCH   3  44
TORSDOF 27
