REMARK SMILES C[NH+]1CCC(NC(=O)N[C@H]2C=C[C@H](C(=O)NCCCCCCNC(=O)c3ccc(-c4c5nc(c(-c6ccccc6)c6ccc([nH]6)c(-c6ccccc6)c6nc(c(-c7ccccc7)c7ccc4[nH]7)C=C6)C=C5)cc3)C2)CC1
REMARK SMILES IDX 19 1 18 2 17 3 16 4 14 5 15 6 13 8 10 9 11 10 74 11 12 12
REMARK SMILES IDX 9 13 6 14 7 15 8 17 5 19 1 20 2 21 3 22 76 23 4 25 75 26
REMARK SMILES IDX 20 27 21 28 22 29 23 30 24 31 25 33 26 34 27 35 73 36 28 37
REMARK SMILES IDX 72 38 29 39 30 40 31 41 66 42 32 43 71 44 65 45 67 46 33 47
REMARK SMILES IDX 70 48 64 49 63 50 34 52 56 53 41 54 55 55 42 56 45 57 54 58
REMARK SMILES IDX 68 59 43 60 44 61 53 63 69 64 46 65 35 66 36 67 40 68 37 69
REMARK SMILES IDX 39 70 38 71 57 72 58 73 62 74 59 75 61 76 60 77 47 78 48 79
REMARK SMILES IDX 52 80 49 81 51 82 50 83
REMARK H PARENT 16 7 6 16 9 18 2 24 23 32 67 51 45 62
REMARK Flexibility Score: inf
ROOT
ATOM      1  C   UNL     1      -4.315   3.003  -1.215  1.00  0.00     0.002 C 
ENDROOT
BRANCH   1   2
ATOM      2  C   UNL     1      -2.851   2.585  -1.030  1.00  0.00     0.021 C 
BRANCH   2   3
ATOM      3  C   UNL     1      -2.457   1.354  -1.855  1.00  0.00     0.116 C 
BRANCH   3   4
ATOM      4  N   UNL     1      -1.835   1.677  -3.129  1.00  0.00    -0.356 N 
ATOM      5  C   UNL     1      -0.625   1.270  -3.634  1.00  0.00     0.227 C 
ATOM      6  O   UNL     1      -0.401   1.439  -4.832  1.00  0.00    -0.274 OA
ATOM      7  H   UNL     1      -2.357   2.274  -3.713  1.00  0.00     0.163 HD
BRANCH   5   8
ATOM      8  C   UNL     1       0.402   0.640  -2.691  1.00  0.00     0.103 C 
ATOM      9  C   UNL     1       2.791   0.138  -2.979  1.00  0.00     0.107 C 
ATOM     10  C   UNL     1       1.965  -1.098  -3.016  1.00  0.00    -0.006 C 
ATOM     11  C   UNL     1       1.799   1.288  -2.785  1.00  0.00     0.047 C 
ATOM     12  C   UNL     1       0.657  -0.821  -2.941  1.00  0.00    -0.016 C 
BRANCH   9  13
ATOM     13  N   UNL     1       3.937   0.050  -2.084  1.00  0.00    -0.332 N 
ATOM     14  N   UNL     1       3.455  -0.049   0.248  1.00  0.00    -0.335 N 
ATOM     15  C   UNL     1       4.280  -0.005  -0.798  1.00  0.00     0.315 C 
ATOM     16  H   UNL     1       3.922  -0.004   1.114  1.00  0.00     0.165 HD
ATOM     17  O   UNL     1       5.491  -0.012  -0.551  1.00  0.00    -0.249 OA
ATOM     18  H   UNL     1       4.757   0.019  -2.628  1.00  0.00     0.165 HD
BRANCH  14  19
ATOM     19  C   UNL     1       2.023  -0.147   0.377  1.00  0.00     0.095 C 
ATOM     20  C   UNL     1      -2.046  -0.578   1.425  1.00  0.00     0.332 C 
ATOM     21  N   UNL     1      -0.592  -0.518   1.592  1.00  0.00    -0.337 N 
ATOM     22  C   UNL     1      -0.080   0.830   1.319  1.00  0.00     0.264 C 
ATOM     23  C   UNL     1       0.041  -1.577   0.791  1.00  0.00     0.264 C 
ATOM     24  H   UNL     1      -0.346  -0.700   2.565  1.00  0.00     0.347 HD
ATOM     25  C   UNL     1       1.448   0.916   1.308  1.00  0.00     0.086 C 
ATOM     26  C   UNL     1       1.566  -1.521   0.846  1.00  0.00     0.086 C 
ENDBRANCH  14  19
ENDBRANCH   9  13
ENDBRANCH   5   8
ENDBRANCH   3   4
ENDBRANCH   2   3
ENDBRANCH   1   2
BRANCH   1  27
ATOM     27  C   UNL     1      -5.347   1.986  -0.703  1.00  0.00     0.002 C 
BRANCH  27  28
ATOM     28  C   UNL     1      -5.407   1.801   0.816  1.00  0.00     0.021 C 
BRANCH  28  29
ATOM     29  C   UNL     1      -5.787   3.045   1.615  1.00  0.00     0.116 C 
BRANCH  29  30
ATOM     30  N   UNL     1      -7.063   3.606   1.197  1.00  0.00    -0.352 N 
ATOM     31  C   UNL     1      -8.206   3.844   1.915  1.00  0.00     0.251 C 
ATOM     32  H   UNL     1      -7.114   3.855   0.246  1.00  0.00     0.163 HD
ATOM     33  O   UNL     1      -9.246   4.144   1.326  1.00  0.00    -0.269 OA
BRANCH  31  34
ATOM     34  C   UNL     1      -8.209   3.730   3.388  1.00  0.00     0.039 A 
ATOM     35  C   UNL     1      -9.303   3.129   4.017  1.00  0.00     0.014 A 
ATOM     36  C   UNL     1      -7.156   4.237   4.153  1.00  0.00     0.014 A 
ATOM     37  C   UNL     1      -9.309   2.978   5.405  1.00  0.00     0.010 A 
ATOM     38  C   UNL     1      -7.127   4.017   5.527  1.00  0.00     0.010 A 
ATOM     39  C   UNL     1      -8.204   3.387   6.168  1.00  0.00    -0.014 A 
BRANCH  39  40
ATOM     40  C   UNL     1      -8.152   3.151   7.634  1.00  0.00     0.031 A 
ATOM     41  C   UNL     1      -8.097   4.311   8.590  1.00  0.00     0.074 A 
ATOM     42  C   UNL     1      -8.095   1.889   8.101  1.00  0.00     0.049 A 
ATOM     43  N   UNL     1      -7.998   4.299   9.896  1.00  0.00    -0.248 NA
ATOM     44  C   UNL     1      -8.135   5.660   8.003  1.00  0.00     0.031 C 
ATOM     45  C   UNL     1      -8.105   0.678   7.276  1.00  0.00     0.029 A 
ATOM     46  N   UNL     1      -8.012   1.413   9.386  1.00  0.00    -0.354 N 
ATOM     47  C   UNL     1      -7.949   5.633  10.283  1.00  0.00     0.074 A 
ATOM     48  C   UNL     1      -7.975   6.425   9.073  1.00  0.00     0.031 C 
ATOM     49  C   UNL     1      -8.063  -0.399   8.076  1.00  0.00     0.029 A 
ATOM     50  C   UNL     1      -7.976   0.042   9.464  1.00  0.00     0.049 A 
ATOM     51  H   UNL     1      -7.981   1.999  10.176  1.00  0.00     0.167 HD
ATOM     52  C   UNL     1      -7.906   6.152  11.533  1.00  0.00     0.031 A 
ATOM     53  C   UNL     1      -7.875  -0.771  10.532  1.00  0.00     0.031 A 
ATOM     54  C   UNL     1      -7.881   5.364  12.736  1.00  0.00     0.049 A 
ATOM     55  C   UNL     1      -7.794  -0.168  11.907  1.00  0.00     0.074 A 
ATOM     56  C   UNL     1      -7.888   5.797  14.051  1.00  0.00     0.029 A 
ATOM     57  N   UNL     1      -7.836   3.978  12.772  1.00  0.00    -0.354 N 
ATOM     58  N   UNL     1      -7.819   1.095  12.259  1.00  0.00    -0.248 NA
ATOM     59  C   UNL     1      -7.680  -1.105  13.033  1.00  0.00     0.031 C 
ATOM     60  C   UNL     1      -7.785   4.676  14.881  1.00  0.00     0.029 A 
ATOM     61  C   UNL     1      -7.783   3.541  14.085  1.00  0.00     0.049 A 
ATOM     62  H   UNL     1      -7.842   3.393  11.980  1.00  0.00     0.167 HD
ATOM     63  C   UNL     1      -7.753   1.102  13.646  1.00  0.00     0.074 A 
ATOM     64  C   UNL     1      -7.706  -0.282  14.071  1.00  0.00     0.031 C 
ATOM     65  C   UNL     1      -7.733   2.161  14.493  1.00  0.00     0.031 A 
BRANCH  52  66
ATOM     66  C   UNL     1      -7.873   7.652  11.660  1.00  0.00    -0.014 A 
ATOM     67  C   UNL     1      -8.987   8.438  11.321  1.00  0.00     0.009 A 
ATOM     68  C   UNL     1      -6.726   8.286  12.162  1.00  0.00     0.009 A 
ATOM     69  C   UNL     1      -8.937   9.828  11.444  1.00  0.00     0.001 A 
ATOM     70  C   UNL     1      -6.690   9.673  12.314  1.00  0.00     0.001 A 
ATOM     71  C   UNL     1      -7.791  10.444  11.945  1.00  0.00     0.000 A 
ENDBRANCH  52  66
BRANCH  53  72
ATOM     72  C   UNL     1      -7.854  -2.247  10.348  1.00  0.00    -0.014 A 
ATOM     73  C   UNL     1      -8.932  -3.035  10.781  1.00  0.00     0.009 A 
ATOM     74  C   UNL     1      -6.752  -2.877   9.749  1.00  0.00     0.009 A 
ATOM     75  C   UNL     1      -8.894  -4.424  10.643  1.00  0.00     0.001 A 
ATOM     76  C   UNL     1      -6.731  -4.264   9.583  1.00  0.00     0.001 A 
ATOM     77  C   UNL     1      -7.797  -5.037  10.040  1.00  0.00     0.000 A 
ENDBRANCH  53  72
BRANCH  65  78
ATOM     78  C   UNL     1      -7.691   1.863  15.966  1.00  0.00    -0.014 A 
ATOM     79  C   UNL     1      -6.539   1.340  16.575  1.00  0.00     0.009 A 
ATOM     80  C   UNL     1      -8.812   2.146  16.763  1.00  0.00     0.009 A 
ATOM     81  C   UNL     1      -6.524   1.074  17.946  1.00  0.00     0.001 A 
ATOM     82  C   UNL     1      -8.783   1.910  18.138  1.00  0.00     0.001 A 
ATOM     83  C   UNL     1      -7.643   1.365  18.726  1.00  0.00     0.000 A 
ENDBRANCH  65  78
ENDBRANCH  39  40
ENDBRANCH  31  34
ENDBRANCH  29  30
ENDBRANCH  28  29
ENDBRANCH  27  28
ENDBRANCH   1  27
TORSDOF 15
