REMARK SMILES CC(C)(C[NH2+]CCc1cccnc1)C(=O)NCCCCCCNC(=O)c1ccc(-c2c3nc(c(-c4ccccc4)c4ccc([nH]4)c(-c4ccccc4)c4nc(c(-c5ccccc5)c5ccc2[nH]5)C=C4)C=C3)cc1
REMARK SMILES IDX 18 1 17 2 16 3 14 4 15 5 2 7 1 8 3 9 4 10 5 11 6 14 7 15
REMARK SMILES IDX 8 16 9 17 13 18 10 19 12 20 11 21 19 22 20 23 21 24 22 25
REMARK SMILES IDX 23 26 24 27 25 29 26 30 27 31 73 32 28 33 72 34 29 35 30 36
REMARK SMILES IDX 31 37 66 38 32 39 71 40 65 41 67 42 33 43 70 44 64 45 63 46
REMARK SMILES IDX 34 48 56 49 41 50 55 51 42 52 45 53 54 54 68 55 43 56 44 57
REMARK SMILES IDX 53 59 69 60 46 61 35 62 36 63 40 64 37 65 39 66 38 67 57 68
REMARK SMILES IDX 58 69 62 70 59 71 61 72 60 73 47 74 48 75 52 76 49 77 51 78
REMARK SMILES IDX 50 79
REMARK H PARENT 16 6 5 12 5 13 23 28 67 47 45 58
REMARK Flexibility Score: inf
ROOT
ATOM      1  C   UNL     1      -1.246   4.885  -0.056  1.00  0.00     0.021 C 
ENDROOT
BRANCH   1   2
ATOM      2  C   UNL     1      -0.072   4.255  -0.803  1.00  0.00     0.116 C 
BRANCH   2   3
ATOM      3  N   UNL     1       0.858   3.625   0.106  1.00  0.00    -0.355 N 
ATOM      4  C   UNL     1       1.159   2.320   0.333  1.00  0.00     0.231 C 
ATOM      5  O   UNL     1       1.945   2.101   1.262  1.00  0.00    -0.274 OA
ATOM      6  H   UNL     1       1.367   4.258   0.663  1.00  0.00     0.163 HD
BRANCH   4   7
ATOM      7  C   UNL     1       0.611   1.172  -0.541  1.00  0.00     0.092 C 
ATOM      8  C   UNL     1       1.174  -0.164   0.014  1.00  0.00     0.027 C 
ATOM      9  C   UNL     1       1.162   1.313  -1.973  1.00  0.00     0.027 C 
BRANCH   7  10
ATOM     10  C   UNL     1      -0.939   1.076  -0.551  1.00  0.00     0.276 C 
BRANCH  10  11
ATOM     11  N   UNL     1      -1.527   1.177   0.783  1.00  0.00    -0.345 N 
ATOM     12  H   UNL     1      -1.327   2.111   1.143  1.00  0.00     0.346 HD
ATOM     13  H   UNL     1      -1.109   0.425   1.330  1.00  0.00     0.346 HD
BRANCH  11  14
ATOM     14  C   UNL     1      -2.973   0.968   0.856  1.00  0.00     0.265 C 
BRANCH  14  15
ATOM     15  C   UNL     1      -3.585  -0.259   0.151  1.00  0.00     0.098 C 
BRANCH  15  16
ATOM     16  C   UNL     1      -3.108  -1.643   0.513  1.00  0.00    -0.024 A 
ATOM     17  C   UNL     1      -2.210  -1.945   1.537  1.00  0.00     0.007 A 
ATOM     18  C   UNL     1      -3.600  -2.724  -0.221  1.00  0.00     0.114 A 
ATOM     19  C   UNL     1      -1.808  -3.263   1.749  1.00  0.00     0.020 A 
ATOM     20  N   UNL     1      -3.245  -4.014  -0.028  1.00  0.00    -0.264 NA
ATOM     21  C   UNL     1      -2.349  -4.253   0.949  1.00  0.00     0.111 A 
ENDBRANCH  15  16
ENDBRANCH  14  15
ENDBRANCH  11  14
ENDBRANCH  10  11
ENDBRANCH   7  10
ENDBRANCH   4   7
ENDBRANCH   2   3
ENDBRANCH   1   2
BRANCH   1  22
ATOM     22  C   UNL     1      -0.865   6.114   0.777  1.00  0.00     0.002 C 
BRANCH  22  23
ATOM     23  C   UNL     1      -0.145   7.223   0.002  1.00  0.00     0.002 C 
BRANCH  23  24
ATOM     24  C   UNL     1      -0.865   7.698  -1.262  1.00  0.00     0.021 C 
BRANCH  24  25
ATOM     25  C   UNL     1      -2.268   8.242  -1.019  1.00  0.00     0.116 C 
BRANCH  25  26
ATOM     26  N   UNL     1      -2.251   9.430  -0.180  1.00  0.00    -0.352 N 
ATOM     27  C   UNL     1      -2.757  10.677  -0.434  1.00  0.00     0.251 C 
ATOM     28  H   UNL     1      -1.813   9.322   0.696  1.00  0.00     0.163 HD
ATOM     29  O   UNL     1      -2.464  11.626   0.292  1.00  0.00    -0.269 OA
BRANCH  27  30
ATOM     30  C   UNL     1      -3.644  10.886  -1.595  1.00  0.00     0.039 A 
ATOM     31  C   UNL     1      -3.444  12.003  -2.409  1.00  0.00     0.014 A 
ATOM     32  C   UNL     1      -4.673   9.983  -1.878  1.00  0.00     0.014 A 
ATOM     33  C   UNL     1      -4.241  12.184  -3.541  1.00  0.00     0.010 A 
ATOM     34  C   UNL     1      -5.414  10.122  -3.047  1.00  0.00     0.010 A 
ATOM     35  C   UNL     1      -5.210  11.227  -3.887  1.00  0.00    -0.014 A 
BRANCH  35  36
ATOM     36  C   UNL     1      -6.017  11.365  -5.125  1.00  0.00     0.031 A 
ATOM     37  C   UNL     1      -7.509  11.533  -5.041  1.00  0.00     0.074 A 
ATOM     38  C   UNL     1      -5.413  11.281  -6.326  1.00  0.00     0.049 A 
ATOM     39  N   UNL     1      -8.385  11.619  -6.011  1.00  0.00    -0.248 NA
ATOM     40  C   UNL     1      -8.098  11.588  -3.693  1.00  0.00     0.031 C 
ATOM     41  C   UNL     1      -3.978  11.083  -6.542  1.00  0.00     0.029 A 
ATOM     42  N   UNL     1      -5.933  11.346  -7.594  1.00  0.00    -0.354 N 
ATOM     43  C   UNL     1      -9.624  11.723  -5.391  1.00  0.00     0.074 A 
ATOM     44  C   UNL     1      -9.393  11.635  -3.966  1.00  0.00     0.031 C 
ATOM     45  C   UNL     1      -3.729  11.075  -7.861  1.00  0.00     0.029 A 
ATOM     46  C   UNL     1      -4.989  11.219  -8.584  1.00  0.00     0.049 A 
ATOM     47  H   UNL     1      -6.892  11.472  -7.777  1.00  0.00     0.167 HD
ATOM     48  C   UNL     1     -10.843  11.897  -5.956  1.00  0.00     0.031 A 
ATOM     49  C   UNL     1      -5.122  11.209  -9.923  1.00  0.00     0.031 A 
ATOM     50  C   UNL     1     -11.071  11.987  -7.373  1.00  0.00     0.049 A 
ATOM     51  C   UNL     1      -6.490  11.372 -10.525  1.00  0.00     0.074 A 
ATOM     52  C   UNL     1     -12.262  12.214  -8.042  1.00  0.00     0.029 A 
ATOM     53  N   UNL     1     -10.089  11.847  -8.341  1.00  0.00    -0.354 N 
ATOM     54  N   UNL     1      -7.643  11.539  -9.925  1.00  0.00    -0.248 NA
ATOM     55  C   UNL     1      -6.572  11.355 -11.993  1.00  0.00     0.031 C 
ATOM     56  C   UNL     1     -12.010  12.149  -9.416  1.00  0.00     0.029 A 
ATOM     57  C   UNL     1     -10.651  11.952  -9.603  1.00  0.00     0.049 A 
ATOM     58  H   UNL     1      -9.133  11.696  -8.159  1.00  0.00     0.167 HD
ATOM     59  C   UNL     1      -8.582  11.678 -10.939  1.00  0.00     0.074 A 
ATOM     60  C   UNL     1      -7.860  11.593 -12.192  1.00  0.00     0.031 C 
ATOM     61  C   UNL     1      -9.921  11.863 -10.841  1.00  0.00     0.031 A 
BRANCH  48  62
ATOM     62  C   UNL     1     -12.028  11.988  -5.033  1.00  0.00    -0.014 A 
ATOM     63  C   UNL     1     -12.210  13.093  -4.184  1.00  0.00     0.009 A 
ATOM     64  C   UNL     1     -12.996  10.972  -5.037  1.00  0.00     0.009 A 
ATOM     65  C   UNL     1     -13.314  13.157  -3.332  1.00  0.00     0.001 A 
ATOM     66  C   UNL     1     -14.116  11.055  -4.208  1.00  0.00     0.001 A 
ATOM     67  C   UNL     1     -14.269  12.141  -3.349  1.00  0.00     0.000 A 
ENDBRANCH  48  62
BRANCH  49  68
ATOM     68  C   UNL     1      -3.925  11.048 -10.791  1.00  0.00    -0.014 A 
ATOM     69  C   UNL     1      -3.471  12.113 -11.585  1.00  0.00     0.009 A 
ATOM     70  C   UNL     1      -3.235   9.826 -10.838  1.00  0.00     0.009 A 
ATOM     71  C   UNL     1      -2.371  11.947 -12.430  1.00  0.00     0.001 A 
ATOM     72  C   UNL     1      -2.116   9.674 -11.659  1.00  0.00     0.001 A 
ATOM     73  C   UNL     1      -1.691  10.730 -12.462  1.00  0.00     0.000 A 
ENDBRANCH  49  68
BRANCH  61  74
ATOM     74  C   UNL     1     -10.690  12.023 -12.124  1.00  0.00    -0.014 A 
ATOM     75  C   UNL     1     -10.894  10.944 -12.997  1.00  0.00     0.009 A 
ATOM     76  C   UNL     1     -11.255  13.269 -12.441  1.00  0.00     0.009 A 
ATOM     77  C   UNL     1     -11.617  11.118 -14.178  1.00  0.00     0.001 A 
ATOM     78  C   UNL     1     -12.006  13.432 -13.605  1.00  0.00     0.001 A 
ATOM     79  C   UNL     1     -12.178  12.360 -14.478  1.00  0.00     0.000 A 
ENDBRANCH  61  74
ENDBRANCH  35  36
ENDBRANCH  27  30
ENDBRANCH  25  26
ENDBRANCH  24  25
ENDBRANCH  23  24
ENDBRANCH  22  23
ENDBRANCH   1  22
TORSDOF 18
