REMARK SMILES CCCCOC(=O)[C@@H]1[C@H]2c3ccccc3[C@H](c3ccccc32)[C@@H]1C(=O)NCCCCCCNC(=O)c1ccc(-c2c3nc(c(-c4ccccc4)c4ccc([nH]4)c(-c4ccccc4)c4nc(c(-c5ccccc5)c5ccc2[nH]5)C=C4)C=C3)cc1
REMARK SMILES IDX 28 1 27 2 26 3 24 4 25 5 23 7 8 8 9 9 22 10 10 11 16 12
REMARK SMILES IDX 21 13 17 14 15 15 11 16 20 17 18 18 14 19 12 20 19 21 13 22
REMARK SMILES IDX 6 23 7 24 5 25 4 26 3 27 2 28 1 29 29 30 30 31 31 32 32 33
REMARK SMILES IDX 33 34 34 35 35 37 36 38 37 39 83 40 38 41 82 42 39 43 40 44
REMARK SMILES IDX 41 45 76 46 42 47 81 48 75 49 77 50 43 51 80 52 74 53 73 54
REMARK SMILES IDX 44 56 66 57 51 58 65 59 52 60 55 61 64 62 78 63 53 64 54 65
REMARK SMILES IDX 63 67 79 68 56 69 45 70 46 71 50 72 47 73 49 74 48 75 67 76
REMARK SMILES IDX 68 77 72 78 69 79 71 80 70 81 57 82 58 83 62 84 59 85 61 86
REMARK SMILES IDX 60 87
REMARK H PARENT 26 6 33 36 77 55 55 66
REMARK Flexibility Score: inf
ROOT
ATOM      1  C   UNL     1      -7.907   0.253  -0.757  1.00  0.00     0.021 C 
ENDROOT
BRANCH   1   2
ATOM      2  C   UNL     1      -6.456   0.693  -0.941  1.00  0.00     0.116 C 
BRANCH   2   3
ATOM      3  N   UNL     1      -5.764   0.791   0.327  1.00  0.00    -0.356 N 
ATOM      4  C   UNL     1      -4.586   0.306   0.782  1.00  0.00     0.224 C 
ATOM      5  O   UNL     1      -4.204   0.770   1.866  1.00  0.00    -0.275 OA
ATOM      6  H   UNL     1      -6.252   1.321   0.998  1.00  0.00     0.163 HD
BRANCH   4   7
ATOM      7  C   UNL     1      -3.760  -0.809   0.139  1.00  0.00     0.105 C 
ATOM      8  C   UNL     1      -3.124  -0.679  -1.286  1.00  0.00     0.124 C 
ATOM      9  C   UNL     1      -3.449  -1.960  -2.123  1.00  0.00     0.065 C 
ATOM     10  C   UNL     1      -4.952  -2.251  -2.086  1.00  0.00    -0.036 A 
ATOM     11  C   UNL     1      -2.823  -3.126  -1.323  1.00  0.00    -0.036 A 
ATOM     12  C   UNL     1      -4.420  -2.204   0.325  1.00  0.00     0.063 C 
ATOM     13  C   UNL     1      -5.749  -2.536  -3.187  1.00  0.00     0.004 A 
ATOM     14  C   UNL     1      -5.461  -2.422  -0.768  1.00  0.00    -0.036 A 
ATOM     15  C   UNL     1      -3.328  -3.233   0.007  1.00  0.00    -0.036 A 
ATOM     16  C   UNL     1      -1.975  -4.101  -1.827  1.00  0.00     0.004 A 
ATOM     17  C   UNL     1      -7.045  -3.016  -2.971  1.00  0.00     0.000 A 
ATOM     18  C   UNL     1      -6.738  -2.928  -0.559  1.00  0.00     0.004 A 
ATOM     19  C   UNL     1      -2.953  -4.280   0.836  1.00  0.00     0.004 A 
ATOM     20  C   UNL     1      -1.616  -5.166  -0.994  1.00  0.00     0.000 A 
ATOM     21  C   UNL     1      -7.529  -3.225  -1.670  1.00  0.00     0.000 A 
ATOM     22  C   UNL     1      -2.091  -5.250   0.325  1.00  0.00     0.000 A 
BRANCH   8  23
ATOM     23  C   UNL     1      -3.286   0.661  -1.972  1.00  0.00     0.310 C 
ATOM     24  O   UNL     1      -3.622   1.692  -1.399  1.00  0.00    -0.252 OA
BRANCH  23  25
ATOM     25  O   UNL     1      -2.843   0.636  -3.260  1.00  0.00    -0.465 OA
BRANCH  25  26
ATOM     26  C   UNL     1      -2.688   1.926  -3.892  1.00  0.00     0.233 C 
BRANCH  26  27
ATOM     27  C   UNL     1      -3.800   2.176  -4.911  1.00  0.00     0.041 C 
BRANCH  27  28
ATOM     28  C   UNL     1      -5.207   2.222  -4.311  1.00  0.00     0.000 C 
ATOM     29  C   UNL     1      -5.469   3.505  -3.533  1.00  0.00     0.004 C 
ENDBRANCH  27  28
ENDBRANCH  26  27
ENDBRANCH  25  26
ENDBRANCH  23  25
ENDBRANCH   8  23
ENDBRANCH   4   7
ENDBRANCH   2   3
ENDBRANCH   1   2
BRANCH   1  30
ATOM     30  C   UNL     1      -8.931   1.325  -1.135  1.00  0.00     0.002 C 
BRANCH  30  31
ATOM     31  C   UNL     1      -8.978   1.673  -2.627  1.00  0.00     0.002 C 
BRANCH  31  32
ATOM     32  C   UNL     1      -9.189   0.502  -3.585  1.00  0.00     0.021 C 
BRANCH  32  33
ATOM     33  C   UNL     1     -10.389  -0.373  -3.251  1.00  0.00     0.116 C 
BRANCH  33  34
ATOM     34  N   UNL     1     -11.636   0.381  -3.264  1.00  0.00    -0.352 N 
ATOM     35  C   UNL     1     -12.675   0.347  -4.160  1.00  0.00     0.251 C 
ATOM     36  H   UNL     1     -11.751   1.011  -2.516  1.00  0.00     0.163 HD
ATOM     37  O   UNL     1     -13.547   1.208  -4.141  1.00  0.00    -0.269 OA
BRANCH  35  38
ATOM     38  C   UNL     1     -12.717  -0.727  -5.171  1.00  0.00     0.039 A 
ATOM     39  C   UNL     1     -12.463  -2.048  -4.801  1.00  0.00     0.014 A 
ATOM     40  C   UNL     1     -12.978  -0.403  -6.504  1.00  0.00     0.014 A 
ATOM     41  C   UNL     1     -12.280  -3.012  -5.782  1.00  0.00     0.010 A 
ATOM     42  C   UNL     1     -12.896  -1.397  -7.480  1.00  0.00     0.010 A 
ATOM     43  C   UNL     1     -12.498  -2.698  -7.132  1.00  0.00    -0.014 A 
BRANCH  43  44
ATOM     44  C   UNL     1     -12.323  -3.743  -8.170  1.00  0.00     0.031 A 
ATOM     45  C   UNL     1     -11.277  -3.591  -9.240  1.00  0.00     0.074 A 
ATOM     46  C   UNL     1     -13.103  -4.840  -8.133  1.00  0.00     0.049 A 
ATOM     47  N   UNL     1     -11.031  -4.371 -10.262  1.00  0.00    -0.248 NA
ATOM     48  C   UNL     1     -10.393  -2.416  -9.158  1.00  0.00     0.031 C 
ATOM     49  C   UNL     1     -14.123  -5.113  -7.118  1.00  0.00     0.029 A 
ATOM     50  N   UNL     1     -13.157  -5.934  -8.960  1.00  0.00    -0.354 N 
ATOM     51  C   UNL     1      -9.987  -3.771 -10.955  1.00  0.00     0.074 A 
ATOM     52  C   UNL     1      -9.656  -2.551 -10.254  1.00  0.00     0.031 C 
ATOM     53  C   UNL     1     -14.676  -6.309  -7.362  1.00  0.00     0.029 A 
ATOM     54  C   UNL     1     -14.117  -6.847  -8.596  1.00  0.00     0.049 A 
ATOM     55  H   UNL     1     -12.565  -6.053  -9.737  1.00  0.00     0.167 HD
ATOM     56  C   UNL     1      -9.363  -4.208 -12.073  1.00  0.00     0.031 A 
ATOM     57  C   UNL     1     -14.534  -7.974  -9.203  1.00  0.00     0.031 A 
ATOM     58  C   UNL     1      -9.694  -5.434 -12.753  1.00  0.00     0.049 A 
ATOM     59  C   UNL     1     -13.871  -8.399 -10.482  1.00  0.00     0.074 A 
ATOM     60  C   UNL     1      -9.097  -5.974 -13.878  1.00  0.00     0.029 A 
ATOM     61  N   UNL     1     -10.706  -6.304 -12.377  1.00  0.00    -0.354 N 
ATOM     62  N   UNL     1     -12.877  -7.829 -11.118  1.00  0.00    -0.248 NA
ATOM     63  C   UNL     1     -14.379  -9.618 -11.126  1.00  0.00     0.031 C 
ATOM     64  C   UNL     1      -9.798  -7.125 -14.231  1.00  0.00     0.029 A 
ATOM     65  C   UNL     1     -10.772  -7.358 -13.272  1.00  0.00     0.049 A 
ATOM     66  H   UNL     1     -11.288  -6.191 -11.592  1.00  0.00     0.167 HD
ATOM     67  C   UNL     1     -12.623  -8.630 -12.223  1.00  0.00     0.074 A 
ATOM     68  C   UNL     1     -13.558  -9.735 -12.163  1.00  0.00     0.031 C 
ATOM     69  C   UNL     1     -11.697  -8.460 -13.197  1.00  0.00     0.031 A 
BRANCH  56  70
ATOM     70  C   UNL     1      -8.261  -3.369 -12.663  1.00  0.00    -0.014 A 
ATOM     71  C   UNL     1      -8.437  -2.792 -13.933  1.00  0.00     0.009 A 
ATOM     72  C   UNL     1      -7.008  -3.266 -12.041  1.00  0.00     0.009 A 
ATOM     73  C   UNL     1      -7.374  -2.159 -14.581  1.00  0.00     0.001 A 
ATOM     74  C   UNL     1      -5.955  -2.603 -12.678  1.00  0.00     0.001 A 
ATOM     75  C   UNL     1      -6.135  -2.064 -13.952  1.00  0.00     0.000 A 
ENDBRANCH  56  70
BRANCH  57  76
ATOM     76  C   UNL     1     -15.646  -8.755  -8.596  1.00  0.00    -0.014 A 
ATOM     77  C   UNL     1     -16.933  -8.199  -8.495  1.00  0.00     0.009 A 
ATOM     78  C   UNL     1     -15.414 -10.024  -8.047  1.00  0.00     0.009 A 
ATOM     79  C   UNL     1     -17.952  -8.876  -7.821  1.00  0.00     0.001 A 
ATOM     80  C   UNL     1     -16.446 -10.717  -7.407  1.00  0.00     0.001 A 
ATOM     81  C   UNL     1     -17.708 -10.137  -7.282  1.00  0.00     0.000 A 
ENDBRANCH  57  76
BRANCH  69  82
ATOM     82  C   UNL     1     -11.604  -9.498 -14.282  1.00  0.00    -0.014 A 
ATOM     83  C   UNL     1     -10.445 -10.287 -14.386  1.00  0.00     0.009 A 
ATOM     84  C   UNL     1     -12.581  -9.591 -15.283  1.00  0.00     0.009 A 
ATOM     85  C   UNL     1     -10.250 -11.120 -15.487  1.00  0.00     0.001 A 
ATOM     86  C   UNL     1     -12.399 -10.453 -16.367  1.00  0.00     0.001 A 
ATOM     87  C   UNL     1     -11.228 -11.203 -16.476  1.00  0.00     0.000 A 
ENDBRANCH  69  82
ENDBRANCH  43  44
ENDBRANCH  35  38
ENDBRANCH  33  34
ENDBRANCH  32  33
ENDBRANCH  31  32
ENDBRANCH  30  31
ENDBRANCH   1  30
TORSDOF 18
