REMARK SMILES COc1ccc2c(c1)[C@H]([NH2+][C@H]1CCC[C@H](C(=O)NCCCCCCNC(=O)c3ccc(-c4c5nc(c(-c6ccccc6)c6ccc([nH]6)c(-c6ccccc6)c6nc(c(-c7ccccc7)c7ccc4[nH]7)C=C6)C=C5)cc3)C1)CC2
REMARK SMILES IDX 21 1 20 2 19 3 18 4 16 5 17 6 15 8 11 9 12 10 76 11 13 12
REMARK SMILES IDX 14 13 10 14 9 17 3 18 4 19 8 20 5 21 7 22 6 23 78 24 77 25
REMARK SMILES IDX 2 26 1 27 22 28 23 29 24 30 25 31 26 32 27 34 28 35 29 36
REMARK SMILES IDX 75 37 30 38 74 39 31 40 32 41 33 42 68 43 34 44 73 45 67 46
REMARK SMILES IDX 69 47 35 48 72 49 66 50 65 51 36 53 58 54 43 55 57 56 44 57
REMARK SMILES IDX 47 58 56 59 70 60 45 61 46 62 55 64 71 65 48 66 37 67 38 68
REMARK SMILES IDX 42 69 39 70 41 71 40 72 59 73 60 74 64 75 61 76 63 77 62 78
REMARK SMILES IDX 49 79 50 80 54 81 51 82 53 83 52 84
REMARK H PARENT 18 7 10 15 10 16 25 33 69 52 47 63
REMARK Flexibility Score: inf
ROOT
ATOM      1  C   UNL     1      -8.290  -7.177  -0.700  1.00  0.00     0.002 C 
ENDROOT
BRANCH   1   2
ATOM      2  C   UNL     1      -7.285  -6.717   0.360  1.00  0.00     0.021 C 
BRANCH   2   3
ATOM      3  C   UNL     1      -5.825  -6.917  -0.064  1.00  0.00     0.116 C 
BRANCH   3   4
ATOM      4  N   UNL     1      -5.416  -5.818  -0.898  1.00  0.00    -0.356 N 
ATOM      5  C   UNL     1      -4.993  -4.581  -0.548  1.00  0.00     0.223 C 
ATOM      6  O   UNL     1      -4.926  -3.746  -1.457  1.00  0.00    -0.275 OA
ATOM      7  H   UNL     1      -5.449  -5.992  -1.867  1.00  0.00     0.163 HD
BRANCH   5   8
ATOM      8  C   UNL     1      -4.476  -4.229   0.850  1.00  0.00     0.084 C 
ATOM      9  C   UNL     1      -2.303  -4.065   2.180  1.00  0.00     0.183 C 
ATOM     10  C   UNL     1      -2.972  -4.765   3.375  1.00  0.00     0.065 C 
ATOM     11  C   UNL     1      -2.990  -4.580   0.907  1.00  0.00     0.078 C 
ATOM     12  C   UNL     1      -4.489  -4.626   3.446  1.00  0.00     0.007 C 
ATOM     13  C   UNL     1      -5.251  -4.643   2.110  1.00  0.00     0.014 C 
BRANCH   9  14
ATOM     14  N   UNL     1      -2.130  -2.626   2.399  1.00  0.00    -0.338 N 
ATOM     15  H   UNL     1      -2.649  -2.402   3.248  1.00  0.00     0.347 HD
ATOM     16  H   UNL     1      -1.114  -2.530   2.398  1.00  0.00     0.347 HD
BRANCH  14  17
ATOM     17  C   UNL     1      -2.527  -1.644   1.411  1.00  0.00     0.214 C 
ATOM     18  C   UNL     1      -5.976  -0.311   2.458  1.00  0.00     0.119 A 
ATOM     19  C   UNL     1      -5.919   0.923   1.811  1.00  0.00     0.047 A 
ATOM     20  C   UNL     1      -4.876  -1.160   2.468  1.00  0.00     0.056 A 
ATOM     21  C   UNL     1      -4.745   1.314   1.159  1.00  0.00     0.008 A 
ATOM     22  C   UNL     1      -3.742  -0.815   1.757  1.00  0.00     0.016 A 
ATOM     23  C   UNL     1      -3.662   0.444   1.153  1.00  0.00    -0.038 A 
ATOM     24  C   UNL     1      -2.311   0.631   0.530  1.00  0.00     0.042 C 
ATOM     25  C   UNL     1      -1.512  -0.497   1.220  1.00  0.00     0.075 C 
BRANCH  18  26
ATOM     26  O   UNL     1      -7.112  -0.690   3.119  1.00  0.00    -0.497 OA
ATOM     27  C   UNL     1      -7.945  -1.493   2.280  1.00  0.00     0.278 C 
ENDBRANCH  18  26
ENDBRANCH  14  17
ENDBRANCH   9  14
ENDBRANCH   5   8
ENDBRANCH   3   4
ENDBRANCH   2   3
ENDBRANCH   1   2
BRANCH   1  28
ATOM     28  C   UNL     1      -8.173  -8.658  -1.076  1.00  0.00     0.002 C 
BRANCH  28  29
ATOM     29  C   UNL     1      -8.111  -9.611   0.120  1.00  0.00     0.021 C 
BRANCH  29  30
ATOM     30  C   UNL     1      -9.323  -9.519   1.040  1.00  0.00     0.116 C 
BRANCH  30  31
ATOM     31  N   UNL     1     -10.531  -9.944   0.353  1.00  0.00    -0.352 N 
ATOM     32  C   UNL     1     -11.341 -11.007   0.642  1.00  0.00     0.251 C 
ATOM     33  H   UNL     1     -10.800  -9.397  -0.420  1.00  0.00     0.163 HD
ATOM     34  O   UNL     1     -12.150 -11.424  -0.188  1.00  0.00    -0.269 OA
BRANCH  32  35
ATOM     35  C   UNL     1     -11.241 -11.652   1.964  1.00  0.00     0.039 A 
ATOM     36  C   UNL     1     -11.206 -13.045   2.044  1.00  0.00     0.014 A 
ATOM     37  C   UNL     1     -11.197 -10.870   3.123  1.00  0.00     0.014 A 
ATOM     38  C   UNL     1     -11.093 -13.657   3.292  1.00  0.00     0.010 A 
ATOM     39  C   UNL     1     -11.017 -11.480   4.359  1.00  0.00     0.010 A 
ATOM     40  C   UNL     1     -10.981 -12.878   4.455  1.00  0.00    -0.014 A 
BRANCH  40  41
ATOM     41  C   UNL     1     -10.854 -13.510   5.789  1.00  0.00     0.031 A 
ATOM     42  C   UNL     1     -11.953 -13.348   6.802  1.00  0.00     0.074 A 
ATOM     43  C   UNL     1      -9.729 -14.177   6.106  1.00  0.00     0.049 A 
ATOM     44  N   UNL     1     -12.005 -13.776   8.038  1.00  0.00    -0.248 NA
ATOM     45  C   UNL     1     -13.138 -12.584   6.379  1.00  0.00     0.031 C 
ATOM     46  C   UNL     1      -8.577 -14.365   5.221  1.00  0.00     0.029 A 
ATOM     47  N   UNL     1      -9.368 -14.815   7.265  1.00  0.00    -0.354 N 
ATOM     48  C   UNL     1     -13.216 -13.320   8.542  1.00  0.00     0.074 A 
ATOM     49  C   UNL     1     -13.845 -12.540   7.498  1.00  0.00     0.031 C 
ATOM     50  C   UNL     1      -7.646 -15.090   5.863  1.00  0.00     0.029 A 
ATOM     51  C   UNL     1      -8.121 -15.387   7.211  1.00  0.00     0.049 A 
ATOM     52  H   UNL     1      -9.947 -14.858   8.059  1.00  0.00     0.167 HD
ATOM     53  C   UNL     1     -13.766 -13.547   9.758  1.00  0.00     0.031 A 
ATOM     54  C   UNL     1      -7.435 -16.070   8.146  1.00  0.00     0.031 A 
ATOM     55  C   UNL     1     -13.145 -14.331  10.790  1.00  0.00     0.049 A 
ATOM     56  C   UNL     1      -8.066 -16.308   9.489  1.00  0.00     0.074 A 
ATOM     57  C   UNL     1     -13.640 -14.662  12.039  1.00  0.00     0.029 A 
ATOM     58  N   UNL     1     -11.888 -14.908  10.691  1.00  0.00    -0.354 N 
ATOM     59  N   UNL     1      -9.239 -15.922   9.930  1.00  0.00    -0.248 NA
ATOM     60  C   UNL     1      -7.284 -17.089  10.457  1.00  0.00     0.031 C 
ATOM     61  C   UNL     1     -12.664 -15.404  12.712  1.00  0.00     0.029 A 
ATOM     62  C   UNL     1     -11.583 -15.578  11.863  1.00  0.00     0.049 A 
ATOM     63  H   UNL     1     -11.300 -14.850   9.903  1.00  0.00     0.167 HD
ATOM     64  C   UNL     1      -9.345 -16.432  11.217  1.00  0.00     0.074 A 
ATOM     65  C   UNL     1      -8.126 -17.169  11.478  1.00  0.00     0.031 C 
ATOM     66  C   UNL     1     -10.362 -16.302  12.104  1.00  0.00     0.031 A 
BRANCH  53  67
ATOM     67  C   UNL     1     -15.110 -12.932  10.033  1.00  0.00    -0.014 A 
ATOM     68  C   UNL     1     -16.268 -13.402   9.392  1.00  0.00     0.009 A 
ATOM     69  C   UNL     1     -15.226 -11.887  10.962  1.00  0.00     0.009 A 
ATOM     70  C   UNL     1     -17.508 -12.814   9.649  1.00  0.00     0.001 A 
ATOM     71  C   UNL     1     -16.471 -11.320  11.239  1.00  0.00     0.001 A 
ATOM     72  C   UNL     1     -17.609 -11.776  10.575  1.00  0.00     0.000 A 
ENDBRANCH  53  67
BRANCH  54  73
ATOM     73  C   UNL     1      -6.079 -16.591   7.837  1.00  0.00    -0.014 A 
ATOM     74  C   UNL     1      -5.869 -17.967   7.657  1.00  0.00     0.009 A 
ATOM     75  C   UNL     1      -4.989 -15.715   7.712  1.00  0.00     0.009 A 
ATOM     76  C   UNL     1      -4.590 -18.457   7.382  1.00  0.00     0.001 A 
ATOM     77  C   UNL     1      -3.717 -16.206   7.410  1.00  0.00     0.001 A 
ATOM     78  C   UNL     1      -3.517 -17.576   7.254  1.00  0.00     0.000 A 
ENDBRANCH  54  73
BRANCH  66  79
ATOM     79  C   UNL     1     -10.209 -16.996  13.427  1.00  0.00    -0.014 A 
ATOM     80  C   UNL     1      -9.330 -16.510  14.406  1.00  0.00     0.009 A 
ATOM     81  C   UNL     1     -10.989 -18.128  13.711  1.00  0.00     0.009 A 
ATOM     82  C   UNL     1      -9.212 -17.164  15.633  1.00  0.00     0.001 A 
ATOM     83  C   UNL     1     -10.888 -18.764  14.949  1.00  0.00     0.001 A 
ATOM     84  C   UNL     1      -9.994 -18.286  15.905  1.00  0.00     0.000 A 
ENDBRANCH  66  79
ENDBRANCH  40  41
ENDBRANCH  32  35
ENDBRANCH  30  31
ENDBRANCH  29  30
ENDBRANCH  28  29
ENDBRANCH   1  28
TORSDOF 16
