REMARK SMILES CCC[C@H](C)C(=O)N1CC[C@H](C(=O)NCCCCCCNC(=O)c2ccc(-c3c4nc(c(-c5ccccc5)c5ccc([nH]5)c(-c5ccccc5)c5nc(c(-c6ccccc6)c6ccc3[nH]6)C=C5)C=C4)cc2)[C@@H]1C
REMARK SMILES IDX 16 1 15 2 14 3 12 4 13 5 11 7 8 8 9 9 72 10 10 11 73 12 6 13
REMARK SMILES IDX 7 14 4 15 5 16 3 17 2 18 1 19 17 20 18 21 19 22 20 23 21 24
REMARK SMILES IDX 22 25 23 27 24 28 25 29 71 30 26 31 70 32 27 33 28 34 29 35
REMARK SMILES IDX 64 36 30 37 69 38 63 39 65 40 31 41 68 42 62 43 61 44 32 46
REMARK SMILES IDX 54 47 39 48 53 49 40 50 43 51 52 52 66 53 41 54 42 55 51 57
REMARK SMILES IDX 67 58 44 59 33 60 34 61 38 62 35 63 37 64 36 65 55 66 56 67
REMARK SMILES IDX 60 68 57 69 59 70 58 71 45 72 46 73 50 74 47 75 49 76 48 77
REMARK H PARENT 14 6 21 26 65 45 43 56
REMARK Flexibility Score: inf
ROOT
ATOM      1  C   UNL     1       0.459   9.210  -0.463  1.00  0.00     0.021 C 
ENDROOT
BRANCH   1   2
ATOM      2  C   UNL     1      -0.203   8.897  -1.804  1.00  0.00     0.116 C 
BRANCH   2   3
ATOM      3  N   UNL     1       0.775   8.549  -2.817  1.00  0.00    -0.356 N 
ATOM      4  C   UNL     1       0.979   7.399  -3.512  1.00  0.00     0.225 C 
ATOM      5  O   UNL     1       1.866   7.402  -4.367  1.00  0.00    -0.275 OA
ATOM      6  H   UNL     1       1.401   9.275  -3.041  1.00  0.00     0.163 HD
BRANCH   4   7
ATOM      7  C   UNL     1       0.127   6.169  -3.242  1.00  0.00     0.102 C 
ATOM      8  N   UNL     1       0.827   3.906  -3.561  1.00  0.00    -0.339 N 
ATOM      9  C   UNL     1       0.585   4.463  -4.877  1.00  0.00     0.120 C 
ATOM     10  C   UNL     1       0.860   4.980  -2.566  1.00  0.00     0.094 C 
ATOM     11  C   UNL     1      -0.369   5.606  -4.584  1.00  0.00     0.037 C 
ATOM     12  C   UNL     1       2.288   5.286  -2.112  1.00  0.00     0.032 C 
BRANCH   8  13
ATOM     13  C   UNL     1       0.986   2.548  -3.431  1.00  0.00     0.225 C 
ATOM     14  O   UNL     1       1.340   1.869  -4.402  1.00  0.00    -0.275 OA
BRANCH  13  15
ATOM     15  C   UNL     1       0.525   1.819  -2.161  1.00  0.00     0.075 C 
ATOM     16  C   UNL     1       1.310   2.094  -0.891  1.00  0.00     0.018 C 
BRANCH  15  17
ATOM     17  C   UNL     1      -1.021   1.797  -2.090  1.00  0.00     0.013 C 
BRANCH  17  18
ATOM     18  C   UNL     1      -1.749   2.177  -0.797  1.00  0.00    -0.003 C 
ATOM     19  C   UNL     1      -1.823   3.667  -0.508  1.00  0.00     0.004 C 
ENDBRANCH  17  18
ENDBRANCH  15  17
ENDBRANCH  13  15
ENDBRANCH   8  13
ENDBRANCH   4   7
ENDBRANCH   2   3
ENDBRANCH   1   2
BRANCH   1  20
ATOM     20  C   UNL     1       1.448  10.383  -0.494  1.00  0.00     0.002 C 
BRANCH  20  21
ATOM     21  C   UNL     1       0.887  11.706  -1.026  1.00  0.00     0.002 C 
BRANCH  21  22
ATOM     22  C   UNL     1      -0.352  12.230  -0.298  1.00  0.00     0.021 C 
BRANCH  22  23
ATOM     23  C   UNL     1      -0.165  12.461   1.198  1.00  0.00     0.116 C 
BRANCH  23  24
ATOM     24  N   UNL     1       0.827  13.487   1.481  1.00  0.00    -0.352 N 
ATOM     25  C   UNL     1       0.705  14.645   2.207  1.00  0.00     0.251 C 
ATOM     26  H   UNL     1       1.718  13.326   1.094  1.00  0.00     0.163 HD
ATOM     27  O   UNL     1       1.601  15.485   2.188  1.00  0.00    -0.269 OA
BRANCH  25  28
ATOM     28  C   UNL     1      -0.521  14.898   2.992  1.00  0.00     0.039 A 
ATOM     29  C   UNL     1      -1.127  16.154   2.915  1.00  0.00     0.014 A 
ATOM     30  C   UNL     1      -1.076  13.898   3.795  1.00  0.00     0.014 A 
ATOM     31  C   UNL     1      -2.334  16.383   3.579  1.00  0.00     0.010 A 
ATOM     32  C   UNL     1      -2.314  14.102   4.396  1.00  0.00     0.010 A 
ATOM     33  C   UNL     1      -2.960  15.344   4.287  1.00  0.00    -0.014 A 
BRANCH  33  34
ATOM     34  C   UNL     1      -4.305  15.521   4.889  1.00  0.00     0.031 A 
ATOM     35  C   UNL     1      -4.495  15.428   6.376  1.00  0.00     0.074 A 
ATOM     36  C   UNL     1      -5.372  15.687   4.084  1.00  0.00     0.049 A 
ATOM     37  N   UNL     1      -5.602  15.490   7.072  1.00  0.00    -0.248 NA
ATOM     38  C   UNL     1      -3.284  15.216   7.184  1.00  0.00     0.031 C 
ATOM     39  C   UNL     1      -5.327  15.768   2.623  1.00  0.00     0.029 A 
ATOM     40  N   UNL     1      -6.706  15.812   4.383  1.00  0.00    -0.354 N 
ATOM     41  C   UNL     1      -5.224  15.307   8.396  1.00  0.00     0.074 A 
ATOM     42  C   UNL     1      -3.794  15.082   8.399  1.00  0.00     0.031 C 
ATOM     43  C   UNL     1      -6.570  15.963   2.155  1.00  0.00     0.029 A 
ATOM     44  C   UNL     1      -7.505  15.968   3.276  1.00  0.00     0.049 A 
ATOM     45  H   UNL     1      -7.057  15.792   5.302  1.00  0.00     0.167 HD
ATOM     46  C   UNL     1      -5.995  15.335   9.511  1.00  0.00     0.031 A 
ATOM     47  C   UNL     1      -8.841  16.090   3.171  1.00  0.00     0.031 A 
ATOM     48  C   UNL     1      -7.419  15.549   9.504  1.00  0.00     0.049 A 
ATOM     49  C   UNL     1      -9.682  16.060   4.415  1.00  0.00     0.074 A 
ATOM     50  C   UNL     1      -8.280  15.658  10.582  1.00  0.00     0.029 A 
ATOM     51  N   UNL     1      -8.194  15.667   8.360  1.00  0.00    -0.354 N 
ATOM     52  N   UNL     1      -9.303  15.963   5.667  1.00  0.00    -0.248 NA
ATOM     53  C   UNL     1     -11.137  16.153   4.231  1.00  0.00     0.031 C 
ATOM     54  C   UNL     1      -9.585  15.768  10.090  1.00  0.00     0.029 A 
ATOM     55  C   UNL     1      -9.530  15.797   8.705  1.00  0.00     0.049 A 
ATOM     56  H   UNL     1      -7.847  15.661   7.439  1.00  0.00     0.167 HD
ATOM     57  C   UNL     1     -10.469  16.003   6.420  1.00  0.00     0.074 A 
ATOM     58  C   UNL     1     -11.566  16.153   5.486  1.00  0.00     0.031 C 
ATOM     59  C   UNL     1     -10.616  15.923   7.766  1.00  0.00     0.031 A 
BRANCH  46  60
ATOM     60  C   UNL     1      -5.308  15.094  10.828  1.00  0.00    -0.014 A 
ATOM     61  C   UNL     1      -4.387  16.014  11.356  1.00  0.00     0.009 A 
ATOM     62  C   UNL     1      -5.593  13.929  11.558  1.00  0.00     0.009 A 
ATOM     63  C   UNL     1      -3.725  15.745  12.557  1.00  0.00     0.001 A 
ATOM     64  C   UNL     1      -4.956  13.680  12.775  1.00  0.00     0.001 A 
ATOM     65  C   UNL     1      -4.012  14.580  13.266  1.00  0.00     0.000 A 
ENDBRANCH  46  60
BRANCH  47  66
ATOM     66  C   UNL     1      -9.464  16.265   1.833  1.00  0.00    -0.014 A 
ATOM     67  C   UNL     1     -10.028  17.498   1.472  1.00  0.00     0.009 A 
ATOM     68  C   UNL     1      -9.482  15.213   0.904  1.00  0.00     0.009 A 
ATOM     69  C   UNL     1     -10.609  17.669   0.213  1.00  0.00     0.001 A 
ATOM     70  C   UNL     1     -10.037  15.395  -0.364  1.00  0.00     0.001 A 
ATOM     71  C   UNL     1     -10.606  16.621  -0.706  1.00  0.00     0.000 A 
ENDBRANCH  47  66
BRANCH  59  72
ATOM     72  C   UNL     1     -12.016  16.001   8.310  1.00  0.00    -0.014 A 
ATOM     73  C   UNL     1     -12.921  14.941   8.141  1.00  0.00     0.009 A 
ATOM     74  C   UNL     1     -12.420  17.129   9.040  1.00  0.00     0.009 A 
ATOM     75  C   UNL     1     -14.212  15.024   8.668  1.00  0.00     0.001 A 
ATOM     76  C   UNL     1     -13.700  17.196   9.593  1.00  0.00     0.001 A 
ATOM     77  C   UNL     1     -14.598  16.147   9.399  1.00  0.00     0.000 A 
ENDBRANCH  59  72
ENDBRANCH  33  34
ENDBRANCH  25  28
ENDBRANCH  23  24
ENDBRANCH  22  23
ENDBRANCH  21  22
ENDBRANCH  20  21
ENDBRANCH   1  20
TORSDOF 17
