REMARK SMILES O=C(CCCC(=O)NCc1ccco1)NCCCCCCNC(=O)c1ccc(-c2c3nc(c(-c4ccccc4)c4ccc([nH]4)c(-c4ccccc4)c4nc(c(-c5ccccc5)c5ccc2[nH]5)C=C4)C=C3)cc1
REMARK SMILES IDX 17 1 16 2 15 3 1 4 2 5 3 7 4 8 5 9 6 10 7 11 8 12 9 14 10 15
REMARK SMILES IDX 11 16 14 17 12 18 13 19 18 20 19 21 20 22 21 23 22 24 23 25
REMARK SMILES IDX 24 27 25 28 26 29 72 30 27 31 71 32 28 33 29 34 30 35 65 36
REMARK SMILES IDX 31 37 70 38 64 39 66 40 32 41 69 42 63 43 62 44 33 46 55 47
REMARK SMILES IDX 40 48 54 49 41 50 44 51 53 52 67 53 42 54 43 55 52 57 68 58
REMARK SMILES IDX 45 59 34 60 35 61 39 62 36 63 38 64 37 65 56 66 57 67 61 68
REMARK SMILES IDX 58 69 60 70 59 71 46 72 47 73 51 74 48 75 50 76 49 77
REMARK H PARENT 15 6 8 13 22 26 66 45 44 56
REMARK Flexibility Score: inf
ROOT
ATOM      1  C   UNL     1       2.530   2.251  -2.628  1.00  0.00     0.021 C 
ENDROOT
BRANCH   1   2
ATOM      2  C   UNL     1       1.885   0.860  -2.592  1.00  0.00     0.116 C 
BRANCH   2   3
ATOM      3  N   UNL     1       2.486   0.045  -1.560  1.00  0.00    -0.356 N 
ATOM      4  O   UNL     1       0.580  -0.876  -0.726  1.00  0.00    -0.275 OA
ATOM      5  C   UNL     1       1.797  -0.725  -0.666  1.00  0.00     0.220 C 
ATOM      6  H   UNL     1       3.469   0.046  -1.496  1.00  0.00     0.163 HD
BRANCH   5   7
ATOM      7  C   UNL     1       2.601  -1.245   0.523  1.00  0.00     0.100 C 
BRANCH   7   8
ATOM      8  C   UNL     1       3.979  -1.882   0.341  1.00  0.00     0.020 C 
BRANCH   8   9
ATOM      9  C   UNL     1       5.191  -1.085  -0.154  1.00  0.00     0.100 C 
BRANCH   9  10
ATOM     10  C   UNL     1       5.974  -0.215   0.814  1.00  0.00     0.220 C 
ATOM     11  O   UNL     1       7.110  -0.557   1.157  1.00  0.00    -0.275 OA
ATOM     12  N   UNL     1       5.538   0.983   1.262  1.00  0.00    -0.349 N 
ATOM     13  H   UNL     1       6.198   1.452   1.823  1.00  0.00     0.163 HD
BRANCH  12  14
ATOM     14  C   UNL     1       4.308   1.722   1.091  1.00  0.00     0.191 C 
BRANCH  14  15
ATOM     15  C   UNL     1       3.644   1.860   2.415  1.00  0.00     0.122 A 
ATOM     16  C   UNL     1       3.335   0.974   3.429  1.00  0.00     0.047 A 
ATOM     17  O   UNL     1       3.216   3.111   2.755  1.00  0.00    -0.467 OA
ATOM     18  C   UNL     1       2.665   1.718   4.428  1.00  0.00     0.042 A 
ATOM     19  C   UNL     1       2.629   3.015   3.975  1.00  0.00     0.195 A 
ENDBRANCH  14  15
ENDBRANCH  12  14
ENDBRANCH   9  10
ENDBRANCH   8   9
ENDBRANCH   7   8
ENDBRANCH   5   7
ENDBRANCH   2   3
ENDBRANCH   1   2
BRANCH   1  20
ATOM     20  C   UNL     1       4.056   2.281  -2.824  1.00  0.00     0.002 C 
BRANCH  20  21
ATOM     21  C   UNL     1       4.595   1.514  -4.035  1.00  0.00     0.002 C 
BRANCH  21  22
ATOM     22  C   UNL     1       3.984   1.909  -5.378  1.00  0.00     0.021 C 
BRANCH  22  23
ATOM     23  C   UNL     1       4.155   3.376  -5.755  1.00  0.00     0.116 C 
BRANCH  23  24
ATOM     24  N   UNL     1       5.540   3.727  -6.029  1.00  0.00    -0.352 N 
ATOM     25  C   UNL     1       6.086   4.308  -7.148  1.00  0.00     0.251 C 
ATOM     26  H   UNL     1       6.178   3.518  -5.309  1.00  0.00     0.163 HD
ATOM     27  O   UNL     1       7.306   4.389  -7.269  1.00  0.00    -0.269 OA
BRANCH  25  28
ATOM     28  C   UNL     1       5.208   4.811  -8.228  1.00  0.00     0.039 A 
ATOM     29  C   UNL     1       5.523   4.502  -9.554  1.00  0.00     0.014 A 
ATOM     30  C   UNL     1       4.074   5.573  -7.938  1.00  0.00     0.014 A 
ATOM     31  C   UNL     1       4.660   4.890 -10.581  1.00  0.00     0.010 A 
ATOM     32  C   UNL     1       3.176   5.894  -8.954  1.00  0.00     0.010 A 
ATOM     33  C   UNL     1       3.456   5.551 -10.285  1.00  0.00    -0.014 A 
BRANCH  33  34
ATOM     34  C   UNL     1       2.468   5.869 -11.349  1.00  0.00     0.031 A 
ATOM     35  C   UNL     1       2.115   7.297 -11.659  1.00  0.00     0.074 A 
ATOM     36  C   UNL     1       1.832   4.867 -11.988  1.00  0.00     0.049 A 
ATOM     37  N   UNL     1       1.228   7.763 -12.503  1.00  0.00    -0.248 NA
ATOM     38  C   UNL     1       2.835   8.337 -10.908  1.00  0.00     0.031 C 
ATOM     39  C   UNL     1       2.051   3.437 -11.755  1.00  0.00     0.029 A 
ATOM     40  N   UNL     1       0.860   4.899 -12.958  1.00  0.00    -0.354 N 
ATOM     41  C   UNL     1       1.272   9.146 -12.371  1.00  0.00     0.074 A 
ATOM     42  C   UNL     1       2.237   9.440 -11.333  1.00  0.00     0.031 C 
ATOM     43  C   UNL     1       1.255   2.731 -12.573  1.00  0.00     0.029 A 
ATOM     44  C   UNL     1       0.438   3.653 -13.355  1.00  0.00     0.049 A 
ATOM     45  H   UNL     1       0.501   5.735 -13.333  1.00  0.00     0.167 HD
ATOM     46  C   UNL     1       0.586  10.087 -13.062  1.00  0.00     0.031 A 
ATOM     47  C   UNL     1      -0.512   3.290 -14.239  1.00  0.00     0.031 A 
ATOM     48  C   UNL     1      -0.373   9.796 -14.096  1.00  0.00     0.049 A 
ATOM     49  C   UNL     1      -1.280   4.353 -14.973  1.00  0.00     0.074 A 
ATOM     50  C   UNL     1      -1.076  10.683 -14.892  1.00  0.00     0.029 A 
ATOM     51  N   UNL     1      -0.769   8.522 -14.470  1.00  0.00    -0.354 N 
ATOM     52  N   UNL     1      -1.171   5.656 -14.890  1.00  0.00    -0.248 NA
ATOM     53  C   UNL     1      -2.295   3.892 -15.931  1.00  0.00     0.031 C 
ATOM     54  C   UNL     1      -1.943   9.947 -15.706  1.00  0.00     0.029 A 
ATOM     55  C   UNL     1      -1.732   8.600 -15.463  1.00  0.00     0.049 A 
ATOM     56  H   UNL     1      -0.419   7.685 -14.087  1.00  0.00     0.167 HD
ATOM     57  C   UNL     1      -2.084   6.171 -15.802  1.00  0.00     0.074 A 
ATOM     58  C   UNL     1      -2.724   5.039 -16.440  1.00  0.00     0.031 C 
ATOM     59  C   UNL     1      -2.366   7.466 -16.086  1.00  0.00     0.031 A 
BRANCH  46  60
ATOM     60  C   UNL     1       0.840  11.527 -12.709  1.00  0.00    -0.014 A 
ATOM     61  C   UNL     1       2.067  12.146 -13.002  1.00  0.00     0.009 A 
ATOM     62  C   UNL     1      -0.174  12.287 -12.106  1.00  0.00     0.009 A 
ATOM     63  C   UNL     1       2.286  13.482 -12.659  1.00  0.00     0.001 A 
ATOM     64  C   UNL     1       0.037  13.632 -11.794  1.00  0.00     0.001 A 
ATOM     65  C   UNL     1       1.270  14.224 -12.060  1.00  0.00     0.000 A 
ENDBRANCH  46  60
BRANCH  47  66
ATOM     66  C   UNL     1      -0.790   1.849 -14.479  1.00  0.00    -0.014 A 
ATOM     67  C   UNL     1      -0.449   1.250 -15.701  1.00  0.00     0.009 A 
ATOM     68  C   UNL     1      -1.403   1.066 -13.489  1.00  0.00     0.009 A 
ATOM     69  C   UNL     1      -0.740  -0.097 -15.936  1.00  0.00     0.001 A 
ATOM     70  C   UNL     1      -1.664  -0.288 -13.714  1.00  0.00     0.001 A 
ATOM     71  C   UNL     1      -1.342  -0.865 -14.941  1.00  0.00     0.000 A 
ENDBRANCH  47  66
BRANCH  59  72
ATOM     72  C   UNL     1      -3.390   7.731 -17.155  1.00  0.00    -0.014 A 
ATOM     73  C   UNL     1      -4.754   7.487 -16.937  1.00  0.00     0.009 A 
ATOM     74  C   UNL     1      -2.985   8.277 -18.384  1.00  0.00     0.009 A 
ATOM     75  C   UNL     1      -5.688   7.753 -17.940  1.00  0.00     0.001 A 
ATOM     76  C   UNL     1      -3.924   8.572 -19.373  1.00  0.00     0.001 A 
ATOM     77  C   UNL     1      -5.274   8.301 -19.154  1.00  0.00     0.000 A 
ENDBRANCH  59  72
ENDBRANCH  33  34
ENDBRANCH  25  28
ENDBRANCH  23  24
ENDBRANCH  22  23
ENDBRANCH  21  22
ENDBRANCH  20  21
ENDBRANCH   1  20
TORSDOF 18
