REMARK SMILES CC(C)(C[N@H+]1C[C@@H]2C[NH2+]C[C@H]2C1(C)C)C(=O)NCCCCCCNC(=O)c1ccc(-c2c3nc(c(-c4ccccc4)c4ccc([nH]4)c(-c4ccccc4)c4nc(c(-c5ccccc5)c5ccc2[nH]5)C=C4)C=C3)cc1
REMARK SMILES IDX 20 1 19 2 18 3 17 4 15 5 16 6 2 8 1 9 3 10 4 11 5 12 6 13
REMARK SMILES IDX 12 14 7 16 11 17 13 18 14 19 8 20 10 21 9 22 21 25 22 26
REMARK SMILES IDX 23 27 24 28 25 29 26 31 27 32 28 33 74 34 29 35 73 36 30 37
REMARK SMILES IDX 31 38 32 39 67 40 33 41 72 42 66 43 68 44 34 45 71 46 65 47
REMARK SMILES IDX 64 48 35 50 57 51 42 52 56 53 43 54 46 55 55 56 69 57 44 58
REMARK SMILES IDX 45 59 54 61 70 62 47 63 36 64 37 65 41 66 38 67 40 68 39 69
REMARK SMILES IDX 58 70 59 71 63 72 60 73 62 74 61 75 48 76 49 77 53 78 50 79
REMARK SMILES IDX 52 80 51 81
REMARK H PARENT 17 7 5 15 9 23 9 24 24 30 68 49 46 60
REMARK Flexibility Score: inf
ROOT
ATOM      1  C   UNL     1      -0.971   4.706   4.134  1.00  0.00     0.002 C 
ENDROOT
BRANCH   1   2
ATOM      2  C   UNL     1      -1.400   4.138   2.777  1.00  0.00     0.021 C 
BRANCH   2   3
ATOM      3  C   UNL     1      -0.271   4.037   1.760  1.00  0.00     0.116 C 
BRANCH   3   4
ATOM      4  N   UNL     1       0.744   3.111   2.206  1.00  0.00    -0.355 N 
ATOM      5  C   UNL     1       1.276   1.991   1.663  1.00  0.00     0.231 C 
ATOM      6  O   UNL     1       2.099   1.407   2.380  1.00  0.00    -0.274 OA
ATOM      7  H   UNL     1       1.125   3.341   3.084  1.00  0.00     0.163 HD
BRANCH   5   8
ATOM      8  C   UNL     1       0.947   1.497   0.242  1.00  0.00     0.092 C 
ATOM      9  C   UNL     1       2.018   0.436  -0.111  1.00  0.00     0.027 C 
ATOM     10  C   UNL     1       1.225   2.618  -0.795  1.00  0.00     0.027 C 
BRANCH   8  11
ATOM     11  C   UNL     1      -0.549   1.021   0.081  1.00  0.00     0.279 C 
BRANCH  11  12
ATOM     12  N   UNL     1      -1.191   0.026   0.968  1.00  0.00    -0.329 N 
ATOM     13  C   UNL     1      -2.695   0.083   0.877  1.00  0.00     0.272 C 
ATOM     14  C   UNL     1      -0.786  -1.425   0.865  1.00  0.00     0.101 C 
ATOM     15  H   UNL     1      -0.827   0.336   1.868  1.00  0.00     0.348 HD
ATOM     16  C   UNL     1      -3.073  -1.260   0.309  1.00  0.00     0.114 C 
ATOM     17  C   UNL     1      -2.126  -2.144   1.073  1.00  0.00     0.119 C 
ATOM     18  C   UNL     1      -0.169  -1.886  -0.472  1.00  0.00     0.079 C 
ATOM     19  C   UNL     1       0.113  -1.750   2.071  1.00  0.00     0.079 C 
ATOM     20  C   UNL     1      -4.369  -1.991   0.541  1.00  0.00     0.270 C 
ATOM     21  C   UNL     1      -2.504  -3.515   0.563  1.00  0.00     0.271 C 
ATOM     22  N   UNL     1      -3.970  -3.410   0.340  1.00  0.00    -0.345 N 
ATOM     23  H   UNL     1      -4.197  -3.702  -0.611  1.00  0.00     0.346 HD
ATOM     24  H   UNL     1      -4.470  -4.013   0.993  1.00  0.00     0.346 HD
ENDBRANCH  11  12
ENDBRANCH   8  11
ENDBRANCH   5   8
ENDBRANCH   3   4
ENDBRANCH   2   3
ENDBRANCH   1   2
BRANCH   1  25
ATOM     25  C   UNL     1      -0.221   6.041   4.068  1.00  0.00     0.002 C 
BRANCH  25  26
ATOM     26  C   UNL     1      -0.935   7.142   3.282  1.00  0.00     0.021 C 
BRANCH  26  27
ATOM     27  C   UNL     1      -2.341   7.454   3.780  1.00  0.00     0.116 C 
BRANCH  27  28
ATOM     28  N   UNL     1      -2.332   7.953   5.145  1.00  0.00    -0.352 N 
ATOM     29  C   UNL     1      -2.806   9.145   5.634  1.00  0.00     0.251 C 
ATOM     30  H   UNL     1      -1.929   7.352   5.812  1.00  0.00     0.163 HD
ATOM     31  O   UNL     1      -2.526   9.510   6.767  1.00  0.00    -0.269 OA
BRANCH  29  32
ATOM     32  C   UNL     1      -3.643   9.997   4.764  1.00  0.00     0.039 A 
ATOM     33  C   UNL     1      -3.346  11.357   4.665  1.00  0.00     0.014 A 
ATOM     34  C   UNL     1      -4.696   9.444   4.030  1.00  0.00     0.014 A 
ATOM     35  C   UNL     1      -4.058  12.151   3.765  1.00  0.00     0.010 A 
ATOM     36  C   UNL     1      -5.356  10.220   3.083  1.00  0.00     0.010 A 
ATOM     37  C   UNL     1      -5.035  11.578   2.934  1.00  0.00    -0.014 A 
BRANCH  37  38
ATOM     38  C   UNL     1      -5.698  12.368   1.869  1.00  0.00     0.031 A 
ATOM     39  C   UNL     1      -7.179  12.613   1.912  1.00  0.00     0.074 A 
ATOM     40  C   UNL     1      -4.971  12.797   0.818  1.00  0.00     0.049 A 
ATOM     41  N   UNL     1      -7.941  13.211   1.031  1.00  0.00    -0.248 NA
ATOM     42  C   UNL     1      -7.902  12.102   3.087  1.00  0.00     0.031 C 
ATOM     43  C   UNL     1      -3.530  12.594   0.645  1.00  0.00     0.029 A 
ATOM     44  N   UNL     1      -5.346  13.484  -0.309  1.00  0.00    -0.354 N 
ATOM     45  C   UNL     1      -9.231  13.139   1.539  1.00  0.00     0.074 A 
ATOM     46  C   UNL     1      -9.157  12.399   2.780  1.00  0.00     0.031 C 
ATOM     47  C   UNL     1      -3.141  13.164  -0.506  1.00  0.00     0.029 A 
ATOM     48  C   UNL     1      -4.309  13.725  -1.177  1.00  0.00     0.049 A 
ATOM     49  H   UNL     1      -6.271  13.776  -0.480  1.00  0.00     0.167 HD
ATOM     50  C   UNL     1     -10.372  13.656   1.025  1.00  0.00     0.031 A 
ATOM     51  C   UNL     1      -4.299  14.313  -2.388  1.00  0.00     0.031 A 
ATOM     52  C   UNL     1     -10.442  14.388  -0.213  1.00  0.00     0.049 A 
ATOM     53  C   UNL     1      -5.589  14.830  -2.961  1.00  0.00     0.074 A 
ATOM     54  C   UNL     1     -11.542  14.999  -0.790  1.00  0.00     0.029 A 
ATOM     55  N   UNL     1      -9.373  14.595  -1.070  1.00  0.00    -0.354 N 
ATOM     56  N   UNL     1      -6.789  14.821  -2.433  1.00  0.00    -0.248 NA
ATOM     57  C   UNL     1      -5.523  15.439  -4.297  1.00  0.00     0.031 C 
ATOM     58  C   UNL     1     -11.153  15.516  -2.029  1.00  0.00     0.029 A 
ATOM     59  C   UNL     1      -9.796  15.287  -2.193  1.00  0.00     0.049 A 
ATOM     60  H   UNL     1      -8.450  14.296  -0.905  1.00  0.00     0.167 HD
ATOM     61  C   UNL     1      -7.616  15.440  -3.361  1.00  0.00     0.074 A 
ATOM     62  C   UNL     1      -6.777  15.832  -4.475  1.00  0.00     0.031 C 
ATOM     63  C   UNL     1      -8.951  15.662  -3.297  1.00  0.00     0.031 A 
BRANCH  50  64
ATOM     64  C   UNL     1     -11.646  13.434   1.794  1.00  0.00    -0.014 A 
ATOM     65  C   UNL     1     -11.874  14.064   3.027  1.00  0.00     0.009 A 
ATOM     66  C   UNL     1     -12.652  12.617   1.254  1.00  0.00     0.009 A 
ATOM     67  C   UNL     1     -13.067  13.853   3.721  1.00  0.00     0.001 A 
ATOM     68  C   UNL     1     -13.857  12.433   1.934  1.00  0.00     0.001 A 
ATOM     69  C   UNL     1     -14.060  13.043   3.171  1.00  0.00     0.000 A 
ENDBRANCH  50  64
BRANCH  51  70
ATOM     70  C   UNL     1      -3.027  14.436  -3.147  1.00  0.00    -0.014 A 
ATOM     71  C   UNL     1      -2.441  15.693  -3.362  1.00  0.00     0.009 A 
ATOM     72  C   UNL     1      -2.392  13.296  -3.667  1.00  0.00     0.009 A 
ATOM     73  C   UNL     1      -1.262  15.808  -4.102  1.00  0.00     0.001 A 
ATOM     74  C   UNL     1      -1.196  13.411  -4.379  1.00  0.00     0.001 A 
ATOM     75  C   UNL     1      -0.638  14.667  -4.605  1.00  0.00     0.000 A 
ENDBRANCH  51  70
BRANCH  63  76
ATOM     76  C   UNL     1      -9.588  16.375  -4.457  1.00  0.00    -0.014 A 
ATOM     77  C   UNL     1      -9.761  15.738  -5.696  1.00  0.00     0.009 A 
ATOM     78  C   UNL     1     -10.074  17.682  -4.290  1.00  0.00     0.009 A 
ATOM     79  C   UNL     1     -10.384  16.406  -6.752  1.00  0.00     0.001 A 
ATOM     80  C   UNL     1     -10.724  18.335  -5.338  1.00  0.00     0.001 A 
ATOM     81  C   UNL     1     -10.872  17.700  -6.570  1.00  0.00     0.000 A 
ENDBRANCH  63  76
ENDBRANCH  37  38
ENDBRANCH  29  32
ENDBRANCH  27  28
ENDBRANCH  26  27
ENDBRANCH  25  26
ENDBRANCH   1  25
TORSDOF 15
