REMARK SMILES COc1ccc([C@@H](CC(=O)NCCCCCCNC(=O)c2ccc(-c3c4nc(c(-c5ccccc5)c5ccc([nH]5)c(-c5ccccc5)c5nc(c(-c6ccccc6)c6ccc3[nH]6)C=C5)C=C4)cc2)N2C(=O)[C@H]3CC=CC[C@H]3C2=O)cc1OC
REMARK SMILES IDX 14 1 13 2 12 3 11 4 9 5 10 6 8 8 7 9 6 10 3 11 4 12 81 13
REMARK SMILES IDX 5 14 80 15 2 16 1 17 82 18 83 19 69 20 70 21 78 22 71 23
REMARK SMILES IDX 72 24 77 25 79 26 73 27 76 28 74 29 75 30 15 31 16 32 17 33
REMARK SMILES IDX 18 34 19 35 20 37 21 38 22 39 68 40 23 41 67 42 24 43 25 44
REMARK SMILES IDX 26 45 61 46 27 47 66 48 60 49 62 50 28 51 65 52 59 53 58 54
REMARK SMILES IDX 29 56 51 57 36 58 50 59 37 60 40 61 49 62 63 63 38 64 39 65
REMARK SMILES IDX 48 67 64 68 41 69 30 70 31 71 35 72 32 73 34 74 33 75 52 76
REMARK SMILES IDX 53 77 57 78 54 79 56 80 55 81 42 82 43 83 47 84 44 85 46 86
REMARK SMILES IDX 45 87
REMARK H PARENT 11 7 18 36 62 55 40 66
REMARK Flexibility Score: inf
ROOT
ATOM      1  C   UNL     1      -2.083   4.484   0.513  1.00  0.00     0.002 C 
ENDROOT
BRANCH   1   2
ATOM      2  C   UNL     1      -0.762   4.277   1.251  1.00  0.00     0.021 C 
BRANCH   2   3
ATOM      3  C   UNL     1       0.217   5.448   1.242  1.00  0.00     0.116 C 
BRANCH   3   4
ATOM      4  N   UNL     1      -0.067   6.319   2.363  1.00  0.00    -0.356 N 
ATOM      5  C   UNL     1       0.509   6.389   3.592  1.00  0.00     0.222 C 
ATOM      6  O   UNL     1      -0.137   6.988   4.455  1.00  0.00    -0.275 OA
ATOM      7  H   UNL     1      -0.794   6.964   2.210  1.00  0.00     0.163 HD
BRANCH   5   8
ATOM      8  C   UNL     1       1.905   5.843   3.866  1.00  0.00     0.130 C 
BRANCH   8   9
ATOM      9  C   UNL     1       2.026   4.490   4.621  1.00  0.00     0.133 C 
BRANCH   9  10
ATOM     10  C   UNL     1       1.907   3.329   3.618  1.00  0.00    -0.020 A 
ATOM     11  C   UNL     1       1.694   1.287   1.659  1.00  0.00     0.160 A 
ATOM     12  C   UNL     1       0.637   1.548   2.530  1.00  0.00     0.051 A 
ATOM     13  C   UNL     1       2.887   2.011   1.795  1.00  0.00     0.161 A 
ATOM     14  C   UNL     1       0.744   2.559   3.490  1.00  0.00     0.010 A 
ATOM     15  C   UNL     1       2.982   3.022   2.767  1.00  0.00     0.056 A 
BRANCH  11  16
ATOM     16  O   UNL     1       1.546   0.444   0.591  1.00  0.00    -0.493 OA
ATOM     17  C   UNL     1       0.822  -0.755   0.838  1.00  0.00     0.278 C 
ENDBRANCH  11  16
BRANCH  13  18
ATOM     18  O   UNL     1       4.018   1.875   1.030  1.00  0.00    -0.493 OA
ATOM     19  C   UNL     1       4.246   0.591   0.458  1.00  0.00     0.278 C 
ENDBRANCH  13  18
ENDBRANCH   9  10
BRANCH   9  20
ATOM     20  N   UNL     1       1.159   4.333   5.797  1.00  0.00    -0.274 N 
ATOM     21  C   UNL     1       0.831   5.326   6.668  1.00  0.00     0.234 C 
ATOM     22  C   UNL     1       1.059   3.167   6.502  1.00  0.00     0.234 C 
ATOM     23  O   UNL     1       1.376   6.415   6.779  1.00  0.00    -0.274 OA
ATOM     24  C   UNL     1      -0.228   4.811   7.617  1.00  0.00     0.095 C 
ATOM     25  C   UNL     1      -0.072   3.293   7.491  1.00  0.00     0.095 C 
ATOM     26  O   UNL     1       1.756   2.174   6.401  1.00  0.00    -0.274 OA
ATOM     27  C   UNL     1      -1.593   5.386   7.233  1.00  0.00     0.041 C 
ATOM     28  C   UNL     1      -1.272   2.509   6.941  1.00  0.00     0.041 C 
ATOM     29  C   UNL     1      -2.295   4.622   6.151  1.00  0.00    -0.030 C 
ATOM     30  C   UNL     1      -2.152   3.299   6.020  1.00  0.00    -0.030 C 
ENDBRANCH   9  20
ENDBRANCH   8   9
ENDBRANCH   5   8
ENDBRANCH   3   4
ENDBRANCH   2   3
ENDBRANCH   1   2
BRANCH   1  31
ATOM     31  C   UNL     1      -1.987   4.466  -1.014  1.00  0.00     0.002 C 
BRANCH  31  32
ATOM     32  C   UNL     1      -1.211   3.296  -1.635  1.00  0.00     0.021 C 
BRANCH  32  33
ATOM     33  C   UNL     1      -1.639   1.893  -1.200  1.00  0.00     0.116 C 
BRANCH  33  34
ATOM     34  N   UNL     1      -2.993   1.564  -1.617  1.00  0.00    -0.352 N 
ATOM     35  C   UNL     1      -3.439   0.626  -2.515  1.00  0.00     0.251 C 
ATOM     36  H   UNL     1      -3.700   2.098  -1.188  1.00  0.00     0.163 HD
ATOM     37  O   UNL     1      -4.620   0.608  -2.850  1.00  0.00    -0.269 OA
BRANCH  35  38
ATOM     38  C   UNL     1      -2.505  -0.358  -3.104  1.00  0.00     0.039 A 
ATOM     39  C   UNL     1      -2.498  -0.539  -4.489  1.00  0.00     0.014 A 
ATOM     40  C   UNL     1      -1.662  -1.127  -2.298  1.00  0.00     0.014 A 
ATOM     41  C   UNL     1      -1.591  -1.432  -5.069  1.00  0.00     0.010 A 
ATOM     42  C   UNL     1      -0.714  -1.972  -2.882  1.00  0.00     0.010 A 
ATOM     43  C   UNL     1      -0.661  -2.126  -4.276  1.00  0.00    -0.014 A 
BRANCH  43  44
ATOM     44  C   UNL     1       0.399  -2.962  -4.903  1.00  0.00     0.031 A 
ATOM     45  C   UNL     1       0.463  -4.448  -4.679  1.00  0.00     0.074 A 
ATOM     46  C   UNL     1       1.360  -2.365  -5.637  1.00  0.00     0.049 A 
ATOM     47  N   UNL     1       1.332  -5.314  -5.142  1.00  0.00    -0.248 NA
ATOM     48  C   UNL     1      -0.562  -5.035  -3.804  1.00  0.00     0.031 C 
ATOM     49  C   UNL     1       1.463  -0.926  -5.886  1.00  0.00     0.029 A 
ATOM     50  N   UNL     1       2.438  -2.896  -6.303  1.00  0.00    -0.354 N 
ATOM     51  C   UNL     1       0.970  -6.542  -4.602  1.00  0.00     0.074 A 
ATOM     52  C   UNL     1      -0.172  -6.301  -3.745  1.00  0.00     0.031 C 
ATOM     53  C   UNL     1       2.529  -0.691  -6.668  1.00  0.00     0.029 A 
ATOM     54  C   UNL     1       3.204  -1.954  -6.947  1.00  0.00     0.049 A 
ATOM     55  H   UNL     1       2.643  -3.858  -6.317  1.00  0.00     0.167 HD
ATOM     56  C   UNL     1       1.527  -7.760  -4.809  1.00  0.00     0.031 A 
ATOM     57  C   UNL     1       4.327  -2.083  -7.678  1.00  0.00     0.031 A 
ATOM     58  C   UNL     1       2.652  -8.012  -5.672  1.00  0.00     0.049 A 
ATOM     59  C   UNL     1       4.918  -3.444  -7.905  1.00  0.00     0.074 A 
ATOM     60  C   UNL     1       3.217  -9.229  -6.016  1.00  0.00     0.029 A 
ATOM     61  N   UNL     1       3.390  -7.033  -6.316  1.00  0.00    -0.354 N 
ATOM     62  N   UNL     1       4.501  -4.607  -7.468  1.00  0.00    -0.248 NA
ATOM     63  C   UNL     1       6.131  -3.510  -8.733  1.00  0.00     0.031 C 
ATOM     64  C   UNL     1       4.333  -8.981  -6.824  1.00  0.00     0.029 A 
ATOM     65  C   UNL     1       4.430  -7.614  -7.024  1.00  0.00     0.049 A 
ATOM     66  H   UNL     1       3.204  -6.067  -6.277  1.00  0.00     0.167 HD
ATOM     67  C   UNL     1       5.391  -5.543  -7.976  1.00  0.00     0.074 A 
ATOM     68  C   UNL     1       6.359  -4.816  -8.772  1.00  0.00     0.031 C 
ATOM     69  C   UNL     1       5.403  -6.886  -7.797  1.00  0.00     0.031 A 
BRANCH  56  70
ATOM     70  C   UNL     1       0.928  -8.927  -4.072  1.00  0.00    -0.014 A 
ATOM     71  C   UNL     1      -0.333  -9.438  -4.418  1.00  0.00     0.009 A 
ATOM     72  C   UNL     1       1.655  -9.548  -3.045  1.00  0.00     0.009 A 
ATOM     73  C   UNL     1      -0.871 -10.523  -3.721  1.00  0.00     0.001 A 
ATOM     74  C   UNL     1       1.127 -10.649  -2.368  1.00  0.00     0.001 A 
ATOM     75  C   UNL     1      -0.140 -11.129  -2.699  1.00  0.00     0.000 A 
ENDBRANCH  56  70
BRANCH  57  76
ATOM     76  C   UNL     1       4.966  -0.874  -8.257  1.00  0.00    -0.014 A 
ATOM     77  C   UNL     1       4.877  -0.609  -9.631  1.00  0.00     0.009 A 
ATOM     78  C   UNL     1       5.651   0.031  -7.430  1.00  0.00     0.009 A 
ATOM     79  C   UNL     1       5.475   0.533 -10.169  1.00  0.00     0.001 A 
ATOM     80  C   UNL     1       6.226   1.183  -7.967  1.00  0.00     0.001 A 
ATOM     81  C   UNL     1       6.143   1.431  -9.336  1.00  0.00     0.000 A 
ENDBRANCH  57  76
BRANCH  69  82
ATOM     82  C   UNL     1       6.497  -7.661  -8.475  1.00  0.00    -0.014 A 
ATOM     83  C   UNL     1       7.817  -7.616  -7.999  1.00  0.00     0.009 A 
ATOM     84  C   UNL     1       6.200  -8.474  -9.579  1.00  0.00     0.009 A 
ATOM     85  C   UNL     1       8.822  -8.349  -8.634  1.00  0.00     0.001 A 
ATOM     86  C   UNL     1       7.202  -9.225 -10.197  1.00  0.00     0.001 A 
ATOM     87  C   UNL     1       8.513  -9.155  -9.729  1.00  0.00     0.000 A 
ENDBRANCH  69  82
ENDBRANCH  43  44
ENDBRANCH  35  38
ENDBRANCH  33  34
ENDBRANCH  32  33
ENDBRANCH  31  32
ENDBRANCH   1  31
TORSDOF 18
