REMARK SMILES CC(C)CC1(CNc2ccnc(C(=O)NCCCCCCNC(=O)c3ccc(-c4c5nc(c(-c6ccccc6)c6ccc([nH]6)c(-c6ccccc6)c6nc(c(-c7ccccc7)c7ccc4[nH]7)C=C6)C=C5)cc3)c2)CCCC1
REMARK SMILES IDX 17 1 16 2 15 3 13 4 14 5 12 7 8 8 9 9 73 10 10 11 11 12 7 13
REMARK SMILES IDX 6 15 5 16 74 17 77 18 75 19 76 20 4 21 2 22 1 23 3 24 18 25
REMARK SMILES IDX 19 26 20 27 21 28 22 29 23 30 24 32 25 33 26 34 72 35 27 36
REMARK SMILES IDX 71 37 28 38 29 39 30 40 65 41 31 42 70 43 64 44 66 45 32 46
REMARK SMILES IDX 69 47 63 48 62 49 33 51 55 52 40 53 54 54 41 55 44 56 53 57
REMARK SMILES IDX 67 58 42 59 43 60 52 62 68 63 45 64 34 65 35 66 39 67 36 68
REMARK SMILES IDX 38 69 37 70 56 71 57 72 61 73 58 74 60 75 59 76 46 77 47 78
REMARK SMILES IDX 51 79 48 80 50 81 49 82
REMARK H PARENT 15 6 7 14 22 31 66 50 44 61
REMARK Flexibility Score: inf
ROOT
ATOM      1  C   UNL     1      -0.040  -6.057   0.650  1.00  0.00     0.021 C 
ENDROOT
BRANCH   1   2
ATOM      2  C   UNL     1      -1.328  -6.104  -0.162  1.00  0.00     0.116 C 
BRANCH   2   3
ATOM      3  N   UNL     1      -2.432  -6.763   0.510  1.00  0.00    -0.351 N 
ATOM      4  C   UNL     1      -3.743  -6.389   0.743  1.00  0.00     0.269 C 
ATOM      5  O   UNL     1      -4.445  -7.198   1.354  1.00  0.00    -0.268 OA
ATOM      6  H   UNL     1      -2.203  -7.650   0.870  1.00  0.00     0.163 HD
BRANCH   4   7
ATOM      7  C   UNL     1      -4.312  -5.054   0.339  1.00  0.00     0.130 A 
ATOM      8  C   UNL     1      -4.212  -2.990  -0.891  1.00  0.00     0.038 A 
ATOM      9  C   UNL     1      -5.211  -2.501  -0.056  1.00  0.00     0.046 A 
ATOM     10  C   UNL     1      -3.849  -4.329  -0.751  1.00  0.00     0.060 A 
ATOM     11  C   UNL     1      -5.742  -3.334   0.914  1.00  0.00     0.114 A 
ATOM     12  N   UNL     1      -5.286  -4.577   1.157  1.00  0.00    -0.251 NA
BRANCH   8  13
ATOM     13  N   UNL     1      -3.480  -2.190  -1.754  1.00  0.00    -0.384 N 
ATOM     14  H   UNL     1      -3.164  -2.577  -2.603  1.00  0.00     0.160 HD
BRANCH  13  15
ATOM     15  C   UNL     1      -3.158  -0.797  -1.458  1.00  0.00     0.119 C 
BRANCH  15  16
ATOM     16  C   UNL     1      -1.614  -0.528  -1.311  1.00  0.00    -0.012 C 
ATOM     17  C   UNL     1      -1.454   1.001  -1.142  1.00  0.00     0.009 C 
ATOM     18  C   UNL     1      -0.858  -0.789  -2.626  1.00  0.00     0.009 C 
ATOM     19  C   UNL     1      -1.487   1.578  -2.553  1.00  0.00     0.001 C 
ATOM     20  C   UNL     1      -1.077   0.449  -3.492  1.00  0.00     0.001 C 
BRANCH  16  21
ATOM     21  C   UNL     1      -1.043  -1.309  -0.085  1.00  0.00     0.012 C 
BRANCH  21  22
ATOM     22  C   UNL     1       0.490  -1.510   0.082  1.00  0.00    -0.017 C 
ATOM     23  C   UNL     1       1.328  -0.233   0.135  1.00  0.00     0.007 C 
ATOM     24  C   UNL     1       0.762  -2.308   1.365  1.00  0.00     0.007 C 
ENDBRANCH  21  22
ENDBRANCH  16  21
ENDBRANCH  15  16
ENDBRANCH  13  15
ENDBRANCH   8  13
ENDBRANCH   4   7
ENDBRANCH   2   3
ENDBRANCH   1   2
BRANCH   1  25
ATOM     25  C   UNL     1       0.715  -7.372   0.824  1.00  0.00     0.002 C 
BRANCH  25  26
ATOM     26  C   UNL     1       1.063  -8.134  -0.458  1.00  0.00     0.002 C 
BRANCH  26  27
ATOM     27  C   UNL     1       1.715  -7.322  -1.579  1.00  0.00     0.021 C 
BRANCH  27  28
ATOM     28  C   UNL     1       3.000  -6.591  -1.204  1.00  0.00     0.116 C 
BRANCH  28  29
ATOM     29  N   UNL     1       4.085  -7.500  -0.870  1.00  0.00    -0.352 N 
ATOM     30  C   UNL     1       5.350  -7.574  -1.402  1.00  0.00     0.251 C 
ATOM     31  H   UNL     1       3.884  -8.155  -0.163  1.00  0.00     0.163 HD
ATOM     32  O   UNL     1       6.094  -8.501  -1.119  1.00  0.00    -0.269 OA
BRANCH  30  33
ATOM     33  C   UNL     1       5.804  -6.527  -2.344  1.00  0.00     0.039 A 
ATOM     34  C   UNL     1       6.388  -6.908  -3.556  1.00  0.00     0.014 A 
ATOM     35  C   UNL     1       5.643  -5.175  -2.032  1.00  0.00     0.014 A 
ATOM     36  C   UNL     1       6.744  -5.931  -4.490  1.00  0.00     0.010 A 
ATOM     37  C   UNL     1       5.940  -4.209  -2.987  1.00  0.00     0.010 A 
ATOM     38  C   UNL     1       6.490  -4.577  -4.226  1.00  0.00    -0.014 A 
BRANCH  38  39
ATOM     39  C   UNL     1       6.785  -3.512  -5.216  1.00  0.00     0.031 A 
ATOM     40  C   UNL     1       7.803  -2.456  -4.891  1.00  0.00     0.074 A 
ATOM     41  C   UNL     1       6.061  -3.425  -6.349  1.00  0.00     0.049 A 
ATOM     42  N   UNL     1       8.076  -1.345  -5.526  1.00  0.00    -0.248 NA
ATOM     43  C   UNL     1       8.597  -2.663  -3.668  1.00  0.00     0.031 C 
ATOM     44  C   UNL     1       5.030  -4.374  -6.773  1.00  0.00     0.029 A 
ATOM     45  N   UNL     1       6.067  -2.475  -7.340  1.00  0.00    -0.354 N 
ATOM     46  C   UNL     1       9.044  -0.705  -4.763  1.00  0.00     0.074 A 
ATOM     47  C   UNL     1       9.287  -1.535  -3.602  1.00  0.00     0.031 C 
ATOM     48  C   UNL     1       4.506  -3.959  -7.938  1.00  0.00     0.029 A 
ATOM     49  C   UNL     1       5.128  -2.695  -8.318  1.00  0.00     0.049 A 
ATOM     50  H   UNL     1       6.685  -1.708  -7.348  1.00  0.00     0.167 HD
ATOM     51  C   UNL     1       9.680   0.465  -5.010  1.00  0.00     0.031 A 
ATOM     52  C   UNL     1       4.788  -1.951  -9.387  1.00  0.00     0.031 A 
ATOM     53  C   UNL     1       9.451   1.278  -6.173  1.00  0.00     0.049 A 
ATOM     54  C   UNL     1       5.501  -0.651  -9.638  1.00  0.00     0.074 A 
ATOM     55  C   UNL     1      10.086   2.451  -6.543  1.00  0.00     0.029 A 
ATOM     56  N   UNL     1       8.514   1.001  -7.156  1.00  0.00    -0.354 N 
ATOM     57  N   UNL     1       6.444  -0.079  -8.930  1.00  0.00    -0.248 NA
ATOM     58  C   UNL     1       5.106   0.102 -10.837  1.00  0.00     0.031 C 
ATOM     59  C   UNL     1       9.501   2.908  -7.728  1.00  0.00     0.029 A 
ATOM     60  C   UNL     1       8.540   1.990  -8.123  1.00  0.00     0.049 A 
ATOM     61  H   UNL     1       7.919   0.216  -7.165  1.00  0.00     0.167 HD
ATOM     62  C   UNL     1       6.780   1.082  -9.615  1.00  0.00     0.074 A 
ATOM     63  C   UNL     1       5.941   1.132 -10.795  1.00  0.00     0.031 C 
ATOM     64  C   UNL     1       7.706   2.018  -9.297  1.00  0.00     0.031 A 
BRANCH  51  65
ATOM     65  C   UNL     1      10.672   0.942  -3.986  1.00  0.00    -0.014 A 
ATOM     66  C   UNL     1      11.899   0.287  -3.797  1.00  0.00     0.009 A 
ATOM     67  C   UNL     1      10.383   2.078  -3.214  1.00  0.00     0.009 A 
ATOM     68  C   UNL     1      12.798   0.735  -2.826  1.00  0.00     0.001 A 
ATOM     69  C   UNL     1      11.296   2.542  -2.265  1.00  0.00     0.001 A 
ATOM     70  C   UNL     1      12.497   1.863  -2.064  1.00  0.00     0.000 A 
ENDBRANCH  51  65
BRANCH  52  71
ATOM     71  C   UNL     1       3.720  -2.421 -10.307  1.00  0.00    -0.014 A 
ATOM     72  C   UNL     1       4.045  -2.896 -11.587  1.00  0.00     0.009 A 
ATOM     73  C   UNL     1       2.374  -2.409  -9.909  1.00  0.00     0.009 A 
ATOM     74  C   UNL     1       3.042  -3.330 -12.456  1.00  0.00     0.001 A 
ATOM     75  C   UNL     1       1.376  -2.869 -10.771  1.00  0.00     0.001 A 
ATOM     76  C   UNL     1       1.710  -3.321 -12.046  1.00  0.00     0.000 A 
ENDBRANCH  52  71
BRANCH  64  77
ATOM     77  C   UNL     1       7.904   3.154 -10.260  1.00  0.00    -0.014 A 
ATOM     78  C   UNL     1       6.978   4.202 -10.354  1.00  0.00     0.009 A 
ATOM     79  C   UNL     1       9.075   3.205 -11.034  1.00  0.00     0.009 A 
ATOM     80  C   UNL     1       7.213   5.273 -11.221  1.00  0.00     0.001 A 
ATOM     81  C   UNL     1       9.319   4.287 -11.878  1.00  0.00     0.001 A 
ATOM     82  C   UNL     1       8.385   5.318 -11.975  1.00  0.00     0.000 A 
ENDBRANCH  64  77
ENDBRANCH  38  39
ENDBRANCH  30  33
ENDBRANCH  28  29
ENDBRANCH  27  28
ENDBRANCH  26  27
ENDBRANCH  25  26
ENDBRANCH   1  25
TORSDOF 18
