REMARK SMILES O=C(CCC(=O)N1Cc2[nH]cnc2C[C@H]1C(=O)NCc1ccccc1)NCCCCCCNC(=O)c1ccc(-c2c3nc(c(-c4ccccc4)c4ccc([nH]4)c(-c4ccccc4)c4nc(c(-c5ccccc5)c5ccc2[nH]5)C=C4)C=C3)cc1
REMARK SMILES IDX 27 1 26 2 1 3 2 4 3 6 4 7 5 8 6 9 7 10 8 11 15 12 9 13 14 14
REMARK SMILES IDX 10 15 13 16 11 17 12 19 16 20 17 21 18 22 19 24 20 25 21 26
REMARK SMILES IDX 25 27 22 28 24 29 23 30 28 31 29 32 30 33 31 34 32 35 33 36
REMARK SMILES IDX 34 37 35 39 36 40 37 41 83 42 38 43 82 44 39 45 40 46 41 47
REMARK SMILES IDX 76 48 42 49 81 50 75 51 77 52 43 53 80 54 74 55 73 56 44 58
REMARK SMILES IDX 66 59 51 60 65 61 52 62 55 63 64 64 78 65 53 66 54 67 63 69
REMARK SMILES IDX 79 70 56 71 45 72 46 73 50 74 47 75 49 76 48 77 67 78 68 79
REMARK SMILES IDX 72 80 69 81 71 82 70 83 57 84 58 85 62 86 59 87 61 88 60 89
REMARK H PARENT 26 5 10 18 18 23 33 38 77 57 55 68
REMARK Flexibility Score: inf
ROOT
ATOM      1  C   UNL     1       1.387  -2.312   0.724  1.00  0.00     0.116 C 
ENDROOT
BRANCH   1   2
ATOM      2  N   UNL     1       2.312  -1.614  -0.174  1.00  0.00    -0.356 N 
ATOM      3  O   UNL     1       0.960   0.239  -0.374  1.00  0.00    -0.275 OA
ATOM      4  C   UNL     1       2.055  -0.290  -0.549  1.00  0.00     0.220 C 
ATOM      5  H   UNL     1       3.112  -2.076  -0.513  1.00  0.00     0.163 HD
BRANCH   4   6
ATOM      6  C   UNL     1       3.261   0.517  -1.084  1.00  0.00     0.110 C 
BRANCH   6   7
ATOM      7  C   UNL     1       3.561   1.799  -0.252  1.00  0.00     0.110 C 
BRANCH   7   8
ATOM      8  C   UNL     1       4.883   1.854   0.567  1.00  0.00     0.224 C 
ATOM      9  O   UNL     1       5.822   2.543   0.163  1.00  0.00    -0.275 OA
BRANCH   8  10
ATOM     10  N   UNL     1       4.973   1.150   1.766  1.00  0.00    -0.324 N 
ATOM     11  C   UNL     1       6.181   1.229   2.633  1.00  0.00     0.176 C 
ATOM     12  C   UNL     1       4.060   0.037   2.035  1.00  0.00     0.180 C 
ATOM     13  C   UNL     1       6.621  -0.167   2.957  1.00  0.00     0.058 A 
ATOM     14  C   UNL     1       4.796  -1.264   1.723  1.00  0.00     0.093 C 
ATOM     15  N   UNL     1       7.606  -0.606   3.799  1.00  0.00    -0.347 N 
ATOM     16  C   UNL     1       6.007  -1.319   2.534  1.00  0.00     0.066 A 
ATOM     17  C   UNL     1       7.550  -1.982   3.803  1.00  0.00     0.197 A 
ATOM     18  H   UNL     1       8.236  -0.045   4.307  1.00  0.00     0.167 HD
ATOM     19  N   UNL     1       6.577  -2.439   3.045  1.00  0.00    -0.242 NA
BRANCH  12  20
ATOM     20  C   UNL     1       2.935   0.259   3.068  1.00  0.00     0.243 C 
ATOM     21  O   UNL     1       1.996   1.015   2.776  1.00  0.00    -0.273 OA
ATOM     22  N   UNL     1       2.862  -0.241   4.315  1.00  0.00    -0.350 N 
ATOM     23  H   UNL     1       1.950  -0.269   4.686  1.00  0.00     0.163 HD
BRANCH  22  24
ATOM     24  C   UNL     1       3.874  -0.741   5.202  1.00  0.00     0.151 C 
BRANCH  24  25
ATOM     25  C   UNL     1       4.495   0.339   6.051  1.00  0.00    -0.029 A 
ATOM     26  C   UNL     1       5.334  -0.042   7.108  1.00  0.00     0.005 A 
ATOM     27  C   UNL     1       4.264   1.709   5.840  1.00  0.00     0.005 A 
ATOM     28  C   UNL     1       5.927   0.919   7.927  1.00  0.00     0.000 A 
ATOM     29  C   UNL     1       4.867   2.669   6.652  1.00  0.00     0.000 A 
ATOM     30  C   UNL     1       5.698   2.273   7.694  1.00  0.00     0.000 A 
ENDBRANCH  24  25
ENDBRANCH  22  24
ENDBRANCH  12  20
ENDBRANCH   8  10
ENDBRANCH   7   8
ENDBRANCH   6   7
ENDBRANCH   4   6
ENDBRANCH   1   2
BRANCH   1  31
ATOM     31  C   UNL     1       1.629  -3.812   1.021  1.00  0.00     0.021 C 
BRANCH  31  32
ATOM     32  C   UNL     1       2.830  -4.306   1.869  1.00  0.00     0.002 C 
BRANCH  32  33
ATOM     33  C   UNL     1       3.113  -3.622   3.221  1.00  0.00     0.002 C 
BRANCH  33  34
ATOM     34  C   UNL     1       2.623  -4.227   4.534  1.00  0.00     0.021 C 
BRANCH  34  35
ATOM     35  C   UNL     1       3.398  -5.430   5.065  1.00  0.00     0.116 C 
BRANCH  35  36
ATOM     36  N   UNL     1       4.816  -5.202   5.381  1.00  0.00    -0.352 N 
ATOM     37  C   UNL     1       5.814  -6.173   5.443  1.00  0.00     0.251 C 
ATOM     38  H   UNL     1       5.086  -4.274   5.566  1.00  0.00     0.163 HD
ATOM     39  O   UNL     1       6.864  -6.015   6.033  1.00  0.00    -0.269 OA
BRANCH  37  40
ATOM     40  C   UNL     1       5.533  -7.410   4.693  1.00  0.00     0.039 A 
ATOM     41  C   UNL     1       5.199  -8.597   5.351  1.00  0.00     0.014 A 
ATOM     42  C   UNL     1       5.238  -7.206   3.353  1.00  0.00     0.014 A 
ATOM     43  C   UNL     1       4.409  -9.534   4.679  1.00  0.00     0.010 A 
ATOM     44  C   UNL     1       4.338  -8.063   2.762  1.00  0.00     0.010 A 
ATOM     45  C   UNL     1       3.910  -9.236   3.400  1.00  0.00    -0.014 A 
BRANCH  45  46
ATOM     46  C   UNL     1       2.843 -10.050   2.792  1.00  0.00     0.031 A 
ATOM     47  C   UNL     1       1.716 -10.536   3.662  1.00  0.00     0.074 A 
ATOM     48  C   UNL     1       2.673 -10.188   1.458  1.00  0.00     0.049 A 
ATOM     49  N   UNL     1       1.385 -11.764   3.906  1.00  0.00    -0.248 NA
ATOM     50  C   UNL     1       0.846  -9.553   4.326  1.00  0.00     0.031 C 
ATOM     51  C   UNL     1       3.432  -9.585   0.356  1.00  0.00     0.029 A 
ATOM     52  N   UNL     1       1.652 -10.811   0.805  1.00  0.00    -0.354 N 
ATOM     53  C   UNL     1       0.192 -11.732   4.630  1.00  0.00     0.074 A 
ATOM     54  C   UNL     1      -0.047 -10.341   4.935  1.00  0.00     0.031 C 
ATOM     55  C   UNL     1       2.693  -9.616  -0.772  1.00  0.00     0.029 A 
ATOM     56  C   UNL     1       1.534 -10.447  -0.524  1.00  0.00     0.049 A 
ATOM     57  H   UNL     1       1.054 -11.461   1.240  1.00  0.00     0.167 HD
ATOM     58  C   UNL     1      -0.600 -12.835   4.790  1.00  0.00     0.031 A 
ATOM     59  C   UNL     1       0.565 -10.809  -1.391  1.00  0.00     0.031 A 
ATOM     60  C   UNL     1       0.066 -14.046   4.389  1.00  0.00     0.049 A 
ATOM     61  C   UNL     1      -0.021 -12.071  -0.892  1.00  0.00     0.074 A 
ATOM     62  C   UNL     1       1.229 -14.694   4.753  1.00  0.00     0.029 A 
ATOM     63  N   UNL     1      -0.301 -14.611   3.190  1.00  0.00    -0.354 N 
ATOM     64  N   UNL     1       0.650 -13.186  -0.817  1.00  0.00    -0.248 NA
ATOM     65  C   UNL     1      -1.223 -12.013  -0.078  1.00  0.00     0.031 C 
ATOM     66  C   UNL     1       1.769 -15.176   3.522  1.00  0.00     0.029 A 
ATOM     67  C   UNL     1       0.867 -14.839   2.510  1.00  0.00     0.049 A 
ATOM     68  H   UNL     1      -1.215 -14.812   2.883  1.00  0.00     0.167 HD
ATOM     69  C   UNL     1       0.218 -13.783   0.358  1.00  0.00     0.074 A 
ATOM     70  C   UNL     1      -1.020 -13.083   0.697  1.00  0.00     0.031 C 
ATOM     71  C   UNL     1       1.041 -14.589   1.096  1.00  0.00     0.031 A 
BRANCH  58  72
ATOM     72  C   UNL     1      -2.095 -12.820   5.008  1.00  0.00    -0.014 A 
ATOM     73  C   UNL     1      -2.755 -14.030   5.306  1.00  0.00     0.009 A 
ATOM     74  C   UNL     1      -2.908 -11.728   4.661  1.00  0.00     0.009 A 
ATOM     75  C   UNL     1      -4.146 -14.156   5.200  1.00  0.00     0.001 A 
ATOM     76  C   UNL     1      -4.303 -11.839   4.594  1.00  0.00     0.001 A 
ATOM     77  C   UNL     1      -4.920 -13.059   4.837  1.00  0.00     0.000 A 
ENDBRANCH  58  72
BRANCH  59  78
ATOM     78  C   UNL     1       0.024 -10.009  -2.503  1.00  0.00    -0.014 A 
ATOM     79  C   UNL     1      -0.660 -10.607  -3.567  1.00  0.00     0.009 A 
ATOM     80  C   UNL     1      -0.008  -8.603  -2.404  1.00  0.00     0.009 A 
ATOM     81  C   UNL     1      -1.372  -9.825  -4.486  1.00  0.00     0.001 A 
ATOM     82  C   UNL     1      -0.715  -7.823  -3.322  1.00  0.00     0.001 A 
ATOM     83  C   UNL     1      -1.408  -8.437  -4.357  1.00  0.00     0.000 A 
ENDBRANCH  59  78
BRANCH  71  84
ATOM     84  C   UNL     1       2.380 -14.985   0.514  1.00  0.00    -0.014 A 
ATOM     85  C   UNL     1       3.353 -14.039   0.143  1.00  0.00     0.009 A 
ATOM     86  C   UNL     1       2.748 -16.339   0.519  1.00  0.00     0.009 A 
ATOM     87  C   UNL     1       4.639 -14.435  -0.239  1.00  0.00     0.001 A 
ATOM     88  C   UNL     1       4.039 -16.734   0.157  1.00  0.00     0.001 A 
ATOM     89  C   UNL     1       4.982 -15.784  -0.226  1.00  0.00     0.000 A 
ENDBRANCH  71  84
ENDBRANCH  45  46
ENDBRANCH  37  40
ENDBRANCH  35  36
ENDBRANCH  34  35
ENDBRANCH  33  34
ENDBRANCH  32  33
ENDBRANCH  31  32
ENDBRANCH   1  31
TORSDOF 19
