REMARK SMILES Cc1c(C[N@H+]2CC[C@@H](C(=O)NCCCCCCNC(=O)c3ccc(-c4c5nc(c(-c6ccccc6)c6ccc([nH]6)c(-c6ccccc6)c6nc(c(-c7ccccc7)c7ccc4[nH]7)C=C6)C=C5)cc3)[C@@H]2C)cccc1[N+](=O)[O-]
REMARK SMILES IDX 14 1 13 2 12 3 11 4 9 5 10 6 8 8 5 9 6 10 69 11 7 13 70 14
REMARK SMILES IDX 4 15 3 16 1 17 2 18 74 19 71 20 73 21 72 22 75 23 76 24
REMARK SMILES IDX 77 25 15 26 16 27 17 28 18 29 19 30 20 32 21 33 22 34 68 35
REMARK SMILES IDX 23 36 67 37 24 38 25 39 26 40 61 41 27 42 66 43 60 44 62 45
REMARK SMILES IDX 28 46 65 47 59 48 58 49 29 51 51 52 36 53 50 54 37 55 40 56
REMARK SMILES IDX 49 57 63 58 38 59 39 60 48 62 64 63 41 64 30 65 31 66 35 67
REMARK SMILES IDX 32 68 34 69 33 70 52 71 53 72 57 73 54 74 56 75 55 76 42 77
REMARK SMILES IDX 43 78 47 79 44 80 46 81 45 82
REMARK H PARENT 11 7 5 12 18 31 62 50 40 61
REMARK Flexibility Score: inf
ROOT
ATOM      1  C   UNL     1      -1.988   0.701  -2.158  1.00  0.00     0.002 C 
ENDROOT
BRANCH   1   2
ATOM      2  C   UNL     1      -0.926  -0.050  -0.991  1.00  0.00     0.021 C 
BRANCH   2   3
ATOM      3  C   UNL     1      -0.976  -0.390   1.184  1.00  0.00     0.116 C 
BRANCH   3   4
ATOM      4  N   UNL     1      -2.091  -1.021   2.136  1.00  0.00    -0.356 N 
ATOM      5  C   UNL     1      -2.215  -2.157   2.866  1.00  0.00     0.229 C 
ATOM      6  O   UNL     1      -3.310  -2.329   3.416  1.00  0.00    -0.275 OA
ATOM      7  H   UNL     1      -2.884  -0.443   2.213  1.00  0.00     0.163 HD
BRANCH   5   8
ATOM      8  C   UNL     1      -1.124  -3.202   3.034  1.00  0.00     0.142 C 
ATOM      9  N   UNL     1       0.527  -3.751   1.368  1.00  0.00    -0.328 N 
ATOM     10  C   UNL     1       1.232  -3.102   2.472  1.00  0.00     0.263 C 
ATOM     11  C   UNL     1      -0.845  -4.047   1.794  1.00  0.00     0.193 C 
ATOM     12  H   UNL     1       1.012  -4.628   1.178  1.00  0.00     0.348 HD
ATOM     13  C   UNL     1       0.208  -2.648   3.502  1.00  0.00     0.081 C 
ATOM     14  C   UNL     1      -0.953  -5.546   2.082  1.00  0.00     0.076 C 
BRANCH   9  15
ATOM     15  C   UNL     1       0.650  -3.127   0.044  1.00  0.00     0.299 C 
BRANCH  15  16
ATOM     16  C   UNL     1      -0.041  -1.787  -0.096  1.00  0.00     0.016 A 
ATOM     17  C   UNL     1       2.400  -0.330   0.038  1.00  0.00     0.052 C 
ATOM     18  C   UNL     1       0.903  -0.255   0.133  1.00  0.00     0.036 A 
ATOM     19  C   UNL     1       0.022   1.304   0.351  1.00  0.00     0.272 A 
ATOM     20  C   UNL     1      -1.855  -1.734  -0.179  1.00  0.00     0.010 A 
ATOM     21  C   UNL     1      -1.784   1.348   0.333  1.00  0.00     0.086 A 
ATOM     22  C   UNL     1      -2.726  -0.166   0.046  1.00  0.00     0.008 A 
BRANCH  19  23
ATOM     23  N   UNL     1       0.709   2.567   0.574  1.00  0.00     0.062 N 
ATOM     24  O   UNL     1      -0.004   3.572   0.670  1.00  0.00    -0.258 OA
ATOM     25  O   UNL     1       1.940   2.560   0.632  1.00  0.00    -0.258 OA
ENDBRANCH  19  23
ENDBRANCH  15  16
ENDBRANCH   9  15
ENDBRANCH   5   8
ENDBRANCH   3   4
ENDBRANCH   2   3
ENDBRANCH   1   2
BRANCH   1  26
ATOM     26  C   UNL     1      -1.903   2.217  -2.416  1.00  0.00     0.002 C 
BRANCH  26  27
ATOM     27  C   UNL     1      -0.504   2.747  -2.688  1.00  0.00     0.021 C 
BRANCH  27  28
ATOM     28  C   UNL     1      -0.015   2.399  -4.073  1.00  0.00     0.116 C 
BRANCH  28  29
ATOM     29  N   UNL     1      -0.412   3.440  -5.003  1.00  0.00    -0.352 N 
ATOM     30  C   UNL     1       0.207   3.866  -6.157  1.00  0.00     0.251 C 
ATOM     31  H   UNL     1      -1.246   3.910  -4.776  1.00  0.00     0.163 HD
ATOM     32  O   UNL     1      -0.020   4.985  -6.603  1.00  0.00    -0.269 OA
BRANCH  30  33
ATOM     33  C   UNL     1       0.874   2.846  -7.003  1.00  0.00     0.039 A 
ATOM     34  C   UNL     1       0.167   2.650  -8.198  1.00  0.00     0.014 A 
ATOM     35  C   UNL     1       1.543   1.795  -6.389  1.00  0.00     0.014 A 
ATOM     36  C   UNL     1      -0.200   1.365  -8.543  1.00  0.00     0.010 A 
ATOM     37  C   UNL     1       1.069   0.531  -6.637  1.00  0.00     0.010 A 
ATOM     38  C   UNL     1       0.149   0.341  -7.672  1.00  0.00    -0.014 A 
BRANCH  38  39
ATOM     39  C   UNL     1      -0.223  -1.035  -7.890  1.00  0.00     0.031 A 
ATOM     40  C   UNL     1       0.734  -1.797  -8.699  1.00  0.00     0.074 A 
ATOM     41  C   UNL     1      -1.331  -1.548  -7.319  1.00  0.00     0.049 A 
ATOM     42  N   UNL     1       0.447  -2.862  -9.345  1.00  0.00    -0.248 NA
ATOM     43  C   UNL     1       2.112  -1.345  -8.917  1.00  0.00     0.031 C 
ATOM     44  C   UNL     1      -1.762  -2.940  -7.253  1.00  0.00     0.029 A 
ATOM     45  N   UNL     1      -2.439  -0.826  -6.875  1.00  0.00    -0.354 N 
ATOM     46  C   UNL     1       1.634  -3.394  -9.793  1.00  0.00     0.074 A 
ATOM     47  C   UNL     1       2.621  -2.366  -9.605  1.00  0.00     0.031 C 
ATOM     48  C   UNL     1      -3.097  -2.972  -7.084  1.00  0.00     0.029 A 
ATOM     49  C   UNL     1      -3.573  -1.601  -7.191  1.00  0.00     0.049 A 
ATOM     50  H   UNL     1      -2.431   0.051  -6.429  1.00  0.00     0.167 HD
ATOM     51  C   UNL     1       1.650  -4.710 -10.123  1.00  0.00     0.031 A 
ATOM     52  C   UNL     1      -4.452  -1.155  -8.139  1.00  0.00     0.031 A 
ATOM     53  C   UNL     1       0.288  -5.241 -10.108  1.00  0.00     0.049 A 
ATOM     54  C   UNL     1      -4.475  -2.049  -9.364  1.00  0.00     0.074 A 
ATOM     55  C   UNL     1      -0.442  -5.923  -9.149  1.00  0.00     0.029 A 
ATOM     56  N   UNL     1      -0.635  -4.699 -10.995  1.00  0.00    -0.354 N 
ATOM     57  N   UNL     1      -3.497  -2.838  -9.726  1.00  0.00    -0.248 NA
ATOM     58  C   UNL     1      -5.625  -2.147 -10.255  1.00  0.00     0.031 C 
ATOM     59  C   UNL     1      -1.824  -5.725  -9.435  1.00  0.00     0.029 A 
ATOM     60  C   UNL     1      -1.928  -4.961 -10.586  1.00  0.00     0.049 A 
ATOM     61  H   UNL     1      -0.398  -4.195 -11.807  1.00  0.00     0.167 HD
ATOM     62  C   UNL     1      -3.870  -3.568 -10.829  1.00  0.00     0.074 A 
ATOM     63  C   UNL     1      -5.211  -3.089 -11.121  1.00  0.00     0.031 C 
ATOM     64  C   UNL     1      -3.053  -4.508 -11.401  1.00  0.00     0.031 A 
BRANCH  51  65
ATOM     65  C   UNL     1       2.894  -5.554 -10.179  1.00  0.00    -0.014 A 
ATOM     66  C   UNL     1       2.765  -6.949 -10.062  1.00  0.00     0.009 A 
ATOM     67  C   UNL     1       4.209  -5.063 -10.267  1.00  0.00     0.009 A 
ATOM     68  C   UNL     1       3.878  -7.795  -9.985  1.00  0.00     0.001 A 
ATOM     69  C   UNL     1       5.329  -5.901 -10.175  1.00  0.00     0.001 A 
ATOM     70  C   UNL     1       5.163  -7.269 -10.029  1.00  0.00     0.000 A 
ENDBRANCH  51  65
BRANCH  52  71
ATOM     71  C   UNL     1      -4.582   0.339  -8.130  1.00  0.00    -0.014 A 
ATOM     72  C   UNL     1      -5.035   0.943  -6.933  1.00  0.00     0.009 A 
ATOM     73  C   UNL     1      -3.873   1.130  -9.042  1.00  0.00     0.009 A 
ATOM     74  C   UNL     1      -4.613   2.227  -6.571  1.00  0.00     0.001 A 
ATOM     75  C   UNL     1      -3.484   2.432  -8.687  1.00  0.00     0.001 A 
ATOM     76  C   UNL     1      -3.801   2.954  -7.433  1.00  0.00     0.000 A 
ENDBRANCH  52  71
BRANCH  64  77
ATOM     77  C   UNL     1      -3.213  -5.150 -12.772  1.00  0.00    -0.014 A 
ATOM     78  C   UNL     1      -4.202  -4.831 -13.707  1.00  0.00     0.009 A 
ATOM     79  C   UNL     1      -2.235  -6.080 -13.213  1.00  0.00     0.009 A 
ATOM     80  C   UNL     1      -4.226  -5.412 -14.985  1.00  0.00     0.001 A 
ATOM     81  C   UNL     1      -2.216  -6.613 -14.503  1.00  0.00     0.001 A 
ATOM     82  C   UNL     1      -3.224  -6.286 -15.390  1.00  0.00     0.000 A 
ENDBRANCH  64  77
ENDBRANCH  38  39
ENDBRANCH  30  33
ENDBRANCH  28  29
ENDBRANCH  27  28
ENDBRANCH  26  27
ENDBRANCH   1  26
TORSDOF 16
