REMARK SMILES C[NH2+]C[C@@H](C)C(=O)Nc1ccc(Cl)cc1C(=O)NCCCCCCNC(=O)c1ccc(-c2c3nc(c(-c4ccccc4)c4ccc([nH]4)c(-c4ccccc4)c4nc(c(-c5ccccc5)c5ccc2[nH]5)C=C4)C=C3)cc1
REMARK SMILES IDX 20 1 19 2 18 3 16 4 17 5 15 7 9 8 10 9 11 10 14 11 12 12
REMARK SMILES IDX 13 13 8 14 6 15 7 16 4 18 5 19 3 20 2 21 1 22 21 25 22 26
REMARK SMILES IDX 23 27 24 28 25 29 26 30 27 32 28 33 29 34 75 35 30 36 74 37
REMARK SMILES IDX 31 38 32 39 33 40 68 41 34 42 73 43 67 44 69 45 35 46 72 47
REMARK SMILES IDX 66 48 65 49 36 51 58 52 43 53 57 54 44 55 47 56 56 57 70 58
REMARK SMILES IDX 45 59 46 60 55 62 71 63 48 64 37 65 38 66 42 67 39 68 41 69
REMARK SMILES IDX 40 70 59 71 60 72 64 73 61 74 63 75 62 76 49 77 50 78 54 79
REMARK SMILES IDX 51 80 53 81 52 82
REMARK H PARENT 18 6 8 17 2 23 2 24 25 31 69 50 47 61
REMARK Flexibility Score: inf
ROOT
ATOM      1  C   UNL     1      -4.741   1.868  -3.903  1.00  0.00     0.021 C 
ENDROOT
BRANCH   1   2
ATOM      2  C   UNL     1      -4.545   0.425  -3.462  1.00  0.00     0.116 C 
BRANCH   2   3
ATOM      3  N   UNL     1      -4.994  -0.585  -4.378  1.00  0.00    -0.352 N 
ATOM      4  C   UNL     1      -4.552  -1.865  -4.594  1.00  0.00     0.253 C 
ATOM      5  O   UNL     1      -5.164  -2.507  -5.454  1.00  0.00    -0.269 OA
ATOM      6  H   UNL     1      -5.749  -0.312  -4.948  1.00  0.00     0.163 HD
BRANCH   4   7
ATOM      7  C   UNL     1      -3.390  -2.544  -3.924  1.00  0.00     0.064 A 
ATOM      8  C   UNL     1      -2.926  -2.437  -2.597  1.00  0.00     0.054 A 
ATOM      9  C   UNL     1      -1.993  -3.369  -2.114  1.00  0.00     0.028 A 
ATOM     10  C   UNL     1      -1.372  -4.285  -2.955  1.00  0.00     0.023 A 
ATOM     11  C   UNL     1      -2.731  -3.470  -4.767  1.00  0.00     0.036 A 
ATOM     12  C   UNL     1      -1.718  -4.306  -4.295  1.00  0.00     0.041 A 
ATOM     13  Cl  UNL     1      -0.923  -5.393  -5.361  1.00  0.00    -0.084 Cl
BRANCH   8  14
ATOM     14  N   UNL     1      -3.413  -1.528  -1.654  1.00  0.00    -0.325 N 
ATOM     15  C   UNL     1      -2.738  -0.547  -0.968  1.00  0.00     0.232 C 
ATOM     16  O   UNL     1      -3.407   0.114  -0.161  1.00  0.00    -0.274 OA
ATOM     17  H   UNL     1      -4.374  -1.601  -1.454  1.00  0.00     0.169 HD
BRANCH  15  18
ATOM     18  C   UNL     1      -1.268  -0.135  -1.232  1.00  0.00     0.130 C 
ATOM     19  C   UNL     1      -0.956   0.222  -2.686  1.00  0.00     0.024 C 
BRANCH  18  20
ATOM     20  C   UNL     1      -0.240  -1.090  -0.611  1.00  0.00     0.273 C 
BRANCH  20  21
ATOM     21  N   UNL     1       1.157  -0.643  -0.584  1.00  0.00    -0.348 N 
ATOM     22  C   UNL     1       1.388   0.508   0.270  1.00  0.00     0.330 C 
ATOM     23  H   UNL     1       1.734  -1.414  -0.249  1.00  0.00     0.346 HD
ATOM     24  H   UNL     1       1.397  -0.361  -1.535  1.00  0.00     0.346 HD
ENDBRANCH  20  21
ENDBRANCH  18  20
ENDBRANCH  15  18
ENDBRANCH   8  14
ENDBRANCH   4   7
ENDBRANCH   2   3
ENDBRANCH   1   2
BRANCH   1  25
ATOM     25  C   UNL     1      -6.185   2.351  -4.029  1.00  0.00     0.002 C 
BRANCH  25  26
ATOM     26  C   UNL     1      -7.125   2.054  -2.857  1.00  0.00     0.002 C 
BRANCH  26  27
ATOM     27  C   UNL     1      -6.658   2.468  -1.459  1.00  0.00     0.021 C 
BRANCH  27  28
ATOM     28  C   UNL     1      -6.177   3.906  -1.299  1.00  0.00     0.116 C 
BRANCH  28  29
ATOM     29  N   UNL     1      -7.169   4.887  -1.702  1.00  0.00    -0.352 N 
ATOM     30  C   UNL     1      -7.623   6.000  -1.045  1.00  0.00     0.251 C 
ATOM     31  H   UNL     1      -7.577   4.728  -2.583  1.00  0.00     0.163 HD
ATOM     32  O   UNL     1      -8.567   6.639  -1.516  1.00  0.00    -0.269 OA
BRANCH  30  33
ATOM     33  C   UNL     1      -7.019   6.434   0.234  1.00  0.00     0.039 A 
ATOM     34  C   UNL     1      -7.866   6.882   1.252  1.00  0.00     0.014 A 
ATOM     35  C   UNL     1      -5.635   6.441   0.429  1.00  0.00     0.014 A 
ATOM     36  C   UNL     1      -7.332   7.291   2.476  1.00  0.00     0.010 A 
ATOM     37  C   UNL     1      -5.108   6.781   1.676  1.00  0.00     0.010 A 
ATOM     38  C   UNL     1      -5.949   7.219   2.709  1.00  0.00    -0.014 A 
BRANCH  38  39
ATOM     39  C   UNL     1      -5.378   7.605   4.026  1.00  0.00     0.031 A 
ATOM     40  C   UNL     1      -4.445   8.782   4.138  1.00  0.00     0.074 A 
ATOM     41  C   UNL     1      -5.662   6.868   5.118  1.00  0.00     0.049 A 
ATOM     42  N   UNL     1      -3.833   9.252   5.196  1.00  0.00    -0.248 NA
ATOM     43  C   UNL     1      -4.139   9.512   2.897  1.00  0.00     0.031 C 
ATOM     44  C   UNL     1      -6.511   5.674   5.138  1.00  0.00     0.029 A 
ATOM     45  N   UNL     1      -5.260   7.010   6.423  1.00  0.00    -0.354 N 
ATOM     46  C   UNL     1      -3.057  10.313   4.746  1.00  0.00     0.074 A 
ATOM     47  C   UNL     1      -3.242  10.394   3.314  1.00  0.00     0.031 C 
ATOM     48  C   UNL     1      -6.584   5.208   6.395  1.00  0.00     0.029 A 
ATOM     49  C   UNL     1      -5.761   6.044   7.262  1.00  0.00     0.049 A 
ATOM     50  H   UNL     1      -4.669   7.736   6.729  1.00  0.00     0.167 HD
ATOM     51  C   UNL     1      -2.273  11.155   5.461  1.00  0.00     0.031 A 
ATOM     52  C   UNL     1      -5.573   5.847   8.581  1.00  0.00     0.031 A 
ATOM     53  C   UNL     1      -2.105  11.090   6.889  1.00  0.00     0.049 A 
ATOM     54  C   UNL     1      -4.710   6.807   9.352  1.00  0.00     0.074 A 
ATOM     55  C   UNL     1      -1.392  11.946   7.711  1.00  0.00     0.029 A 
ATOM     56  N   UNL     1      -2.652  10.114   7.706  1.00  0.00    -0.354 N 
ATOM     57  N   UNL     1      -4.056   7.859   8.924  1.00  0.00    -0.248 NA
ATOM     58  C   UNL     1      -4.577   6.563  10.796  1.00  0.00     0.031 C 
ATOM     59  C   UNL     1      -1.460  11.454   9.018  1.00  0.00     0.029 A 
ATOM     60  C   UNL     1      -2.269  10.330   9.019  1.00  0.00     0.049 A 
ATOM     61  H   UNL     1      -3.227   9.376   7.398  1.00  0.00     0.167 HD
ATOM     62  C   UNL     1      -3.461   8.419  10.047  1.00  0.00     0.074 A 
ATOM     63  C   UNL     1      -3.850   7.603  11.178  1.00  0.00     0.031 C 
ATOM     64  C   UNL     1      -2.665   9.512  10.136  1.00  0.00     0.031 A 
BRANCH  51  65
ATOM     65  C   UNL     1      -1.522  12.221   4.711  1.00  0.00    -0.014 A 
ATOM     66  C   UNL     1      -2.186  13.317   4.137  1.00  0.00     0.009 A 
ATOM     67  C   UNL     1      -0.122  12.159   4.633  1.00  0.00     0.009 A 
ATOM     68  C   UNL     1      -1.464  14.313   3.475  1.00  0.00     0.001 A 
ATOM     69  C   UNL     1       0.599  13.171   3.996  1.00  0.00     0.001 A 
ATOM     70  C   UNL     1      -0.073  14.243   3.411  1.00  0.00     0.000 A 
ENDBRANCH  51  65
BRANCH  52  71
ATOM     71  C   UNL     1      -6.217   4.694   9.266  1.00  0.00    -0.014 A 
ATOM     72  C   UNL     1      -7.240   4.897  10.205  1.00  0.00     0.009 A 
ATOM     73  C   UNL     1      -5.787   3.383   9.006  1.00  0.00     0.009 A 
ATOM     74  C   UNL     1      -7.792   3.815  10.897  1.00  0.00     0.001 A 
ATOM     75  C   UNL     1      -6.364   2.301   9.674  1.00  0.00     0.001 A 
ATOM     76  C   UNL     1      -7.356   2.519  10.628  1.00  0.00     0.000 A 
ENDBRANCH  52  71
BRANCH  64  77
ATOM     77  C   UNL     1      -2.199   9.914  11.507  1.00  0.00    -0.014 A 
ATOM     78  C   UNL     1      -1.258   9.151  12.216  1.00  0.00     0.009 A 
ATOM     79  C   UNL     1      -2.694  11.092  12.088  1.00  0.00     0.009 A 
ATOM     80  C   UNL     1      -0.856   9.537  13.496  1.00  0.00     0.001 A 
ATOM     81  C   UNL     1      -2.266  11.494  13.354  1.00  0.00     0.001 A 
ATOM     82  C   UNL     1      -1.357  10.710  14.062  1.00  0.00     0.000 A 
ENDBRANCH  64  77
ENDBRANCH  38  39
ENDBRANCH  30  33
ENDBRANCH  28  29
ENDBRANCH  27  28
ENDBRANCH  26  27
ENDBRANCH  25  26
ENDBRANCH   1  25
TORSDOF 17
