REMARK SMILES CC1(C)[C@H](C#N)C(SCC(=O)NCCCCCCNC(=O)c2ccc(-c3c4nc(c(-c5ccccc5)c5ccc([nH]5)c(-c5ccccc5)c5nc(c(-c6ccccc6)c6ccc3[nH]6)C=C5)C=C4)cc2)=NC(=O)[C@@H]1C#N
REMARK SMILES IDX 15 1 14 2 13 3 12 4 10 5 11 6 9 8 8 9 7 10 1 11 2 12 3 13
REMARK SMILES IDX 4 14 73 15 71 16 70 17 72 18 5 19 6 20 74 21 75 22 16 23
REMARK SMILES IDX 17 24 18 25 19 26 20 27 21 29 22 30 23 31 69 32 24 33 68 34
REMARK SMILES IDX 25 35 26 36 27 37 62 38 28 39 67 40 61 41 63 42 29 43 66 44
REMARK SMILES IDX 60 45 59 46 30 48 52 49 37 50 51 51 38 52 41 53 50 54 64 55
REMARK SMILES IDX 39 56 40 57 49 59 65 60 42 61 31 62 32 63 36 64 33 65 35 66
REMARK SMILES IDX 34 67 53 68 54 69 58 70 55 71 57 72 56 73 43 74 44 75 48 76
REMARK SMILES IDX 45 77 47 78 46 79
REMARK H PARENT 12 7 19 28 63 47 41 58
REMARK Flexibility Score: inf
ROOT
ATOM      1  C   UNL     1       3.279   4.704   3.429  1.00  0.00     0.002 C 
ENDROOT
BRANCH   1   2
ATOM      2  C   UNL     1       1.869   4.828   2.834  1.00  0.00     0.021 C 
BRANCH   2   3
ATOM      3  C   UNL     1       1.625   6.167   2.133  1.00  0.00     0.116 C 
BRANCH   3   4
ATOM      4  N   UNL     1       2.481   6.292   0.970  1.00  0.00    -0.355 N 
ATOM      5  C   UNL     1       2.185   6.248  -0.360  1.00  0.00     0.230 C 
ATOM      6  O   UNL     1       3.122   6.371  -1.151  1.00  0.00    -0.274 OA
ATOM      7  H   UNL     1       3.434   6.432   1.174  1.00  0.00     0.163 HD
BRANCH   5   8
ATOM      8  C   UNL     1       0.751   6.174  -0.840  1.00  0.00     0.176 C 
BRANCH   8   9
ATOM      9  S   UNL     1      -0.171   4.755  -0.218  1.00  0.00    -0.099 SA
BRANCH   9  10
ATOM     10  C   UNL     1       0.659   3.361  -0.907  1.00  0.00     0.095 C 
ATOM     11  C   UNL     1       1.387  -0.037   0.074  1.00  0.00     0.015 C 
ATOM     12  C   UNL     1       0.754   0.755  -1.104  1.00  0.00     0.012 C 
ATOM     13  C   UNL     1      -0.288  -0.261  -1.704  1.00  0.00     0.015 C 
ATOM     14  C   UNL     1       0.067   2.042  -0.490  1.00  0.00     0.156 C 
ATOM     15  C   UNL     1       1.879   1.075  -2.146  1.00  0.00     0.191 C 
ATOM     16  C   UNL     1       2.340   2.516  -2.280  1.00  0.00     0.264 C 
ATOM     17  N   UNL     1       1.649   3.542  -1.698  1.00  0.00    -0.209 NA
ATOM     18  O   UNL     1       3.353   2.751  -2.936  1.00  0.00    -0.271 OA
BRANCH  14  19
ATOM     19  C   UNL     1      -1.362   2.071  -1.008  1.00  0.00     0.073 C 
ATOM     20  N   UNL     1      -2.547   2.096  -1.438  1.00  0.00    -0.198 NA
ENDBRANCH  14  19
BRANCH  15  21
ATOM     21  C   UNL     1       1.609   0.585  -3.512  1.00  0.00     0.076 C 
ATOM     22  N   UNL     1       1.375   0.143  -4.562  1.00  0.00    -0.197 NA
ENDBRANCH  15  21
ENDBRANCH   9  10
ENDBRANCH   8   9
ENDBRANCH   5   8
ENDBRANCH   3   4
ENDBRANCH   2   3
ENDBRANCH   1   2
BRANCH   1  23
ATOM     23  C   UNL     1       3.643   5.803   4.432  1.00  0.00     0.002 C 
BRANCH  23  24
ATOM     24  C   UNL     1       2.683   5.919   5.618  1.00  0.00     0.021 C 
BRANCH  24  25
ATOM     25  C   UNL     1       2.584   4.653   6.459  1.00  0.00     0.116 C 
BRANCH  25  26
ATOM     26  N   UNL     1       3.853   4.319   7.087  1.00  0.00    -0.352 N 
ATOM     27  C   UNL     1       4.141   4.135   8.415  1.00  0.00     0.251 C 
ATOM     28  H   UNL     1       4.613   4.210   6.471  1.00  0.00     0.163 HD
ATOM     29  O   UNL     1       5.306   4.079   8.794  1.00  0.00    -0.269 OA
BRANCH  27  30
ATOM     30  C   UNL     1       3.039   4.024   9.392  1.00  0.00     0.039 A 
ATOM     31  C   UNL     1       3.133   4.716  10.601  1.00  0.00     0.014 A 
ATOM     32  C   UNL     1       1.913   3.245   9.111  1.00  0.00     0.014 A 
ATOM     33  C   UNL     1       2.070   4.672  11.503  1.00  0.00     0.010 A 
ATOM     34  C   UNL     1       0.820   3.275   9.970  1.00  0.00     0.010 A 
ATOM     35  C   UNL     1       0.889   3.983  11.178  1.00  0.00    -0.014 A 
BRANCH  35  36
ATOM     36  C   UNL     1      -0.283   3.999  12.089  1.00  0.00     0.031 A 
ATOM     37  C   UNL     1      -0.792   2.720  12.694  1.00  0.00     0.074 A 
ATOM     38  C   UNL     1      -0.922   5.160  12.331  1.00  0.00     0.049 A 
ATOM     39  N   UNL     1      -1.823   2.532  13.480  1.00  0.00    -0.248 NA
ATOM     40  C   UNL     1      -0.065   1.486  12.354  1.00  0.00     0.031 C 
ATOM     41  C   UNL     1      -0.548   6.465  11.780  1.00  0.00     0.029 A 
ATOM     42  N   UNL     1      -2.022   5.431  13.105  1.00  0.00    -0.354 N 
ATOM     43  C   UNL     1      -1.871   1.164  13.718  1.00  0.00     0.074 A 
ATOM     44  C   UNL     1      -0.806   0.562  12.946  1.00  0.00     0.031 C 
ATOM     45  C   UNL     1      -1.380   7.401  12.263  1.00  0.00     0.029 A 
ATOM     46  C   UNL     1      -2.377   6.759  13.112  1.00  0.00     0.049 A 
ATOM     47  H   UNL     1      -2.511   4.740  13.608  1.00  0.00     0.167 HD
ATOM     48  C   UNL     1      -2.713   0.472  14.522  1.00  0.00     0.031 A 
ATOM     49  C   UNL     1      -3.398   7.389  13.724  1.00  0.00     0.031 A 
ATOM     50  C   UNL     1      -3.777   1.072  15.284  1.00  0.00     0.049 A 
ATOM     51  C   UNL     1      -4.348   6.589  14.573  1.00  0.00     0.074 A 
ATOM     52  C   UNL     1      -4.654   0.462  16.163  1.00  0.00     0.029 A 
ATOM     53  N   UNL     1      -4.114   2.416  15.248  1.00  0.00    -0.354 N 
ATOM     54  N   UNL     1      -4.337   5.307  14.845  1.00  0.00    -0.248 NA
ATOM     55  C   UNL     1      -5.447   7.329  15.208  1.00  0.00     0.031 C 
ATOM     56  C   UNL     1      -5.571   1.423  16.601  1.00  0.00     0.029 A 
ATOM     57  C   UNL     1      -5.212   2.648  16.061  1.00  0.00     0.049 A 
ATOM     58  H   UNL     1      -3.644   3.103  14.723  1.00  0.00     0.167 HD
ATOM     59  C   UNL     1      -5.404   5.093  15.709  1.00  0.00     0.074 A 
ATOM     60  C   UNL     1      -6.027   6.381  15.930  1.00  0.00     0.031 C 
ATOM     61  C   UNL     1      -5.827   3.934  16.271  1.00  0.00     0.031 A 
BRANCH  48  62
ATOM     62  C   UNL     1      -2.529  -1.020  14.602  1.00  0.00    -0.014 A 
ATOM     63  C   UNL     1      -1.388  -1.588  15.194  1.00  0.00     0.009 A 
ATOM     64  C   UNL     1      -3.530  -1.873  14.110  1.00  0.00     0.009 A 
ATOM     65  C   UNL     1      -1.236  -2.975  15.252  1.00  0.00     0.001 A 
ATOM     66  C   UNL     1      -3.392  -3.259  14.204  1.00  0.00     0.001 A 
ATOM     67  C   UNL     1      -2.240  -3.809  14.763  1.00  0.00     0.000 A 
ENDBRANCH  48  62
BRANCH  49  68
ATOM     68  C   UNL     1      -3.578   8.857  13.560  1.00  0.00    -0.014 A 
ATOM     69  C   UNL     1      -3.412   9.726  14.649  1.00  0.00     0.009 A 
ATOM     70  C   UNL     1      -3.937   9.396  12.314  1.00  0.00     0.009 A 
ATOM     71  C   UNL     1      -3.635  11.097  14.504  1.00  0.00     0.001 A 
ATOM     72  C   UNL     1      -4.123  10.772  12.162  1.00  0.00     0.001 A 
ATOM     73  C   UNL     1      -3.986  11.619  13.260  1.00  0.00     0.000 A 
ENDBRANCH  49  68
BRANCH  61  74
ATOM     74  C   UNL     1      -6.995   4.010  17.218  1.00  0.00    -0.014 A 
ATOM     75  C   UNL     1      -8.291   4.306  16.767  1.00  0.00     0.009 A 
ATOM     76  C   UNL     1      -6.796   3.741  18.582  1.00  0.00     0.009 A 
ATOM     77  C   UNL     1      -9.355   4.371  17.670  1.00  0.00     0.001 A 
ATOM     78  C   UNL     1      -7.868   3.767  19.475  1.00  0.00     0.001 A 
ATOM     79  C   UNL     1      -9.144   4.095  19.020  1.00  0.00     0.000 A 
ENDBRANCH  61  74
ENDBRANCH  35  36
ENDBRANCH  27  30
ENDBRANCH  25  26
ENDBRANCH  24  25
ENDBRANCH  23  24
ENDBRANCH   1  23
TORSDOF 17
