REMARK SMILES CC1=Nc2c(c(C)nn2-c2ccc(F)cc2)[C@H](c2ccc(C(=O)NCCCCCCNC(=O)c3ccc(-c4c5nc(c(-c6ccccc6)c6ccc([nH]6)c(-c6ccccc6)c6nc(c(-c7ccccc7)c7ccc4[nH]7)C=C6)C=C5)cc3)cc2)S1
REMARK SMILES IDX 27 1 26 2 25 3 24 4 22 5 23 6 21 8 18 9 19 10 83 11 20 12
REMARK SMILES IDX 82 13 17 14 1 15 2 16 3 17 84 18 4 19 5 20 9 21 6 22 8 23
REMARK SMILES IDX 7 24 10 25 11 26 16 27 12 28 15 29 13 30 14 31 28 32 29 33
REMARK SMILES IDX 30 34 31 35 32 36 33 38 34 39 35 40 81 41 36 42 80 43 37 44
REMARK SMILES IDX 38 45 39 46 74 47 40 48 79 49 73 50 75 51 41 52 78 53 72 54
REMARK SMILES IDX 71 55 42 57 64 58 49 59 63 60 50 61 53 62 62 63 76 64 51 65
REMARK SMILES IDX 52 66 61 68 77 69 54 70 43 71 44 72 48 73 45 74 47 75 46 76
REMARK SMILES IDX 65 77 66 78 70 79 67 80 69 81 68 82 55 83 56 84 60 85 57 86
REMARK SMILES IDX 59 87 58 88
REMARK H PARENT 24 7 31 37 75 56 53 67
REMARK Flexibility Score: inf
ROOT
ATOM      1  C   UNL     1      -8.063  -2.689  -0.051  1.00  0.00     0.002 C 
ENDROOT
BRANCH   1   2
ATOM      2  C   UNL     1      -6.619  -2.240  -0.308  1.00  0.00     0.021 C 
BRANCH   2   3
ATOM      3  C   UNL     1      -5.906  -3.074  -1.373  1.00  0.00     0.116 C 
BRANCH   3   4
ATOM      4  N   UNL     1      -6.391  -2.708  -2.689  1.00  0.00    -0.352 N 
ATOM      5  C   UNL     1      -5.806  -2.034  -3.726  1.00  0.00     0.251 C 
ATOM      6  O   UNL     1      -6.465  -1.849  -4.748  1.00  0.00    -0.269 OA
ATOM      7  H   UNL     1      -7.314  -2.999  -2.870  1.00  0.00     0.163 HD
BRANCH   5   8
ATOM      8  C   UNL     1      -4.389  -1.597  -3.690  1.00  0.00     0.039 A 
ATOM      9  C   UNL     1      -1.650  -0.897  -3.786  1.00  0.00    -0.030 A 
ATOM     10  C   UNL     1      -2.321  -1.349  -4.935  1.00  0.00     0.006 A 
ATOM     11  C   UNL     1      -2.392  -0.763  -2.599  1.00  0.00     0.006 A 
ATOM     12  C   UNL     1      -3.675  -1.684  -4.889  1.00  0.00     0.014 A 
ATOM     13  C   UNL     1      -3.752  -1.088  -2.558  1.00  0.00     0.014 A 
BRANCH   9  14
ATOM     14  C   UNL     1      -0.186  -0.497  -3.901  1.00  0.00     0.119 C 
ATOM     15  C   UNL     1       1.119  -0.119   0.011  1.00  0.00     0.075 C 
ATOM     16  C   UNL     1       0.808   0.238  -1.420  1.00  0.00     0.074 C 
ATOM     17  N   UNL     1       0.573   1.481  -1.699  1.00  0.00    -0.227 NA
ATOM     18  S   UNL     1       0.860  -1.113  -2.544  1.00  0.00    -0.098 SA
ATOM     19  C   UNL     1       0.216   1.800  -2.967  1.00  0.00     0.161 A 
ATOM     20  C   UNL     1      -0.184   0.979  -3.995  1.00  0.00     0.038 A 
ATOM     21  N   UNL     1       0.085   3.098  -3.436  1.00  0.00    -0.215 N 
ATOM     22  C   UNL     1      -0.587   1.859  -5.034  1.00  0.00     0.067 A 
ATOM     23  N   UNL     1      -0.526   3.139  -4.647  1.00  0.00    -0.171 NA
ATOM     24  C   UNL     1      -1.078   1.525  -6.395  1.00  0.00     0.069 C 
BRANCH  21  25
ATOM     25  C   UNL     1       0.547   4.282  -2.815  1.00  0.00     0.067 A 
ATOM     26  C   UNL     1       1.767   4.268  -2.121  1.00  0.00     0.031 A 
ATOM     27  C   UNL     1      -0.204   5.459  -2.913  1.00  0.00     0.031 A 
ATOM     28  C   UNL     1       2.232   5.435  -1.520  1.00  0.00     0.041 A 
ATOM     29  C   UNL     1       0.245   6.610  -2.263  1.00  0.00     0.041 A 
ATOM     30  C   UNL     1       1.459   6.589  -1.581  1.00  0.00     0.123 A 
ATOM     31  F   UNL     1       1.894   7.700  -0.974  1.00  0.00    -0.207 F 
ENDBRANCH  21  25
ENDBRANCH   9  14
ENDBRANCH   5   8
ENDBRANCH   3   4
ENDBRANCH   2   3
ENDBRANCH   1   2
BRANCH   1  32
ATOM     32  C   UNL     1      -8.236  -4.165   0.347  1.00  0.00     0.002 C 
BRANCH  32  33
ATOM     33  C   UNL     1      -7.350  -4.669   1.498  1.00  0.00     0.021 C 
BRANCH  33  34
ATOM     34  C   UNL     1      -7.699  -4.059   2.844  1.00  0.00     0.116 C 
BRANCH  34  35
ATOM     35  N   UNL     1      -9.023  -4.475   3.318  1.00  0.00    -0.352 N 
ATOM     36  C   UNL     1      -9.731  -4.042   4.428  1.00  0.00     0.251 C 
ATOM     37  H   UNL     1      -9.473  -5.159   2.770  1.00  0.00     0.163 HD
ATOM     38  O   UNL     1     -10.629  -4.707   4.909  1.00  0.00    -0.269 OA
BRANCH  36  39
ATOM     39  C   UNL     1      -9.380  -2.732   5.002  1.00  0.00     0.039 A 
ATOM     40  C   UNL     1      -9.385  -2.480   6.377  1.00  0.00     0.014 A 
ATOM     41  C   UNL     1      -9.004  -1.747   4.100  1.00  0.00     0.014 A 
ATOM     42  C   UNL     1      -8.953  -1.233   6.822  1.00  0.00     0.010 A 
ATOM     43  C   UNL     1      -8.334  -0.652   4.547  1.00  0.00     0.010 A 
ATOM     44  C   UNL     1      -8.426  -0.329   5.889  1.00  0.00    -0.014 A 
BRANCH  44  45
ATOM     45  C   UNL     1      -7.910   0.976   6.259  1.00  0.00     0.031 A 
ATOM     46  C   UNL     1      -6.768   0.945   7.199  1.00  0.00     0.074 A 
ATOM     47  C   UNL     1      -8.258   2.094   5.584  1.00  0.00     0.049 A 
ATOM     48  N   UNL     1      -6.757   1.329   8.430  1.00  0.00    -0.248 NA
ATOM     49  C   UNL     1      -5.528   0.281   6.765  1.00  0.00     0.031 C 
ATOM     50  C   UNL     1      -9.107   2.223   4.388  1.00  0.00     0.029 A 
ATOM     51  N   UNL     1      -7.801   3.358   5.753  1.00  0.00    -0.354 N 
ATOM     52  C   UNL     1      -5.452   1.151   8.871  1.00  0.00     0.074 A 
ATOM     53  C   UNL     1      -4.802   0.326   7.884  1.00  0.00     0.031 C 
ATOM     54  C   UNL     1      -8.899   3.428   3.812  1.00  0.00     0.029 A 
ATOM     55  C   UNL     1      -8.052   4.214   4.689  1.00  0.00     0.049 A 
ATOM     56  H   UNL     1      -7.329   3.647   6.567  1.00  0.00     0.167 HD
ATOM     57  C   UNL     1      -4.936   1.919   9.870  1.00  0.00     0.031 A 
ATOM     58  C   UNL     1      -7.564   5.468   4.530  1.00  0.00     0.031 A 
ATOM     59  C   UNL     1      -5.970   2.654  10.559  1.00  0.00     0.049 A 
ATOM     60  C   UNL     1      -7.127   5.934   5.869  1.00  0.00     0.074 A 
ATOM     61  C   UNL     1      -7.109   2.304  11.259  1.00  0.00     0.029 A 
ATOM     62  N   UNL     1      -6.135   3.975  10.211  1.00  0.00    -0.354 N 
ATOM     63  N   UNL     1      -7.954   6.136   6.856  1.00  0.00    -0.248 NA
ATOM     64  C   UNL     1      -5.744   5.696   6.254  1.00  0.00     0.031 C 
ATOM     65  C   UNL     1      -8.089   3.260  10.857  1.00  0.00     0.029 A 
ATOM     66  C   UNL     1      -7.475   4.181  10.005  1.00  0.00     0.049 A 
ATOM     67  H   UNL     1      -5.422   4.649  10.126  1.00  0.00     0.167 HD
ATOM     68  C   UNL     1      -7.310   5.617   7.971  1.00  0.00     0.074 A 
ATOM     69  C   UNL     1      -5.916   5.448   7.556  1.00  0.00     0.031 C 
ATOM     70  C   UNL     1      -8.014   5.096   9.021  1.00  0.00     0.031 A 
BRANCH  57  71
ATOM     71  C   UNL     1      -3.489   2.337   9.944  1.00  0.00    -0.014 A 
ATOM     72  C   UNL     1      -3.070   3.104  11.046  1.00  0.00     0.009 A 
ATOM     73  C   UNL     1      -2.599   2.254   8.857  1.00  0.00     0.009 A 
ATOM     74  C   UNL     1      -1.865   3.816  11.021  1.00  0.00     0.001 A 
ATOM     75  C   UNL     1      -1.376   2.928   8.846  1.00  0.00     0.001 A 
ATOM     76  C   UNL     1      -1.023   3.735   9.916  1.00  0.00     0.000 A 
ENDBRANCH  57  71
BRANCH  58  77
ATOM     77  C   UNL     1      -7.181   6.147   3.272  1.00  0.00    -0.014 A 
ATOM     78  C   UNL     1      -7.010   7.538   3.218  1.00  0.00     0.009 A 
ATOM     79  C   UNL     1      -6.727   5.391   2.174  1.00  0.00     0.009 A 
ATOM     80  C   UNL     1      -6.380   8.145   2.120  1.00  0.00     0.001 A 
ATOM     81  C   UNL     1      -6.099   5.995   1.079  1.00  0.00     0.001 A 
ATOM     82  C   UNL     1      -5.914   7.372   1.058  1.00  0.00     0.000 A 
ENDBRANCH  58  77
BRANCH  70  83
ATOM     83  C   UNL     1      -9.517   5.264   9.024  1.00  0.00    -0.014 A 
ATOM     84  C   UNL     1     -10.354   4.703   8.042  1.00  0.00     0.009 A 
ATOM     85  C   UNL     1     -10.118   5.849  10.148  1.00  0.00     0.009 A 
ATOM     86  C   UNL     1     -11.748   4.743   8.175  1.00  0.00     0.001 A 
ATOM     87  C   UNL     1     -11.507   5.872  10.290  1.00  0.00     0.001 A 
ATOM     88  C   UNL     1     -12.322   5.322   9.303  1.00  0.00     0.000 A 
ENDBRANCH  70  83
ENDBRANCH  44  45
ENDBRANCH  36  39
ENDBRANCH  34  35
ENDBRANCH  33  34
ENDBRANCH  32  33
ENDBRANCH   1  32
TORSDOF 15
