REMARK SMILES CCOc1cc2c(cc1C(=O)NCCCCCCNC(=O)c1ccc(-c3c4nc(c(-c5ccccc5)c5ccc([nH]5)c(-c5ccccc5)c5nc(c(-c6ccccc6)c6ccc3[nH]6)C=C5)C=C4)cc1)CCC2
REMARK SMILES IDX 15 1 14 2 13 3 12 4 10 5 11 6 9 8 4 9 5 10 6 11 8 12 7 13
REMARK SMILES IDX 72 14 70 15 71 16 3 17 2 18 1 19 16 20 17 21 18 22 19 23
REMARK SMILES IDX 20 24 21 26 22 27 23 28 69 29 24 30 68 31 25 32 26 33 27 34
REMARK SMILES IDX 62 35 28 36 67 37 61 38 63 39 29 40 66 41 60 42 59 43 30 45
REMARK SMILES IDX 52 46 37 47 51 48 38 49 41 50 50 51 64 52 39 53 40 54 49 56
REMARK SMILES IDX 65 57 42 58 31 59 32 60 36 61 33 62 35 63 34 64 53 65 54 66
REMARK SMILES IDX 58 67 55 68 57 69 56 70 43 71 44 72 48 73 45 74 47 75 46 76
REMARK H PARENT 12 7 19 25 63 44 41 55
REMARK Flexibility Score: inf
ROOT
ATOM      1  C   UNL     1      -2.246  -2.803   4.338  1.00  0.00     0.002 C 
ENDROOT
BRANCH   1   2
ATOM      2  C   UNL     1      -1.008  -2.817   3.449  1.00  0.00     0.021 C 
BRANCH   2   3
ATOM      3  C   UNL     1      -0.094  -1.604   3.486  1.00  0.00     0.116 C 
BRANCH   3   4
ATOM      4  N   UNL     1       0.678  -1.388   4.668  1.00  0.00    -0.352 N 
ATOM      5  C   UNL     1       1.916  -0.797   4.783  1.00  0.00     0.255 C 
ATOM      6  O   UNL     1       2.349  -0.696   5.936  1.00  0.00    -0.269 OA
ATOM      7  H   UNL     1       0.272  -1.702   5.508  1.00  0.00     0.163 HD
BRANCH   5   8
ATOM      8  C   UNL     1       2.801  -0.346   3.639  1.00  0.00     0.082 A 
ATOM      9  C   UNL     1       2.456   0.174   2.360  1.00  0.00     0.132 A 
ATOM     10  C   UNL     1       3.458   0.656   1.493  1.00  0.00     0.051 A 
ATOM     11  C   UNL     1       4.785   0.586   1.861  1.00  0.00    -0.041 A 
ATOM     12  C   UNL     1       4.183  -0.398   3.976  1.00  0.00     0.021 A 
ATOM     13  C   UNL     1       5.148   0.073   3.097  1.00  0.00    -0.044 A 
ATOM     14  C   UNL     1       5.983   1.011   1.075  1.00  0.00     0.036 C 
ATOM     15  C   UNL     1       6.632   0.140   3.282  1.00  0.00     0.036 C 
ATOM     16  C   UNL     1       7.018   1.160   2.196  1.00  0.00     0.010 C 
BRANCH   9  17
ATOM     17  O   UNL     1       1.165   0.385   1.932  1.00  0.00    -0.493 OA
BRANCH  17  18
ATOM     18  C   UNL     1       0.805  -0.398   0.771  1.00  0.00     0.226 C 
ATOM     19  C   UNL     1       0.948   0.314  -0.561  1.00  0.00     0.049 C 
ENDBRANCH  17  18
ENDBRANCH   9  17
ENDBRANCH   5   8
ENDBRANCH   3   4
ENDBRANCH   2   3
ENDBRANCH   1   2
BRANCH   1  20
ATOM     20  C   UNL     1      -3.157  -1.577   4.255  1.00  0.00     0.002 C 
BRANCH  20  21
ATOM     21  C   UNL     1      -3.604  -1.129   2.861  1.00  0.00     0.021 C 
BRANCH  21  22
ATOM     22  C   UNL     1      -4.226  -2.200   1.970  1.00  0.00     0.116 C 
BRANCH  22  23
ATOM     23  N   UNL     1      -5.391  -2.830   2.565  1.00  0.00    -0.352 N 
ATOM     24  C   UNL     1      -6.679  -2.932   2.097  1.00  0.00     0.251 C 
ATOM     25  H   UNL     1      -5.234  -3.251   3.441  1.00  0.00     0.163 HD
ATOM     26  O   UNL     1      -7.563  -3.380   2.817  1.00  0.00    -0.269 OA
BRANCH  24  27
ATOM     27  C   UNL     1      -7.012  -2.474   0.730  1.00  0.00     0.039 A 
ATOM     28  C   UNL     1      -8.144  -1.674   0.546  1.00  0.00     0.014 A 
ATOM     29  C   UNL     1      -6.223  -2.832  -0.366  1.00  0.00     0.014 A 
ATOM     30  C   UNL     1      -8.438  -1.167  -0.722  1.00  0.00     0.010 A 
ATOM     31  C   UNL     1      -6.479  -2.272  -1.616  1.00  0.00     0.010 A 
ATOM     32  C   UNL     1      -7.582  -1.424  -1.804  1.00  0.00    -0.014 A 
BRANCH  32  33
ATOM     33  C   UNL     1      -7.796  -0.785  -3.129  1.00  0.00     0.031 A 
ATOM     34  C   UNL     1      -8.091  -1.625  -4.341  1.00  0.00     0.074 A 
ATOM     35  C   UNL     1      -7.636   0.548  -3.255  1.00  0.00     0.049 A 
ATOM     36  N   UNL     1      -8.204  -1.256  -5.592  1.00  0.00    -0.248 NA
ATOM     37  C   UNL     1      -8.261  -3.071  -4.124  1.00  0.00     0.031 C 
ATOM     38  C   UNL     1      -7.322   1.473  -2.163  1.00  0.00     0.029 A 
ATOM     39  N   UNL     1      -7.699   1.357  -4.363  1.00  0.00    -0.354 N 
ATOM     40  C   UNL     1      -8.432  -2.423  -6.312  1.00  0.00     0.074 A 
ATOM     41  C   UNL     1      -8.411  -3.515  -5.364  1.00  0.00     0.031 C 
ATOM     42  C   UNL     1      -7.237   2.720  -2.652  1.00  0.00     0.029 A 
ATOM     43  C   UNL     1      -7.435   2.680  -4.096  1.00  0.00     0.049 A 
ATOM     44  H   UNL     1      -7.912   1.021  -5.264  1.00  0.00     0.167 HD
ATOM     45  C   UNL     1      -8.646  -2.568  -7.641  1.00  0.00     0.031 A 
ATOM     46  C   UNL     1      -7.340   3.739  -4.923  1.00  0.00     0.031 A 
ATOM     47  C   UNL     1      -8.682  -1.478  -8.580  1.00  0.00     0.049 A 
ATOM     48  C   UNL     1      -7.546   3.537  -6.400  1.00  0.00     0.074 A 
ATOM     49  C   UNL     1      -8.969  -1.520  -9.934  1.00  0.00     0.029 A 
ATOM     50  N   UNL     1      -8.410  -0.156  -8.269  1.00  0.00    -0.354 N 
ATOM     51  N   UNL     1      -7.847   2.440  -7.051  1.00  0.00    -0.248 NA
ATOM     52  C   UNL     1      -7.400   4.723  -7.257  1.00  0.00     0.031 C 
ATOM     53  C   UNL     1      -8.800  -0.235 -10.456  1.00  0.00     0.029 A 
ATOM     54  C   UNL     1      -8.477   0.620  -9.415  1.00  0.00     0.049 A 
ATOM     55  H   UNL     1      -8.201   0.182  -7.369  1.00  0.00     0.167 HD
ATOM     56  C   UNL     1      -7.957   2.810  -8.386  1.00  0.00     0.074 A 
ATOM     57  C   UNL     1      -7.711   4.235  -8.449  1.00  0.00     0.031 C 
ATOM     58  C   UNL     1      -8.235   2.038  -9.463  1.00  0.00     0.031 A 
BRANCH  45  59
ATOM     59  C   UNL     1      -8.840  -3.960  -8.176  1.00  0.00    -0.014 A 
ATOM     60  C   UNL     1     -10.009  -4.691  -7.913  1.00  0.00     0.009 A 
ATOM     61  C   UNL     1      -7.868  -4.517  -9.023  1.00  0.00     0.009 A 
ATOM     62  C   UNL     1     -10.188  -5.961  -8.468  1.00  0.00     0.001 A 
ATOM     63  C   UNL     1      -8.062  -5.773  -9.598  1.00  0.00     0.001 A 
ATOM     64  C   UNL     1      -9.219  -6.497  -9.315  1.00  0.00     0.000 A 
ENDBRANCH  45  59
BRANCH  46  65
ATOM     65  C   UNL     1      -7.013   5.089  -4.390  1.00  0.00    -0.014 A 
ATOM     66  C   UNL     1      -7.953   6.130  -4.454  1.00  0.00     0.009 A 
ATOM     67  C   UNL     1      -5.742   5.358  -3.856  1.00  0.00     0.009 A 
ATOM     68  C   UNL     1      -7.614   7.418  -4.035  1.00  0.00     0.001 A 
ATOM     69  C   UNL     1      -5.418   6.639  -3.404  1.00  0.00     0.001 A 
ATOM     70  C   UNL     1      -6.348   7.671  -3.508  1.00  0.00     0.000 A 
ENDBRANCH  46  65
BRANCH  58  71
ATOM     71  C   UNL     1      -8.326   2.721 -10.799  1.00  0.00    -0.014 A 
ATOM     72  C   UNL     1      -7.183   3.217 -11.446  1.00  0.00     0.009 A 
ATOM     73  C   UNL     1      -9.570   2.828 -11.441  1.00  0.00     0.009 A 
ATOM     74  C   UNL     1      -7.290   3.833 -12.694  1.00  0.00     0.001 A 
ATOM     75  C   UNL     1      -9.669   3.415 -12.703  1.00  0.00     0.001 A 
ATOM     76  C   UNL     1      -8.530   3.925 -13.324  1.00  0.00     0.000 A 
ENDBRANCH  58  71
ENDBRANCH  32  33
ENDBRANCH  24  27
ENDBRANCH  22  23
ENDBRANCH  21  22
ENDBRANCH  20  21
ENDBRANCH   1  20
TORSDOF 15
