REMARK SMILES O=C(NCCCCCCNC(=O)[C@H]1C[C@H]2CCCC[C@@H]2[N@@H+]1CC[C@@H]1CCCO1)c1ccc(-c2c3nc(c(-c4ccccc4)c4ccc([nH]4)c(-c4ccccc4)c4nc(c(-c5ccccc5)c5ccc2[nH]5)C=C4)C=C3)cc1
REMARK SMILES IDX 7 1 6 2 5 3 4 4 3 5 1 6 2 7 29 9 30 10 76 11 31 12 75 13
REMARK SMILES IDX 32 14 33 15 34 16 69 17 35 18 74 19 68 20 70 21 36 22 73 23
REMARK SMILES IDX 67 24 66 25 37 27 59 28 44 29 58 30 45 31 48 32 57 33 71 34
REMARK SMILES IDX 46 35 47 36 56 38 72 39 49 40 38 41 39 42 43 43 40 44 42 45
REMARK SMILES IDX 41 46 60 47 61 48 65 49 62 50 64 51 63 52 50 53 51 54 55 55
REMARK SMILES IDX 52 56 54 57 53 58 8 59 9 60 10 61 11 62 12 64 13 65 14 66
REMARK SMILES IDX 21 67 15 68 20 69 16 71 19 72 17 73 18 74 22 75 23 76 24 77
REMARK SMILES IDX 25 78 28 79 26 80 27 81
REMARK H PARENT 3 8 70 26 48 37 10 63 21 70
REMARK Flexibility Score: inf
ROOT
ATOM      1  C   UNL     1       5.694  -2.434   2.655  1.00  0.00     0.002 C 
ENDROOT
BRANCH   1   2
ATOM      2  C   UNL     1       5.582  -3.751   1.878  1.00  0.00     0.002 C 
BRANCH   2   3
ATOM      3  C   UNL     1       4.445  -4.663   2.341  1.00  0.00     0.021 C 
BRANCH   3   4
ATOM      4  C   UNL     1       3.071  -4.009   2.276  1.00  0.00     0.116 C 
BRANCH   4   5
ATOM      5  N   UNL     1       2.711  -3.662   0.911  1.00  0.00    -0.352 N 
ATOM      6  O   UNL     1       1.626  -3.915  -1.053  1.00  0.00    -0.269 OA
ATOM      7  C   UNL     1       1.657  -4.109   0.161  1.00  0.00     0.251 C 
ATOM      8  H   UNL     1       3.307  -3.018   0.465  1.00  0.00     0.163 HD
BRANCH   7   9
ATOM      9  C   UNL     1       0.558  -4.837   0.822  1.00  0.00     0.039 A 
ATOM     10  C   UNL     1       0.011  -4.357   2.017  1.00  0.00     0.014 A 
ATOM     11  C   UNL     1       0.059  -5.997   0.229  1.00  0.00     0.014 A 
ATOM     12  C   UNL     1      -0.963  -5.096   2.676  1.00  0.00     0.010 A 
ATOM     13  C   UNL     1      -0.974  -6.696   0.852  1.00  0.00     0.010 A 
ATOM     14  C   UNL     1      -1.480  -6.259   2.087  1.00  0.00    -0.014 A 
BRANCH  14  15
ATOM     15  C   UNL     1      -2.607  -6.975   2.728  1.00  0.00     0.031 A 
ATOM     16  C   UNL     1      -2.444  -8.380   3.225  1.00  0.00     0.074 A 
ATOM     17  C   UNL     1      -3.800  -6.357   2.812  1.00  0.00     0.049 A 
ATOM     18  N   UNL     1      -3.345  -9.185   3.728  1.00  0.00    -0.248 NA
ATOM     19  C   UNL     1      -1.096  -8.961   3.136  1.00  0.00     0.031 C 
ATOM     20  C   UNL     1      -4.077  -4.992   2.358  1.00  0.00     0.029 A 
ATOM     21  N   UNL     1      -5.005  -6.801   3.293  1.00  0.00    -0.354 N 
ATOM     22  C   UNL     1      -2.682 -10.377   3.990  1.00  0.00     0.074 A 
ATOM     23  C   UNL     1      -1.308 -10.196   3.568  1.00  0.00     0.031 C 
ATOM     24  C   UNL     1      -5.365  -4.707   2.588  1.00  0.00     0.029 A 
ATOM     25  C   UNL     1      -6.019  -5.889   3.139  1.00  0.00     0.049 A 
ATOM     26  H   UNL     1      -5.130  -7.685   3.708  1.00  0.00     0.167 HD
ATOM     27  C   UNL     1      -3.178 -11.517   4.528  1.00  0.00     0.031 A 
ATOM     28  C   UNL     1      -7.339  -6.000   3.373  1.00  0.00     0.031 A 
ATOM     29  C   UNL     1      -4.552 -11.690   4.923  1.00  0.00     0.049 A 
ATOM     30  C   UNL     1      -7.878  -7.288   3.918  1.00  0.00     0.074 A 
ATOM     31  C   UNL     1      -5.146 -12.789   5.517  1.00  0.00     0.029 A 
ATOM     32  N   UNL     1      -5.551 -10.743   4.744  1.00  0.00    -0.354 N 
ATOM     33  N   UNL     1      -7.232  -8.391   4.210  1.00  0.00    -0.248 NA
ATOM     34  C   UNL     1      -9.323  -7.348   4.171  1.00  0.00     0.031 C 
ATOM     35  C   UNL     1      -6.517 -12.535   5.632  1.00  0.00     0.029 A 
ATOM     36  C   UNL     1      -6.765 -11.248   5.181  1.00  0.00     0.049 A 
ATOM     37  H   UNL     1      -5.418  -9.845   4.363  1.00  0.00     0.167 HD
ATOM     38  C   UNL     1      -8.185  -9.269   4.706  1.00  0.00     0.074 A 
ATOM     39  C   UNL     1      -9.453  -8.567   4.681  1.00  0.00     0.031 C 
ATOM     40  C   UNL     1      -8.020 -10.539   5.148  1.00  0.00     0.031 A 
BRANCH  27  41
ATOM     41  C   UNL     1      -2.236 -12.682   4.667  1.00  0.00    -0.014 A 
ATOM     42  C   UNL     1      -1.161 -12.659   5.571  1.00  0.00     0.009 A 
ATOM     43  C   UNL     1      -2.434 -13.830   3.883  1.00  0.00     0.009 A 
ATOM     44  C   UNL     1      -0.276 -13.738   5.647  1.00  0.00     0.001 A 
ATOM     45  C   UNL     1      -1.569 -14.920   3.985  1.00  0.00     0.001 A 
ATOM     46  C   UNL     1      -0.482 -14.868   4.856  1.00  0.00     0.000 A 
ENDBRANCH  27  41
BRANCH  28  47
ATOM     47  C   UNL     1      -8.227  -4.853   3.055  1.00  0.00    -0.014 A 
ATOM     48  C   UNL     1      -8.803  -4.087   4.077  1.00  0.00     0.009 A 
ATOM     49  C   UNL     1      -8.450  -4.482   1.718  1.00  0.00     0.009 A 
ATOM     50  C   UNL     1      -9.592  -2.976   3.767  1.00  0.00     0.001 A 
ATOM     51  C   UNL     1      -9.213  -3.354   1.412  1.00  0.00     0.001 A 
ATOM     52  C   UNL     1      -9.788  -2.606   2.437  1.00  0.00     0.000 A 
ENDBRANCH  28  47
BRANCH  40  53
ATOM     53  C   UNL     1      -9.231 -11.249   5.686  1.00  0.00    -0.014 A 
ATOM     54  C   UNL     1     -10.241 -11.723   4.835  1.00  0.00     0.009 A 
ATOM     55  C   UNL     1      -9.318 -11.515   7.062  1.00  0.00     0.009 A 
ATOM     56  C   UNL     1     -11.323 -12.436   5.357  1.00  0.00     0.001 A 
ATOM     57  C   UNL     1     -10.385 -12.252   7.576  1.00  0.00     0.001 A 
ATOM     58  C   UNL     1     -11.389 -12.708   6.724  1.00  0.00     0.000 A 
ENDBRANCH  40  53
ENDBRANCH  14  15
ENDBRANCH   7   9
ENDBRANCH   4   5
ENDBRANCH   3   4
ENDBRANCH   2   3
ENDBRANCH   1   2
BRANCH   1  59
ATOM     59  C   UNL     1       5.800  -2.603   4.176  1.00  0.00     0.021 C 
BRANCH  59  60
ATOM     60  C   UNL     1       6.988  -3.461   4.599  1.00  0.00     0.116 C 
BRANCH  60  61
ATOM     61  N   UNL     1       8.225  -2.752   4.341  1.00  0.00    -0.351 N 
ATOM     62  C   UNL     1       9.114  -2.208   5.227  1.00  0.00     0.278 C 
ATOM     63  H   UNL     1       8.460  -2.646   3.391  1.00  0.00     0.163 HD
ATOM     64  O   UNL     1      10.004  -1.485   4.775  1.00  0.00    -0.268 OA
BRANCH  62  65
ATOM     65  C   UNL     1       9.036  -2.648   6.694  1.00  0.00     0.274 C 
ATOM     66  C   UNL     1      10.050  -3.797   6.880  1.00  0.00     0.085 C 
ATOM     67  N   UNL     1       9.428  -1.556   7.628  1.00  0.00    -0.322 N 
ATOM     68  C   UNL     1      10.687  -3.443   8.203  1.00  0.00     0.054 C 
ATOM     69  C   UNL     1      10.757  -1.921   8.126  1.00  0.00     0.188 C 
ATOM     70  H   UNL     1       9.512  -0.652   7.162  1.00  0.00     0.349 HD
ATOM     71  C   UNL     1      12.017  -4.061   8.576  1.00  0.00     0.010 C 
ATOM     72  C   UNL     1      11.349  -1.225   9.352  1.00  0.00     0.065 C 
ATOM     73  C   UNL     1      12.448  -3.478   9.926  1.00  0.00     0.001 C 
ATOM     74  C   UNL     1      12.592  -1.953   9.877  1.00  0.00     0.006 C 
BRANCH  67  75
ATOM     75  C   UNL     1       8.386  -1.125   8.576  1.00  0.00     0.265 C 
BRANCH  75  76
ATOM     76  C   UNL     1       7.623  -2.134   9.478  1.00  0.00     0.093 C 
BRANCH  76  77
ATOM     77  C   UNL     1       8.428  -2.747  10.616  1.00  0.00     0.123 C 
ATOM     78  C   UNL     1       8.047  -4.174  10.964  1.00  0.00     0.034 C 
ATOM     79  O   UNL     1       8.286  -2.062  11.867  1.00  0.00    -0.378 OA
ATOM     80  C   UNL     1       8.736  -4.357  12.301  1.00  0.00     0.031 C 
ATOM     81  C   UNL     1       8.912  -2.937  12.827  1.00  0.00     0.160 C 
ENDBRANCH  76  77
ENDBRANCH  75  76
ENDBRANCH  67  75
ENDBRANCH  62  65
ENDBRANCH  60  61
ENDBRANCH  59  60
ENDBRANCH   1  59
TORSDOF 16
