REMARK SMILES Cc1ccc(-c2nn(CCC(=O)NCCCCCCNC(=O)c3ccc(-c4c5nc(c(-c6ccccc6)c6ccc([nH]6)c(-c6ccccc6)c6nc(c(-c7ccccc7)c7ccc4[nH]7)C=C6)C=C5)cc3)c(=O)c3noc(C)c23)cc1C
REMARK SMILES IDX 16 1 15 2 14 3 13 4 11 5 12 6 10 8 9 9 8 10 6 11 7 12 78 13
REMARK SMILES IDX 73 14 76 15 71 16 74 17 75 18 77 19 72 20 5 21 1 22 2 23
REMARK SMILES IDX 3 24 80 25 4 26 79 27 81 28 17 29 18 30 19 31 20 32 21 33
REMARK SMILES IDX 22 35 23 36 24 37 70 38 25 39 69 40 26 41 27 42 28 43 63 44
REMARK SMILES IDX 29 45 68 46 62 47 64 48 30 49 67 50 61 51 60 52 31 54 53 55
REMARK SMILES IDX 38 56 52 57 39 58 42 59 51 60 65 61 40 62 41 63 50 65 66 66
REMARK SMILES IDX 43 67 32 68 33 69 37 70 34 71 36 72 35 73 54 74 55 75 59 76
REMARK SMILES IDX 56 77 58 78 57 79 44 80 45 81 49 82 46 83 48 84 47 85
REMARK H PARENT 13 7 20 34 64 53 42 64
REMARK Flexibility Score: inf
ROOT
ATOM      1  C   UNL     1      -5.397  -5.372   2.149  1.00  0.00     0.002 C 
ENDROOT
BRANCH   1   2
ATOM      2  C   UNL     1      -5.377  -4.400   0.969  1.00  0.00     0.021 C 
BRANCH   2   3
ATOM      3  C   UNL     1      -5.198  -4.981  -0.435  1.00  0.00     0.116 C 
BRANCH   3   4
ATOM      4  N   UNL     1      -6.437  -4.909  -1.193  1.00  0.00    -0.356 N 
ATOM      5  C   UNL     1      -6.812  -4.076  -2.204  1.00  0.00     0.221 C 
ATOM      6  O   UNL     1      -7.974  -4.139  -2.611  1.00  0.00    -0.275 OA
ATOM      7  H   UNL     1      -7.117  -5.572  -0.933  1.00  0.00     0.163 HD
BRANCH   5   8
ATOM      8  C   UNL     1      -5.824  -3.127  -2.850  1.00  0.00     0.124 C 
BRANCH   8   9
ATOM      9  C   UNL     1      -5.935  -1.699  -2.324  1.00  0.00     0.158 C 
BRANCH   9  10
ATOM     10  N   UNL     1      -5.093  -1.436  -1.155  1.00  0.00    -0.227 N 
ATOM     11  C   UNL     1      -2.899  -0.985  -0.424  1.00  0.00     0.104 A 
ATOM     12  N   UNL     1      -3.718  -1.196  -1.417  1.00  0.00    -0.169 NA
ATOM     13  C   UNL     1      -3.370  -1.106   0.924  1.00  0.00     0.078 A 
ATOM     14  C   UNL     1      -4.741  -1.163   1.190  1.00  0.00     0.183 A 
ATOM     15  C   UNL     1      -2.761  -1.222   2.149  1.00  0.00     0.143 A 
ATOM     16  C   UNL     1      -5.711  -1.272   0.114  1.00  0.00     0.296 A 
ATOM     17  N   UNL     1      -4.986  -1.238   2.504  1.00  0.00    -0.074 NA
ATOM     18  O   UNL     1      -3.734  -1.272   3.106  1.00  0.00    -0.360 OA
ATOM     19  C   UNL     1      -1.370  -1.353   2.627  1.00  0.00     0.091 C 
ATOM     20  O   UNL     1      -6.920  -1.295   0.296  1.00  0.00    -0.265 OA
BRANCH  11  21
ATOM     21  C   UNL     1      -1.557  -0.409  -0.603  1.00  0.00     0.003 A 
ATOM     22  C   UNL     1       2.198   1.585   0.043  1.00  0.00     0.044 C 
ATOM     23  C   UNL     1       0.911   0.854  -0.236  1.00  0.00    -0.048 A 
ATOM     24  C   UNL     1      -0.267   1.609  -0.335  1.00  0.00     0.004 A 
ATOM     25  C   UNL     1       0.852  -0.553  -0.368  1.00  0.00    -0.048 A 
ATOM     26  C   UNL     1      -1.494   0.984  -0.515  1.00  0.00     0.011 A 
ATOM     27  C   UNL     1      -0.396  -1.180  -0.565  1.00  0.00     0.014 A 
ATOM     28  C   UNL     1       2.067  -1.428  -0.195  1.00  0.00     0.044 C 
ENDBRANCH  11  21
ENDBRANCH   9  10
ENDBRANCH   8   9
ENDBRANCH   5   8
ENDBRANCH   3   4
ENDBRANCH   2   3
ENDBRANCH   1   2
BRANCH   1  29
ATOM     29  C   UNL     1      -4.080  -6.100   2.443  1.00  0.00     0.002 C 
BRANCH  29  30
ATOM     30  C   UNL     1      -2.823  -5.241   2.699  1.00  0.00     0.021 C 
BRANCH  30  31
ATOM     31  C   UNL     1      -2.743  -4.454   4.025  1.00  0.00     0.116 C 
BRANCH  31  32
ATOM     32  N   UNL     1      -2.740  -5.325   5.184  1.00  0.00    -0.352 N 
ATOM     33  C   UNL     1      -1.998  -5.371   6.333  1.00  0.00     0.251 C 
ATOM     34  H   UNL     1      -3.418  -6.037   5.133  1.00  0.00     0.163 HD
ATOM     35  O   UNL     1      -2.154  -6.359   7.055  1.00  0.00    -0.269 OA
BRANCH  33  36
ATOM     36  C   UNL     1      -1.022  -4.343   6.784  1.00  0.00     0.039 A 
ATOM     37  C   UNL     1       0.115  -4.829   7.451  1.00  0.00     0.014 A 
ATOM     38  C   UNL     1      -1.266  -2.966   6.795  1.00  0.00     0.014 A 
ATOM     39  C   UNL     1       0.977  -3.969   8.137  1.00  0.00     0.010 A 
ATOM     40  C   UNL     1      -0.387  -2.096   7.483  1.00  0.00     0.010 A 
ATOM     41  C   UNL     1       0.733  -2.592   8.172  1.00  0.00    -0.014 A 
BRANCH  41  42
ATOM     42  C   UNL     1       1.749  -1.752   8.857  1.00  0.00     0.031 A 
ATOM     43  C   UNL     1       2.240  -0.562   8.094  1.00  0.00     0.074 A 
ATOM     44  C   UNL     1       1.889  -1.736  10.205  1.00  0.00     0.049 A 
ATOM     45  N   UNL     1       1.606   0.574   8.050  1.00  0.00    -0.248 NA
ATOM     46  C   UNL     1       3.363  -0.641   7.160  1.00  0.00     0.031 C 
ATOM     47  C   UNL     1       0.753  -1.755  11.136  1.00  0.00     0.029 A 
ATOM     48  N   UNL     1       2.974  -1.450  11.010  1.00  0.00    -0.354 N 
ATOM     49  C   UNL     1       2.223   1.360   7.088  1.00  0.00     0.074 A 
ATOM     50  C   UNL     1       3.301   0.556   6.554  1.00  0.00     0.031 C 
ATOM     51  C   UNL     1       1.174  -1.327  12.346  1.00  0.00     0.029 A 
ATOM     52  C   UNL     1       2.625  -1.150  12.328  1.00  0.00     0.049 A 
ATOM     53  H   UNL     1       3.904  -1.456  10.686  1.00  0.00     0.167 HD
ATOM     54  C   UNL     1       1.832   2.634   6.812  1.00  0.00     0.031 A 
ATOM     55  C   UNL     1       3.312  -0.306  13.151  1.00  0.00     0.031 A 
ATOM     56  C   UNL     1       0.777   3.136   7.641  1.00  0.00     0.049 A 
ATOM     57  C   UNL     1       2.944   1.029  12.554  1.00  0.00     0.074 A 
ATOM     58  C   UNL     1      -0.591   3.295   7.593  1.00  0.00     0.029 A 
ATOM     59  N   UNL     1       1.129   3.609   8.881  1.00  0.00    -0.354 N 
ATOM     60  N   UNL     1       1.814   1.664  12.710  1.00  0.00    -0.248 NA
ATOM     61  C   UNL     1       3.750   1.480  11.417  1.00  0.00     0.031 C 
ATOM     62  C   UNL     1      -1.007   3.399   8.960  1.00  0.00     0.029 A 
ATOM     63  C   UNL     1       0.133   3.256   9.749  1.00  0.00     0.049 A 
ATOM     64  H   UNL     1       1.947   4.109   9.104  1.00  0.00     0.167 HD
ATOM     65  C   UNL     1       1.615   2.357  11.516  1.00  0.00     0.074 A 
ATOM     66  C   UNL     1       2.849   2.203  10.767  1.00  0.00     0.031 C 
ATOM     67  C   UNL     1       0.407   2.850  11.109  1.00  0.00     0.031 A 
BRANCH  54  68
ATOM     68  C   UNL     1       2.521   3.584   5.906  1.00  0.00    -0.014 A 
ATOM     69  C   UNL     1       3.272   4.618   6.496  1.00  0.00     0.009 A 
ATOM     70  C   UNL     1       2.236   3.654   4.539  1.00  0.00     0.009 A 
ATOM     71  C   UNL     1       3.668   5.731   5.758  1.00  0.00     0.001 A 
ATOM     72  C   UNL     1       2.655   4.765   3.793  1.00  0.00     0.001 A 
ATOM     73  C   UNL     1       3.349   5.810   4.407  1.00  0.00     0.000 A 
ENDBRANCH  54  68
BRANCH  55  74
ATOM     74  C   UNL     1       4.730  -0.675  13.477  1.00  0.00    -0.014 A 
ATOM     75  C   UNL     1       4.980  -1.981  13.944  1.00  0.00     0.009 A 
ATOM     76  C   UNL     1       5.835   0.185  13.376  1.00  0.00     0.009 A 
ATOM     77  C   UNL     1       6.280  -2.445  14.169  1.00  0.00     0.001 A 
ATOM     78  C   UNL     1       7.142  -0.284  13.571  1.00  0.00     0.001 A 
ATOM     79  C   UNL     1       7.365  -1.605  13.947  1.00  0.00     0.000 A 
ENDBRANCH  55  74
BRANCH  67  80
ATOM     80  C   UNL     1      -0.729   2.743  12.074  1.00  0.00    -0.014 A 
ATOM     81  C   UNL     1      -0.732   3.496  13.254  1.00  0.00     0.009 A 
ATOM     82  C   UNL     1      -1.849   1.950  11.772  1.00  0.00     0.009 A 
ATOM     83  C   UNL     1      -1.848   3.488  14.093  1.00  0.00     0.001 A 
ATOM     84  C   UNL     1      -2.972   1.958  12.600  1.00  0.00     0.001 A 
ATOM     85  C   UNL     1      -2.972   2.734  13.757  1.00  0.00     0.000 A 
ENDBRANCH  67  80
ENDBRANCH  41  42
ENDBRANCH  33  36
ENDBRANCH  31  32
ENDBRANCH  30  31
ENDBRANCH  29  30
ENDBRANCH   1  29
TORSDOF 16
