REMARK SMILES C[C@H](C[N@@H+](C)[C@@H](C)[C@@H](C)O)C(=O)NCCCCCCNC(=O)c1ccc(-c2c3nc(c(-c4ccccc4)c4ccc([nH]4)c(-c4ccccc4)c4nc(c(-c5ccccc5)c5ccc2[nH]5)C=C4)C=C3)cc1
REMARK SMILES IDX 15 1 14 2 13 3 11 4 12 5 2 7 1 8 3 9 4 10 5 11 6 13 7 14
REMARK SMILES IDX 8 15 9 16 10 17 16 19 17 20 18 21 19 22 20 23 21 24 22 26
REMARK SMILES IDX 23 27 24 28 70 29 25 30 69 31 26 32 27 33 28 34 63 35 29 36
REMARK SMILES IDX 68 37 62 38 64 39 30 40 67 41 61 42 60 43 31 45 53 46 38 47
REMARK SMILES IDX 52 48 39 49 42 50 51 51 65 52 40 53 41 54 50 56 66 57 43 58
REMARK SMILES IDX 32 59 33 60 37 61 34 62 36 63 35 64 54 65 55 66 59 67 56 68
REMARK SMILES IDX 58 69 57 70 44 71 45 72 49 73 46 74 48 75 47 76
REMARK H PARENT 13 6 4 12 10 18 20 25 64 44 42 55
REMARK Flexibility Score: inf
ROOT
ATOM      1  C   UNL     1      -3.566   1.795  -1.006  1.00  0.00     0.021 C 
ENDROOT
BRANCH   1   2
ATOM      2  C   UNL     1      -3.054   1.287   0.373  1.00  0.00     0.116 C 
BRANCH   2   3
ATOM      3  N   UNL     1      -2.504  -0.141   0.562  1.00  0.00    -0.356 N 
ATOM      4  C   UNL     1      -1.498  -0.995   0.923  1.00  0.00     0.228 C 
ATOM      5  O   UNL     1      -2.021  -2.097   1.225  1.00  0.00    -0.275 OA
ATOM      6  H   UNL     1      -3.242  -0.730   0.285  1.00  0.00     0.163 HD
BRANCH   4   7
ATOM      7  C   UNL     1       0.121  -1.010   1.125  1.00  0.00     0.130 C 
ATOM      8  C   UNL     1       0.607  -1.068   2.598  1.00  0.00     0.024 C 
BRANCH   7   9
ATOM      9  C   UNL     1       1.296  -0.489   0.202  1.00  0.00     0.275 C 
BRANCH   9  10
ATOM     10  N   UNL     1       1.537   0.965  -0.004  1.00  0.00    -0.332 N 
ATOM     11  C   UNL     1       2.343   1.218  -1.206  1.00  0.00     0.333 C 
ATOM     12  H   UNL     1       2.077   1.307   0.791  1.00  0.00     0.348 HD
BRANCH  10  13
ATOM     13  C   UNL     1       0.260   1.707  -0.039  1.00  0.00     0.209 C 
ATOM     14  C   UNL     1      -0.484   1.005  -1.213  1.00  0.00     0.078 C 
BRANCH  13  15
ATOM     15  C   UNL     1       0.001   1.976   1.543  1.00  0.00     0.169 C 
ATOM     16  C   UNL     1       0.665   3.273   1.999  1.00  0.00     0.045 C 
BRANCH  15  17
ATOM     17  O   UNL     1      -1.257   1.986   2.193  1.00  0.00    -0.387 OA
ATOM     18  H   UNL     1      -1.718   2.815   1.991  1.00  0.00     0.211 HD
ENDBRANCH  15  17
ENDBRANCH  13  15
ENDBRANCH  10  13
ENDBRANCH   9  10
ENDBRANCH   7   9
ENDBRANCH   4   7
ENDBRANCH   2   3
ENDBRANCH   1   2
BRANCH   1  19
ATOM     19  C   UNL     1      -4.643   2.883  -0.956  1.00  0.00     0.002 C 
BRANCH  19  20
ATOM     20  C   UNL     1      -4.427   4.031   0.043  1.00  0.00     0.002 C 
BRANCH  20  21
ATOM     21  C   UNL     1      -3.290   5.028  -0.227  1.00  0.00     0.021 C 
BRANCH  21  22
ATOM     22  C   UNL     1      -3.267   5.673  -1.611  1.00  0.00     0.116 C 
BRANCH  22  23
ATOM     23  N   UNL     1      -4.588   6.105  -2.049  1.00  0.00    -0.352 N 
ATOM     24  C   UNL     1      -5.017   7.322  -2.493  1.00  0.00     0.251 C 
ATOM     25  H   UNL     1      -5.282   5.408  -2.021  1.00  0.00     0.163 HD
ATOM     26  O   UNL     1      -6.226   7.540  -2.635  1.00  0.00    -0.269 OA
BRANCH  24  27
ATOM     27  C   UNL     1      -4.044   8.379  -2.806  1.00  0.00     0.039 A 
ATOM     28  C   UNL     1      -4.297   9.685  -2.379  1.00  0.00     0.014 A 
ATOM     29  C   UNL     1      -2.896   8.082  -3.545  1.00  0.00     0.014 A 
ATOM     30  C   UNL     1      -3.373  10.689  -2.659  1.00  0.00     0.010 A 
ATOM     31  C   UNL     1      -1.940   9.066  -3.754  1.00  0.00     0.010 A 
ATOM     32  C   UNL     1      -2.179  10.381  -3.329  1.00  0.00    -0.014 A 
BRANCH  32  33
ATOM     33  C   UNL     1      -1.179  11.429  -3.630  1.00  0.00     0.031 A 
ATOM     34  C   UNL     1      -0.878  11.780  -5.060  1.00  0.00     0.074 A 
ATOM     35  C   UNL     1      -0.510  12.018  -2.621  1.00  0.00     0.049 A 
ATOM     36  N   UNL     1       0.003  12.622  -5.535  1.00  0.00    -0.248 NA
ATOM     37  C   UNL     1      -1.647  11.068  -6.096  1.00  0.00     0.031 C 
ATOM     38  C   UNL     1      -0.698  11.729  -1.196  1.00  0.00     0.029 A 
ATOM     39  N   UNL     1       0.465  12.980  -2.639  1.00  0.00    -0.354 N 
ATOM     40  C   UNL     1      -0.096  12.528  -6.918  1.00  0.00     0.074 A 
ATOM     41  C   UNL     1      -1.077  11.507  -7.208  1.00  0.00     0.031 C 
ATOM     42  C   UNL     1       0.114  12.520  -0.478  1.00  0.00     0.029 A 
ATOM     43  C   UNL     1       0.909  13.336  -1.388  1.00  0.00     0.049 A 
ATOM     44  H   UNL     1       0.814  13.379  -3.469  1.00  0.00     0.167 HD
ATOM     45  C   UNL     1       0.557  13.245  -7.861  1.00  0.00     0.031 A 
ATOM     46  C   UNL     1       1.858  14.218  -1.022  1.00  0.00     0.031 A 
ATOM     47  C   UNL     1       1.523  14.267  -7.562  1.00  0.00     0.049 A 
ATOM     48  C   UNL     1       2.583  14.987  -2.093  1.00  0.00     0.074 A 
ATOM     49  C   UNL     1       2.206  15.090  -8.438  1.00  0.00     0.029 A 
ATOM     50  N   UNL     1       1.942  14.602  -6.283  1.00  0.00    -0.354 N 
ATOM     51  N   UNL     1       2.430  14.936  -3.395  1.00  0.00    -0.248 NA
ATOM     52  C   UNL     1       3.601  15.944  -1.642  1.00  0.00     0.031 C 
ATOM     53  C   UNL     1       3.083  15.884  -7.692  1.00  0.00     0.029 A 
ATOM     54  C   UNL     1       2.894  15.604  -6.348  1.00  0.00     0.049 A 
ATOM     55  H   UNL     1       1.610  14.189  -5.453  1.00  0.00     0.167 HD
ATOM     56  C   UNL     1       3.307  15.879  -3.916  1.00  0.00     0.074 A 
ATOM     57  C   UNL     1       3.975  16.496  -2.788  1.00  0.00     0.031 C 
ATOM     58  C   UNL     1       3.538  16.207  -5.210  1.00  0.00     0.031 A 
BRANCH  45  59
ATOM     59  C   UNL     1       0.253  12.942  -9.303  1.00  0.00    -0.014 A 
ATOM     60  C   UNL     1      -0.996  13.252  -9.866  1.00  0.00     0.009 A 
ATOM     61  C   UNL     1       1.242  12.373 -10.120  1.00  0.00     0.009 A 
ATOM     62  C   UNL     1      -1.258  12.965 -11.208  1.00  0.00     0.001 A 
ATOM     63  C   UNL     1       0.988  12.118 -11.469  1.00  0.00     0.001 A 
ATOM     64  C   UNL     1      -0.264  12.405 -12.009  1.00  0.00     0.000 A 
ENDBRANCH  45  59
BRANCH  46  65
ATOM     65  C   UNL     1       2.171  14.430   0.415  1.00  0.00    -0.014 A 
ATOM     66  C   UNL     1       1.871  15.651   1.040  1.00  0.00     0.009 A 
ATOM     67  C   UNL     1       2.790  13.420   1.169  1.00  0.00     0.009 A 
ATOM     68  C   UNL     1       2.216  15.868   2.376  1.00  0.00     0.001 A 
ATOM     69  C   UNL     1       3.104  13.627   2.514  1.00  0.00     0.001 A 
ATOM     70  C   UNL     1       2.829  14.855   3.112  1.00  0.00     0.000 A 
ENDBRANCH  46  65
BRANCH  58  71
ATOM     71  C   UNL     1       4.518  17.316  -5.473  1.00  0.00    -0.014 A 
ATOM     72  C   UNL     1       5.895  17.142  -5.269  1.00  0.00     0.009 A 
ATOM     73  C   UNL     1       4.053  18.538  -5.984  1.00  0.00     0.009 A 
ATOM     74  C   UNL     1       6.783  18.186  -5.537  1.00  0.00     0.001 A 
ATOM     75  C   UNL     1       4.946  19.566  -6.284  1.00  0.00     0.001 A 
ATOM     76  C   UNL     1       6.309  19.393  -6.050  1.00  0.00     0.000 A 
ENDBRANCH  58  71
ENDBRANCH  32  33
ENDBRANCH  24  27
ENDBRANCH  22  23
ENDBRANCH  21  22
ENDBRANCH  20  21
ENDBRANCH  19  20
ENDBRANCH   1  19
TORSDOF 18
