REMARK SMILES O=C(NCc1ccc(C(=O)NCCCCCCNC(=O)c2ccc(-c3c4nc(c(-c5ccccc5)c5ccc([nH]5)c(-c5ccccc5)c5nc(c(-c6ccccc6)c6ccc3[nH]6)C=C5)C=C4)cc2)o1)Nc1ccc(F)c(Cl)c1
REMARK SMILES IDX 14 1 13 2 12 3 11 4 9 5 10 6 8 8 5 9 6 10 69 11 7 12 4 13
REMARK SMILES IDX 3 14 1 15 2 16 70 17 71 20 72 21 78 22 73 23 76 24 74 25
REMARK SMILES IDX 77 26 75 27 15 28 16 29 17 30 18 31 19 32 20 34 21 35 22 36
REMARK SMILES IDX 68 37 23 38 67 39 24 40 25 41 26 42 61 43 27 44 66 45 60 46
REMARK SMILES IDX 62 47 28 48 65 49 59 50 58 51 29 53 51 54 36 55 50 56 37 57
REMARK SMILES IDX 40 58 49 59 63 60 38 61 39 62 48 64 64 65 41 66 30 67 31 68
REMARK SMILES IDX 35 69 32 70 34 71 33 72 52 73 53 74 57 75 54 76 56 77 55 78
REMARK SMILES IDX 42 79 43 80 47 81 44 82 46 83 45 84
REMARK H PARENT 11 7 3 18 70 19 18 33 62 52 40 63
REMARK Flexibility Score: inf
ROOT
ATOM      1  C   UNL     1       7.561  -8.288  -2.833  1.00  0.00     0.002 C 
ENDROOT
BRANCH   1   2
ATOM      2  C   UNL     1       7.633  -6.755  -2.890  1.00  0.00     0.021 C 
BRANCH   2   3
ATOM      3  C   UNL     1       6.364  -6.115  -3.450  1.00  0.00     0.116 C 
BRANCH   3   4
ATOM      4  N   UNL     1       5.353  -6.005  -2.426  1.00  0.00    -0.349 N 
ATOM      5  C   UNL     1       4.848  -4.929  -1.736  1.00  0.00     0.286 C 
ATOM      6  O   UNL     1       3.962  -5.205  -0.923  1.00  0.00    -0.266 OA
ATOM      7  H   UNL     1       4.946  -6.865  -2.174  1.00  0.00     0.163 HD
BRANCH   5   8
ATOM      8  C   UNL     1       5.313  -3.570  -1.961  1.00  0.00     0.191 A 
ATOM      9  C   UNL     1       5.109  -1.373  -1.686  1.00  0.00     0.124 A 
ATOM     10  C   UNL     1       6.219  -1.560  -2.473  1.00  0.00     0.048 A 
ATOM     11  O   UNL     1       4.557  -2.578  -1.379  1.00  0.00    -0.454 OA
ATOM     12  C   UNL     1       6.375  -2.962  -2.610  1.00  0.00     0.056 A 
BRANCH   9  13
ATOM     13  C   UNL     1       4.485  -0.165  -1.089  1.00  0.00     0.193 C 
BRANCH  13  14
ATOM     14  N   UNL     1       3.050  -0.323  -1.013  1.00  0.00    -0.331 N 
ATOM     15  O   UNL     1       1.040  -0.495  -0.086  1.00  0.00    -0.248 OA
ATOM     16  C   UNL     1       2.208  -0.140   0.038  1.00  0.00     0.319 C 
ATOM     17  N   UNL     1       2.747   0.457   1.145  1.00  0.00    -0.308 N 
ATOM     18  H   UNL     1       2.617  -0.606  -1.851  1.00  0.00     0.165 HD
ATOM     19  H   UNL     1       3.630   0.877   1.034  1.00  0.00     0.171 HD
BRANCH  17  20
ATOM     20  C   UNL     1       2.168   0.531   2.428  1.00  0.00     0.044 A 
ATOM     21  C   UNL     1       2.758   1.409   3.349  1.00  0.00     0.029 A 
ATOM     22  C   UNL     1       1.071  -0.241   2.823  1.00  0.00     0.049 A 
ATOM     23  C   UNL     1       2.233   1.541   4.637  1.00  0.00     0.043 A 
ATOM     24  C   UNL     1       0.553  -0.114   4.114  1.00  0.00     0.078 A 
ATOM     25  C   UNL     1       1.131   0.782   5.011  1.00  0.00     0.141 A 
ATOM     26  Cl  UNL     1      -0.794  -1.076   4.588  1.00  0.00    -0.081 Cl
ATOM     27  F   UNL     1       0.641   0.927   6.251  1.00  0.00    -0.205 F 
ENDBRANCH  17  20
ENDBRANCH  13  14
ENDBRANCH   9  13
ENDBRANCH   5   8
ENDBRANCH   3   4
ENDBRANCH   2   3
ENDBRANCH   1   2
BRANCH   1  28
ATOM     28  C   UNL     1       7.330  -8.976  -4.185  1.00  0.00     0.002 C 
BRANCH  28  29
ATOM     29  C   UNL     1       8.303  -8.565  -5.292  1.00  0.00     0.021 C 
BRANCH  29  30
ATOM     30  C   UNL     1       9.761  -8.888  -4.985  1.00  0.00     0.116 C 
BRANCH  30  31
ATOM     31  N   UNL     1       9.986 -10.322  -4.901  1.00  0.00    -0.352 N 
ATOM     32  C   UNL     1      10.861 -11.102  -5.615  1.00  0.00     0.251 C 
ATOM     33  H   UNL     1       9.435 -10.800  -4.240  1.00  0.00     0.163 HD
ATOM     34  O   UNL     1      10.773 -12.323  -5.591  1.00  0.00    -0.269 OA
BRANCH  32  35
ATOM     35  C   UNL     1      11.910 -10.451  -6.426  1.00  0.00     0.039 A 
ATOM     36  C   UNL     1      12.134 -10.891  -7.733  1.00  0.00     0.014 A 
ATOM     37  C   UNL     1      12.664  -9.403  -5.891  1.00  0.00     0.014 A 
ATOM     38  C   UNL     1      13.081 -10.239  -8.525  1.00  0.00     0.010 A 
ATOM     39  C   UNL     1      13.549  -8.707  -6.705  1.00  0.00     0.010 A 
ATOM     40  C   UNL     1      13.773  -9.123  -8.027  1.00  0.00    -0.014 A 
BRANCH  40  41
ATOM     41  C   UNL     1      14.755  -8.381  -8.853  1.00  0.00     0.031 A 
ATOM     42  C   UNL     1      16.199  -8.339  -8.436  1.00  0.00     0.074 A 
ATOM     43  C   UNL     1      14.339  -7.681  -9.925  1.00  0.00     0.049 A 
ATOM     44  N   UNL     1      17.189  -7.655  -8.951  1.00  0.00    -0.248 NA
ATOM     45  C   UNL     1      16.572  -9.151  -7.266  1.00  0.00     0.031 C 
ATOM     46  C   UNL     1      12.962  -7.623 -10.421  1.00  0.00     0.029 A 
ATOM     47  N   UNL     1      15.036  -6.870 -10.786  1.00  0.00    -0.354 N 
ATOM     48  C   UNL     1      18.293  -7.937  -8.156  1.00  0.00     0.074 A 
ATOM     49  C   UNL     1      17.840  -8.809  -7.095  1.00  0.00     0.031 C 
ATOM     50  C   UNL     1      12.921  -6.838 -11.510  1.00  0.00     0.029 A 
ATOM     51  C   UNL     1      14.254  -6.299 -11.759  1.00  0.00     0.049 A 
ATOM     52  H   UNL     1      16.005  -6.713 -10.712  1.00  0.00     0.167 HD
ATOM     53  C   UNL     1      19.573  -7.522  -8.305  1.00  0.00     0.031 A 
ATOM     54  C   UNL     1      14.572  -5.427 -12.735  1.00  0.00     0.031 A 
ATOM     55  C   UNL     1      20.021  -6.660  -9.365  1.00  0.00     0.049 A 
ATOM     56  C   UNL     1      15.993  -4.951 -12.860  1.00  0.00     0.074 A 
ATOM     57  C   UNL     1      21.305  -6.218  -9.632  1.00  0.00     0.029 A 
ATOM     58  N   UNL     1      19.197  -6.106 -10.333  1.00  0.00    -0.354 N 
ATOM     59  N   UNL     1      17.037  -5.266 -12.132  1.00  0.00    -0.248 NA
ATOM     60  C   UNL     1      16.281  -4.004 -13.946  1.00  0.00     0.031 C 
ATOM     61  C   UNL     1      21.248  -5.351 -10.727  1.00  0.00     0.029 A 
ATOM     62  C   UNL     1      19.940  -5.306 -11.183  1.00  0.00     0.049 A 
ATOM     63  H   UNL     1      18.227  -6.259 -10.404  1.00  0.00     0.167 HD
ATOM     64  C   UNL     1      18.111  -4.588 -12.695  1.00  0.00     0.074 A 
ATOM     65  C   UNL     1      17.592  -3.850 -13.828  1.00  0.00     0.031 C 
ATOM     66  C   UNL     1      19.410  -4.584 -12.311  1.00  0.00     0.031 A 
BRANCH  53  67
ATOM     67  C   UNL     1      20.574  -7.988  -7.283  1.00  0.00    -0.014 A 
ATOM     68  C   UNL     1      20.959  -9.336  -7.199  1.00  0.00     0.009 A 
ATOM     69  C   UNL     1      21.156  -7.061  -6.404  1.00  0.00     0.009 A 
ATOM     70  C   UNL     1      21.870  -9.752  -6.226  1.00  0.00     0.001 A 
ATOM     71  C   UNL     1      22.092  -7.475  -5.455  1.00  0.00     0.001 A 
ATOM     72  C   UNL     1      22.439  -8.821  -5.358  1.00  0.00     0.000 A 
ENDBRANCH  53  67
BRANCH  54  73
ATOM     73  C   UNL     1      13.527  -4.957 -13.683  1.00  0.00    -0.014 A 
ATOM     74  C   UNL     1      13.552  -5.362 -15.026  1.00  0.00     0.009 A 
ATOM     75  C   UNL     1      12.501  -4.100 -13.252  1.00  0.00     0.009 A 
ATOM     76  C   UNL     1      12.588  -4.898 -15.924  1.00  0.00     0.001 A 
ATOM     77  C   UNL     1      11.521  -3.663 -14.146  1.00  0.00     0.001 A 
ATOM     78  C   UNL     1      11.571  -4.053 -15.483  1.00  0.00     0.000 A 
ENDBRANCH  54  73
BRANCH  66  79
ATOM     79  C   UNL     1      20.379  -3.799 -13.152  1.00  0.00    -0.014 A 
ATOM     80  C   UNL     1      20.395  -2.396 -13.137  1.00  0.00     0.009 A 
ATOM     81  C   UNL     1      21.333  -4.483 -13.922  1.00  0.00     0.009 A 
ATOM     82  C   UNL     1      21.332  -1.695 -13.900  1.00  0.00     0.001 A 
ATOM     83  C   UNL     1      22.288  -3.780 -14.658  1.00  0.00     0.001 A 
ATOM     84  C   UNL     1      22.281  -2.387 -14.652  1.00  0.00     0.000 A 
ENDBRANCH  66  79
ENDBRANCH  40  41
ENDBRANCH  32  35
ENDBRANCH  30  31
ENDBRANCH  29  30
ENDBRANCH  28  29
ENDBRANCH   1  28
TORSDOF 16
