REMARK SMILES C[C@H](/N=C(\Cc1ccccc1)C(=O)OC(C)(C)C)C(=O)NCCCCCCNC(=O)c1ccc(-c2c3nc(c(-c4ccccc4)c4ccc([nH]4)c(-c4ccccc4)c4nc(c(-c5ccccc5)c5ccc2[nH]5)C=C4)C=C3)cc1
REMARK SMILES IDX 23 1 22 2 21 3 19 4 20 5 2 7 1 8 3 9 4 10 5 11 6 12 7 13
REMARK SMILES IDX 11 14 8 15 10 16 9 17 12 18 13 19 14 20 15 21 16 22 17 23
REMARK SMILES IDX 18 24 24 25 25 26 26 27 27 28 28 29 29 30 30 32 31 33 32 34
REMARK SMILES IDX 78 35 33 36 77 37 34 38 35 39 36 40 71 41 37 42 76 43 70 44
REMARK SMILES IDX 72 45 38 46 75 47 69 48 68 49 39 51 61 52 46 53 60 54 47 55
REMARK SMILES IDX 50 56 59 57 73 58 48 59 49 60 58 62 74 63 51 64 40 65 41 66
REMARK SMILES IDX 45 67 42 68 44 69 43 70 62 71 63 72 67 73 64 74 66 75 65 76
REMARK SMILES IDX 52 77 53 78 57 79 54 80 56 81 55 82
REMARK H PARENT 21 6 28 31 72 50 50 61
REMARK Flexibility Score: inf
ROOT
ATOM      1  C   UNL     1      -1.807   1.293  -1.979  1.00  0.00     0.021 C 
ENDROOT
BRANCH   1   2
ATOM      2  C   UNL     1      -1.468   2.028  -0.683  1.00  0.00     0.116 C 
BRANCH   2   3
ATOM      3  N   UNL     1      -1.762   1.233   0.483  1.00  0.00    -0.354 N 
ATOM      4  C   UNL     1      -0.919   0.546   1.310  1.00  0.00     0.244 C 
ATOM      5  O   UNL     1      -1.437  -0.069   2.248  1.00  0.00    -0.273 OA
ATOM      6  H   UNL     1      -2.716   1.176   0.720  1.00  0.00     0.163 HD
BRANCH   4   7
ATOM      7  C   UNL     1       0.614   0.607   1.154  1.00  0.00     0.191 C 
ATOM      8  C   UNL     1       1.175   1.912   1.676  1.00  0.00     0.044 C 
BRANCH   7   9
ATOM      9  N   UNL     1       1.031   0.141  -0.166  1.00  0.00    -0.269 NA
ATOM     10  C   UNL     1       1.655   0.642  -1.165  1.00  0.00     0.125 C 
BRANCH  10  11
ATOM     11  C   UNL     1       2.131   2.066  -1.359  1.00  0.00     0.099 C 
BRANCH  11  12
ATOM     12  C   UNL     1       3.613   2.370  -1.315  1.00  0.00    -0.042 A 
ATOM     13  C   UNL     1       4.017   3.613  -0.795  1.00  0.00     0.004 A 
ATOM     14  C   UNL     1       4.588   1.562  -1.911  1.00  0.00     0.004 A 
ATOM     15  C   UNL     1       5.344   4.039  -0.884  1.00  0.00     0.000 A 
ATOM     16  C   UNL     1       5.914   1.994  -2.015  1.00  0.00     0.000 A 
ATOM     17  C   UNL     1       6.291   3.234  -1.508  1.00  0.00     0.000 A 
ENDBRANCH  11  12
ENDBRANCH  10  11
BRANCH  10  18
ATOM     18  C   UNL     1       1.849  -0.329  -2.361  1.00  0.00     0.353 C 
ATOM     19  O   UNL     1       1.744  -1.529  -2.253  1.00  0.00    -0.245 OA
BRANCH  18  20
ATOM     20  O   UNL     1       2.125   0.362  -3.486  1.00  0.00    -0.455 OA
BRANCH  20  21
ATOM     21  C   UNL     1       2.421  -0.324  -4.730  1.00  0.00     0.104 C 
ATOM     22  C   UNL     1       3.553  -1.351  -4.590  1.00  0.00     0.056 C 
ATOM     23  C   UNL     1       1.150  -0.959  -5.299  1.00  0.00     0.056 C 
ATOM     24  C   UNL     1       2.897   0.790  -5.674  1.00  0.00     0.056 C 
ENDBRANCH  20  21
ENDBRANCH  18  20
ENDBRANCH  10  18
ENDBRANCH   7   9
ENDBRANCH   4   7
ENDBRANCH   2   3
ENDBRANCH   1   2
BRANCH   1  25
ATOM     25  C   UNL     1      -3.293   1.363  -2.353  1.00  0.00     0.002 C 
BRANCH  25  26
ATOM     26  C   UNL     1      -3.844   2.778  -2.578  1.00  0.00     0.002 C 
BRANCH  26  27
ATOM     27  C   UNL     1      -3.080   3.624  -3.600  1.00  0.00     0.021 C 
BRANCH  27  28
ATOM     28  C   UNL     1      -3.059   3.049  -5.014  1.00  0.00     0.116 C 
BRANCH  28  29
ATOM     29  N   UNL     1      -4.391   2.993  -5.597  1.00  0.00    -0.352 N 
ATOM     30  C   UNL     1      -4.849   3.525  -6.776  1.00  0.00     0.251 C 
ATOM     31  H   UNL     1      -5.061   2.501  -5.069  1.00  0.00     0.163 HD
ATOM     32  O   UNL     1      -6.052   3.557  -7.015  1.00  0.00    -0.269 OA
BRANCH  30  33
ATOM     33  C   UNL     1      -3.891   4.072  -7.759  1.00  0.00     0.039 A 
ATOM     34  C   UNL     1      -4.163   5.306  -8.356  1.00  0.00     0.014 A 
ATOM     35  C   UNL     1      -2.740   3.360  -8.106  1.00  0.00     0.014 A 
ATOM     36  C   UNL     1      -3.250   5.854  -9.261  1.00  0.00     0.010 A 
ATOM     37  C   UNL     1      -1.805   3.933  -8.963  1.00  0.00     0.010 A 
ATOM     38  C   UNL     1      -2.051   5.184  -9.550  1.00  0.00    -0.014 A 
BRANCH  38  39
ATOM     39  C   UNL     1      -1.038   5.766 -10.465  1.00  0.00     0.031 A 
ATOM     40  C   UNL     1      -0.719   5.080 -11.766  1.00  0.00     0.074 A 
ATOM     41  C   UNL     1      -0.344   6.857 -10.088  1.00  0.00     0.049 A 
ATOM     42  N   UNL     1       0.212   5.363 -12.641  1.00  0.00    -0.248 NA
ATOM     43  C   UNL     1      -1.538   3.908 -12.116  1.00  0.00     0.031 C 
ATOM     44  C   UNL     1      -0.535   7.598  -8.839  1.00  0.00     0.029 A 
ATOM     45  N   UNL     1       0.678   7.525 -10.716  1.00  0.00    -0.354 N 
ATOM     46  C   UNL     1       0.113   4.387 -13.625  1.00  0.00     0.074 A 
ATOM     47  C   UNL     1      -0.949   3.489 -13.227  1.00  0.00     0.031 C 
ATOM     48  C   UNL     1       0.331   8.624  -8.799  1.00  0.00     0.029 A 
ATOM     49  C   UNL     1       1.165   8.590  -9.996  1.00  0.00     0.049 A 
ATOM     50  H   UNL     1       1.030   7.265 -11.598  1.00  0.00     0.167 HD
ATOM     51  C   UNL     1       0.836   4.258 -14.762  1.00  0.00     0.031 A 
ATOM     52  C   UNL     1       2.179   9.434 -10.264  1.00  0.00     0.031 A 
ATOM     53  C   UNL     1       1.865   5.171 -15.177  1.00  0.00     0.049 A 
ATOM     54  C   UNL     1       2.962   9.265 -11.537  1.00  0.00     0.074 A 
ATOM     55  C   UNL     1       2.595   5.168 -16.353  1.00  0.00     0.029 A 
ATOM     56  N   UNL     1       2.308   6.252 -14.432  1.00  0.00    -0.354 N 
ATOM     57  N   UNL     1       2.808   8.379 -12.489  1.00  0.00    -0.248 NA
ATOM     58  C   UNL     1       4.056  10.220 -11.772  1.00  0.00     0.031 C 
ATOM     59  C   UNL     1       3.512   6.222 -16.301  1.00  0.00     0.029 A 
ATOM     60  C   UNL     1       3.319   6.907 -15.113  1.00  0.00     0.049 A 
ATOM     61  H   UNL     1       1.956   6.514 -13.551  1.00  0.00     0.167 HD
ATOM     62  C   UNL     1       3.760   8.690 -13.452  1.00  0.00     0.074 A 
ATOM     63  C   UNL     1       4.480   9.851 -12.973  1.00  0.00     0.031 C 
ATOM     64  C   UNL     1       4.013   8.071 -14.629  1.00  0.00     0.031 A 
BRANCH  51  65
ATOM     65  C   UNL     1       0.546   3.077 -15.645  1.00  0.00    -0.014 A 
ATOM     66  C   UNL     1      -0.621   3.018 -16.422  1.00  0.00     0.009 A 
ATOM     67  C   UNL     1       1.487   2.041 -15.749  1.00  0.00     0.009 A 
ATOM     68  C   UNL     1      -0.851   1.931 -17.268  1.00  0.00     0.001 A 
ATOM     69  C   UNL     1       1.266   0.968 -16.614  1.00  0.00     0.001 A 
ATOM     70  C   UNL     1       0.095   0.911 -17.368  1.00  0.00     0.000 A 
ENDBRANCH  51  65
BRANCH  52  71
ATOM     71  C   UNL     1       2.521  10.524  -9.313  1.00  0.00    -0.014 A 
ATOM     72  C   UNL     1       2.269  11.863  -9.649  1.00  0.00     0.009 A 
ATOM     73  C   UNL     1       3.134  10.236  -8.084  1.00  0.00     0.009 A 
ATOM     74  C   UNL     1       2.655  12.893  -8.789  1.00  0.00     0.001 A 
ATOM     75  C   UNL     1       3.493  11.267  -7.213  1.00  0.00     0.001 A 
ATOM     76  C   UNL     1       3.264  12.595  -7.572  1.00  0.00     0.000 A 
ENDBRANCH  52  71
BRANCH  64  77
ATOM     77  C   UNL     1       5.079   8.663 -15.504  1.00  0.00    -0.014 A 
ATOM     78  C   UNL     1       6.440   8.514 -15.196  1.00  0.00     0.009 A 
ATOM     79  C   UNL     1       4.714   9.335 -16.681  1.00  0.00     0.009 A 
ATOM     80  C   UNL     1       7.414   9.053 -16.039  1.00  0.00     0.001 A 
ATOM     81  C   UNL     1       5.691   9.850 -17.534  1.00  0.00     0.001 A 
ATOM     82  C   UNL     1       7.039   9.715 -17.208  1.00  0.00     0.000 A 
ENDBRANCH  64  77
ENDBRANCH  38  39
ENDBRANCH  30  33
ENDBRANCH  28  29
ENDBRANCH  27  28
ENDBRANCH  26  27
ENDBRANCH  25  26
ENDBRANCH   1  25
TORSDOF 19
