REMARK SMILES CS(=O)(=O)c1ccc(C2=NN(c3ccc(C(=O)NCCCCCCNC(=O)c4ccc(-c5c6nc(c(-c7ccccc7)c7ccc([nH]7)c(-c7ccccc7)c7nc(c(-c8ccccc8)c8ccc5[nH]8)C=C7)C=C6)cc4)cc3)[C@H](c3ccc(F)cc3)C2)cc1
REMARK SMILES IDX 21 1 20 2 19 3 18 4 16 5 17 6 15 8 12 9 13 10 77 11 14 12
REMARK SMILES IDX 76 13 11 14 9 15 10 16 86 17 78 18 8 19 5 20 6 21 88 22 7 23
REMARK SMILES IDX 87 24 2 25 1 26 3 27 4 28 79 29 80 30 85 31 81 32 84 33
REMARK SMILES IDX 82 34 83 35 22 36 23 37 24 38 25 39 26 40 27 42 28 43 29 44
REMARK SMILES IDX 75 45 30 46 74 47 31 48 32 49 33 50 68 51 34 52 73 53 67 54
REMARK SMILES IDX 69 55 35 56 72 57 66 58 65 59 36 61 58 62 43 63 57 64 44 65
REMARK SMILES IDX 47 66 56 67 70 68 45 69 46 70 55 72 71 73 48 74 37 75 38 76
REMARK SMILES IDX 42 77 39 78 41 79 40 80 59 81 60 82 64 83 61 84 63 85 62 86
REMARK SMILES IDX 49 87 50 88 54 89 51 90 53 91 52 92
REMARK H PARENT 18 7 25 41 69 60 47 71
REMARK Flexibility Score: inf
ROOT
ATOM      1  C   UNL     1       9.700  11.715  -7.876  1.00  0.00     0.002 C 
ENDROOT
BRANCH   1   2
ATOM      2  C   UNL     1       8.797  10.909  -6.935  1.00  0.00     0.021 C 
BRANCH   2   3
ATOM      3  C   UNL     1       7.456  11.593  -6.659  1.00  0.00     0.116 C 
BRANCH   3   4
ATOM      4  N   UNL     1       6.565  11.412  -7.790  1.00  0.00    -0.352 N 
ATOM      5  C   UNL     1       5.477  10.595  -7.966  1.00  0.00     0.251 C 
ATOM      6  O   UNL     1       4.868  10.648  -9.033  1.00  0.00    -0.269 OA
ATOM      7  H   UNL     1       6.780  11.974  -8.569  1.00  0.00     0.163 HD
BRANCH   5   8
ATOM      8  C   UNL     1       4.969   9.725  -6.875  1.00  0.00     0.039 A 
ATOM      9  C   UNL     1       3.872   8.337  -4.691  1.00  0.00     0.060 A 
ATOM     10  C   UNL     1       3.037   8.914  -5.652  1.00  0.00     0.029 A 
ATOM     11  C   UNL     1       5.254   8.370  -4.896  1.00  0.00     0.029 A 
ATOM     12  C   UNL     1       3.581   9.603  -6.740  1.00  0.00     0.016 A 
ATOM     13  C   UNL     1       5.801   9.041  -5.989  1.00  0.00     0.016 A 
BRANCH   9  14
ATOM     14  N   UNL     1       3.374   7.747  -3.545  1.00  0.00    -0.257 N 
ATOM     15  C   UNL     1       2.323   6.215  -2.533  1.00  0.00     0.071 C 
ATOM     16  N   UNL     1       3.072   6.434  -3.566  1.00  0.00    -0.176 NA
ATOM     17  C   UNL     1       1.987   7.422  -1.699  1.00  0.00     0.091 C 
ATOM     18  C   UNL     1       2.881   8.480  -2.377  1.00  0.00     0.144 C 
BRANCH  15  19
ATOM     19  C   UNL     1       1.827   4.866  -2.220  1.00  0.00    -0.002 A 
ATOM     20  C   UNL     1       0.941   2.266  -1.811  1.00  0.00     0.067 A 
ATOM     21  C   UNL     1       2.248   2.482  -2.251  1.00  0.00     0.021 A 
ATOM     22  C   UNL     1       0.069   3.340  -1.587  1.00  0.00     0.021 A 
ATOM     23  C   UNL     1       2.688   3.787  -2.459  1.00  0.00     0.011 A 
ATOM     24  C   UNL     1       0.519   4.649  -1.781  1.00  0.00     0.011 A 
BRANCH  20  25
ATOM     25  S   UNL     1       0.366   0.596  -1.608  1.00  0.00     0.175 S 
ATOM     26  C   UNL     1       0.991   0.146  -0.010  1.00  0.00     0.163 C 
ATOM     27  O   UNL     1       1.042  -0.217  -2.604  1.00  0.00    -0.224 OA
ATOM     28  O   UNL     1      -1.079   0.635  -1.532  1.00  0.00    -0.224 OA
ENDBRANCH  20  25
ENDBRANCH  15  19
BRANCH  18  29
ATOM     29  C   UNL     1       4.054   9.058  -1.581  1.00  0.00    -0.023 A 
ATOM     30  C   UNL     1       4.567   8.489  -0.403  1.00  0.00     0.009 A 
ATOM     31  C   UNL     1       4.699  10.210  -2.086  1.00  0.00     0.009 A 
ATOM     32  C   UNL     1       5.675   9.054   0.244  1.00  0.00     0.039 A 
ATOM     33  C   UNL     1       5.822  10.754  -1.458  1.00  0.00     0.039 A 
ATOM     34  C   UNL     1       6.297  10.172  -0.294  1.00  0.00     0.123 A 
ATOM     35  F   UNL     1       7.372  10.691   0.314  1.00  0.00    -0.207 F 
ENDBRANCH  18  29
ENDBRANCH   9  14
ENDBRANCH   5   8
ENDBRANCH   3   4
ENDBRANCH   2   3
ENDBRANCH   1   2
BRANCH   1  36
ATOM     36  C   UNL     1      10.130  13.081  -7.329  1.00  0.00     0.002 C 
BRANCH  36  37
ATOM     37  C   UNL     1      10.831  13.035  -5.969  1.00  0.00     0.021 C 
BRANCH  37  38
ATOM     38  C   UNL     1      12.119  12.220  -5.960  1.00  0.00     0.116 C 
BRANCH  38  39
ATOM     39  N   UNL     1      13.124  12.798  -6.837  1.00  0.00    -0.352 N 
ATOM     40  C   UNL     1      14.398  13.215  -6.549  1.00  0.00     0.251 C 
ATOM     41  H   UNL     1      12.850  12.906  -7.777  1.00  0.00     0.163 HD
ATOM     42  O   UNL     1      15.016  13.906  -7.352  1.00  0.00    -0.269 OA
BRANCH  40  43
ATOM     43  C   UNL     1      15.025  12.840  -5.264  1.00  0.00     0.039 A 
ATOM     44  C   UNL     1      15.784  13.792  -4.582  1.00  0.00     0.014 A 
ATOM     45  C   UNL     1      14.891  11.546  -4.750  1.00  0.00     0.014 A 
ATOM     46  C   UNL     1      16.372  13.460  -3.361  1.00  0.00     0.010 A 
ATOM     47  C   UNL     1      15.410  11.242  -3.494  1.00  0.00     0.010 A 
ATOM     48  C   UNL     1      16.166  12.191  -2.793  1.00  0.00    -0.014 A 
BRANCH  48  49
ATOM     49  C   UNL     1      16.746  11.848  -1.470  1.00  0.00     0.031 A 
ATOM     50  C   UNL     1      17.779  10.760  -1.350  1.00  0.00     0.074 A 
ATOM     51  C   UNL     1      16.324  12.503  -0.371  1.00  0.00     0.049 A 
ATOM     52  N   UNL     1      18.399  10.326  -0.281  1.00  0.00    -0.248 NA
ATOM     53  C   UNL     1      18.152  10.054  -2.587  1.00  0.00     0.031 C 
ATOM     54  C   UNL     1      15.304  13.555  -0.350  1.00  0.00     0.029 A 
ATOM     55  N   UNL     1      16.707  12.388   0.941  1.00  0.00    -0.354 N 
ATOM     56  C   UNL     1      19.231   9.302  -0.716  1.00  0.00     0.074 A 
ATOM     57  C   UNL     1      18.990   9.134  -2.132  1.00  0.00     0.031 C 
ATOM     58  C   UNL     1      15.177  14.019   0.904  1.00  0.00     0.029 A 
ATOM     59  C   UNL     1      16.070  13.269   1.781  1.00  0.00     0.049 A 
ATOM     60  H   UNL     1      17.376  11.736   1.252  1.00  0.00     0.167 HD
ATOM     61  C   UNL     1      20.137   8.585  -0.009  1.00  0.00     0.031 A 
ATOM     62  C   UNL     1      16.192  13.453   3.109  1.00  0.00     0.031 A 
ATOM     63  C   UNL     1      20.374   8.748   1.400  1.00  0.00     0.049 A 
ATOM     64  C   UNL     1      17.171  12.608   3.877  1.00  0.00     0.074 A 
ATOM     65  C   UNL     1      21.288   8.088   2.203  1.00  0.00     0.029 A 
ATOM     66  N   UNL     1      19.691   9.634   2.218  1.00  0.00    -0.354 N 
ATOM     67  N   UNL     1      17.994  11.687   3.437  1.00  0.00    -0.248 NA
ATOM     68  C   UNL     1      17.244  12.840   5.326  1.00  0.00     0.031 C 
ATOM     69  C   UNL     1      21.120   8.536   3.517  1.00  0.00     0.029 A 
ATOM     70  C   UNL     1      20.148   9.523   3.520  1.00  0.00     0.049 A 
ATOM     71  H   UNL     1      18.985  10.252   1.917  1.00  0.00     0.167 HD
ATOM     72  C   UNL     1      18.709  11.258   4.549  1.00  0.00     0.074 A 
ATOM     73  C   UNL     1      18.236  12.034   5.676  1.00  0.00     0.031 C 
ATOM     74  C   UNL     1      19.670  10.306   4.630  1.00  0.00     0.031 A 
BRANCH  61  75
ATOM     75  C   UNL     1      20.943   7.558  -0.756  1.00  0.00    -0.014 A 
ATOM     76  C   UNL     1      21.913   7.942  -1.698  1.00  0.00     0.009 A 
ATOM     77  C   UNL     1      20.766   6.192  -0.487  1.00  0.00     0.009 A 
ATOM     78  C   UNL     1      22.662   6.980  -2.378  1.00  0.00     0.001 A 
ATOM     79  C   UNL     1      21.539   5.233  -1.145  1.00  0.00     0.001 A 
ATOM     80  C   UNL     1      22.480   5.627  -2.096  1.00  0.00     0.000 A 
ENDBRANCH  61  75
BRANCH  62  81
ATOM     81  C   UNL     1      15.381  14.488   3.806  1.00  0.00    -0.014 A 
ATOM     82  C   UNL     1      15.998  15.610   4.381  1.00  0.00     0.009 A 
ATOM     83  C   UNL     1      13.991  14.341   3.935  1.00  0.00     0.009 A 
ATOM     84  C   UNL     1      15.249  16.538   5.107  1.00  0.00     0.001 A 
ATOM     85  C   UNL     1      13.239  15.289   4.631  1.00  0.00     0.001 A 
ATOM     86  C   UNL     1      13.870  16.379   5.229  1.00  0.00     0.000 A 
ENDBRANCH  62  81
BRANCH  74  87
ATOM     87  C   UNL     1      20.307  10.089   5.976  1.00  0.00    -0.014 A 
ATOM     88  C   UNL     1      19.598   9.506   7.038  1.00  0.00     0.009 A 
ATOM     89  C   UNL     1      21.648  10.455   6.173  1.00  0.00     0.009 A 
ATOM     90  C   UNL     1      20.206   9.338   8.284  1.00  0.00     0.001 A 
ATOM     91  C   UNL     1      22.264  10.252   7.409  1.00  0.00     0.001 A 
ATOM     92  C   UNL     1      21.539   9.706   8.466  1.00  0.00     0.000 A 
ENDBRANCH  74  87
ENDBRANCH  48  49
ENDBRANCH  40  43
ENDBRANCH  38  39
ENDBRANCH  37  38
ENDBRANCH  36  37
ENDBRANCH   1  36
TORSDOF 17
