REMARK SMILES Cc1ccc(NC(=O)c2cnn3c2NC2=C(C(=O)CCC2)[C@H]3c2ccc(C(=O)NCCCCCCNC(=O)c3ccc(-c4c5nc(c(-c6ccccc6)c6ccc([nH]6)c(-c6ccccc6)c6nc(c(-c7ccccc7)c7ccc4[nH]7)C=C6)C=C5)cc3)cc2)cc1
REMARK SMILES IDX 32 1 31 2 30 3 29 4 27 5 28 6 26 8 23 9 24 10 88 11 25 12
REMARK SMILES IDX 87 13 22 14 9 15 10 16 13 17 11 18 12 19 14 20 15 21 16 23
REMARK SMILES IDX 21 24 17 25 20 26 18 27 19 28 7 29 6 30 8 32 5 33 1 34 2 35
REMARK SMILES IDX 3 36 90 37 4 38 89 39 33 40 34 41 35 42 36 43 37 44 38 46
REMARK SMILES IDX 39 47 40 48 86 49 41 50 85 51 42 52 43 53 44 54 79 55 45 56
REMARK SMILES IDX 84 57 78 58 80 59 46 60 83 61 77 62 76 63 47 65 69 66 54 67
REMARK SMILES IDX 68 68 55 69 58 70 67 71 81 72 56 73 57 74 66 76 82 77 59 78
REMARK SMILES IDX 48 79 49 80 53 81 50 82 52 83 51 84 70 85 71 86 75 87 72 88
REMARK SMILES IDX 74 89 73 90 60 91 61 92 65 93 62 94 64 95 63 96
REMARK H PARENT 29 7 14 22 6 31 36 45 80 64 58 75
REMARK Flexibility Score: inf
ROOT
ATOM      1  C   UNL     1      -0.024  -1.660  -8.241  1.00  0.00     0.002 C 
ENDROOT
BRANCH   1   2
ATOM      2  C   UNL     1      -0.344  -2.087  -6.795  1.00  0.00     0.021 C 
BRANCH   2   3
ATOM      3  C   UNL     1      -1.629  -2.904  -6.615  1.00  0.00     0.116 C 
BRANCH   3   4
ATOM      4  N   UNL     1      -1.460  -4.271  -7.074  1.00  0.00    -0.352 N 
ATOM      5  C   UNL     1      -1.382  -5.492  -6.449  1.00  0.00     0.251 C 
ATOM      6  O   UNL     1      -1.354  -6.482  -7.184  1.00  0.00    -0.269 OA
ATOM      7  H   UNL     1      -1.384  -4.338  -8.053  1.00  0.00     0.163 HD
BRANCH   5   8
ATOM      8  C   UNL     1      -1.390  -5.706  -4.968  1.00  0.00     0.039 A 
ATOM      9  C   UNL     1      -1.780  -6.221  -2.188  1.00  0.00    -0.019 A 
ATOM     10  C   UNL     1      -1.977  -7.234  -3.138  1.00  0.00     0.007 A 
ATOM     11  C   UNL     1      -1.170  -5.036  -2.646  1.00  0.00     0.007 A 
ATOM     12  C   UNL     1      -1.801  -6.969  -4.506  1.00  0.00     0.014 A 
ATOM     13  C   UNL     1      -0.993  -4.772  -4.017  1.00  0.00     0.014 A 
BRANCH   9  14
ATOM     14  C   UNL     1      -2.398  -6.343  -0.751  1.00  0.00     0.175 C 
ATOM     15  C   UNL     1      -3.487  -2.978  -0.251  1.00  0.00     0.102 A 
ATOM     16  C   UNL     1      -2.589  -3.215   0.834  1.00  0.00     0.151 A 
ATOM     17  C   UNL     1      -3.720  -4.244  -0.745  1.00  0.00     0.142 A 
ATOM     18  N   UNL     1      -2.063  -4.444   0.825  1.00  0.00    -0.178 NA
ATOM     19  N   UNL     1      -2.683  -5.003  -0.225  1.00  0.00    -0.237 N 
ATOM     20  N   UNL     1      -4.618  -4.876  -1.569  1.00  0.00    -0.343 N 
ATOM     21  C   UNL     1      -4.752  -6.276  -1.479  1.00  0.00     0.026 C 
ATOM     22  H   UNL     1      -5.157  -4.361  -2.211  1.00  0.00     0.168 HD
ATOM     23  C   UNL     1      -3.783  -6.960  -0.821  1.00  0.00     0.044 C 
ATOM     24  C   UNL     1      -6.074  -6.946  -1.733  1.00  0.00     0.055 C 
ATOM     25  C   UNL     1      -4.319  -7.629   0.403  1.00  0.00     0.163 C 
ATOM     26  C   UNL     1      -6.662  -7.548  -0.454  1.00  0.00     0.014 C 
ATOM     27  O   UNL     1      -3.574  -8.251   1.153  1.00  0.00    -0.294 OA
ATOM     28  C   UNL     1      -5.770  -7.318   0.761  1.00  0.00     0.081 C 
BRANCH  15  29
ATOM     29  C   UNL     1      -4.073  -1.729  -0.676  1.00  0.00     0.261 C 
ATOM     30  N   UNL     1      -3.316  -0.570  -0.608  1.00  0.00    -0.322 N 
ATOM     31  H   UNL     1      -3.848   0.258  -0.625  1.00  0.00     0.170 HD
ATOM     32  O   UNL     1      -5.238  -1.661  -1.066  1.00  0.00    -0.269 OA
BRANCH  30  33
ATOM     33  C   UNL     1      -1.920  -0.357  -0.519  1.00  0.00     0.041 A 
ATOM     34  C   UNL     1       2.310   0.392   0.039  1.00  0.00     0.044 C 
ATOM     35  C   UNL     1       0.846   0.163  -0.199  1.00  0.00    -0.051 A 
ATOM     36  C   UNL     1       0.404  -1.083  -0.641  1.00  0.00     0.005 A 
ATOM     37  C   UNL     1      -0.103   1.160   0.049  1.00  0.00     0.005 A 
ATOM     38  C   UNL     1      -0.960  -1.319  -0.834  1.00  0.00     0.026 A 
ATOM     39  C   UNL     1      -1.473   0.904  -0.118  1.00  0.00     0.026 A 
ENDBRANCH  30  33
ENDBRANCH  15  29
ENDBRANCH   9  14
ENDBRANCH   5   8
ENDBRANCH   3   4
ENDBRANCH   2   3
ENDBRANCH   1   2
BRANCH   1  40
ATOM     40  C   UNL     1      -1.107  -0.871  -8.999  1.00  0.00     0.002 C 
BRANCH  40  41
ATOM     41  C   UNL     1      -1.732   0.309  -8.254  1.00  0.00     0.021 C 
BRANCH  41  42
ATOM     42  C   UNL     1      -0.809   1.508  -8.088  1.00  0.00     0.116 C 
BRANCH  42  43
ATOM     43  N   UNL     1      -0.856   2.459  -9.192  1.00  0.00    -0.352 N 
ATOM     44  C   UNL     1      -0.153   3.638  -9.401  1.00  0.00     0.251 C 
ATOM     45  H   UNL     1      -1.491   2.227  -9.908  1.00  0.00     0.163 HD
ATOM     46  O   UNL     1      -0.423   4.337 -10.359  1.00  0.00    -0.269 OA
BRANCH  44  47
ATOM     47  C   UNL     1       1.025   3.970  -8.553  1.00  0.00     0.039 A 
ATOM     48  C   UNL     1       2.139   4.550  -9.182  1.00  0.00     0.014 A 
ATOM     49  C   UNL     1       1.129   3.524  -7.244  1.00  0.00     0.014 A 
ATOM     50  C   UNL     1       3.399   4.425  -8.603  1.00  0.00     0.010 A 
ATOM     51  C   UNL     1       2.380   3.280  -6.730  1.00  0.00     0.010 A 
ATOM     52  C   UNL     1       3.517   3.678  -7.439  1.00  0.00    -0.014 A 
BRANCH  52  53
ATOM     53  C   UNL     1       4.765   3.175  -6.890  1.00  0.00     0.031 A 
ATOM     54  C   UNL     1       5.264   3.709  -5.610  1.00  0.00     0.074 A 
ATOM     55  C   UNL     1       5.298   2.059  -7.433  1.00  0.00     0.049 A 
ATOM     56  N   UNL     1       6.428   3.453  -5.124  1.00  0.00    -0.248 NA
ATOM     57  C   UNL     1       4.488   4.629  -4.782  1.00  0.00     0.031 C 
ATOM     58  C   UNL     1       6.218   1.113  -6.811  1.00  0.00     0.029 A 
ATOM     59  N   UNL     1       5.253   1.666  -8.769  1.00  0.00    -0.354 N 
ATOM     60  C   UNL     1       6.441   3.899  -3.824  1.00  0.00     0.074 A 
ATOM     61  C   UNL     1       5.250   4.701  -3.687  1.00  0.00     0.031 C 
ATOM     62  C   UNL     1       6.832   0.403  -7.771  1.00  0.00     0.029 A 
ATOM     63  C   UNL     1       6.461   0.998  -9.044  1.00  0.00     0.049 A 
ATOM     64  H   UNL     1       4.516   1.825  -9.402  1.00  0.00     0.167 HD
ATOM     65  C   UNL     1       7.393   3.419  -2.977  1.00  0.00     0.031 A 
ATOM     66  C   UNL     1       7.359   1.521  -9.934  1.00  0.00     0.031 A 
ATOM     67  C   UNL     1       8.364   2.591  -3.688  1.00  0.00     0.049 A 
ATOM     68  C   UNL     1       8.693   1.878  -9.313  1.00  0.00     0.074 A 
ATOM     69  C   UNL     1       8.526   1.222  -3.823  1.00  0.00     0.029 A 
ATOM     70  N   UNL     1       9.160   3.182  -4.661  1.00  0.00    -0.354 N 
ATOM     71  N   UNL     1       8.875   2.068  -8.035  1.00  0.00    -0.248 NA
ATOM     72  C   UNL     1       9.923   2.064 -10.079  1.00  0.00     0.031 C 
ATOM     73  C   UNL     1       9.377   0.992  -4.937  1.00  0.00     0.029 A 
ATOM     74  C   UNL     1       9.756   2.220  -5.450  1.00  0.00     0.049 A 
ATOM     75  H   UNL     1       9.282   4.152  -4.772  1.00  0.00     0.167 HD
ATOM     76  C   UNL     1      10.189   2.375  -7.793  1.00  0.00     0.074 A 
ATOM     77  C   UNL     1      10.806   2.361  -9.107  1.00  0.00     0.031 C 
ATOM     78  C   UNL     1      10.649   2.618  -6.530  1.00  0.00     0.031 A 
BRANCH  65  79
ATOM     79  C   UNL     1       7.312   3.487  -1.472  1.00  0.00    -0.014 A 
ATOM     80  C   UNL     1       8.053   2.570  -0.703  1.00  0.00     0.009 A 
ATOM     81  C   UNL     1       6.499   4.375  -0.748  1.00  0.00     0.009 A 
ATOM     82  C   UNL     1       7.934   2.497   0.691  1.00  0.00     0.001 A 
ATOM     83  C   UNL     1       6.356   4.294   0.644  1.00  0.00     0.001 A 
ATOM     84  C   UNL     1       7.069   3.348   1.364  1.00  0.00     0.000 A 
ENDBRANCH  65  79
BRANCH  66  85
ATOM     85  C   UNL     1       6.703   2.263 -11.048  1.00  0.00    -0.014 A 
ATOM     86  C   UNL     1       5.956   1.519 -11.985  1.00  0.00     0.009 A 
ATOM     87  C   UNL     1       6.458   3.640 -10.938  1.00  0.00     0.009 A 
ATOM     88  C   UNL     1       4.902   2.109 -12.690  1.00  0.00     0.001 A 
ATOM     89  C   UNL     1       5.409   4.228 -11.658  1.00  0.00     0.001 A 
ATOM     90  C   UNL     1       4.608   3.456 -12.499  1.00  0.00     0.000 A 
ENDBRANCH  66  85
BRANCH  78  91
ATOM     91  C   UNL     1      11.989   3.206  -6.146  1.00  0.00    -0.014 A 
ATOM     92  C   UNL     1      12.832   3.905  -7.016  1.00  0.00     0.009 A 
ATOM     93  C   UNL     1      12.373   3.184  -4.783  1.00  0.00     0.009 A 
ATOM     94  C   UNL     1      14.006   4.521  -6.556  1.00  0.00     0.001 A 
ATOM     95  C   UNL     1      13.512   3.839  -4.311  1.00  0.00     0.001 A 
ATOM     96  C   UNL     1      14.337   4.502  -5.204  1.00  0.00     0.000 A 
ENDBRANCH  78  91
ENDBRANCH  52  53
ENDBRANCH  44  47
ENDBRANCH  42  43
ENDBRANCH  41  42
ENDBRANCH  40  41
ENDBRANCH   1  40
TORSDOF 16
