REMARK SMILES CC(C)Cc1cc(C(=O)N[C@@H](Cc2ccco2)C(=O)NCCCCCCNC(=O)c2ccc(-c3c4nc(c(-c5ccccc5)c5ccc([nH]5)c(-c5ccccc5)c5nc(c(-c6ccccc6)c6ccc3[nH]6)C=C5)C=C4)cc2)on1
REMARK SMILES IDX 22 1 21 2 20 3 18 4 19 5 11 7 10 8 8 9 9 10 7 12 5 13 6 14
REMARK SMILES IDX 79 15 78 16 4 17 2 18 1 19 3 20 12 21 13 22 14 23 17 24
REMARK SMILES IDX 15 25 16 26 23 27 24 28 25 29 26 30 27 31 28 32 29 34 30 35
REMARK SMILES IDX 31 36 77 37 32 38 76 39 33 40 34 41 35 42 70 43 36 44 75 45
REMARK SMILES IDX 69 46 71 47 37 48 74 49 68 50 67 51 38 53 60 54 45 55 59 56
REMARK SMILES IDX 46 57 49 58 58 59 72 60 47 61 48 62 57 64 73 65 50 66 39 67
REMARK SMILES IDX 40 68 44 69 41 70 43 71 42 72 61 73 62 74 66 75 63 76 65 77
REMARK SMILES IDX 64 78 51 79 52 80 56 81 53 82 55 83 54 84
REMARK H PARENT 20 6 10 11 27 33 71 52 49 63
REMARK Flexibility Score: inf
ROOT
ATOM      1  C   UNL     1       2.606  -8.003   1.181  1.00  0.00     0.021 C 
ENDROOT
BRANCH   1   2
ATOM      2  C   UNL     1       2.140  -6.939   2.160  1.00  0.00     0.116 C 
BRANCH   2   3
ATOM      3  N   UNL     1       2.555  -5.604   1.810  1.00  0.00    -0.354 N 
ATOM      4  C   UNL     1       1.991  -4.415   2.146  1.00  0.00     0.243 C 
ATOM      5  O   UNL     1       2.726  -3.420   2.099  1.00  0.00    -0.273 OA
ATOM      6  H   UNL     1       3.361  -5.546   1.248  1.00  0.00     0.163 HD
BRANCH   4   7
ATOM      7  C   UNL     1       0.551  -4.267   2.691  1.00  0.00     0.179 C 
BRANCH   7   8
ATOM      8  N   UNL     1      -0.514  -4.994   1.986  1.00  0.00    -0.337 N 
ATOM      9  C   UNL     1      -1.486  -4.546   1.113  1.00  0.00     0.290 C 
ATOM     10  O   UNL     1      -2.104  -5.409   0.496  1.00  0.00    -0.266 OA
ATOM     11  H   UNL     1      -0.539  -5.962   2.166  1.00  0.00     0.164 HD
BRANCH   9  12
ATOM     12  C   UNL     1      -1.724  -3.131   0.951  1.00  0.00     0.224 A 
ATOM     13  C   UNL     1      -1.683  -0.932   0.874  1.00  0.00     0.085 A 
ATOM     14  C   UNL     1      -1.585  -2.025   1.759  1.00  0.00     0.083 A 
ATOM     15  N   UNL     1      -2.130  -1.319  -0.324  1.00  0.00    -0.084 NA
ATOM     16  O   UNL     1      -2.174  -2.705  -0.269  1.00  0.00    -0.351 OA
BRANCH  13  17
ATOM     17  C   UNL     1      -1.206   0.461   1.116  1.00  0.00     0.063 C 
BRANCH  17  18
ATOM     18  C   UNL     1       0.340   0.509   1.196  1.00  0.00    -0.011 C 
ATOM     19  C   UNL     1       0.995   0.162  -0.146  1.00  0.00     0.008 C 
ATOM     20  C   UNL     1       0.819   1.879   1.671  1.00  0.00     0.008 C 
ENDBRANCH  17  18
ENDBRANCH  13  17
ENDBRANCH   9  12
ENDBRANCH   7   8
BRANCH   7  21
ATOM     21  C   UNL     1       0.437  -4.369   4.218  1.00  0.00     0.110 C 
BRANCH  21  22
ATOM     22  C   UNL     1       0.823  -5.669   4.822  1.00  0.00     0.106 A 
ATOM     23  C   UNL     1       1.874  -6.051   5.631  1.00  0.00     0.045 A 
ATOM     24  O   UNL     1      -0.002  -6.731   4.598  1.00  0.00    -0.469 OA
ATOM     25  C   UNL     1       1.690  -7.429   5.902  1.00  0.00     0.042 A 
ATOM     26  C   UNL     1       0.531  -7.794   5.258  1.00  0.00     0.195 A 
ENDBRANCH  21  22
ENDBRANCH   7  21
ENDBRANCH   4   7
ENDBRANCH   2   3
ENDBRANCH   1   2
BRANCH   1  27
ATOM     27  C   UNL     1       4.109  -8.294   1.219  1.00  0.00     0.002 C 
BRANCH  27  28
ATOM     28  C   UNL     1       4.700  -8.609   2.599  1.00  0.00     0.002 C 
BRANCH  28  29
ATOM     29  C   UNL     1       3.981  -9.694   3.405  1.00  0.00     0.021 C 
BRANCH  29  30
ATOM     30  C   UNL     1       3.792 -11.020   2.683  1.00  0.00     0.116 C 
BRANCH  30  31
ATOM     31  N   UNL     1       5.050 -11.608   2.261  1.00  0.00    -0.352 N 
ATOM     32  C   UNL     1       5.504 -12.893   2.415  1.00  0.00     0.251 C 
ATOM     33  H   UNL     1       5.666 -10.996   1.798  1.00  0.00     0.163 HD
ATOM     34  O   UNL     1       6.665 -13.172   2.136  1.00  0.00    -0.269 OA
BRANCH  32  35
ATOM     35  C   UNL     1       4.598 -13.939   2.936  1.00  0.00     0.039 A 
ATOM     36  C   UNL     1       5.094 -14.848   3.874  1.00  0.00     0.014 A 
ATOM     37  C   UNL     1       3.279 -14.043   2.488  1.00  0.00     0.014 A 
ATOM     38  C   UNL     1       4.255 -15.837   4.390  1.00  0.00     0.010 A 
ATOM     39  C   UNL     1       2.422 -14.976   3.063  1.00  0.00     0.010 A 
ATOM     40  C   UNL     1       2.906 -15.896   4.004  1.00  0.00    -0.014 A 
BRANCH  40  41
ATOM     41  C   UNL     1       2.000 -16.942   4.540  1.00  0.00     0.031 A 
ATOM     42  C   UNL     1       1.401 -17.964   3.609  1.00  0.00     0.074 A 
ATOM     43  C   UNL     1       1.679 -16.948   5.849  1.00  0.00     0.049 A 
ATOM     44  N   UNL     1       0.552 -18.924   3.873  1.00  0.00    -0.248 NA
ATOM     45  C   UNL     1       1.788 -17.881   2.191  1.00  0.00     0.031 C 
ATOM     46  C   UNL     1       2.168 -15.996   6.848  1.00  0.00     0.029 A 
ATOM     47  N   UNL     1       0.860 -17.786   6.563  1.00  0.00    -0.354 N 
ATOM     48  C   UNL     1       0.288 -19.539   2.655  1.00  0.00     0.074 A 
ATOM     49  C   UNL     1       1.026 -18.816   1.645  1.00  0.00     0.031 C 
ATOM     50  C   UNL     1       1.665 -16.323   8.050  1.00  0.00     0.029 A 
ATOM     51  C   UNL     1       0.786 -17.478   7.900  1.00  0.00     0.049 A 
ATOM     52  H   UNL     1       0.371 -18.538   6.156  1.00  0.00     0.167 HD
ATOM     53  C   UNL     1      -0.484 -20.623   2.402  1.00  0.00     0.031 A 
ATOM     54  C   UNL     1       0.084 -18.058   8.892  1.00  0.00     0.031 A 
ATOM     55  C   UNL     1      -1.199 -21.357   3.411  1.00  0.00     0.049 A 
ATOM     56  C   UNL     1      -0.776 -19.253   8.578  1.00  0.00     0.074 A 
ATOM     57  C   UNL     1      -1.959 -22.504   3.264  1.00  0.00     0.029 A 
ATOM     58  N   UNL     1      -1.242 -21.015   4.753  1.00  0.00    -0.354 N 
ATOM     59  N   UNL     1      -0.959 -19.864   7.432  1.00  0.00    -0.248 NA
ATOM     60  C   UNL     1      -1.517 -19.846   9.701  1.00  0.00     0.031 C 
ATOM     61  C   UNL     1      -2.508 -22.824   4.509  1.00  0.00     0.029 A 
ATOM     62  C   UNL     1      -2.035 -21.915   5.442  1.00  0.00     0.049 A 
ATOM     63  H   UNL     1      -0.777 -20.246   5.156  1.00  0.00     0.167 HD
ATOM     64  C   UNL     1      -1.798 -20.937   7.706  1.00  0.00     0.074 A 
ATOM     65  C   UNL     1      -2.079 -20.899   9.126  1.00  0.00     0.031 C 
ATOM     66  C   UNL     1      -2.291 -21.872   6.858  1.00  0.00     0.031 A 
BRANCH  53  67
ATOM     67  C   UNL     1      -0.601 -21.080   0.974  1.00  0.00    -0.014 A 
ATOM     68  C   UNL     1       0.484 -21.666   0.303  1.00  0.00     0.009 A 
ATOM     69  C   UNL     1      -1.831 -20.969   0.307  1.00  0.00     0.009 A 
ATOM     70  C   UNL     1       0.347 -22.104  -1.017  1.00  0.00     0.001 A 
ATOM     71  C   UNL     1      -1.973 -21.435  -1.001  1.00  0.00     0.001 A 
ATOM     72  C   UNL     1      -0.882 -21.994  -1.665  1.00  0.00     0.000 A 
ENDBRANCH  53  67
BRANCH  54  73
ATOM     73  C   UNL     1       0.168 -17.536  10.282  1.00  0.00    -0.014 A 
ATOM     74  C   UNL     1       0.770 -18.299  11.295  1.00  0.00     0.009 A 
ATOM     75  C   UNL     1      -0.389 -16.291  10.614  1.00  0.00     0.009 A 
ATOM     76  C   UNL     1       0.776 -17.846  12.616  1.00  0.00     0.001 A 
ATOM     77  C   UNL     1      -0.351 -15.825  11.930  1.00  0.00     0.001 A 
ATOM     78  C   UNL     1       0.217 -16.609  12.932  1.00  0.00     0.000 A 
ENDBRANCH  54  73
BRANCH  66  79
ATOM     79  C   UNL     1      -3.132 -22.967   7.452  1.00  0.00    -0.014 A 
ATOM     80  C   UNL     1      -4.425 -22.722   7.938  1.00  0.00     0.009 A 
ATOM     81  C   UNL     1      -2.631 -24.279   7.485  1.00  0.00     0.009 A 
ATOM     82  C   UNL     1      -5.182 -23.761   8.483  1.00  0.00     0.001 A 
ATOM     83  C   UNL     1      -3.403 -25.321   7.997  1.00  0.00     0.001 A 
ATOM     84  C   UNL     1      -4.673 -25.059   8.507  1.00  0.00     0.000 A 
ENDBRANCH  66  79
ENDBRANCH  40  41
ENDBRANCH  32  35
ENDBRANCH  30  31
ENDBRANCH  29  30
ENDBRANCH  28  29
ENDBRANCH  27  28
ENDBRANCH   1  27
TORSDOF 19
