REMARK SMILES Cc1c2c([nH]c(=O)c1C(=O)NCCCCCCNC(=O)c1ccc(-c3c4nc(c(-c5ccccc5)c5ccc([nH]5)c(-c5ccccc5)c5nc(c(-c6ccccc6)c6ccc3[nH]6)C=C5)C=C4)cc1)CC(C)(C)CC2=O
REMARK SMILES IDX 15 1 14 2 13 3 12 4 11 5 9 6 10 7 8 9 1 10 2 11 3 12 4 13
REMARK SMILES IDX 74 14 6 15 5 16 69 17 73 18 75 19 7 20 70 22 71 23 72 24
REMARK SMILES IDX 16 25 17 26 18 27 19 28 20 30 21 31 22 32 68 33 23 34 67 35
REMARK SMILES IDX 24 36 25 37 26 38 61 39 27 40 66 41 60 42 62 43 28 44 65 45
REMARK SMILES IDX 59 46 58 47 29 49 51 50 36 51 50 52 37 53 40 54 49 55 63 56
REMARK SMILES IDX 38 57 39 58 48 60 64 61 41 62 30 63 31 64 35 65 32 66 34 67
REMARK SMILES IDX 33 68 52 69 53 70 57 71 54 72 56 73 55 74 42 75 43 76 47 77
REMARK SMILES IDX 44 78 46 79 45 80
REMARK H PARENT 11 8 5 21 18 29 62 48 40 59
REMARK Flexibility Score: inf
ROOT
ATOM      1  C   UNL     1       3.400  -1.814  -3.264  1.00  0.00     0.002 C 
ENDROOT
BRANCH   1   2
ATOM      2  C   UNL     1       2.526  -0.773  -3.973  1.00  0.00     0.002 C 
BRANCH   2   3
ATOM      3  C   UNL     1       1.281  -0.264  -3.240  1.00  0.00     0.021 C 
BRANCH   3   4
ATOM      4  C   UNL     1       1.468   0.154  -1.789  1.00  0.00     0.116 C 
BRANCH   4   5
ATOM      5  N   UNL     1       2.329   1.295  -1.564  1.00  0.00    -0.352 N 
ATOM      6  C   UNL     1       2.387   2.133  -0.476  1.00  0.00     0.257 C 
ATOM      7  O   UNL     1       3.340   2.903  -0.383  1.00  0.00    -0.269 OA
ATOM      8  H   UNL     1       2.961   1.500  -2.291  1.00  0.00     0.163 HD
BRANCH   6   9
ATOM      9  C   UNL     1       1.292   2.131   0.545  1.00  0.00     0.108 A 
ATOM     10  C   UNL     1       1.642  -0.271   1.269  1.00  0.00     0.046 C 
ATOM     11  C   UNL     1       0.890   1.035   1.235  1.00  0.00    -0.020 A 
ATOM     12  C   UNL     1      -0.276   1.111   2.122  1.00  0.00     0.041 A 
ATOM     13  C   UNL     1      -0.707   2.303   2.572  1.00  0.00     0.030 A 
ATOM     14  C   UNL     1      -1.055  -0.106   2.524  1.00  0.00     0.165 C 
ATOM     15  C   UNL     1       0.723   3.458   0.971  1.00  0.00     0.261 A 
ATOM     16  N   UNL     1      -0.163   3.442   2.028  1.00  0.00    -0.325 N 
ATOM     17  C   UNL     1      -1.807   2.499   3.590  1.00  0.00     0.061 C 
ATOM     18  C   UNL     1      -1.926  -0.008   3.750  1.00  0.00     0.088 C 
ATOM     19  O   UNL     1      -0.997  -1.148   1.874  1.00  0.00    -0.294 OA
ATOM     20  O   UNL     1       1.014   4.524   0.440  1.00  0.00    -0.269 OA
ATOM     21  H   UNL     1      -0.424   4.307   2.420  1.00  0.00     0.169 HD
ATOM     22  C   UNL     1      -2.753   1.285   3.740  1.00  0.00    -0.023 C 
ATOM     23  C   UNL     1      -3.779   1.269   2.588  1.00  0.00     0.012 C 
ATOM     24  C   UNL     1      -3.523   1.381   5.068  1.00  0.00     0.012 C 
ENDBRANCH   6   9
ENDBRANCH   4   5
ENDBRANCH   3   4
ENDBRANCH   2   3
ENDBRANCH   1   2
BRANCH   1  25
ATOM     25  C   UNL     1       2.706  -3.059  -2.709  1.00  0.00     0.021 C 
BRANCH  25  26
ATOM     26  C   UNL     1       1.784  -3.801  -3.667  1.00  0.00     0.116 C 
BRANCH  26  27
ATOM     27  N   UNL     1       2.457  -4.242  -4.876  1.00  0.00    -0.352 N 
ATOM     28  C   UNL     1       2.617  -5.505  -5.388  1.00  0.00     0.251 C 
ATOM     29  H   UNL     1       2.860  -3.522  -5.413  1.00  0.00     0.163 HD
ATOM     30  O   UNL     1       3.334  -5.686  -6.364  1.00  0.00    -0.269 OA
BRANCH  28  31
ATOM     31  C   UNL     1       1.947  -6.660  -4.750  1.00  0.00     0.039 A 
ATOM     32  C   UNL     1       2.681  -7.832  -4.555  1.00  0.00     0.014 A 
ATOM     33  C   UNL     1       0.602  -6.604  -4.372  1.00  0.00     0.014 A 
ATOM     34  C   UNL     1       2.079  -8.932  -3.941  1.00  0.00     0.010 A 
ATOM     35  C   UNL     1       0.027  -7.672  -3.688  1.00  0.00     0.010 A 
ATOM     36  C   UNL     1       0.754  -8.854  -3.483  1.00  0.00    -0.014 A 
BRANCH  36  37
ATOM     37  C   UNL     1       0.107 -10.023  -2.838  1.00  0.00     0.031 A 
ATOM     38  C   UNL     1      -1.036 -10.720  -3.522  1.00  0.00     0.074 A 
ATOM     39  C   UNL     1       0.545 -10.457  -1.640  1.00  0.00     0.049 A 
ATOM     40  N   UNL     1      -1.709 -11.775  -3.135  1.00  0.00    -0.248 NA
ATOM     41  C   UNL     1      -1.497 -10.152  -4.800  1.00  0.00     0.031 C 
ATOM     42  C   UNL     1       1.629  -9.852  -0.865  1.00  0.00     0.029 A 
ATOM     43  N   UNL     1       0.140 -11.521  -0.872  1.00  0.00    -0.354 N 
ATOM     44  C   UNL     1      -2.665 -11.992  -4.119  1.00  0.00     0.074 A 
ATOM     45  C   UNL     1      -2.533 -10.926  -5.085  1.00  0.00     0.031 C 
ATOM     46  C   UNL     1       1.834 -10.581   0.244  1.00  0.00     0.029 A 
ATOM     47  C   UNL     1       0.876 -11.682   0.277  1.00  0.00     0.049 A 
ATOM     48  H   UNL     1      -0.607 -12.112  -1.121  1.00  0.00     0.167 HD
ATOM     49  C   UNL     1      -3.551 -13.009  -4.229  1.00  0.00     0.031 A 
ATOM     50  C   UNL     1       0.794 -12.616   1.243  1.00  0.00     0.031 A 
ATOM     51  C   UNL     1      -3.675 -14.077  -3.276  1.00  0.00     0.049 A 
ATOM     52  C   UNL     1      -0.235 -13.707   1.125  1.00  0.00     0.074 A 
ATOM     53  C   UNL     1      -4.512 -15.177  -3.322  1.00  0.00     0.029 A 
ATOM     54  N   UNL     1      -2.942 -14.175  -2.104  1.00  0.00    -0.354 N 
ATOM     55  N   UNL     1      -1.084 -13.938   0.153  1.00  0.00    -0.248 NA
ATOM     56  C   UNL     1      -0.315 -14.668   2.235  1.00  0.00     0.031 C 
ATOM     57  C   UNL     1      -4.326 -15.913  -2.149  1.00  0.00     0.029 A 
ATOM     58  C   UNL     1      -3.334 -15.300  -1.400  1.00  0.00     0.049 A 
ATOM     59  H   UNL     1      -2.248 -13.540  -1.816  1.00  0.00     0.167 HD
ATOM     60  C   UNL     1      -1.789 -15.074   0.526  1.00  0.00     0.074 A 
ATOM     61  C   UNL     1      -1.252 -15.501   1.802  1.00  0.00     0.031 C 
ATOM     62  C   UNL     1      -2.795 -15.704  -0.127  1.00  0.00     0.031 A 
BRANCH  49  63
ATOM     63  C   UNL     1      -4.450 -13.020  -5.434  1.00  0.00    -0.014 A 
ATOM     64  C   UNL     1      -3.939 -13.297  -6.713  1.00  0.00     0.009 A 
ATOM     65  C   UNL     1      -5.828 -12.803  -5.285  1.00  0.00     0.009 A 
ATOM     66  C   UNL     1      -4.786 -13.326  -7.822  1.00  0.00     0.001 A 
ATOM     67  C   UNL     1      -6.677 -12.861  -6.392  1.00  0.00     0.001 A 
ATOM     68  C   UNL     1      -6.155 -13.114  -7.659  1.00  0.00     0.000 A 
ENDBRANCH  49  63
BRANCH  50  69
ATOM     69  C   UNL     1       1.732 -12.577   2.396  1.00  0.00    -0.014 A 
ATOM     70  C   UNL     1       2.734 -13.550   2.530  1.00  0.00     0.009 A 
ATOM     71  C   UNL     1       1.640 -11.563   3.363  1.00  0.00     0.009 A 
ATOM     72  C   UNL     1       3.613 -13.518   3.615  1.00  0.00     0.001 A 
ATOM     73  C   UNL     1       2.538 -11.518   4.432  1.00  0.00     0.001 A 
ATOM     74  C   UNL     1       3.519 -12.499   4.561  1.00  0.00     0.000 A 
ENDBRANCH  50  69
BRANCH  62  75
ATOM     75  C   UNL     1      -3.396 -16.919   0.522  1.00  0.00    -0.014 A 
ATOM     76  C   UNL     1      -4.246 -16.793   1.631  1.00  0.00     0.009 A 
ATOM     77  C   UNL     1      -3.190 -18.189  -0.041  1.00  0.00     0.009 A 
ATOM     78  C   UNL     1      -4.869 -17.919   2.172  1.00  0.00     0.001 A 
ATOM     79  C   UNL     1      -3.837 -19.308   0.485  1.00  0.00     0.001 A 
ATOM     80  C   UNL     1      -4.672 -19.172   1.593  1.00  0.00     0.000 A 
ENDBRANCH  62  75
ENDBRANCH  36  37
ENDBRANCH  28  31
ENDBRANCH  26  27
ENDBRANCH  25  26
ENDBRANCH   1  25
TORSDOF 13
