REMARK SMILES CCc1ccc(C(=O)N2CC[C@H](C(=O)NCCCCCCNC(=O)c3ccc(-c4c5nc(c(-c6ccccc6)c6ccc([nH]6)c(-c6ccccc6)c6nc(c(-c7ccccc7)c7ccc4[nH]7)C=C6)C=C5)cc3)[C@@H]2C)s1
REMARK SMILES IDX 18 1 17 2 16 3 15 4 13 5 14 6 12 8 9 9 10 10 73 11 11 12
REMARK SMILES IDX 74 13 7 14 8 15 6 16 3 17 4 18 75 19 5 20 2 21 1 22 19 23
REMARK SMILES IDX 20 24 21 25 22 26 23 27 24 29 25 30 26 31 72 32 27 33 71 34
REMARK SMILES IDX 28 35 29 36 30 37 65 38 31 39 70 40 64 41 66 42 32 43 69 44
REMARK SMILES IDX 63 45 62 46 33 48 55 49 40 50 54 51 41 52 44 53 53 54 67 55
REMARK SMILES IDX 42 56 43 57 52 59 68 60 45 61 34 62 35 63 39 64 36 65 38 66
REMARK SMILES IDX 37 67 56 68 57 69 61 70 58 71 60 72 59 73 46 74 47 75 51 76
REMARK SMILES IDX 48 77 50 78 49 79
REMARK H PARENT 15 7 22 28 66 47 44 58
REMARK Flexibility Score: inf
ROOT
ATOM      1  C   UNL     1      -2.600   3.736  10.694  1.00  0.00     0.002 C 
ENDROOT
BRANCH   1   2
ATOM      2  C   UNL     1      -1.987   3.377   9.337  1.00  0.00     0.021 C 
BRANCH   2   3
ATOM      3  C   UNL     1      -1.161   4.494   8.692  1.00  0.00     0.116 C 
BRANCH   3   4
ATOM      4  N   UNL     1       0.091   4.648   9.403  1.00  0.00    -0.356 N 
ATOM      5  C   UNL     1       1.368   4.388   9.011  1.00  0.00     0.225 C 
ATOM      6  O   UNL     1       2.236   4.394   9.884  1.00  0.00    -0.275 OA
ATOM      7  H   UNL     1       0.005   4.998  10.319  1.00  0.00     0.163 HD
BRANCH   5   8
ATOM      8  C   UNL     1       1.695   4.191   7.535  1.00  0.00     0.102 C 
ATOM      9  N   UNL     1       2.706   2.298   6.489  1.00  0.00    -0.334 N 
ATOM     10  C   UNL     1       3.746   2.956   7.241  1.00  0.00     0.121 C 
ATOM     11  C   UNL     1       1.392   2.818   6.880  1.00  0.00     0.094 C 
ATOM     12  C   UNL     1       3.215   4.377   7.303  1.00  0.00     0.037 C 
ATOM     13  C   UNL     1       0.673   1.774   7.727  1.00  0.00     0.032 C 
BRANCH   9  14
ATOM     14  C   UNL     1       3.003   1.273   5.599  1.00  0.00     0.264 C 
ATOM     15  O   UNL     1       4.029   0.609   5.749  1.00  0.00    -0.268 OA
BRANCH  14  16
ATOM     16  C   UNL     1       2.119   1.106   4.449  1.00  0.00     0.092 A 
ATOM     17  C   UNL     1       0.998   0.180   2.440  1.00  0.00     0.005 A 
ATOM     18  C   UNL     1       0.797   1.538   2.570  1.00  0.00     0.016 A 
ATOM     19  S   UNL     1       1.907  -0.445   3.752  1.00  0.00    -0.135 S 
ATOM     20  C   UNL     1       1.474   2.074   3.700  1.00  0.00     0.026 A 
BRANCH  17  21
ATOM     21  C   UNL     1       0.545  -0.719   1.325  1.00  0.00     0.043 C 
ATOM     22  C   UNL     1       1.056  -0.234  -0.027  1.00  0.00     0.010 C 
ENDBRANCH  17  21
ENDBRANCH  14  16
ENDBRANCH   9  14
ENDBRANCH   5   8
ENDBRANCH   3   4
ENDBRANCH   2   3
ENDBRANCH   1   2
BRANCH   1  23
ATOM     23  C   UNL     1      -3.704   4.792  10.649  1.00  0.00     0.002 C 
BRANCH  23  24
ATOM     24  C   UNL     1      -4.851   4.497   9.680  1.00  0.00     0.021 C 
BRANCH  24  25
ATOM     25  C   UNL     1      -5.488   3.117   9.823  1.00  0.00     0.116 C 
BRANCH  25  26
ATOM     26  N   UNL     1      -6.082   2.909  11.132  1.00  0.00    -0.352 N 
ATOM     27  C   UNL     1      -7.374   2.579  11.464  1.00  0.00     0.251 C 
ATOM     28  H   UNL     1      -5.469   3.021  11.894  1.00  0.00     0.163 HD
ATOM     29  O   UNL     1      -7.738   2.600  12.631  1.00  0.00    -0.269 OA
BRANCH  27  30
ATOM     30  C   UNL     1      -8.337   2.224  10.399  1.00  0.00     0.039 A 
ATOM     31  C   UNL     1      -9.595   2.833  10.404  1.00  0.00     0.014 A 
ATOM     32  C   UNL     1      -8.004   1.301   9.403  1.00  0.00     0.014 A 
ATOM     33  C   UNL     1     -10.494   2.569   9.370  1.00  0.00     0.010 A 
ATOM     34  C   UNL     1      -8.879   1.085   8.340  1.00  0.00     0.010 A 
ATOM     35  C   UNL     1     -10.129   1.722   8.310  1.00  0.00    -0.014 A 
BRANCH  35  36
ATOM     36  C   UNL     1     -11.032   1.518   7.150  1.00  0.00     0.031 A 
ATOM     37  C   UNL     1     -11.633   0.168   6.879  1.00  0.00     0.074 A 
ATOM     38  C   UNL     1     -11.257   2.538   6.300  1.00  0.00     0.049 A 
ATOM     39  N   UNL     1     -12.401  -0.208   5.887  1.00  0.00    -0.248 NA
ATOM     40  C   UNL     1     -11.314  -0.906   7.832  1.00  0.00     0.031 C 
ATOM     41  C   UNL     1     -10.698   3.886   6.426  1.00  0.00     0.029 A 
ATOM     42  N   UNL     1     -12.010   2.597   5.153  1.00  0.00    -0.354 N 
ATOM     43  C   UNL     1     -12.643  -1.560   6.088  1.00  0.00     0.074 A 
ATOM     44  C   UNL     1     -11.909  -1.950   7.273  1.00  0.00     0.031 C 
ATOM     45  C   UNL     1     -11.143   4.643   5.409  1.00  0.00     0.029 A 
ATOM     46  C   UNL     1     -11.987   3.827   4.543  1.00  0.00     0.049 A 
ATOM     47  H   UNL     1     -12.517   1.830   4.802  1.00  0.00     0.167 HD
ATOM     48  C   UNL     1     -13.418  -2.400   5.360  1.00  0.00     0.031 A 
ATOM     49  C   UNL     1     -12.573   4.251   3.407  1.00  0.00     0.031 A 
ATOM     50  C   UNL     1     -14.158  -2.013   4.189  1.00  0.00     0.049 A 
ATOM     51  C   UNL     1     -13.422   3.298   2.616  1.00  0.00     0.074 A 
ATOM     52  C   UNL     1     -15.025  -2.776   3.426  1.00  0.00     0.029 A 
ATOM     53  N   UNL     1     -14.116  -0.755   3.608  1.00  0.00    -0.354 N 
ATOM     54  N   UNL     1     -13.701   2.041   2.862  1.00  0.00    -0.248 NA
ATOM     55  C   UNL     1     -14.045   3.826   1.393  1.00  0.00     0.031 C 
ATOM     56  C   UNL     1     -15.469  -1.995   2.355  1.00  0.00     0.029 A 
ATOM     57  C   UNL     1     -14.918  -0.730   2.480  1.00  0.00     0.049 A 
ATOM     58  H   UNL     1     -13.593   0.007   3.948  1.00  0.00     0.167 HD
ATOM     59  C   UNL     1     -14.546   1.634   1.839  1.00  0.00     0.074 A 
ATOM     60  C   UNL     1     -14.750   2.782   0.980  1.00  0.00     0.031 C 
ATOM     61  C   UNL     1     -15.104   0.417   1.630  1.00  0.00     0.031 A 
BRANCH  48  62
ATOM     62  C   UNL     1     -13.498  -3.832   5.808  1.00  0.00    -0.014 A 
ATOM     63  C   UNL     1     -14.205  -4.192   6.967  1.00  0.00     0.009 A 
ATOM     64  C   UNL     1     -12.899  -4.839   5.037  1.00  0.00     0.009 A 
ATOM     65  C   UNL     1     -14.281  -5.530   7.361  1.00  0.00     0.001 A 
ATOM     66  C   UNL     1     -12.998  -6.178   5.419  1.00  0.00     0.001 A 
ATOM     67  C   UNL     1     -13.682  -6.522   6.584  1.00  0.00     0.000 A 
ENDBRANCH  48  62
BRANCH  49  68
ATOM     68  C   UNL     1     -12.382   5.652   2.951  1.00  0.00    -0.014 A 
ATOM     69  C   UNL     1     -13.437   6.574   3.027  1.00  0.00     0.009 A 
ATOM     70  C   UNL     1     -11.147   6.071   2.434  1.00  0.00     0.009 A 
ATOM     71  C   UNL     1     -13.264   7.883   2.570  1.00  0.00     0.001 A 
ATOM     72  C   UNL     1     -10.970   7.388   2.003  1.00  0.00     0.001 A 
ATOM     73  C   UNL     1     -12.031   8.290   2.063  1.00  0.00     0.000 A 
ENDBRANCH  49  68
BRANCH  61  74
ATOM     74  C   UNL     1     -16.003   0.272   0.436  1.00  0.00    -0.014 A 
ATOM     75  C   UNL     1     -15.479   0.222  -0.865  1.00  0.00     0.009 A 
ATOM     76  C   UNL     1     -17.390   0.150   0.618  1.00  0.00     0.009 A 
ATOM     77  C   UNL     1     -16.331   0.082  -1.963  1.00  0.00     0.001 A 
ATOM     78  C   UNL     1     -18.235  -0.016  -0.479  1.00  0.00     0.001 A 
ATOM     79  C   UNL     1     -17.706  -0.041  -1.769  1.00  0.00     0.000 A 
ENDBRANCH  61  74
ENDBRANCH  35  36
ENDBRANCH  27  30
ENDBRANCH  25  26
ENDBRANCH  24  25
ENDBRANCH  23  24
ENDBRANCH   1  23
TORSDOF 16
