REMARK SMILES CC(C)[NH2+][C@]1(C(=O)NCCCCCCNC(=O)c2ccc(-c3c4nc(c(-c5ccccc5)c5ccc([nH]5)c(-c5ccccc5)c5nc(c(-c6ccccc6)c6ccc3[nH]6)C=C5)C=C4)cc2)CC[C@@H](Oc2cc(F)ccc2F)C1
REMARK SMILES IDX 11 1 10 2 9 3 8 4 6 5 7 6 5 8 66 9 78 10 67 11 68 12 4 13
REMARK SMILES IDX 2 16 1 17 3 18 69 19 70 20 71 21 76 22 72 23 75 24 77 25
REMARK SMILES IDX 73 26 74 27 12 28 13 29 14 30 15 31 16 32 17 34 18 35 19 36
REMARK SMILES IDX 65 37 20 38 64 39 21 40 22 41 23 42 58 43 24 44 63 45 57 46
REMARK SMILES IDX 59 47 25 48 62 49 56 50 55 51 26 53 48 54 33 55 47 56 34 57
REMARK SMILES IDX 37 58 46 59 60 60 35 61 36 62 45 64 61 65 38 66 27 67 28 68
REMARK SMILES IDX 32 69 29 70 31 71 30 72 49 73 50 74 54 75 51 76 53 77 52 78
REMARK SMILES IDX 39 79 40 80 44 81 41 82 43 83 42 84
REMARK H PARENT 8 7 4 14 4 15 15 33 59 52 37 63
REMARK Flexibility Score: inf
ROOT
ATOM      1  C   UNL     1      -1.979   2.300   2.421  1.00  0.00     0.002 C 
ENDROOT
BRANCH   1   2
ATOM      2  C   UNL     1      -2.183   0.854   1.951  1.00  0.00     0.021 C 
BRANCH   2   3
ATOM      3  C   UNL     1      -2.217   0.673   0.421  1.00  0.00     0.116 C 
BRANCH   3   4
ATOM      4  N   UNL     1      -1.124  -0.159  -0.060  1.00  0.00    -0.351 N 
ATOM      5  C   UNL     1      -0.870  -1.405  -0.496  1.00  0.00     0.281 C 
ATOM      6  O   UNL     1       0.259  -1.438  -1.035  1.00  0.00    -0.268 OA
ATOM      7  H   UNL     1      -0.292   0.367  -0.069  1.00  0.00     0.163 HD
BRANCH   5   8
ATOM      8  C   UNL     1      -1.658  -2.761  -0.417  1.00  0.00     0.179 C 
ATOM      9  C   UNL     1      -1.725  -3.315  -1.885  1.00  0.00     0.083 C 
ATOM     10  C   UNL     1      -0.712  -3.826   0.204  1.00  0.00     0.124 C 
ATOM     11  C   UNL     1      -1.661  -4.844  -1.813  1.00  0.00     0.052 C 
ATOM     12  C   UNL     1      -1.044  -5.168  -0.452  1.00  0.00     0.180 C 
BRANCH   8  13
ATOM     13  N   UNL     1      -3.050  -2.848   0.073  1.00  0.00    -0.332 N 
ATOM     14  H   UNL     1      -3.632  -2.443  -0.660  1.00  0.00     0.347 HD
ATOM     15  H   UNL     1      -3.126  -3.840   0.296  1.00  0.00     0.347 HD
BRANCH  13  16
ATOM     16  C   UNL     1      -3.491  -2.239   1.314  1.00  0.00     0.176 C 
ATOM     17  C   UNL     1      -4.993  -2.501   1.496  1.00  0.00     0.075 C 
ATOM     18  C   UNL     1      -2.733  -2.582   2.587  1.00  0.00     0.075 C 
ENDBRANCH  13  16
ENDBRANCH   8  13
BRANCH  12  19
ATOM     19  O   UNL     1      -0.017  -6.172  -0.427  1.00  0.00    -0.487 OA
BRANCH  19  20
ATOM     20  C   UNL     1       1.103  -5.945  -1.178  1.00  0.00     0.158 A 
ATOM     21  C   UNL     1       1.237  -6.614  -2.395  1.00  0.00     0.088 A 
ATOM     22  C   UNL     1       2.180  -5.200  -0.692  1.00  0.00     0.165 A 
ATOM     23  C   UNL     1       2.395  -6.439  -3.150  1.00  0.00     0.127 A 
ATOM     24  C   UNL     1       3.327  -5.006  -1.460  1.00  0.00     0.046 A 
ATOM     25  F   UNL     1       2.146  -4.679   0.543  1.00  0.00    -0.203 F 
ATOM     26  F   UNL     1       2.519  -7.075  -4.322  1.00  0.00    -0.207 F 
ATOM     27  C   UNL     1       3.432  -5.623  -2.705  1.00  0.00     0.042 A 
ENDBRANCH  19  20
ENDBRANCH  12  19
ENDBRANCH   5   8
ENDBRANCH   3   4
ENDBRANCH   2   3
ENDBRANCH   1   2
BRANCH   1  28
ATOM     28  C   UNL     1      -3.108   3.271   2.060  1.00  0.00     0.002 C 
BRANCH  28  29
ATOM     29  C   UNL     1      -4.490   2.933   2.631  1.00  0.00     0.021 C 
BRANCH  29  30
ATOM     30  C   UNL     1      -4.553   2.785   4.151  1.00  0.00     0.116 C 
BRANCH  30  31
ATOM     31  N   UNL     1      -4.079   3.975   4.845  1.00  0.00    -0.352 N 
ATOM     32  C   UNL     1      -4.766   4.898   5.588  1.00  0.00     0.251 C 
ATOM     33  H   UNL     1      -3.112   4.143   4.766  1.00  0.00     0.163 HD
ATOM     34  O   UNL     1      -4.228   5.960   5.906  1.00  0.00    -0.269 OA
BRANCH  32  35
ATOM     35  C   UNL     1      -6.156   4.635   6.008  1.00  0.00     0.039 A 
ATOM     36  C   UNL     1      -7.116   5.638   5.850  1.00  0.00     0.014 A 
ATOM     37  C   UNL     1      -6.506   3.409   6.580  1.00  0.00     0.014 A 
ATOM     38  C   UNL     1      -8.445   5.385   6.195  1.00  0.00     0.010 A 
ATOM     39  C   UNL     1      -7.840   3.137   6.869  1.00  0.00     0.010 A 
ATOM     40  C   UNL     1      -8.823   4.118   6.670  1.00  0.00    -0.014 A 
BRANCH  40  41
ATOM     41  C   UNL     1     -10.246   3.782   6.919  1.00  0.00     0.031 A 
ATOM     42  C   UNL     1     -10.729   3.483   8.308  1.00  0.00     0.074 A 
ATOM     43  C   UNL     1     -11.084   3.663   5.872  1.00  0.00     0.049 A 
ATOM     44  N   UNL     1     -11.918   3.104   8.705  1.00  0.00    -0.248 NA
ATOM     45  C   UNL     1      -9.741   3.603   9.392  1.00  0.00     0.031 C 
ATOM     46  C   UNL     1     -10.727   3.896   4.471  1.00  0.00     0.029 A 
ATOM     47  N   UNL     1     -12.408   3.306   5.823  1.00  0.00    -0.354 N 
ATOM     48  C   UNL     1     -11.818   2.925  10.078  1.00  0.00     0.074 A 
ATOM     49  C   UNL     1     -10.442   3.195  10.439  1.00  0.00     0.031 C 
ATOM     50  C   UNL     1     -11.811   3.704   3.704  1.00  0.00     0.029 A 
ATOM     51  C   UNL     1     -12.925   3.290   4.551  1.00  0.00     0.049 A 
ATOM     52  H   UNL     1     -12.936   3.082   6.623  1.00  0.00     0.167 HD
ATOM     53  C   UNL     1     -12.786   2.578  10.960  1.00  0.00     0.031 A 
ATOM     54  C   UNL     1     -14.156   2.969   4.112  1.00  0.00     0.031 A 
ATOM     55  C   UNL     1     -14.152   2.307  10.595  1.00  0.00     0.049 A 
ATOM     56  C   UNL     1     -15.199   2.539   5.102  1.00  0.00     0.074 A 
ATOM     57  C   UNL     1     -15.226   2.022  11.421  1.00  0.00     0.029 A 
ATOM     58  N   UNL     1     -14.628   2.270   9.293  1.00  0.00    -0.354 N 
ATOM     59  N   UNL     1     -15.111   2.451   6.407  1.00  0.00    -0.248 NA
ATOM     60  C   UNL     1     -16.510   2.161   4.557  1.00  0.00     0.031 C 
ATOM     61  C   UNL     1     -16.337   1.750  10.614  1.00  0.00     0.029 A 
ATOM     62  C   UNL     1     -15.968   1.920   9.289  1.00  0.00     0.049 A 
ATOM     63  H   UNL     1     -14.092   2.464   8.491  1.00  0.00     0.167 HD
ATOM     64  C   UNL     1     -16.357   2.021   6.842  1.00  0.00     0.074 A 
ATOM     65  C   UNL     1     -17.188   1.884   5.662  1.00  0.00     0.031 C 
ATOM     66  C   UNL     1     -16.774   1.763   8.105  1.00  0.00     0.031 A 
BRANCH  53  67
ATOM     67  C   UNL     1     -12.387   2.447  12.404  1.00  0.00    -0.014 A 
ATOM     68  C   UNL     1     -12.033   3.569  13.171  1.00  0.00     0.009 A 
ATOM     69  C   UNL     1     -12.376   1.182  13.012  1.00  0.00     0.009 A 
ATOM     70  C   UNL     1     -11.629   3.421  14.499  1.00  0.00     0.001 A 
ATOM     71  C   UNL     1     -12.000   1.040  14.349  1.00  0.00     0.001 A 
ATOM     72  C   UNL     1     -11.615   2.157  15.088  1.00  0.00     0.000 A 
ENDBRANCH  53  67
BRANCH  54  73
ATOM     73  C   UNL     1     -14.467   3.057   2.662  1.00  0.00    -0.014 A 
ATOM     74  C   UNL     1     -15.287   4.087   2.179  1.00  0.00     0.009 A 
ATOM     75  C   UNL     1     -13.925   2.136   1.752  1.00  0.00     0.009 A 
ATOM     76  C   UNL     1     -15.567   4.187   0.814  1.00  0.00     0.001 A 
ATOM     77  C   UNL     1     -14.186   2.253   0.386  1.00  0.00     0.001 A 
ATOM     78  C   UNL     1     -15.011   3.275  -0.081  1.00  0.00     0.000 A 
ENDBRANCH  54  73
BRANCH  66  79
ATOM     79  C   UNL     1     -18.195   1.304   8.275  1.00  0.00    -0.014 A 
ATOM     80  C   UNL     1     -18.583   0.006   7.908  1.00  0.00     0.009 A 
ATOM     81  C   UNL     1     -19.145   2.163   8.846  1.00  0.00     0.009 A 
ATOM     82  C   UNL     1     -19.903  -0.412   8.085  1.00  0.00     0.001 A 
ATOM     83  C   UNL     1     -20.458   1.733   9.048  1.00  0.00     0.001 A 
ATOM     84  C   UNL     1     -20.837   0.449   8.660  1.00  0.00     0.000 A 
ENDBRANCH  66  79
ENDBRANCH  40  41
ENDBRANCH  32  35
ENDBRANCH  30  31
ENDBRANCH  29  30
ENDBRANCH  28  29
ENDBRANCH   1  28
TORSDOF 17
