REMARK SMILES CC(C)(CCc1ccc(Cl)c2ccccc12)C(=O)NCCCCCCNC(=O)c1ccc(-c2c3nc(c(-c4ccccc4)c4ccc([nH]4)c(-c4ccccc4)c4nc(c(-c5ccccc5)c5ccc2[nH]5)C=C4)C=C3)cc1
REMARK SMILES IDX 22 1 21 2 20 3 19 4 17 5 18 6 2 8 1 9 3 10 4 11 5 12 6 13
REMARK SMILES IDX 7 14 16 15 8 16 11 17 15 18 9 19 12 20 14 21 10 22 13 23
REMARK SMILES IDX 23 24 24 25 25 26 26 27 27 28 28 30 29 31 30 32 76 33 31 34
REMARK SMILES IDX 75 35 32 36 33 37 34 38 69 39 35 40 74 41 68 42 70 43 36 44
REMARK SMILES IDX 73 45 67 46 66 47 37 49 59 50 44 51 58 52 45 53 48 54 57 55
REMARK SMILES IDX 71 56 46 57 47 58 56 60 72 61 49 62 38 63 39 64 43 65 40 66
REMARK SMILES IDX 42 67 41 68 60 69 61 70 65 71 62 72 64 73 63 74 50 75 51 76
REMARK SMILES IDX 55 77 52 78 54 79 53 80
REMARK H PARENT 19 7 26 29 70 48 48 59
REMARK Flexibility Score: inf
ROOT
ATOM      1  C   UNL     1      -1.553  -4.341  -4.046  1.00  0.00     0.002 C 
ENDROOT
BRANCH   1   2
ATOM      2  C   UNL     1      -1.589  -4.373  -2.515  1.00  0.00     0.021 C 
BRANCH   2   3
ATOM      3  C   UNL     1      -0.289  -4.426  -1.691  1.00  0.00     0.116 C 
BRANCH   3   4
ATOM      4  N   UNL     1       0.805  -3.510  -1.998  1.00  0.00    -0.356 N 
ATOM      5  C   UNL     1       1.285  -2.333  -1.495  1.00  0.00     0.225 C 
ATOM      6  O   UNL     1       2.421  -2.030  -1.878  1.00  0.00    -0.275 OA
ATOM      7  H   UNL     1       1.335  -3.821  -2.767  1.00  0.00     0.163 HD
BRANCH   5   8
ATOM      8  C   UNL     1       0.507  -1.400  -0.539  1.00  0.00     0.044 C 
ATOM      9  C   UNL     1       1.341  -0.127  -0.259  1.00  0.00     0.021 C 
ATOM     10  C   UNL     1       0.398  -2.124   0.823  1.00  0.00     0.021 C 
BRANCH   8  11
ATOM     11  C   UNL     1      -0.898  -1.011  -1.082  1.00  0.00     0.021 C 
BRANCH  11  12
ATOM     12  C   UNL     1      -1.150   0.313  -1.857  1.00  0.00     0.037 C 
BRANCH  12  13
ATOM     13  C   UNL     1      -0.685   0.782  -3.241  1.00  0.00    -0.040 A 
ATOM     14  C   UNL     1      -0.970   2.143  -3.487  1.00  0.00     0.006 A 
ATOM     15  C   UNL     1      -0.082   0.049  -4.303  1.00  0.00    -0.014 A 
ATOM     16  C   UNL     1      -0.668   2.757  -4.699  1.00  0.00     0.021 A 
ATOM     17  C   UNL     1       0.270   0.675  -5.538  1.00  0.00     0.001 A 
ATOM     18  C   UNL     1       0.193  -1.312  -4.220  1.00  0.00     0.009 A 
ATOM     19  C   UNL     1      -0.051   2.034  -5.713  1.00  0.00     0.048 A 
ATOM     20  C   UNL     1       0.918  -0.085  -6.551  1.00  0.00     0.010 A 
ATOM     21  C   UNL     1       0.885  -2.034  -5.198  1.00  0.00     0.001 A 
ATOM     22  Cl  UNL     1       0.277   2.886  -7.188  1.00  0.00    -0.084 Cl
ATOM     23  C   UNL     1       1.246  -1.422  -6.375  1.00  0.00     0.001 A 
ENDBRANCH  12  13
ENDBRANCH  11  12
ENDBRANCH   8  11
ENDBRANCH   5   8
ENDBRANCH   3   4
ENDBRANCH   2   3
ENDBRANCH   1   2
BRANCH   1  24
ATOM     24  C   UNL     1      -0.567  -5.272  -4.750  1.00  0.00     0.002 C 
BRANCH  24  25
ATOM     25  C   UNL     1      -0.992  -6.734  -4.789  1.00  0.00     0.021 C 
BRANCH  25  26
ATOM     26  C   UNL     1      -2.246  -6.999  -5.611  1.00  0.00     0.116 C 
BRANCH  26  27
ATOM     27  N   UNL     1      -2.086  -6.780  -7.043  1.00  0.00    -0.352 N 
ATOM     28  C   UNL     1      -2.783  -7.416  -8.048  1.00  0.00     0.251 C 
ATOM     29  H   UNL     1      -1.415  -6.115  -7.320  1.00  0.00     0.163 HD
ATOM     30  O   UNL     1      -2.535  -7.231  -9.233  1.00  0.00    -0.269 OA
BRANCH  28  31
ATOM     31  C   UNL     1      -3.828  -8.376  -7.640  1.00  0.00     0.039 A 
ATOM     32  C   UNL     1      -3.693  -9.721  -7.986  1.00  0.00     0.014 A 
ATOM     33  C   UNL     1      -4.843  -7.951  -6.780  1.00  0.00     0.014 A 
ATOM     34  C   UNL     1      -4.550 -10.660  -7.410  1.00  0.00     0.010 A 
ATOM     35  C   UNL     1      -5.633  -8.896  -6.141  1.00  0.00     0.010 A 
ATOM     36  C   UNL     1      -5.503 -10.258  -6.458  1.00  0.00    -0.014 A 
BRANCH  36  37
ATOM     37  C   UNL     1      -6.418 -11.235  -5.819  1.00  0.00     0.031 A 
ATOM     38  C   UNL     1      -7.899 -11.118  -6.060  1.00  0.00     0.074 A 
ATOM     39  C   UNL     1      -5.938 -12.178  -4.986  1.00  0.00     0.049 A 
ATOM     40  N   UNL     1      -8.879 -11.817  -5.549  1.00  0.00    -0.248 NA
ATOM     41  C   UNL     1      -8.338 -10.045  -6.970  1.00  0.00     0.031 C 
ATOM     42  C   UNL     1      -4.529 -12.368  -4.631  1.00  0.00     0.029 A 
ATOM     43  N   UNL     1      -6.590 -13.161  -4.284  1.00  0.00    -0.354 N 
ATOM     44  C   UNL     1     -10.043 -11.250  -6.052  1.00  0.00     0.074 A 
ATOM     45  C   UNL     1      -9.654 -10.113  -6.853  1.00  0.00     0.031 C 
ATOM     46  C   UNL     1      -4.421 -13.426  -3.810  1.00  0.00     0.029 A 
ATOM     47  C   UNL     1      -5.751 -13.970  -3.555  1.00  0.00     0.049 A 
ATOM     48  H   UNL     1      -7.568 -13.275  -4.300  1.00  0.00     0.167 HD
ATOM     49  C   UNL     1     -11.324 -11.658  -5.893  1.00  0.00     0.031 A 
ATOM     50  C   UNL     1      -6.028 -15.035  -2.779  1.00  0.00     0.031 A 
ATOM     51  C   UNL     1     -11.709 -12.812  -5.130  1.00  0.00     0.049 A 
ATOM     52  C   UNL     1      -7.457 -15.486  -2.638  1.00  0.00     0.074 A 
ATOM     53  C   UNL     1     -12.973 -13.342  -4.945  1.00  0.00     0.029 A 
ATOM     54  N   UNL     1     -10.825 -13.623  -4.437  1.00  0.00    -0.354 N 
ATOM     55  N   UNL     1      -8.542 -14.972  -3.166  1.00  0.00    -0.248 NA
ATOM     56  C   UNL     1      -7.695 -16.676  -1.809  1.00  0.00     0.031 C 
ATOM     57  C   UNL     1     -12.856 -14.462  -4.114  1.00  0.00     0.029 A 
ATOM     58  C   UNL     1     -11.514 -14.651  -3.821  1.00  0.00     0.049 A 
ATOM     59  H   UNL     1      -9.851 -13.487  -4.390  1.00  0.00     0.167 HD
ATOM     60  C   UNL     1      -9.585 -15.797  -2.764  1.00  0.00     0.074 A 
ATOM     61  C   UNL     1      -9.001 -16.849  -1.957  1.00  0.00     0.031 C 
ATOM     62  C   UNL     1     -10.908 -15.695  -3.038  1.00  0.00     0.031 A 
BRANCH  49  63
ATOM     63  C   UNL     1     -12.390 -10.848  -6.575  1.00  0.00    -0.014 A 
ATOM     64  C   UNL     1     -12.515 -10.848  -7.975  1.00  0.00     0.009 A 
ATOM     65  C   UNL     1     -13.282 -10.079  -5.814  1.00  0.00     0.009 A 
ATOM     66  C   UNL     1     -13.481 -10.057  -8.599  1.00  0.00     0.001 A 
ATOM     67  C   UNL     1     -14.268  -9.313  -6.439  1.00  0.00     0.001 A 
ATOM     68  C   UNL     1     -14.358  -9.293  -7.831  1.00  0.00     0.000 A 
ENDBRANCH  49  63
BRANCH  50  69
ATOM     69  C   UNL     1      -4.932 -15.784  -2.110  1.00  0.00    -0.014 A 
ATOM     70  C   UNL     1      -4.580 -17.070  -2.552  1.00  0.00     0.009 A 
ATOM     71  C   UNL     1      -4.248 -15.234  -1.016  1.00  0.00     0.009 A 
ATOM     72  C   UNL     1      -3.591 -17.802  -1.892  1.00  0.00     0.001 A 
ATOM     73  C   UNL     1      -3.239 -15.958  -0.374  1.00  0.00     0.001 A 
ATOM     74  C   UNL     1      -2.919 -17.245  -0.805  1.00  0.00     0.000 A 
ENDBRANCH  50  69
BRANCH  62  75
ATOM     75  C   UNL     1     -11.805 -16.776  -2.508  1.00  0.00    -0.014 A 
ATOM     76  C   UNL     1     -12.136 -16.848  -1.147  1.00  0.00     0.009 A 
ATOM     77  C   UNL     1     -12.365 -17.706  -3.399  1.00  0.00     0.009 A 
ATOM     78  C   UNL     1     -12.988 -17.852  -0.684  1.00  0.00     0.001 A 
ATOM     79  C   UNL     1     -13.237 -18.691  -2.937  1.00  0.00     0.001 A 
ATOM     80  C   UNL     1     -13.541 -18.769  -1.578  1.00  0.00     0.000 A 
ENDBRANCH  62  75
ENDBRANCH  36  37
ENDBRANCH  28  31
ENDBRANCH  26  27
ENDBRANCH  25  26
ENDBRANCH  24  25
ENDBRANCH   1  24
TORSDOF 16
