REMARK SMILES Cc1ccccc1OC1(C(=O)NCCCCCCNC(=O)c2ccc(-c3c4nc(c(-c5ccccc5)c5ccc([nH]5)c(-c5ccccc5)c5nc(c(-c6ccccc6)c6ccc3[nH]6)C=C5)C=C4)cc2)CCN(C(=O)[C@H]2CCCCO2)CC1
REMARK SMILES IDX 15 1 14 2 13 3 12 4 10 5 11 6 9 8 70 9 82 10 71 11 81 12
REMARK SMILES IDX 72 13 73 14 74 15 8 16 7 17 1 18 2 19 3 20 4 21 6 22 5 23
REMARK SMILES IDX 75 24 76 25 80 26 77 27 79 28 78 29 16 30 17 31 18 32 19 33
REMARK SMILES IDX 20 34 21 36 22 37 23 38 69 39 24 40 68 41 25 42 26 43 27 44
REMARK SMILES IDX 62 45 28 46 67 47 61 48 63 49 29 50 66 51 60 52 59 53 30 55
REMARK SMILES IDX 52 56 37 57 51 58 38 59 41 60 50 61 64 62 39 63 40 64 49 66
REMARK SMILES IDX 65 67 42 68 31 69 32 70 36 71 33 72 35 73 34 74 53 75 54 76
REMARK SMILES IDX 58 77 55 78 57 79 56 80 43 81 44 82 48 83 45 84 47 85 46 86
REMARK H PARENT 12 7 19 35 63 54 41 65
REMARK Flexibility Score: inf
ROOT
ATOM      1  C   UNL     1       9.883  -4.165  -4.364  1.00  0.00     0.002 C 
ENDROOT
BRANCH   1   2
ATOM      2  C   UNL     1       9.032  -4.271  -3.091  1.00  0.00     0.021 C 
BRANCH   2   3
ATOM      3  C   UNL     1       7.519  -4.313  -3.315  1.00  0.00     0.116 C 
BRANCH   3   4
ATOM      4  N   UNL     1       7.014  -5.650  -3.534  1.00  0.00    -0.353 N 
ATOM      5  C   UNL     1       6.095  -6.411  -2.865  1.00  0.00     0.264 C 
ATOM      6  O   UNL     1       5.796  -7.464  -3.443  1.00  0.00    -0.270 OA
ATOM      7  H   UNL     1       7.408  -6.100  -4.316  1.00  0.00     0.163 HD
BRANCH   5   8
ATOM      8  C   UNL     1       5.463  -5.997  -1.471  1.00  0.00     0.190 C 
ATOM      9  C   UNL     1       6.591  -5.955  -0.444  1.00  0.00     0.080 C 
ATOM     10  C   UNL     1       4.595  -4.755  -1.692  1.00  0.00     0.080 C 
ATOM     11  C   UNL     1       6.994  -4.578   0.058  1.00  0.00     0.124 C 
ATOM     12  C   UNL     1       4.948  -3.485  -0.922  1.00  0.00     0.124 C 
ATOM     13  N   UNL     1       5.916  -3.597   0.161  1.00  0.00    -0.340 N 
ATOM     14  C   UNL     1       6.034  -2.644   1.187  1.00  0.00     0.251 C 
ATOM     15  O   UNL     1       6.999  -2.673   1.957  1.00  0.00    -0.272 OA
BRANCH   8  16
ATOM     16  O   UNL     1       4.623  -7.161  -1.219  1.00  0.00    -0.477 OA
BRANCH  16  17
ATOM     17  C   UNL     1       3.680  -7.462  -0.286  1.00  0.00     0.123 A 
ATOM     18  C   UNL     1       4.070  -5.824   1.688  1.00  0.00     0.048 C 
ATOM     19  C   UNL     1       3.375  -6.929   0.973  1.00  0.00    -0.009 A 
ATOM     20  C   UNL     1       2.344  -7.518   1.750  1.00  0.00     0.007 A 
ATOM     21  C   UNL     1       1.617  -8.612   1.302  1.00  0.00     0.001 A 
ATOM     22  C   UNL     1       2.925  -8.574  -0.714  1.00  0.00     0.047 A 
ATOM     23  C   UNL     1       1.909  -9.143   0.061  1.00  0.00     0.004 A 
ENDBRANCH  16  17
ENDBRANCH   8  16
BRANCH  14  24
ATOM     24  C   UNL     1       4.919  -1.575   1.355  1.00  0.00     0.207 C 
ATOM     25  C   UNL     1       3.735  -2.193   2.113  1.00  0.00     0.042 C 
ATOM     26  O   UNL     1       5.468  -0.466   2.079  1.00  0.00    -0.368 OA
ATOM     27  C   UNL     1       2.723  -1.150   2.573  1.00  0.00     0.006 C 
ATOM     28  C   UNL     1       4.523   0.549   2.391  1.00  0.00     0.161 C 
ATOM     29  C   UNL     1       3.425  -0.004   3.283  1.00  0.00     0.029 C 
ENDBRANCH  14  24
ENDBRANCH   5   8
ENDBRANCH   3   4
ENDBRANCH   2   3
ENDBRANCH   1   2
BRANCH   1  30
ATOM     30  C   UNL     1       9.535  -3.025  -5.339  1.00  0.00     0.002 C 
BRANCH  30  31
ATOM     31  C   UNL     1       9.291  -1.646  -4.721  1.00  0.00     0.021 C 
BRANCH  31  32
ATOM     32  C   UNL     1      10.535  -0.983  -4.146  1.00  0.00     0.116 C 
BRANCH  32  33
ATOM     33  N   UNL     1      11.217  -0.087  -5.073  1.00  0.00    -0.352 N 
ATOM     34  C   UNL     1      12.429   0.570  -4.928  1.00  0.00     0.251 C 
ATOM     35  H   UNL     1      10.749   0.074  -5.924  1.00  0.00     0.163 HD
ATOM     36  O   UNL     1      12.839   1.308  -5.806  1.00  0.00    -0.269 OA
BRANCH  34  37
ATOM     37  C   UNL     1      13.283   0.261  -3.754  1.00  0.00     0.039 A 
ATOM     38  C   UNL     1      14.632  -0.028  -3.989  1.00  0.00     0.014 A 
ATOM     39  C   UNL     1      12.731   0.051  -2.494  1.00  0.00     0.014 A 
ATOM     40  C   UNL     1      15.344  -0.767  -3.049  1.00  0.00     0.010 A 
ATOM     41  C   UNL     1      13.400  -0.762  -1.601  1.00  0.00     0.010 A 
ATOM     42  C   UNL     1      14.678  -1.230  -1.915  1.00  0.00    -0.014 A 
BRANCH  42  43
ATOM     43  C   UNL     1      15.201  -2.285  -1.059  1.00  0.00     0.031 A 
ATOM     44  C   UNL     1      15.812  -1.957   0.239  1.00  0.00     0.074 A 
ATOM     45  C   UNL     1      15.085  -3.574  -1.446  1.00  0.00     0.049 A 
ATOM     46  N   UNL     1      16.645  -2.721   0.858  1.00  0.00    -0.248 NA
ATOM     47  C   UNL     1      15.566  -0.692   0.920  1.00  0.00     0.031 C 
ATOM     48  C   UNL     1      15.322  -4.776  -0.653  1.00  0.00     0.029 A 
ATOM     49  N   UNL     1      14.951  -4.041  -2.751  1.00  0.00    -0.354 N 
ATOM     50  C   UNL     1      16.839  -2.193   2.111  1.00  0.00     0.074 A 
ATOM     51  C   UNL     1      16.202  -0.896   2.077  1.00  0.00     0.031 C 
ATOM     52  C   UNL     1      15.572  -5.799  -1.486  1.00  0.00     0.029 A 
ATOM     53  C   UNL     1      15.655  -5.257  -2.832  1.00  0.00     0.049 A 
ATOM     54  H   UNL     1      14.457  -3.603  -3.480  1.00  0.00     0.167 HD
ATOM     55  C   UNL     1      17.422  -2.958   3.075  1.00  0.00     0.031 A 
ATOM     56  C   UNL     1      16.741  -5.359  -3.655  1.00  0.00     0.031 A 
ATOM     57  C   UNL     1      17.871  -4.250   2.559  1.00  0.00     0.049 A 
ATOM     58  C   UNL     1      18.055  -5.585  -2.930  1.00  0.00     0.074 A 
ATOM     59  C   UNL     1      17.377  -5.543   2.612  1.00  0.00     0.029 A 
ATOM     60  N   UNL     1      18.864  -4.260   1.593  1.00  0.00    -0.354 N 
ATOM     61  N   UNL     1      18.191  -5.618  -1.633  1.00  0.00    -0.248 NA
ATOM     62  C   UNL     1      19.341  -5.692  -3.624  1.00  0.00     0.031 C 
ATOM     63  C   UNL     1      18.077  -6.325   1.647  1.00  0.00     0.029 A 
ATOM     64  C   UNL     1      19.006  -5.511   1.026  1.00  0.00     0.049 A 
ATOM     65  H   UNL     1      19.401  -3.474   1.342  1.00  0.00     0.167 HD
ATOM     66  C   UNL     1      19.519  -5.703  -1.317  1.00  0.00     0.074 A 
ATOM     67  C   UNL     1      20.203  -5.750  -2.595  1.00  0.00     0.031 C 
ATOM     68  C   UNL     1      19.980  -5.688  -0.035  1.00  0.00     0.031 A 
BRANCH  55  69
ATOM     69  C   UNL     1      17.391  -2.610   4.542  1.00  0.00    -0.014 A 
ATOM     70  C   UNL     1      17.442  -3.639   5.500  1.00  0.00     0.009 A 
ATOM     71  C   UNL     1      17.275  -1.304   5.046  1.00  0.00     0.009 A 
ATOM     72  C   UNL     1      17.290  -3.386   6.870  1.00  0.00     0.001 A 
ATOM     73  C   UNL     1      17.079  -1.046   6.410  1.00  0.00     0.001 A 
ATOM     74  C   UNL     1      17.077  -2.091   7.322  1.00  0.00     0.000 A 
ENDBRANCH  55  69
BRANCH  56  75
ATOM     75  C   UNL     1      16.587  -4.569  -4.912  1.00  0.00    -0.014 A 
ATOM     76  C   UNL     1      15.545  -4.924  -5.795  1.00  0.00     0.009 A 
ATOM     77  C   UNL     1      17.176  -3.305  -5.045  1.00  0.00     0.009 A 
ATOM     78  C   UNL     1      15.015  -3.990  -6.689  1.00  0.00     0.001 A 
ATOM     79  C   UNL     1      16.656  -2.380  -5.960  1.00  0.00     0.001 A 
ATOM     80  C   UNL     1      15.552  -2.707  -6.747  1.00  0.00     0.000 A 
ENDBRANCH  56  75
BRANCH  68  81
ATOM     81  C   UNL     1      21.433  -5.820   0.312  1.00  0.00    -0.014 A 
ATOM     82  C   UNL     1      22.248  -6.796  -0.277  1.00  0.00     0.009 A 
ATOM     83  C   UNL     1      21.992  -5.042   1.343  1.00  0.00     0.009 A 
ATOM     84  C   UNL     1      23.584  -6.951   0.113  1.00  0.00     0.001 A 
ATOM     85  C   UNL     1      23.317  -5.209   1.750  1.00  0.00     0.001 A 
ATOM     86  C   UNL     1      24.117  -6.158   1.126  1.00  0.00     0.000 A 
ENDBRANCH  68  81
ENDBRANCH  42  43
ENDBRANCH  34  37
ENDBRANCH  32  33
ENDBRANCH  31  32
ENDBRANCH  30  31
ENDBRANCH   1  30
TORSDOF 16
