REMARK SMILES CC(C)(Oc1ccc(Cl)cc1)C(=O)N1CCC[C@H](C(=O)NCCCCCCNC(=O)c2ccc(-c3c4nc(c(-c5ccccc5)c5ccc([nH]5)c(-c5ccccc5)c5nc(c(-c6ccccc6)c6ccc3[nH]6)C=C5)C=C4)cc2)C1
REMARK SMILES IDX 23 1 22 2 21 3 19 4 20 5 18 7 14 8 15 9 79 10 16 11 17 12
REMARK SMILES IDX 12 13 13 14 2 15 1 16 3 17 4 18 5 19 6 20 11 21 7 22 10 23
REMARK SMILES IDX 8 24 9 25 24 26 25 27 26 28 27 29 28 30 29 31 30 33 31 34
REMARK SMILES IDX 32 35 78 36 33 37 77 38 34 39 35 40 36 41 71 42 37 43 76 44
REMARK SMILES IDX 70 45 72 46 38 47 75 48 69 49 68 50 39 52 61 53 46 54 60 55
REMARK SMILES IDX 47 56 50 57 59 58 73 59 48 60 49 61 58 63 74 64 51 65 40 66
REMARK SMILES IDX 41 67 45 68 42 69 44 70 43 71 62 72 63 73 67 74 64 75 66 76
REMARK SMILES IDX 65 77 52 78 53 79 57 80 54 81 56 82 55 83
REMARK H PARENT 21 6 28 32 72 51 50 62
REMARK Flexibility Score: inf
ROOT
ATOM      1  C   UNL     1       1.698   5.455   2.422  1.00  0.00     0.021 C 
ENDROOT
BRANCH   1   2
ATOM      2  C   UNL     1       0.796   4.503   1.641  1.00  0.00     0.116 C 
BRANCH   2   3
ATOM      3  N   UNL     1      -0.607   4.832   1.746  1.00  0.00    -0.356 N 
ATOM      4  C   UNL     1      -1.554   5.038   0.798  1.00  0.00     0.224 C 
ATOM      5  O   UNL     1      -2.717   5.146   1.205  1.00  0.00    -0.275 OA
ATOM      6  H   UNL     1      -0.933   4.924   2.671  1.00  0.00     0.163 HD
BRANCH   4   7
ATOM      7  C   UNL     1      -1.279   5.151  -0.708  1.00  0.00     0.098 C 
ATOM      8  N   UNL     1       0.537   3.629  -1.511  1.00  0.00    -0.338 N 
ATOM      9  C   UNL     1       1.286   4.748  -2.090  1.00  0.00     0.119 C 
ATOM     10  C   UNL     1      -0.901   3.831  -1.386  1.00  0.00     0.133 C 
ATOM     11  C   UNL     1       1.026   6.090  -1.409  1.00  0.00     0.022 C 
ATOM     12  C   UNL     1      -0.449   6.362  -1.138  1.00  0.00     0.017 C 
BRANCH   8  13
ATOM     13  C   UNL     1       1.232   2.512  -1.047  1.00  0.00     0.266 C 
ATOM     14  O   UNL     1       2.406   2.653  -0.676  1.00  0.00    -0.270 OA
BRANCH  13  15
ATOM     15  C   UNL     1       0.617   1.060  -1.196  1.00  0.00     0.181 C 
ATOM     16  C   UNL     1       1.427   0.123  -0.275  1.00  0.00     0.067 C 
ATOM     17  C   UNL     1       0.876   0.701  -2.674  1.00  0.00     0.067 C 
BRANCH  15  18
ATOM     18  O   UNL     1      -0.765   0.976  -0.814  1.00  0.00    -0.478 OA
BRANCH  18  19
ATOM     19  C   UNL     1      -1.532  -0.020  -1.352  1.00  0.00     0.121 A 
ATOM     20  C   UNL     1      -1.403  -1.353  -0.963  1.00  0.00     0.048 A 
ATOM     21  C   UNL     1      -2.546   0.345  -2.240  1.00  0.00     0.048 A 
ATOM     22  C   UNL     1      -2.227  -2.332  -1.526  1.00  0.00     0.024 A 
ATOM     23  C   UNL     1      -3.381  -0.630  -2.794  1.00  0.00     0.024 A 
ATOM     24  C   UNL     1      -3.209  -1.967  -2.444  1.00  0.00     0.041 A 
ATOM     25  Cl  UNL     1      -4.224  -3.172  -3.134  1.00  0.00    -0.084 Cl
ENDBRANCH  18  19
ENDBRANCH  15  18
ENDBRANCH  13  15
ENDBRANCH   8  13
ENDBRANCH   4   7
ENDBRANCH   2   3
ENDBRANCH   1   2
BRANCH   1  26
ATOM     26  C   UNL     1       2.147   4.916   3.782  1.00  0.00     0.002 C 
BRANCH  26  27
ATOM     27  C   UNL     1       2.918   3.589   3.745  1.00  0.00     0.002 C 
BRANCH  27  28
ATOM     28  C   UNL     1       4.140   3.549   2.822  1.00  0.00     0.021 C 
BRANCH  28  29
ATOM     29  C   UNL     1       5.203   4.609   3.102  1.00  0.00     0.116 C 
BRANCH  29  30
ATOM     30  N   UNL     1       5.681   4.563   4.475  1.00  0.00    -0.352 N 
ATOM     31  C   UNL     1       6.951   4.413   4.968  1.00  0.00     0.251 C 
ATOM     32  H   UNL     1       4.979   4.653   5.160  1.00  0.00     0.163 HD
ATOM     33  O   UNL     1       7.123   4.207   6.165  1.00  0.00    -0.269 OA
BRANCH  31  34
ATOM     34  C   UNL     1       8.119   4.492   4.066  1.00  0.00     0.039 A 
ATOM     35  C   UNL     1       9.162   3.577   4.236  1.00  0.00     0.014 A 
ATOM     36  C   UNL     1       8.212   5.488   3.089  1.00  0.00     0.014 A 
ATOM     37  C   UNL     1      10.275   3.628   3.395  1.00  0.00     0.010 A 
ATOM     38  C   UNL     1       9.291   5.497   2.209  1.00  0.00     0.010 A 
ATOM     39  C   UNL     1      10.336   4.573   2.358  1.00  0.00    -0.014 A 
BRANCH  39  40
ATOM     40  C   UNL     1      11.485   4.609   1.421  1.00  0.00     0.031 A 
ATOM     41  C   UNL     1      12.401   5.800   1.388  1.00  0.00     0.074 A 
ATOM     42  C   UNL     1      11.658   3.601   0.545  1.00  0.00     0.049 A 
ATOM     43  N   UNL     1      13.417   6.040   0.598  1.00  0.00    -0.248 NA
ATOM     44  C   UNL     1      12.120   6.877   2.351  1.00  0.00     0.031 C 
ATOM     45  C   UNL     1      10.807   2.415   0.440  1.00  0.00     0.029 A 
ATOM     46  N   UNL     1      12.602   3.423  -0.435  1.00  0.00    -0.354 N 
ATOM     47  C   UNL     1      13.880   7.300   0.952  1.00  0.00     0.074 A 
ATOM     48  C   UNL     1      13.008   7.793   1.996  1.00  0.00     0.031 C 
ATOM     49  C   UNL     1      11.274   1.626  -0.540  1.00  0.00     0.029 A 
ATOM     50  C   UNL     1      12.434   2.265  -1.154  1.00  0.00     0.049 A 
ATOM     51  H   UNL     1      13.329   4.064  -0.607  1.00  0.00     0.167 HD
ATOM     52  C   UNL     1      14.945   7.981   0.463  1.00  0.00     0.031 A 
ATOM     53  C   UNL     1      13.128   1.776  -2.197  1.00  0.00     0.031 A 
ATOM     54  C   UNL     1      15.817   7.485  -0.568  1.00  0.00     0.049 A 
ATOM     55  C   UNL     1      14.313   2.540  -2.716  1.00  0.00     0.074 A 
ATOM     56  C   UNL     1      16.965   8.064  -1.081  1.00  0.00     0.029 A 
ATOM     57  N   UNL     1      15.631   6.292  -1.251  1.00  0.00    -0.354 N 
ATOM     58  N   UNL     1      14.791   3.693  -2.313  1.00  0.00    -0.248 NA
ATOM     59  C   UNL     1      15.062   1.929  -3.822  1.00  0.00     0.031 C 
ATOM     60  C   UNL     1      17.445   7.246  -2.109  1.00  0.00     0.029 A 
ATOM     61  C   UNL     1      16.627   6.131  -2.200  1.00  0.00     0.049 A 
ATOM     62  H   UNL     1      14.900   5.654  -1.085  1.00  0.00     0.167 HD
ATOM     63  C   UNL     1      15.907   3.936  -3.102  1.00  0.00     0.074 A 
ATOM     64  C   UNL     1      16.045   2.802  -3.994  1.00  0.00     0.031 C 
ATOM     65  C   UNL     1      16.744   5.003  -3.088  1.00  0.00     0.031 A 
BRANCH  52  66
ATOM     66  C   UNL     1      15.208   9.348   1.033  1.00  0.00    -0.014 A 
ATOM     67  C   UNL     1      15.654   9.516   2.354  1.00  0.00     0.009 A 
ATOM     68  C   UNL     1      15.019  10.485   0.233  1.00  0.00     0.009 A 
ATOM     69  C   UNL     1      15.857  10.796   2.876  1.00  0.00     0.001 A 
ATOM     70  C   UNL     1      15.252  11.762   0.747  1.00  0.00     0.001 A 
ATOM     71  C   UNL     1      15.658  11.917   2.072  1.00  0.00     0.000 A 
ENDBRANCH  52  66
BRANCH  53  72
ATOM     72  C   UNL     1      12.721   0.486  -2.810  1.00  0.00    -0.014 A 
ATOM     73  C   UNL     1      13.484  -0.673  -2.608  1.00  0.00     0.009 A 
ATOM     74  C   UNL     1      11.549   0.403  -3.579  1.00  0.00     0.009 A 
ATOM     75  C   UNL     1      13.091  -1.887  -3.178  1.00  0.00     0.001 A 
ATOM     76  C   UNL     1      11.145  -0.817  -4.126  1.00  0.00     0.001 A 
ATOM     77  C   UNL     1      11.920  -1.959  -3.931  1.00  0.00     0.000 A 
ENDBRANCH  53  72
BRANCH  65  78
ATOM     78  C   UNL     1      17.895   4.984  -4.053  1.00  0.00    -0.014 A 
ATOM     79  C   UNL     1      17.695   5.186  -5.427  1.00  0.00     0.009 A 
ATOM     80  C   UNL     1      19.201   4.801  -3.574  1.00  0.00     0.009 A 
ATOM     81  C   UNL     1      18.780   5.175  -6.306  1.00  0.00     0.001 A 
ATOM     82  C   UNL     1      20.286   4.817  -4.451  1.00  0.00     0.001 A 
ATOM     83  C   UNL     1      20.074   4.996  -5.817  1.00  0.00     0.000 A 
ENDBRANCH  65  78
ENDBRANCH  39  40
ENDBRANCH  31  34
ENDBRANCH  29  30
ENDBRANCH  28  29
ENDBRANCH  27  28
ENDBRANCH  26  27
ENDBRANCH   1  26
TORSDOF 17
