REMARK SMILES CCc1ccc(C(=O)N2Cc3nc[nH]c3C[C@@H]2C(=O)NCCCCCCNC(=O)c2ccc(-c3c4nc(c(-c5ccccc5)c5ccc([nH]5)c(-c5ccccc5)c5nc(c(-c6ccccc6)c6ccc3[nH]6)C=C5)C=C4)cc2)o1
REMARK SMILES IDX 23 1 22 2 21 3 20 4 18 5 19 6 17 8 9 9 10 10 11 11 16 12
REMARK SMILES IDX 12 13 15 14 13 15 14 16 7 18 8 19 6 20 3 21 4 22 78 23 5 24
REMARK SMILES IDX 2 25 1 26 24 27 25 28 26 29 27 30 28 31 29 33 30 34 31 35
REMARK SMILES IDX 77 36 32 37 76 38 33 39 34 40 35 41 70 42 36 43 75 44 69 45
REMARK SMILES IDX 71 46 37 47 74 48 68 49 67 50 38 52 60 53 45 54 59 55 46 56
REMARK SMILES IDX 49 57 58 58 72 59 47 60 48 61 57 63 73 64 50 65 39 66 40 67
REMARK SMILES IDX 44 68 41 69 43 70 42 71 61 72 62 73 66 74 63 75 65 76 64 77
REMARK SMILES IDX 51 78 52 79 56 80 53 81 55 82 54 83
REMARK H PARENT 20 7 14 17 27 32 71 51 49 62
REMARK Flexibility Score: inf
ROOT
ATOM      1  C   UNL     1       5.273  -5.912   1.225  1.00  0.00     0.002 C 
ENDROOT
BRANCH   1   2
ATOM      2  C   UNL     1       4.309  -6.773   0.399  1.00  0.00     0.021 C 
BRANCH   2   3
ATOM      3  C   UNL     1       3.210  -5.979  -0.316  1.00  0.00     0.116 C 
BRANCH   3   4
ATOM      4  N   UNL     1       3.803  -5.106  -1.311  1.00  0.00    -0.354 N 
ATOM      5  C   UNL     1       3.870  -5.238  -2.662  1.00  0.00     0.243 C 
ATOM      6  O   UNL     1       4.721  -4.573  -3.261  1.00  0.00    -0.273 OA
ATOM      7  H   UNL     1       4.222  -4.290  -0.951  1.00  0.00     0.163 HD
BRANCH   5   8
ATOM      8  C   UNL     1       2.981  -6.230  -3.434  1.00  0.00     0.181 C 
ATOM      9  N   UNL     1       1.500  -6.160  -3.196  1.00  0.00    -0.318 N 
ATOM     10  C   UNL     1       0.653  -7.117  -3.938  1.00  0.00     0.179 C 
ATOM     11  C   UNL     1       1.270  -8.464  -3.908  1.00  0.00     0.081 A 
ATOM     12  C   UNL     1       3.564  -7.667  -3.185  1.00  0.00     0.091 C 
ATOM     13  N   UNL     1       0.627  -9.636  -4.197  1.00  0.00    -0.240 NA
ATOM     14  C   UNL     1       2.582  -8.700  -3.582  1.00  0.00     0.042 A 
ATOM     15  C   UNL     1       1.524 -10.576  -3.993  1.00  0.00     0.197 A 
ATOM     16  N   UNL     1       2.729 -10.056  -3.600  1.00  0.00    -0.348 N 
ATOM     17  H   UNL     1       3.543 -10.562  -3.375  1.00  0.00     0.167 HD
BRANCH   9  18
ATOM     18  C   UNL     1       0.789  -5.149  -2.543  1.00  0.00     0.290 C 
ATOM     19  O   UNL     1      -0.205  -5.466  -1.884  1.00  0.00    -0.265 OA
BRANCH  18  20
ATOM     20  C   UNL     1       1.171  -3.756  -2.708  1.00  0.00     0.191 A 
ATOM     21  C   UNL     1       1.011  -1.600  -2.226  1.00  0.00     0.104 A 
ATOM     22  C   UNL     1       1.850  -1.692  -3.313  1.00  0.00     0.046 A 
ATOM     23  O   UNL     1       0.612  -2.843  -1.843  1.00  0.00    -0.456 OA
ATOM     24  C   UNL     1       1.925  -3.068  -3.643  1.00  0.00     0.056 A 
BRANCH  21  25
ATOM     25  C   UNL     1       0.439  -0.449  -1.480  1.00  0.00     0.072 C 
ATOM     26  C   UNL     1       1.043  -0.284  -0.097  1.00  0.00     0.012 C 
ENDBRANCH  21  25
ENDBRANCH  18  20
ENDBRANCH   9  18
ENDBRANCH   5   8
ENDBRANCH   3   4
ENDBRANCH   2   3
ENDBRANCH   1   2
BRANCH   1  27
ATOM     27  C   UNL     1       4.617  -4.999   2.271  1.00  0.00     0.002 C 
BRANCH  27  28
ATOM     28  C   UNL     1       3.661  -5.679   3.262  1.00  0.00     0.021 C 
BRANCH  28  29
ATOM     29  C   UNL     1       4.345  -6.666   4.194  1.00  0.00     0.116 C 
BRANCH  29  30
ATOM     30  N   UNL     1       5.284  -6.021   5.125  1.00  0.00    -0.352 N 
ATOM     31  C   UNL     1       6.126  -6.597   6.073  1.00  0.00     0.251 C 
ATOM     32  H   UNL     1       5.323  -5.039   5.070  1.00  0.00     0.163 HD
ATOM     33  O   UNL     1       6.573  -5.955   7.003  1.00  0.00    -0.269 OA
BRANCH  31  34
ATOM     34  C   UNL     1       6.495  -8.014   5.897  1.00  0.00     0.039 A 
ATOM     35  C   UNL     1       6.678  -8.927   6.941  1.00  0.00     0.014 A 
ATOM     36  C   UNL     1       6.597  -8.430   4.585  1.00  0.00     0.014 A 
ATOM     37  C   UNL     1       6.973 -10.254   6.612  1.00  0.00     0.010 A 
ATOM     38  C   UNL     1       6.426  -9.744   4.315  1.00  0.00     0.010 A 
ATOM     39  C   UNL     1       6.871 -10.633   5.271  1.00  0.00    -0.014 A 
BRANCH  39  40
ATOM     40  C   UNL     1       7.204 -11.936   4.723  1.00  0.00     0.031 A 
ATOM     41  C   UNL     1       6.222 -12.993   5.034  1.00  0.00     0.074 A 
ATOM     42  C   UNL     1       8.099 -12.048   3.711  1.00  0.00     0.049 A 
ATOM     43  N   UNL     1       6.386 -14.011   5.807  1.00  0.00    -0.248 NA
ATOM     44  C   UNL     1       4.842 -12.819   4.550  1.00  0.00     0.031 C 
ATOM     45  C   UNL     1       8.867 -10.978   3.044  1.00  0.00     0.029 A 
ATOM     46  N   UNL     1       8.414 -13.137   2.960  1.00  0.00    -0.354 N 
ATOM     47  C   UNL     1       5.194 -14.722   5.739  1.00  0.00     0.074 A 
ATOM     48  C   UNL     1       4.224 -13.829   5.162  1.00  0.00     0.031 C 
ATOM     49  C   UNL     1       9.381 -11.437   1.879  1.00  0.00     0.029 A 
ATOM     50  C   UNL     1       9.124 -12.862   1.794  1.00  0.00     0.049 A 
ATOM     51  H   UNL     1       8.158 -14.051   3.221  1.00  0.00     0.167 HD
ATOM     52  C   UNL     1       5.171 -16.076   5.877  1.00  0.00     0.031 A 
ATOM     53  C   UNL     1       9.469 -13.746   0.825  1.00  0.00     0.031 A 
ATOM     54  C   UNL     1       6.450 -16.577   6.316  1.00  0.00     0.049 A 
ATOM     55  C   UNL     1       9.362 -15.098   1.415  1.00  0.00     0.074 A 
ATOM     56  C   UNL     1       7.228 -16.433   7.445  1.00  0.00     0.029 A 
ATOM     57  N   UNL     1       7.286 -17.023   5.320  1.00  0.00    -0.354 N 
ATOM     58  N   UNL     1      10.137 -15.519   2.372  1.00  0.00    -0.248 NA
ATOM     59  C   UNL     1       8.112 -15.826   1.262  1.00  0.00     0.031 C 
ATOM     60  C   UNL     1       8.572 -16.394   6.967  1.00  0.00     0.029 A 
ATOM     61  C   UNL     1       8.558 -16.585   5.583  1.00  0.00     0.049 A 
ATOM     62  H   UNL     1       7.016 -17.567   4.545  1.00  0.00     0.167 HD
ATOM     63  C   UNL     1       9.299 -16.236   3.214  1.00  0.00     0.074 A 
ATOM     64  C   UNL     1       8.108 -16.509   2.412  1.00  0.00     0.031 C 
ATOM     65  C   UNL     1       9.535 -16.274   4.559  1.00  0.00     0.031 A 
BRANCH  52  66
ATOM     66  C   UNL     1       4.175 -16.979   5.190  1.00  0.00    -0.014 A 
ATOM     67  C   UNL     1       4.223 -18.357   5.469  1.00  0.00     0.009 A 
ATOM     68  C   UNL     1       3.384 -16.587   4.093  1.00  0.00     0.009 A 
ATOM     69  C   UNL     1       3.575 -19.290   4.652  1.00  0.00     0.001 A 
ATOM     70  C   UNL     1       2.701 -17.512   3.300  1.00  0.00     0.001 A 
ATOM     71  C   UNL     1       2.821 -18.868   3.562  1.00  0.00     0.000 A 
ENDBRANCH  52  66
BRANCH  53  72
ATOM     72  C   UNL     1       9.665 -13.535  -0.624  1.00  0.00    -0.014 A 
ATOM     73  C   UNL     1      10.480 -14.387  -1.387  1.00  0.00     0.009 A 
ATOM     74  C   UNL     1       8.817 -12.649  -1.315  1.00  0.00     0.009 A 
ATOM     75  C   UNL     1      10.421 -14.376  -2.789  1.00  0.00     0.001 A 
ATOM     76  C   UNL     1       8.754 -12.643  -2.713  1.00  0.00     0.001 A 
ATOM     77  C   UNL     1       9.546 -13.517  -3.450  1.00  0.00     0.000 A 
ENDBRANCH  53  72
BRANCH  65  78
ATOM     78  C   UNL     1      10.861 -15.726   5.037  1.00  0.00    -0.014 A 
ATOM     79  C   UNL     1      11.217 -14.369   4.935  1.00  0.00     0.009 A 
ATOM     80  C   UNL     1      11.726 -16.587   5.726  1.00  0.00     0.009 A 
ATOM     81  C   UNL     1      12.417 -13.895   5.477  1.00  0.00     0.001 A 
ATOM     82  C   UNL     1      12.914 -16.111   6.284  1.00  0.00     0.001 A 
ATOM     83  C   UNL     1      13.263 -14.768   6.155  1.00  0.00     0.000 A 
ENDBRANCH  65  78
ENDBRANCH  39  40
ENDBRANCH  31  34
ENDBRANCH  29  30
ENDBRANCH  28  29
ENDBRANCH  27  28
ENDBRANCH   1  27
TORSDOF 16
