REMARK SMILES O=C(NCCCCCCNC(=O)[C@H]1[C@H]2C[C@@H]3[C@@H](OC(=O)[C@@H]31)[C@@H]2Sc1ccccc1)c1ccc(-c2c3nc(c(-c4ccccc4)c4ccc([nH]4)c(-c4ccccc4)c4nc(c(-c5ccccc5)c5ccc2[nH]5)C=C4)C=C3)cc1
REMARK SMILES IDX 6 1 5 2 4 3 3 4 1 5 2 6 30 8 31 9 77 10 32 11 76 12 33 13
REMARK SMILES IDX 34 14 35 15 70 16 36 17 75 18 69 19 71 20 37 21 74 22 68 23
REMARK SMILES IDX 67 24 38 26 60 27 45 28 59 29 46 30 49 31 58 32 72 33 47 34
REMARK SMILES IDX 48 35 57 37 73 38 50 39 39 40 40 41 44 42 41 43 43 44 42 45
REMARK SMILES IDX 61 46 62 47 66 48 63 49 65 50 64 51 51 52 52 53 56 54 53 55
REMARK SMILES IDX 55 56 54 57 7 58 8 59 9 60 10 61 11 62 12 64 13 65 14 66
REMARK SMILES IDX 21 67 15 68 22 69 16 70 19 71 17 72 18 73 20 74 23 75 24 76
REMARK SMILES IDX 25 77 29 78 26 79 28 80 27 81
REMARK H PARENT 3 7 71 25 49 36 10 63
REMARK Flexibility Score: inf
ROOT
ATOM      1  C   UNL     1       4.241  -3.485  -1.329  1.00  0.00     0.002 C 
ENDROOT
BRANCH   1   2
ATOM      2  C   UNL     1       4.680  -2.498  -0.251  1.00  0.00     0.021 C 
BRANCH   2   3
ATOM      3  C   UNL     1       4.431  -1.037  -0.593  1.00  0.00     0.116 C 
BRANCH   3   4
ATOM      4  N   UNL     1       3.016  -0.718  -0.708  1.00  0.00    -0.352 N 
ATOM      5  O   UNL     1       1.059   0.264  -0.145  1.00  0.00    -0.269 OA
ATOM      6  C   UNL     1       2.280   0.232  -0.039  1.00  0.00     0.251 C 
ATOM      7  H   UNL     1       2.513  -1.260  -1.359  1.00  0.00     0.163 HD
BRANCH   6   8
ATOM      8  C   UNL     1       2.974   1.194   0.844  1.00  0.00     0.039 A 
ATOM      9  C   UNL     1       4.154   1.810   0.426  1.00  0.00     0.014 A 
ATOM     10  C   UNL     1       2.461   1.448   2.118  1.00  0.00     0.014 A 
ATOM     11  C   UNL     1       4.919   2.518   1.342  1.00  0.00     0.010 A 
ATOM     12  C   UNL     1       3.179   2.257   3.003  1.00  0.00     0.010 A 
ATOM     13  C   UNL     1       4.440   2.757   2.641  1.00  0.00    -0.014 A 
BRANCH  13  14
ATOM     14  C   UNL     1       5.270   3.554   3.582  1.00  0.00     0.031 A 
ATOM     15  C   UNL     1       5.789   2.960   4.864  1.00  0.00     0.074 A 
ATOM     16  C   UNL     1       5.597   4.818   3.245  1.00  0.00     0.049 A 
ATOM     17  N   UNL     1       6.571   3.503   5.765  1.00  0.00    -0.248 NA
ATOM     18  C   UNL     1       5.374   1.585   5.186  1.00  0.00     0.031 C 
ATOM     19  C   UNL     1       5.159   5.508   2.029  1.00  0.00     0.029 A 
ATOM     20  N   UNL     1       6.396   5.736   3.876  1.00  0.00    -0.354 N 
ATOM     21  C   UNL     1       6.719   2.551   6.767  1.00  0.00     0.074 A 
ATOM     22  C   UNL     1       5.923   1.407   6.379  1.00  0.00     0.031 C 
ATOM     23  C   UNL     1       5.745   6.711   1.970  1.00  0.00     0.029 A 
ATOM     24  C   UNL     1       6.538   6.909   3.176  1.00  0.00     0.049 A 
ATOM     25  H   UNL     1       6.826   5.570   4.747  1.00  0.00     0.167 HD
ATOM     26  C   UNL     1       7.454   2.622   7.904  1.00  0.00     0.031 A 
ATOM     27  C   UNL     1       7.221   8.029   3.474  1.00  0.00     0.031 A 
ATOM     28  C   UNL     1       8.246   3.763   8.289  1.00  0.00     0.049 A 
ATOM     29  C   UNL     1       7.993   8.092   4.759  1.00  0.00     0.074 A 
ATOM     30  C   UNL     1       9.053   3.915   9.403  1.00  0.00     0.029 A 
ATOM     31  N   UNL     1       8.323   4.949   7.576  1.00  0.00    -0.354 N 
ATOM     32  N   UNL     1       8.155   7.167   5.673  1.00  0.00    -0.248 NA
ATOM     33  C   UNL     1       8.684   9.355   5.047  1.00  0.00     0.031 C 
ATOM     34  C   UNL     1       9.565   5.217   9.399  1.00  0.00     0.029 A 
ATOM     35  C   UNL     1       9.140   5.849   8.242  1.00  0.00     0.049 A 
ATOM     36  H   UNL     1       7.865   5.127   6.723  1.00  0.00     0.167 HD
ATOM     37  C   UNL     1       8.994   7.724   6.629  1.00  0.00     0.074 A 
ATOM     38  C   UNL     1       9.320   9.060   6.171  1.00  0.00     0.031 C 
ATOM     39  C   UNL     1       9.457   7.176   7.779  1.00  0.00     0.031 A 
BRANCH  26  40
ATOM     40  C   UNL     1       7.406   1.443   8.841  1.00  0.00    -0.014 A 
ATOM     41  C   UNL     1       7.993   0.211   8.509  1.00  0.00     0.009 A 
ATOM     42  C   UNL     1       6.798   1.582  10.100  1.00  0.00     0.009 A 
ATOM     43  C   UNL     1       7.936  -0.865   9.399  1.00  0.00     0.001 A 
ATOM     44  C   UNL     1       6.771   0.516  11.001  1.00  0.00     0.001 A 
ATOM     45  C   UNL     1       7.330  -0.710  10.646  1.00  0.00     0.000 A 
ENDBRANCH  26  40
BRANCH  27  46
ATOM     46  C   UNL     1       7.199   9.184   2.538  1.00  0.00    -0.014 A 
ATOM     47  C   UNL     1       8.363   9.576   1.859  1.00  0.00     0.009 A 
ATOM     48  C   UNL     1       6.013   9.904   2.323  1.00  0.00     0.009 A 
ATOM     49  C   UNL     1       8.346  10.684   1.009  1.00  0.00     0.001 A 
ATOM     50  C   UNL     1       5.991  10.989   1.445  1.00  0.00     0.001 A 
ATOM     51  C   UNL     1       7.160  11.386   0.799  1.00  0.00     0.000 A 
ENDBRANCH  27  46
BRANCH  39  52
ATOM     52  C   UNL     1      10.413   8.004   8.593  1.00  0.00    -0.014 A 
ATOM     53  C   UNL     1       9.999   9.163   9.268  1.00  0.00     0.009 A 
ATOM     54  C   UNL     1      11.755   7.604   8.695  1.00  0.00     0.009 A 
ATOM     55  C   UNL     1      10.919   9.929   9.987  1.00  0.00     0.001 A 
ATOM     56  C   UNL     1      12.665   8.350   9.444  1.00  0.00     0.001 A 
ATOM     57  C   UNL     1      12.250   9.520  10.078  1.00  0.00     0.000 A 
ENDBRANCH  39  52
ENDBRANCH  13  14
ENDBRANCH   6   8
ENDBRANCH   3   4
ENDBRANCH   2   3
ENDBRANCH   1   2
BRANCH   1  58
ATOM     58  C   UNL     1       4.841  -3.237  -2.717  1.00  0.00     0.002 C 
BRANCH  58  59
ATOM     59  C   UNL     1       6.373  -3.170  -2.768  1.00  0.00     0.021 C 
BRANCH  59  60
ATOM     60  C   UNL     1       7.079  -4.396  -2.196  1.00  0.00     0.116 C 
BRANCH  60  61
ATOM     61  N   UNL     1       6.705  -5.607  -2.905  1.00  0.00    -0.356 N 
ATOM     62  C   UNL     1       7.491  -6.569  -3.459  1.00  0.00     0.224 C 
ATOM     63  H   UNL     1       5.736  -5.753  -2.999  1.00  0.00     0.163 HD
ATOM     64  O   UNL     1       6.952  -7.546  -3.974  1.00  0.00    -0.275 OA
BRANCH  62  65
ATOM     65  C   UNL     1       8.994  -6.383  -3.427  1.00  0.00     0.097 C 
ATOM     66  C   UNL     1       9.805  -7.693  -3.665  1.00  0.00     0.020 C 
ATOM     67  C   UNL     1       9.479  -5.488  -4.590  1.00  0.00     0.119 C 
ATOM     68  C   UNL     1       9.799  -7.784  -5.193  1.00  0.00     0.014 C 
ATOM     69  C   UNL     1      11.277  -7.324  -3.327  1.00  0.00     0.097 C 
ATOM     70  C   UNL     1      10.400  -6.411  -5.388  1.00  0.00     0.047 C 
ATOM     71  C   UNL     1      10.454  -4.463  -4.091  1.00  0.00     0.310 C 
ATOM     72  C   UNL     1      11.644  -6.375  -4.498  1.00  0.00     0.194 C 
ATOM     73  O   UNL     1      11.710  -5.009  -4.060  1.00  0.00    -0.461 OA
ATOM     74  O   UNL     1      10.171  -3.346  -3.700  1.00  0.00    -0.252 OA
BRANCH  69  75
ATOM     75  S   UNL     1      12.447  -8.691  -2.952  1.00  0.00    -0.119 SA
BRANCH  75  76
ATOM     76  C   UNL     1      12.375  -9.754  -4.372  1.00  0.00     0.008 A 
ATOM     77  C   UNL     1      11.744 -10.999  -4.269  1.00  0.00     0.015 A 
ATOM     78  C   UNL     1      12.996  -9.404  -5.574  1.00  0.00     0.015 A 
ATOM     79  C   UNL     1      11.688 -11.855  -5.371  1.00  0.00     0.001 A 
ATOM     80  C   UNL     1      12.918 -10.248  -6.683  1.00  0.00     0.001 A 
ATOM     81  C   UNL     1      12.262 -11.472  -6.582  1.00  0.00     0.000 A 
ENDBRANCH  75  76
ENDBRANCH  69  75
ENDBRANCH  62  65
ENDBRANCH  60  61
ENDBRANCH  59  60
ENDBRANCH  58  59
ENDBRANCH   1  58
TORSDOF 15
