REMARK SMILES Cc1cccc(-c2ccc(Cl)c(C(=O)NCCCCCCNC(=O)c3ccc(-c4c5nc(c(-c6ccccc6)c6ccc([nH]6)c(-c6ccccc6)c6nc(c(-c7ccccc7)c7ccc4[nH]7)C=C6)C=C5)cc3)c2)c1
REMARK SMILES IDX 19 1 18 2 17 3 16 4 15 5 13 6 14 7 12 9 7 10 8 11 73 12 9 13
REMARK SMILES IDX 10 14 11 15 6 16 1 17 2 18 3 19 74 20 4 21 5 22 20 23 21 24
REMARK SMILES IDX 22 25 23 26 24 28 25 29 26 30 72 31 27 32 71 33 28 34 29 35
REMARK SMILES IDX 30 36 65 37 31 38 70 39 64 40 66 41 32 42 69 43 63 44 62 45
REMARK SMILES IDX 33 47 55 48 40 49 54 50 41 51 44 52 53 53 67 54 42 55 43 56
REMARK SMILES IDX 52 58 68 59 45 60 34 61 35 62 39 63 36 64 38 65 37 66 56 67
REMARK SMILES IDX 57 68 61 69 58 70 60 71 59 72 46 73 47 74 51 75 48 76 50 77
REMARK SMILES IDX 49 78
REMARK H PARENT 15 8 22 27 66 46 44 57
REMARK Flexibility Score: inf
ROOT
ATOM      1  C   UNL     1      -6.630   8.686   2.559  1.00  0.00     0.002 C 
ENDROOT
BRANCH   1   2
ATOM      2  C   UNL     1      -7.448   7.535   1.952  1.00  0.00     0.002 C 
BRANCH   2   3
ATOM      3  C   UNL     1      -6.878   6.732   0.773  1.00  0.00     0.021 C 
BRANCH   3   4
ATOM      4  C   UNL     1      -5.407   6.323   0.812  1.00  0.00     0.116 C 
BRANCH   4   5
ATOM      5  N   UNL     1      -4.998   5.495   1.926  1.00  0.00    -0.352 N 
ATOM      6  C   UNL     1      -3.903   4.665   2.057  1.00  0.00     0.252 C 
ATOM      7  O   UNL     1      -3.708   4.135   3.151  1.00  0.00    -0.269 OA
ATOM      8  H   UNL     1      -5.592   5.528   2.710  1.00  0.00     0.163 HD
BRANCH   6   9
ATOM      9  C   UNL     1      -3.008   4.297   0.921  1.00  0.00     0.059 A 
ATOM     10  C   UNL     1      -1.750   2.460  -0.141  1.00  0.00    -0.017 A 
ATOM     11  C   UNL     1      -1.355   3.352  -1.146  1.00  0.00     0.010 A 
ATOM     12  C   UNL     1      -2.632   2.933   0.848  1.00  0.00     0.024 A 
ATOM     13  C   UNL     1      -1.669   4.705  -1.059  1.00  0.00     0.022 A 
ATOM     14  C   UNL     1      -2.417   5.189   0.019  1.00  0.00     0.053 A 
ATOM     15  Cl  UNL     1      -2.347   6.900   0.247  1.00  0.00    -0.083 Cl
BRANCH  10  16
ATOM     16  C   UNL     1      -1.119   1.130  -0.068  1.00  0.00    -0.018 A 
ATOM     17  C   UNL     1       2.463  -0.231   0.032  1.00  0.00     0.044 C 
ATOM     18  C   UNL     1       0.963  -0.181   0.020  1.00  0.00    -0.051 A 
ATOM     19  C   UNL     1       0.211  -1.355   0.062  1.00  0.00     0.003 A 
ATOM     20  C   UNL     1       0.291   1.045  -0.044  1.00  0.00     0.012 A 
ATOM     21  C   UNL     1      -1.185  -1.296   0.051  1.00  0.00     0.001 A 
ATOM     22  C   UNL     1      -1.847  -0.063  -0.010  1.00  0.00     0.009 A 
ENDBRANCH  10  16
ENDBRANCH   6   9
ENDBRANCH   4   5
ENDBRANCH   3   4
ENDBRANCH   2   3
ENDBRANCH   1   2
BRANCH   1  23
ATOM     23  C   UNL     1      -6.006   9.718   1.619  1.00  0.00     0.021 C 
BRANCH  23  24
ATOM     24  C   UNL     1      -6.981  10.517   0.765  1.00  0.00     0.116 C 
BRANCH  24  25
ATOM     25  N   UNL     1      -7.226  11.879   1.237  1.00  0.00    -0.352 N 
ATOM     26  C   UNL     1      -8.026  12.858   0.655  1.00  0.00     0.251 C 
ATOM     27  H   UNL     1      -6.768  12.136   2.070  1.00  0.00     0.163 HD
ATOM     28  O   UNL     1      -8.210  13.930   1.184  1.00  0.00    -0.269 OA
BRANCH  26  29
ATOM     29  C   UNL     1      -8.752  12.494  -0.587  1.00  0.00     0.039 A 
ATOM     30  C   UNL     1     -10.148  12.503  -0.544  1.00  0.00     0.014 A 
ATOM     31  C   UNL     1      -8.070  11.885  -1.637  1.00  0.00     0.014 A 
ATOM     32  C   UNL     1     -10.850  11.665  -1.403  1.00  0.00     0.010 A 
ATOM     33  C   UNL     1      -8.756  10.984  -2.430  1.00  0.00     0.010 A 
ATOM     34  C   UNL     1     -10.132  10.816  -2.250  1.00  0.00    -0.014 A 
BRANCH  34  35
ATOM     35  C   UNL     1     -10.735   9.620  -2.828  1.00  0.00     0.031 A 
ATOM     36  C   UNL     1     -11.185   9.608  -4.230  1.00  0.00     0.074 A 
ATOM     37  C   UNL     1     -10.918   8.518  -2.065  1.00  0.00     0.049 A 
ATOM     38  N   UNL     1     -12.237   8.985  -4.649  1.00  0.00    -0.248 NA
ATOM     39  C   UNL     1     -10.486  10.348  -5.271  1.00  0.00     0.031 C 
ATOM     40  C   UNL     1     -11.379   7.205  -2.509  1.00  0.00     0.029 A 
ATOM     41  N   UNL     1     -10.955   8.436  -0.671  1.00  0.00    -0.354 N 
ATOM     42  C   UNL     1     -12.173   8.977  -6.023  1.00  0.00     0.074 A 
ATOM     43  C   UNL     1     -11.132   9.923  -6.361  1.00  0.00     0.031 C 
ATOM     44  C   UNL     1     -11.950   6.581  -1.465  1.00  0.00     0.029 A 
ATOM     45  C   UNL     1     -11.971   7.522  -0.356  1.00  0.00     0.049 A 
ATOM     46  H   UNL     1     -10.382   8.923  -0.036  1.00  0.00     0.167 HD
ATOM     47  C   UNL     1     -12.874   8.049  -6.736  1.00  0.00     0.031 A 
ATOM     48  C   UNL     1     -13.060   7.834   0.402  1.00  0.00     0.031 A 
ATOM     49  C   UNL     1     -13.675   7.178  -5.878  1.00  0.00     0.049 A 
ATOM     50  C   UNL     1     -14.372   7.586  -0.310  1.00  0.00     0.074 A 
ATOM     51  C   UNL     1     -13.483   5.885  -5.418  1.00  0.00     0.029 A 
ATOM     52  N   UNL     1     -14.720   7.710  -5.131  1.00  0.00    -0.354 N 
ATOM     53  N   UNL     1     -14.479   7.404  -1.597  1.00  0.00    -0.248 NA
ATOM     54  C   UNL     1     -15.671   7.608   0.358  1.00  0.00     0.031 C 
ATOM     55  C   UNL     1     -14.383   5.659  -4.348  1.00  0.00     0.029 A 
ATOM     56  C   UNL     1     -15.133   6.807  -4.170  1.00  0.00     0.049 A 
ATOM     57  H   UNL     1     -15.110   8.603  -5.267  1.00  0.00     0.167 HD
ATOM     58  C   UNL     1     -15.803   7.302  -1.938  1.00  0.00     0.074 A 
ATOM     59  C   UNL     1     -16.510   7.422  -0.676  1.00  0.00     0.031 C 
ATOM     60  C   UNL     1     -16.198   7.148  -3.236  1.00  0.00     0.031 A 
BRANCH  47  61
ATOM     61  C   UNL     1     -12.542   7.725  -8.175  1.00  0.00    -0.014 A 
ATOM     62  C   UNL     1     -12.678   6.405  -8.645  1.00  0.00     0.009 A 
ATOM     63  C   UNL     1     -12.031   8.655  -9.096  1.00  0.00     0.009 A 
ATOM     64  C   UNL     1     -12.211   6.011  -9.906  1.00  0.00     0.001 A 
ATOM     65  C   UNL     1     -11.521   8.262 -10.342  1.00  0.00     0.001 A 
ATOM     66  C   UNL     1     -11.596   6.934 -10.741  1.00  0.00     0.000 A 
ENDBRANCH  47  61
BRANCH  48  67
ATOM     67  C   UNL     1     -12.846   8.933   1.380  1.00  0.00    -0.014 A 
ATOM     68  C   UNL     1     -11.964   8.716   2.456  1.00  0.00     0.009 A 
ATOM     69  C   UNL     1     -13.225  10.248   1.078  1.00  0.00     0.009 A 
ATOM     70  C   UNL     1     -11.399   9.791   3.147  1.00  0.00     0.001 A 
ATOM     71  C   UNL     1     -12.665  11.322   1.780  1.00  0.00     0.001 A 
ATOM     72  C   UNL     1     -11.730  11.095   2.791  1.00  0.00     0.000 A 
ENDBRANCH  48  67
BRANCH  60  73
ATOM     73  C   UNL     1     -17.614   7.216  -3.756  1.00  0.00    -0.014 A 
ATOM     74  C   UNL     1     -18.674   7.852  -3.098  1.00  0.00     0.009 A 
ATOM     75  C   UNL     1     -17.887   6.711  -5.049  1.00  0.00     0.009 A 
ATOM     76  C   UNL     1     -19.950   7.934  -3.677  1.00  0.00     0.001 A 
ATOM     77  C   UNL     1     -19.144   6.830  -5.648  1.00  0.00     0.001 A 
ATOM     78  C   UNL     1     -20.182   7.432  -4.954  1.00  0.00     0.000 A 
ENDBRANCH  60  73
ENDBRANCH  34  35
ENDBRANCH  26  29
ENDBRANCH  24  25
ENDBRANCH  23  24
ENDBRANCH   1  23
TORSDOF 14
