REMARK SMILES COc1ccc(F)cc1-c1ccc(C[C@]2(C(=O)NCCCCCCNC(=O)c3ccc(-c4c5nc(c(-c6ccccc6)c6ccc([nH]6)c(-c6ccccc6)c6nc(c(-c7ccccc7)c7ccc4[nH]7)C=C6)C=C5)cc3)CCCO2)cc1
REMARK SMILES IDX 20 1 19 2 18 3 16 4 17 5 15 7 76 8 79 9 77 10 78 11 14 12
REMARK SMILES IDX 13 13 10 14 11 15 81 16 12 17 80 18 9 19 3 20 4 21 5 22 8 23
REMARK SMILES IDX 6 24 7 25 2 26 1 27 21 28 22 29 23 30 24 31 25 32 26 33
REMARK SMILES IDX 27 35 28 36 29 37 75 38 30 39 74 40 31 41 32 42 33 43 68 44
REMARK SMILES IDX 34 45 73 46 67 47 69 48 35 49 72 50 66 51 65 52 36 54 58 55
REMARK SMILES IDX 43 56 57 57 44 58 47 59 56 60 70 61 45 62 46 63 55 65 71 66
REMARK SMILES IDX 48 67 37 68 38 69 42 70 39 71 41 72 40 73 59 74 60 75 64 76
REMARK SMILES IDX 61 77 63 78 62 79 49 80 50 81 54 82 51 83 53 84 52 85
REMARK H PARENT 18 6 25 34 69 53 47 64
REMARK Flexibility Score: inf
ROOT
ATOM      1  C   UNL     1      -9.756  -5.187  -2.548  1.00  0.00     0.021 C 
ENDROOT
BRANCH   1   2
ATOM      2  C   UNL     1      -9.268  -3.742  -2.652  1.00  0.00     0.116 C 
BRANCH   2   3
ATOM      3  N   UNL     1      -9.079  -3.165  -1.340  1.00  0.00    -0.354 N 
ATOM      4  C   UNL     1      -7.934  -2.912  -0.639  1.00  0.00     0.252 C 
ATOM      5  O   UNL     1      -8.087  -2.488   0.511  1.00  0.00    -0.272 OA
ATOM      6  H   UNL     1      -9.910  -2.913  -0.876  1.00  0.00     0.163 HD
BRANCH   4   7
ATOM      7  C   UNL     1      -6.517  -3.183  -1.241  1.00  0.00     0.150 C 
ATOM      8  C   UNL     1      -6.301  -4.678  -1.488  1.00  0.00     0.048 C 
ATOM      9  O   UNL     1      -6.400  -2.521  -2.516  1.00  0.00    -0.365 OA
ATOM     10  C   UNL     1      -5.918  -4.805  -2.945  1.00  0.00     0.032 C 
ATOM     11  C   UNL     1      -5.723  -3.387  -3.430  1.00  0.00     0.162 C 
BRANCH   7  12
ATOM     12  C   UNL     1      -5.479  -2.579  -0.245  1.00  0.00     0.081 C 
BRANCH  12  13
ATOM     13  C   UNL     1      -4.030  -2.551  -0.686  1.00  0.00    -0.045 A 
ATOM     14  C   UNL     1      -1.351  -2.484  -1.591  1.00  0.00    -0.015 A 
ATOM     15  C   UNL     1      -1.915  -3.669  -1.103  1.00  0.00     0.009 A 
ATOM     16  C   UNL     1      -2.136  -1.323  -1.591  1.00  0.00     0.009 A 
ATOM     17  C   UNL     1      -3.228  -3.697  -0.634  1.00  0.00     0.004 A 
ATOM     18  C   UNL     1      -3.462  -1.358  -1.153  1.00  0.00     0.004 A 
BRANCH  14  19
ATOM     19  C   UNL     1       0.024  -2.479  -2.100  1.00  0.00     0.027 A 
ATOM     20  C   UNL     1       1.089  -1.886  -1.394  1.00  0.00     0.126 A 
ATOM     21  C   UNL     1       2.399  -1.949  -1.885  1.00  0.00     0.050 A 
ATOM     22  C   UNL     1       2.656  -2.577  -3.103  1.00  0.00     0.043 A 
ATOM     23  C   UNL     1       0.305  -3.102  -3.328  1.00  0.00     0.051 A 
ATOM     24  C   UNL     1       1.607  -3.144  -3.814  1.00  0.00     0.124 A 
ATOM     25  F   UNL     1       1.854  -3.755  -4.980  1.00  0.00    -0.207 F 
BRANCH  20  26
ATOM     26  O   UNL     1       0.839  -1.339  -0.160  1.00  0.00    -0.496 OA
ATOM     27  C   UNL     1       1.164   0.049  -0.113  1.00  0.00     0.278 C 
ENDBRANCH  20  26
ENDBRANCH  14  19
ENDBRANCH  12  13
ENDBRANCH   7  12
ENDBRANCH   4   7
ENDBRANCH   2   3
ENDBRANCH   1   2
BRANCH   1  28
ATOM     28  C   UNL     1     -11.250  -5.307  -2.239  1.00  0.00     0.002 C 
BRANCH  28  29
ATOM     29  C   UNL     1     -12.171  -4.708  -3.307  1.00  0.00     0.002 C 
BRANCH  29  30
ATOM     30  C   UNL     1     -11.929  -5.229  -4.726  1.00  0.00     0.021 C 
BRANCH  30  31
ATOM     31  C   UNL     1     -12.084  -6.740  -4.868  1.00  0.00     0.116 C 
BRANCH  31  32
ATOM     32  N   UNL     1     -13.440  -7.169  -4.559  1.00  0.00    -0.352 N 
ATOM     33  C   UNL     1     -14.371  -7.755  -5.380  1.00  0.00     0.251 C 
ATOM     34  H   UNL     1     -13.730  -7.018  -3.631  1.00  0.00     0.163 HD
ATOM     35  O   UNL     1     -15.547  -7.821  -5.043  1.00  0.00    -0.269 OA
BRANCH  33  36
ATOM     36  C   UNL     1     -13.941  -8.299  -6.683  1.00  0.00     0.039 A 
ATOM     37  C   UNL     1     -14.680  -7.992  -7.827  1.00  0.00     0.014 A 
ATOM     38  C   UNL     1     -12.801  -9.102  -6.768  1.00  0.00     0.014 A 
ATOM     39  C   UNL     1     -14.233  -8.433  -9.072  1.00  0.00     0.010 A 
ATOM     40  C   UNL     1     -12.318  -9.481  -8.015  1.00  0.00     0.010 A 
ATOM     41  C   UNL     1     -13.027  -9.146  -9.179  1.00  0.00    -0.014 A 
BRANCH  41  42
ATOM     42  C   UNL     1     -12.470  -9.528 -10.500  1.00  0.00     0.031 A 
ATOM     43  C   UNL     1     -12.310 -10.977 -10.863  1.00  0.00     0.074 A 
ATOM     44  C   UNL     1     -12.028  -8.568 -11.334  1.00  0.00     0.049 A 
ATOM     45  N   UNL     1     -11.762 -11.504 -11.928  1.00  0.00    -0.248 NA
ATOM     46  C   UNL     1     -12.807 -11.962  -9.889  1.00  0.00     0.031 C 
ATOM     47  C   UNL     1     -12.089  -7.127 -11.077  1.00  0.00     0.029 A 
ATOM     48  N   UNL     1     -11.422  -8.661 -12.562  1.00  0.00    -0.354 N 
ATOM     49  C   UNL     1     -11.835 -12.879 -11.746  1.00  0.00     0.074 A 
ATOM     50  C   UNL     1     -12.433 -13.104 -10.448  1.00  0.00     0.031 C 
ATOM     51  C   UNL     1     -11.558  -6.472 -12.121  1.00  0.00     0.029 A 
ATOM     52  C   UNL     1     -11.077  -7.444 -13.098  1.00  0.00     0.049 A 
ATOM     53  H   UNL     1     -11.251  -9.518 -13.015  1.00  0.00     0.167 HD
ATOM     54  C   UNL     1     -11.452 -13.866 -12.591  1.00  0.00     0.031 A 
ATOM     55  C   UNL     1     -10.428  -7.143 -14.238  1.00  0.00     0.031 A 
ATOM     56  C   UNL     1     -10.854 -13.639 -13.880  1.00  0.00     0.049 A 
ATOM     57  C   UNL     1      -9.985  -8.256 -15.145  1.00  0.00     0.074 A 
ATOM     58  C   UNL     1     -10.485 -14.570 -14.834  1.00  0.00     0.029 A 
ATOM     59  N   UNL     1     -10.527 -12.392 -14.389  1.00  0.00    -0.354 N 
ATOM     60  N   UNL     1     -10.130  -9.550 -14.995  1.00  0.00    -0.248 NA
ATOM     61  C   UNL     1      -9.294  -7.866 -16.382  1.00  0.00     0.031 C 
ATOM     62  C   UNL     1      -9.877 -13.890 -15.895  1.00  0.00     0.029 A 
ATOM     63  C   UNL     1      -9.927 -12.531 -15.629  1.00  0.00     0.049 A 
ATOM     64  H   UNL     1     -10.697 -11.534 -13.936  1.00  0.00     0.167 HD
ATOM     65  C   UNL     1      -9.570 -10.128 -16.127  1.00  0.00     0.074 A 
ATOM     66  C   UNL     1      -9.099  -9.042 -16.962  1.00  0.00     0.031 C 
ATOM     67  C   UNL     1      -9.456 -11.441 -16.445  1.00  0.00     0.031 A 
BRANCH  54  68
ATOM     68  C   UNL     1     -11.656 -15.285 -12.133  1.00  0.00    -0.014 A 
ATOM     69  C   UNL     1     -12.944 -15.830 -11.996  1.00  0.00     0.009 A 
ATOM     70  C   UNL     1     -10.545 -16.096 -11.858  1.00  0.00     0.009 A 
ATOM     71  C   UNL     1     -13.113 -17.143 -11.551  1.00  0.00     0.001 A 
ATOM     72  C   UNL     1     -10.717 -17.419 -11.445  1.00  0.00     0.001 A 
ATOM     73  C   UNL     1     -12.000 -17.937 -11.280  1.00  0.00     0.000 A 
ENDBRANCH  54  68
BRANCH  55  74
ATOM     74  C   UNL     1     -10.154  -5.723 -14.581  1.00  0.00    -0.014 A 
ATOM     75  C   UNL     1     -10.828  -5.100 -15.642  1.00  0.00     0.009 A 
ATOM     76  C   UNL     1      -9.222  -4.978 -13.839  1.00  0.00     0.009 A 
ATOM     77  C   UNL     1     -10.556  -3.769 -15.969  1.00  0.00     0.001 A 
ATOM     78  C   UNL     1      -8.976  -3.639 -14.149  1.00  0.00     0.001 A 
ATOM     79  C   UNL     1      -9.636  -3.039 -15.219  1.00  0.00     0.000 A 
ENDBRANCH  55  74
BRANCH  67  80
ATOM     80  C   UNL     1      -8.816 -11.777 -17.763  1.00  0.00    -0.014 A 
ATOM     81  C   UNL     1      -7.435 -11.622 -17.963  1.00  0.00     0.009 A 
ATOM     82  C   UNL     1      -9.599 -12.306 -18.800  1.00  0.00     0.009 A 
ATOM     83  C   UNL     1      -6.857 -11.965 -19.187  1.00  0.00     0.001 A 
ATOM     84  C   UNL     1      -9.013 -12.677 -20.012  1.00  0.00     0.001 A 
ATOM     85  C   UNL     1      -7.645 -12.499 -20.207  1.00  0.00     0.000 A 
ENDBRANCH  67  80
ENDBRANCH  41  42
ENDBRANCH  33  36
ENDBRANCH  31  32
ENDBRANCH  30  31
ENDBRANCH  29  30
ENDBRANCH  28  29
ENDBRANCH   1  28
TORSDOF 17
