REMARK SMILES CC(C)CCOc1ccccc1-c1cc(C(=O)NCCCCCCNC(=O)c2ccc(-c3c4nc(c(-c5ccccc5)c5ccc([nH]5)c(-c5ccccc5)c5nc(c(-c6ccccc6)c6ccc3[nH]6)C=C5)C=C4)cc2)no1
REMARK SMILES IDX 20 1 19 2 18 3 16 4 17 5 15 7 13 8 14 9 77 10 76 11 12 12
REMARK SMILES IDX 7 13 8 14 9 15 11 16 10 17 6 18 5 19 4 20 2 21 1 22 3 23
REMARK SMILES IDX 21 24 22 25 23 26 24 27 25 28 26 29 27 31 28 32 29 33 75 34
REMARK SMILES IDX 30 35 74 36 31 37 32 38 33 39 68 40 34 41 73 42 67 43 69 44
REMARK SMILES IDX 35 45 72 46 66 47 65 48 36 50 58 51 43 52 57 53 44 54 47 55
REMARK SMILES IDX 56 56 70 57 45 58 46 59 55 61 71 62 48 63 37 64 38 65 42 66
REMARK SMILES IDX 39 67 41 68 40 69 59 70 60 71 64 72 61 73 63 74 62 75 49 76
REMARK SMILES IDX 50 77 54 78 51 79 53 80 52 81
REMARK H PARENT 18 6 25 30 69 49 47 60
REMARK Flexibility Score: inf
ROOT
ATOM      1  C   UNL     1      -2.362  -5.365   2.228  1.00  0.00     0.021 C 
ENDROOT
BRANCH   1   2
ATOM      2  C   UNL     1      -2.862  -3.954   1.921  1.00  0.00     0.116 C 
BRANCH   2   3
ATOM      3  N   UNL     1      -2.635  -3.034   3.019  1.00  0.00    -0.351 N 
ATOM      4  C   UNL     1      -1.719  -2.024   3.228  1.00  0.00     0.273 C 
ATOM      5  O   UNL     1      -1.896  -1.323   4.224  1.00  0.00    -0.267 OA
ATOM      6  H   UNL     1      -3.263  -3.155   3.768  1.00  0.00     0.163 HD
BRANCH   4   7
ATOM      7  C   UNL     1      -0.579  -1.813   2.319  1.00  0.00     0.171 A 
ATOM      8  C   UNL     1       1.332  -2.402   0.224  1.00  0.00     0.171 A 
ATOM      9  C   UNL     1      -0.006  -2.944   0.969  1.00  0.00     0.088 A 
ATOM     10  O   UNL     1       1.885  -0.844   1.128  1.00  0.00    -0.355 OA
ATOM     11  N   UNL     1       0.487  -0.519   2.536  1.00  0.00    -0.074 NA
BRANCH   8  12
ATOM     12  C   UNL     1       1.723  -2.548  -1.170  1.00  0.00     0.062 A 
ATOM     13  C   UNL     1       0.698  -2.496  -2.148  1.00  0.00     0.130 A 
ATOM     14  C   UNL     1       1.015  -2.539  -3.500  1.00  0.00     0.047 A 
ATOM     15  C   UNL     1       2.352  -2.642  -3.881  1.00  0.00     0.004 A 
ATOM     16  C   UNL     1       3.054  -2.658  -1.556  1.00  0.00     0.016 A 
ATOM     17  C   UNL     1       3.364  -2.718  -2.916  1.00  0.00     0.001 A 
BRANCH  13  18
ATOM     18  O   UNL     1      -0.640  -2.516  -1.808  1.00  0.00    -0.493 OA
BRANCH  18  19
ATOM     19  C   UNL     1      -1.202  -1.223  -1.513  1.00  0.00     0.230 C 
BRANCH  19  20
ATOM     20  C   UNL     1      -1.317  -0.975   0.011  1.00  0.00     0.044 C 
BRANCH  20  21
ATOM     21  C   UNL     1       0.206  -0.822   0.725  1.00  0.00    -0.014 C 
ATOM     22  C   UNL     1       0.339   0.941   0.725  1.00  0.00     0.007 C 
ATOM     23  C   UNL     1       1.392  -2.083   2.180  1.00  0.00     0.007 C 
ENDBRANCH  20  21
ENDBRANCH  19  20
ENDBRANCH  18  19
ENDBRANCH  13  18
ENDBRANCH   8  12
ENDBRANCH   4   7
ENDBRANCH   2   3
ENDBRANCH   1   2
BRANCH   1  24
ATOM     24  C   UNL     1      -3.376  -6.192   3.026  1.00  0.00     0.002 C 
BRANCH  24  25
ATOM     25  C   UNL     1      -4.734  -6.375   2.332  1.00  0.00     0.002 C 
BRANCH  25  26
ATOM     26  C   UNL     1      -4.663  -7.030   0.951  1.00  0.00     0.021 C 
BRANCH  26  27
ATOM     27  C   UNL     1      -4.136  -8.460   0.980  1.00  0.00     0.116 C 
BRANCH  27  28
ATOM     28  N   UNL     1      -5.005  -9.330   1.763  1.00  0.00    -0.352 N 
ATOM     29  C   UNL     1      -5.739 -10.416   1.359  1.00  0.00     0.251 C 
ATOM     30  H   UNL     1      -5.074  -9.106   2.719  1.00  0.00     0.163 HD
ATOM     31  O   UNL     1      -6.622 -10.874   2.075  1.00  0.00    -0.269 OA
BRANCH  29  32
ATOM     32  C   UNL     1      -5.461 -11.020   0.043  1.00  0.00     0.039 A 
ATOM     33  C   UNL     1      -6.526 -11.339  -0.800  1.00  0.00     0.014 A 
ATOM     34  C   UNL     1      -4.142 -11.245  -0.360  1.00  0.00     0.014 A 
ATOM     35  C   UNL     1      -6.263 -11.811  -2.087  1.00  0.00     0.010 A 
ATOM     36  C   UNL     1      -3.881 -11.634  -1.667  1.00  0.00     0.010 A 
ATOM     37  C   UNL     1      -4.939 -11.914  -2.545  1.00  0.00    -0.014 A 
BRANCH  37  38
ATOM     38  C   UNL     1      -4.633 -12.283  -3.948  1.00  0.00     0.031 A 
ATOM     39  C   UNL     1      -3.860 -13.535  -4.250  1.00  0.00     0.074 A 
ATOM     40  C   UNL     1      -4.985 -11.447  -4.944  1.00  0.00     0.049 A 
ATOM     41  N   UNL     1      -3.432 -13.982  -5.403  1.00  0.00    -0.248 NA
ATOM     42  C   UNL     1      -3.504 -14.385  -3.103  1.00  0.00     0.031 C 
ATOM     43  C   UNL     1      -5.720 -10.191  -4.778  1.00  0.00     0.029 A 
ATOM     44  N   UNL     1      -4.767 -11.528  -6.296  1.00  0.00    -0.354 N 
ATOM     45  C   UNL     1      -2.751 -15.158  -5.120  1.00  0.00     0.074 A 
ATOM     46  C   UNL     1      -2.769 -15.322  -3.683  1.00  0.00     0.031 C 
ATOM     47  C   UNL     1      -5.924  -9.639  -5.984  1.00  0.00     0.029 A 
ATOM     48  C   UNL     1      -5.283 -10.467  -7.000  1.00  0.00     0.049 A 
ATOM     49  H   UNL     1      -4.287 -12.274  -6.721  1.00  0.00     0.167 HD
ATOM     50  C   UNL     1      -2.178 -16.034  -5.980  1.00  0.00     0.031 A 
ATOM     51  C   UNL     1      -5.234 -10.185  -8.316  1.00  0.00     0.031 A 
ATOM     52  C   UNL     1      -2.143 -15.855  -7.408  1.00  0.00     0.049 A 
ATOM     53  C   UNL     1      -4.519 -11.131  -9.240  1.00  0.00     0.074 A 
ATOM     54  C   UNL     1      -1.614 -16.698  -8.369  1.00  0.00     0.029 A 
ATOM     55  N   UNL     1      -2.645 -14.749  -8.078  1.00  0.00    -0.354 N 
ATOM     56  N   UNL     1      -3.935 -12.272  -8.967  1.00  0.00    -0.248 NA
ATOM     57  C   UNL     1      -4.459 -10.748 -10.658  1.00  0.00     0.031 C 
ATOM     58  C   UNL     1      -1.728 -16.068  -9.612  1.00  0.00     0.029 A 
ATOM     59  C   UNL     1      -2.401 -14.870  -9.436  1.00  0.00     0.049 A 
ATOM     60  H   UNL     1      -3.106 -13.991  -7.651  1.00  0.00     0.167 HD
ATOM     61  C   UNL     1      -3.469 -12.760 -10.181  1.00  0.00     0.074 A 
ATOM     62  C   UNL     1      -3.853 -11.799 -11.194  1.00  0.00     0.031 C 
ATOM     63  C   UNL     1      -2.787 -13.904 -10.434  1.00  0.00     0.031 A 
BRANCH  50  64
ATOM     64  C   UNL     1      -1.520 -17.252  -5.388  1.00  0.00    -0.014 A 
ATOM     65  C   UNL     1      -2.271 -18.244  -4.736  1.00  0.00     0.009 A 
ATOM     66  C   UNL     1      -0.131 -17.419  -5.497  1.00  0.00     0.009 A 
ATOM     67  C   UNL     1      -1.639 -19.349  -4.160  1.00  0.00     0.001 A 
ATOM     68  C   UNL     1       0.494 -18.544  -4.955  1.00  0.00     0.001 A 
ATOM     69  C   UNL     1      -0.258 -19.500  -4.274  1.00  0.00     0.000 A 
ENDBRANCH  50  64
BRANCH  51  70
ATOM     70  C   UNL     1      -5.886  -8.956  -8.842  1.00  0.00    -0.014 A 
ATOM     71  C   UNL     1      -7.001  -9.052  -9.689  1.00  0.00     0.009 A 
ATOM     72  C   UNL     1      -5.395  -7.683  -8.513  1.00  0.00     0.009 A 
ATOM     73  C   UNL     1      -7.590  -7.902 -10.220  1.00  0.00     0.001 A 
ATOM     74  C   UNL     1      -6.007  -6.533  -9.017  1.00  0.00     0.001 A 
ATOM     75  C   UNL     1      -7.096  -6.644  -9.879  1.00  0.00     0.000 A 
ENDBRANCH  51  70
BRANCH  63  76
ATOM     76  C   UNL     1      -2.442 -14.203 -11.868  1.00  0.00    -0.014 A 
ATOM     77  C   UNL     1      -1.478 -13.455 -12.563  1.00  0.00     0.009 A 
ATOM     78  C   UNL     1      -3.052 -15.290 -12.515  1.00  0.00     0.009 A 
ATOM     79  C   UNL     1      -1.156 -13.772 -13.884  1.00  0.00     0.001 A 
ATOM     80  C   UNL     1      -2.702 -15.627 -13.823  1.00  0.00     0.001 A 
ATOM     81  C   UNL     1      -1.761 -14.862 -14.509  1.00  0.00     0.000 A 
ENDBRANCH  63  76
ENDBRANCH  37  38
ENDBRANCH  29  32
ENDBRANCH  27  28
ENDBRANCH  26  27
ENDBRANCH  25  26
ENDBRANCH  24  25
ENDBRANCH   1  24
TORSDOF 18
