REMARK SMILES O=C(NCCCCCCNC(=O)[C@H](CO)NC(=O)[C@H](CS)NC(=O)[C@H](Cc1c[nH]c2ccccc12)NC(=O)c1ccc(F)cc1)c1ccc(-c2c3nc(c(-c4ccccc4)c4ccc([nH]4)c(-c4ccccc4)c4nc(c(-c5ccccc5)c5ccc2[nH]5)C=C4)C=C3)cc1
REMARK SMILES IDX 8 1 7 2 6 3 5 4 4 5 3 6 1 7 2 8 46 10 47 11 93 12 48 13
REMARK SMILES IDX 92 14 49 15 50 16 51 17 86 18 52 19 91 20 85 21 87 22 53 23
REMARK SMILES IDX 90 24 84 25 83 26 54 28 76 29 61 30 75 31 62 32 65 33 74 34
REMARK SMILES IDX 88 35 63 36 64 37 73 39 89 40 66 41 55 42 56 43 60 44 57 45
REMARK SMILES IDX 59 46 58 47 77 48 78 49 82 50 79 51 81 52 80 53 67 54 68 55
REMARK SMILES IDX 72 56 69 57 71 58 70 59 9 60 10 61 11 62 12 64 13 65 16 66
REMARK SMILES IDX 17 67 18 69 19 70 22 71 23 72 24 74 25 75 36 76 37 77 38 79
REMARK SMILES IDX 39 80 40 81 45 82 41 83 44 84 42 85 43 86 26 87 27 88 28 89
REMARK SMILES IDX 35 90 29 91 30 92 34 93 31 95 33 96 32 97 20 98 21 99 14 101
REMARK SMILES IDX 15 102
REMARK H PARENT 3 9 87 27 65 38 10 63 16 68 22 73 36 78 29 94 21 100 15 103
REMARK Flexibility Score: inf
ROOT
ATOM      1  C   UNL     1      11.902  -9.359   0.332  1.00  0.00     0.021 C 
ENDROOT
BRANCH   1   2
ATOM      2  C   UNL     1      10.745  -9.246   1.323  1.00  0.00     0.002 C 
BRANCH   2   3
ATOM      3  C   UNL     1      10.917 -10.082   2.594  1.00  0.00     0.002 C 
BRANCH   3   4
ATOM      4  C   UNL     1      12.250  -9.883   3.316  1.00  0.00     0.021 C 
BRANCH   4   5
ATOM      5  C   UNL     1      12.558  -8.433   3.663  1.00  0.00     0.116 C 
BRANCH   5   6
ATOM      6  N   UNL     1      11.547  -7.855   4.535  1.00  0.00    -0.352 N 
ATOM      7  O   UNL     1      10.677  -7.136   6.491  1.00  0.00    -0.269 OA
ATOM      8  C   UNL     1      11.672  -7.393   5.820  1.00  0.00     0.251 C 
ATOM      9  H   UNL     1      10.645  -7.785   4.147  1.00  0.00     0.163 HD
BRANCH   8  10
ATOM     10  C   UNL     1      13.020  -7.230   6.396  1.00  0.00     0.039 A 
ATOM     11  C   UNL     1      14.034  -6.640   5.640  1.00  0.00     0.014 A 
ATOM     12  C   UNL     1      13.279  -7.696   7.686  1.00  0.00     0.014 A 
ATOM     13  C   UNL     1      15.341  -6.679   6.101  1.00  0.00     0.010 A 
ATOM     14  C   UNL     1      14.578  -7.630   8.193  1.00  0.00     0.010 A 
ATOM     15  C   UNL     1      15.628  -7.160   7.389  1.00  0.00    -0.014 A 
BRANCH  15  16
ATOM     16  C   UNL     1      17.030  -7.117   7.875  1.00  0.00     0.031 A 
ATOM     17  C   UNL     1      17.775  -8.376   8.223  1.00  0.00     0.074 A 
ATOM     18  C   UNL     1      17.645  -5.921   7.958  1.00  0.00     0.049 A 
ATOM     19  N   UNL     1      19.018  -8.514   8.614  1.00  0.00    -0.248 NA
ATOM     20  C   UNL     1      17.034  -9.644   8.133  1.00  0.00     0.031 C 
ATOM     21  C   UNL     1      17.025  -4.629   7.648  1.00  0.00     0.029 A 
ATOM     22  N   UNL     1      18.933  -5.597   8.296  1.00  0.00    -0.354 N 
ATOM     23  C   UNL     1      19.199  -9.873   8.840  1.00  0.00     0.074 A 
ATOM     24  C   UNL     1      17.931 -10.516   8.571  1.00  0.00     0.031 C 
ATOM     25  C   UNL     1      17.950  -3.664   7.743  1.00  0.00     0.029 A 
ATOM     26  C   UNL     1      19.203  -4.254   8.194  1.00  0.00     0.049 A 
ATOM     27  H   UNL     1      19.600  -6.262   8.583  1.00  0.00     0.167 HD
ATOM     28  C   UNL     1      20.320 -10.524   9.234  1.00  0.00     0.031 A 
ATOM     29  C   UNL     1      20.331  -3.567   8.448  1.00  0.00     0.031 A 
ATOM     30  C   UNL     1      21.581  -9.879   9.499  1.00  0.00     0.049 A 
ATOM     31  C   UNL     1      21.545  -4.312   8.915  1.00  0.00     0.074 A 
ATOM     32  C   UNL     1      22.785 -10.457   9.866  1.00  0.00     0.029 A 
ATOM     33  N   UNL     1      21.800  -8.511   9.431  1.00  0.00    -0.354 N 
ATOM     34  N   UNL     1      21.709  -5.601   9.086  1.00  0.00    -0.248 NA
ATOM     35  C   UNL     1      22.733  -3.505   9.218  1.00  0.00     0.031 C 
ATOM     36  C   UNL     1      23.713  -9.434  10.082  1.00  0.00     0.029 A 
ATOM     37  C   UNL     1      23.110  -8.224   9.778  1.00  0.00     0.049 A 
ATOM     38  H   UNL     1      21.124  -7.843   9.173  1.00  0.00     0.167 HD
ATOM     39  C   UNL     1      23.028  -5.763   9.488  1.00  0.00     0.074 A 
ATOM     40  C   UNL     1      23.622  -4.442   9.514  1.00  0.00     0.031 C 
ATOM     41  C   UNL     1      23.688  -6.904   9.803  1.00  0.00     0.031 A 
BRANCH  28  42
ATOM     42  C   UNL     1      20.226 -12.013   9.442  1.00  0.00    -0.014 A 
ATOM     43  C   UNL     1      20.066 -12.900   8.365  1.00  0.00     0.009 A 
ATOM     44  C   UNL     1      20.341 -12.540  10.739  1.00  0.00     0.009 A 
ATOM     45  C   UNL     1      19.985 -14.277   8.588  1.00  0.00     0.001 A 
ATOM     46  C   UNL     1      20.291 -13.918  10.955  1.00  0.00     0.001 A 
ATOM     47  C   UNL     1      20.103 -14.785   9.881  1.00  0.00     0.000 A 
ENDBRANCH  28  42
BRANCH  29  48
ATOM     48  C   UNL     1      20.358  -2.092   8.269  1.00  0.00    -0.014 A 
ATOM     49  C   UNL     1      21.136  -1.509   7.258  1.00  0.00     0.009 A 
ATOM     50  C   UNL     1      19.604  -1.258   9.111  1.00  0.00     0.009 A 
ATOM     51  C   UNL     1      21.182  -0.121   7.113  1.00  0.00     0.001 A 
ATOM     52  C   UNL     1      19.624   0.126   8.941  1.00  0.00     0.001 A 
ATOM     53  C   UNL     1      20.422   0.695   7.950  1.00  0.00     0.000 A 
ENDBRANCH  29  48
BRANCH  41  54
ATOM     54  C   UNL     1      25.145  -6.773  10.154  1.00  0.00    -0.014 A 
ATOM     55  C   UNL     1      25.563  -6.165  11.348  1.00  0.00     0.009 A 
ATOM     56  C   UNL     1      26.114  -7.282   9.275  1.00  0.00     0.009 A 
ATOM     57  C   UNL     1      26.923  -6.026  11.630  1.00  0.00     0.001 A 
ATOM     58  C   UNL     1      27.472  -7.174   9.577  1.00  0.00     0.001 A 
ATOM     59  C   UNL     1      27.875  -6.535  10.747  1.00  0.00     0.000 A 
ENDBRANCH  41  54
ENDBRANCH  15  16
ENDBRANCH   8  10
ENDBRANCH   5   6
ENDBRANCH   4   5
ENDBRANCH   3   4
ENDBRANCH   2   3
ENDBRANCH   1   2
BRANCH   1  60
ATOM     60  C   UNL     1      12.215 -10.792  -0.080  1.00  0.00     0.116 C 
BRANCH  60  61
ATOM     61  N   UNL     1      11.239 -11.294  -1.017  1.00  0.00    -0.354 N 
ATOM     62  C   UNL     1      11.387 -11.772  -2.282  1.00  0.00     0.244 C 
ATOM     63  H   UNL     1      10.312 -11.289  -0.686  1.00  0.00     0.163 HD
ATOM     64  O   UNL     1      10.346 -12.006  -2.906  1.00  0.00    -0.273 OA
BRANCH  62  65
ATOM     65  C   UNL     1      12.762 -11.839  -2.981  1.00  0.00     0.197 C 
BRANCH  65  66
ATOM     66  N   UNL     1      13.871 -12.303  -2.152  1.00  0.00    -0.340 N 
ATOM     67  C   UNL     1      15.062 -11.708  -1.852  1.00  0.00     0.244 C 
ATOM     68  H   UNL     1      13.738 -13.189  -1.743  1.00  0.00     0.164 HD
ATOM     69  O   UNL     1      15.897 -12.414  -1.283  1.00  0.00    -0.273 OA
BRANCH  67  70
ATOM     70  C   UNL     1      15.405 -10.263  -2.344  1.00  0.00     0.181 C 
BRANCH  70  71
ATOM     71  N   UNL     1      14.405  -9.213  -2.065  1.00  0.00    -0.342 N 
ATOM     72  C   UNL     1      13.812  -8.215  -2.775  1.00  0.00     0.243 C 
ATOM     73  H   UNL     1      14.088  -9.243  -1.134  1.00  0.00     0.164 HD
ATOM     74  O   UNL     1      13.269  -7.354  -2.073  1.00  0.00    -0.273 OA
BRANCH  72  75
ATOM     75  C   UNL     1      13.935  -8.042  -4.312  1.00  0.00     0.176 C 
BRANCH  75  76
ATOM     76  N   UNL     1      13.770  -9.299  -5.044  1.00  0.00    -0.340 N 
ATOM     77  C   UNL     1      14.535 -10.001  -5.930  1.00  0.00     0.251 C 
ATOM     78  H   UNL     1      12.910  -9.739  -4.854  1.00  0.00     0.164 HD
ATOM     79  O   UNL     1      13.952 -10.904  -6.533  1.00  0.00    -0.269 OA
BRANCH  77  80
ATOM     80  C   UNL     1      15.994  -9.802  -6.167  1.00  0.00     0.040 A 
ATOM     81  C   UNL     1      16.870  -9.134  -5.304  1.00  0.00     0.017 A 
ATOM     82  C   UNL     1      16.542 -10.464  -7.281  1.00  0.00     0.017 A 
ATOM     83  C   UNL     1      18.250  -9.146  -5.524  1.00  0.00     0.040 A 
ATOM     84  C   UNL     1      17.921 -10.469  -7.510  1.00  0.00     0.040 A 
ATOM     85  C   UNL     1      18.763  -9.817  -6.622  1.00  0.00     0.123 A 
ATOM     86  F   UNL     1      20.087  -9.848  -6.814  1.00  0.00    -0.207 F 
ENDBRANCH  77  80
ENDBRANCH  75  76
BRANCH  75  87
ATOM     87  C   UNL     1      12.881  -7.030  -4.840  1.00  0.00     0.072 C 
BRANCH  87  88
ATOM     88  C   UNL     1      13.526  -5.782  -5.354  1.00  0.00    -0.020 A 
ATOM     89  C   UNL     1      14.070  -5.604  -6.611  1.00  0.00     0.087 A 
ATOM     90  C   UNL     1      13.721  -4.562  -4.635  1.00  0.00     0.003 A 
ATOM     91  N   UNL     1      14.586  -4.339  -6.678  1.00  0.00    -0.361 N 
ATOM     92  C   UNL     1      14.392  -3.683  -5.484  1.00  0.00     0.046 A 
ATOM     93  C   UNL     1      13.394  -4.126  -3.335  1.00  0.00     0.010 A 
ATOM     94  H   UNL     1      15.031  -3.953  -7.466  1.00  0.00     0.166 HD
ATOM     95  C   UNL     1      14.756  -2.388  -5.098  1.00  0.00     0.026 A 
ATOM     96  C   UNL     1      13.748  -2.834  -2.933  1.00  0.00     0.001 A 
ATOM     97  C   UNL     1      14.420  -1.980  -3.804  1.00  0.00     0.002 A 
ENDBRANCH  87  88
ENDBRANCH  75  87
ENDBRANCH  72  75
ENDBRANCH  70  71
BRANCH  70  98
ATOM     98  C   UNL     1      16.767  -9.826  -1.746  1.00  0.00     0.101 C 
BRANCH  98  99
ATOM     99  S   UNL     1      16.684  -9.393   0.039  1.00  0.00    -0.177 SA
ATOM    100  H   UNL     1      15.849  -8.333   0.210  1.00  0.00     0.102 HD
ENDBRANCH  98  99
ENDBRANCH  70  98
ENDBRANCH  67  70
ENDBRANCH  65  66
BRANCH  65 101
ATOM    101  C   UNL     1      12.648 -12.723  -4.238  1.00  0.00     0.191 C 
BRANCH 101 102
ATOM    102  O   UNL     1      12.142 -14.020  -3.910  1.00  0.00    -0.394 OA
ATOM    103  H   UNL     1      12.747 -14.456  -3.289  1.00  0.00     0.210 HD
ENDBRANCH 101 102
ENDBRANCH  65 101
ENDBRANCH  62  65
ENDBRANCH  60  61
ENDBRANCH   1  60
TORSDOF 25
