REMARK SMILES CCOC(=O)NC(=O)C[N@H+]1CC[C@@H](C(=O)NCCCCCCNC(=O)c2ccc(-c3c4nc(c(-c5ccccc5)c5ccc([nH]5)c(-c5ccccc5)c5nc(c(-c6ccccc6)c6ccc3[nH]6)C=C5)C=C4)cc2)[C@@H]1C
REMARK SMILES IDX 18 1 17 2 16 3 14 4 15 5 13 7 10 8 11 9 74 10 12 12 75 13
REMARK SMILES IDX 9 14 7 15 4 16 5 17 6 18 8 20 3 21 2 22 1 23 19 24 20 25
REMARK SMILES IDX 21 26 22 27 23 28 24 29 25 31 26 32 27 33 73 34 28 35 72 36
REMARK SMILES IDX 29 37 30 38 31 39 66 40 32 41 71 42 65 43 67 44 33 45 70 46
REMARK SMILES IDX 64 47 63 48 34 50 56 51 41 52 55 53 42 54 45 55 54 56 68 57
REMARK SMILES IDX 43 58 44 59 53 61 69 62 46 63 35 64 36 65 40 66 37 67 39 68
REMARK SMILES IDX 38 69 57 70 58 71 62 72 59 73 61 74 60 75 47 76 48 77 52 78
REMARK SMILES IDX 49 79 51 80 50 81
REMARK H PARENT 16 6 10 11 6 19 23 30 67 49 45 60
REMARK Flexibility Score: inf
ROOT
ATOM      1  C   UNL     1      -1.077   2.570   7.217  1.00  0.00     0.021 C 
ENDROOT
BRANCH   1   2
ATOM      2  C   UNL     1      -2.113   2.219   6.152  1.00  0.00     0.116 C 
BRANCH   2   3
ATOM      3  N   UNL     1      -2.742   3.406   5.618  1.00  0.00    -0.356 N 
ATOM      4  C   UNL     1      -2.635   3.992   4.395  1.00  0.00     0.229 C 
ATOM      5  O   UNL     1      -3.250   5.047   4.220  1.00  0.00    -0.275 OA
ATOM      6  H   UNL     1      -3.347   3.867   6.243  1.00  0.00     0.163 HD
BRANCH   4   7
ATOM      7  C   UNL     1      -1.825   3.381   3.259  1.00  0.00     0.142 C 
ATOM      8  N   UNL     1       0.119   1.930   3.138  1.00  0.00    -0.324 N 
ATOM      9  C   UNL     1      -1.019   1.242   2.523  1.00  0.00     0.263 C 
ATOM     10  C   UNL     1      -0.313   3.290   3.522  1.00  0.00     0.194 C 
ATOM     11  H   UNL     1       0.872   2.009   2.455  1.00  0.00     0.348 HD
ATOM     12  C   UNL     1      -2.288   1.990   2.868  1.00  0.00     0.081 C 
ATOM     13  C   UNL     1       0.447   4.289   2.643  1.00  0.00     0.076 C 
BRANCH   8  14
ATOM     14  C   UNL     1       0.756   1.167   4.225  1.00  0.00     0.364 C 
BRANCH  14  15
ATOM     15  C   UNL     1       2.267   1.369   4.245  1.00  0.00     0.284 C 
ATOM     16  C   UNL     1       2.818  -0.188   2.325  1.00  0.00     0.414 C 
ATOM     17  O   UNL     1       3.729  -0.637   1.636  1.00  0.00    -0.224 OA
ATOM     18  N   UNL     1       3.072   0.662   3.378  1.00  0.00    -0.256 N 
ATOM     19  H   UNL     1       4.033   0.794   3.546  1.00  0.00     0.176 HD
ATOM     20  O   UNL     1       2.796   2.128   5.064  1.00  0.00    -0.268 OA
BRANCH  16  21
ATOM     21  O   UNL     1       1.509  -0.446   2.126  1.00  0.00    -0.450 OA
BRANCH  21  22
ATOM     22  C   UNL     1       1.145  -1.113   0.910  1.00  0.00     0.231 C 
ATOM     23  C   UNL     1       1.266  -0.167  -0.272  1.00  0.00     0.049 C 
ENDBRANCH  21  22
ENDBRANCH  16  21
ENDBRANCH  14  15
ENDBRANCH   8  14
ENDBRANCH   4   7
ENDBRANCH   2   3
ENDBRANCH   1   2
BRANCH   1  24
ATOM     24  C   UNL     1      -1.690   2.814   8.595  1.00  0.00     0.002 C 
BRANCH  24  25
ATOM     25  C   UNL     1      -2.419   1.599   9.182  1.00  0.00     0.002 C 
BRANCH  25  26
ATOM     26  C   UNL     1      -1.580   0.319   9.260  1.00  0.00     0.021 C 
BRANCH  26  27
ATOM     27  C   UNL     1      -0.306   0.457  10.087  1.00  0.00     0.116 C 
BRANCH  27  28
ATOM     28  N   UNL     1      -0.603   0.830  11.461  1.00  0.00    -0.352 N 
ATOM     29  C   UNL     1      -0.331   0.160  12.625  1.00  0.00     0.251 C 
ATOM     30  H   UNL     1      -1.068   1.691  11.571  1.00  0.00     0.163 HD
ATOM     31  O   UNL     1      -0.884   0.485  13.670  1.00  0.00    -0.269 OA
BRANCH  29  32
ATOM     32  C   UNL     1       0.628  -0.962  12.615  1.00  0.00     0.039 A 
ATOM     33  C   UNL     1       0.327  -2.117  13.340  1.00  0.00     0.014 A 
ATOM     34  C   UNL     1       1.831  -0.865  11.909  1.00  0.00     0.014 A 
ATOM     35  C   UNL     1       1.211  -3.196  13.314  1.00  0.00     0.010 A 
ATOM     36  C   UNL     1       2.671  -1.968  11.820  1.00  0.00     0.010 A 
ATOM     37  C   UNL     1       2.374  -3.142  12.528  1.00  0.00    -0.014 A 
BRANCH  37  38
ATOM     38  C   UNL     1       3.290  -4.306  12.434  1.00  0.00     0.031 A 
ATOM     39  C   UNL     1       4.705  -4.201  12.931  1.00  0.00     0.074 A 
ATOM     40  C   UNL     1       2.862  -5.438  11.844  1.00  0.00     0.049 A 
ATOM     41  N   UNL     1       5.660  -5.096  12.893  1.00  0.00    -0.248 NA
ATOM     42  C   UNL     1       5.109  -2.915  13.522  1.00  0.00     0.031 C 
ATOM     43  C   UNL     1       1.526  -5.650  11.284  1.00  0.00     0.029 A 
ATOM     44  N   UNL     1       3.512  -6.624  11.611  1.00  0.00    -0.354 N 
ATOM     45  C   UNL     1       6.778  -4.476  13.437  1.00  0.00     0.074 A 
ATOM     46  C   UNL     1       6.398  -3.115  13.748  1.00  0.00     0.031 C 
ATOM     47  C   UNL     1       1.446  -6.898  10.799  1.00  0.00     0.029 A 
ATOM     48  C   UNL     1       2.736  -7.559  10.969  1.00  0.00     0.049 A 
ATOM     49  H   UNL     1       4.445  -6.790  11.878  1.00  0.00     0.167 HD
ATOM     50  C   UNL     1       8.006  -4.997  13.672  1.00  0.00     0.031 A 
ATOM     51  C   UNL     1       3.031  -8.805  10.554  1.00  0.00     0.031 A 
ATOM     52  C   UNL     1       8.380  -6.351  13.361  1.00  0.00     0.049 A 
ATOM     53  C   UNL     1       4.406  -9.355  10.809  1.00  0.00     0.074 A 
ATOM     54  C   UNL     1       9.578  -6.994  13.618  1.00  0.00     0.029 A 
ATOM     55  N   UNL     1       7.564  -7.268  12.714  1.00  0.00    -0.354 N 
ATOM     56  N   UNL     1       5.428  -8.784  11.399  1.00  0.00    -0.248 NA
ATOM     57  C   UNL     1       4.664 -10.727  10.352  1.00  0.00     0.031 C 
ATOM     58  C   UNL     1       9.512  -8.277  13.064  1.00  0.00     0.029 A 
ATOM     59  C   UNL     1       8.246  -8.459  12.530  1.00  0.00     0.049 A 
ATOM     60  H   UNL     1       6.638  -7.096  12.429  1.00  0.00     0.167 HD
ATOM     61  C   UNL     1       6.440  -9.735  11.409  1.00  0.00     0.074 A 
ATOM     62  C   UNL     1       5.902 -10.925  10.783  1.00  0.00     0.031 C 
ATOM     63  C   UNL     1       7.701  -9.633  11.897  1.00  0.00     0.031 A 
BRANCH  50  64
ATOM     64  C   UNL     1       9.043  -4.087  14.275  1.00  0.00    -0.014 A 
ATOM     65  C   UNL     1       8.927  -3.612  15.592  1.00  0.00     0.009 A 
ATOM     66  C   UNL     1      10.169  -3.721  13.521  1.00  0.00     0.009 A 
ATOM     67  C   UNL     1       9.893  -2.755  16.124  1.00  0.00     0.001 A 
ATOM     68  C   UNL     1      11.151  -2.893  14.068  1.00  0.00     0.001 A 
ATOM     69  C   UNL     1      11.006  -2.400  15.363  1.00  0.00     0.000 A 
ENDBRANCH  50  64
BRANCH  51  70
ATOM     70  C   UNL     1       1.999  -9.617   9.857  1.00  0.00    -0.014 A 
ATOM     71  C   UNL     1       1.435 -10.742  10.478  1.00  0.00     0.009 A 
ATOM     72  C   UNL     1       1.567  -9.266   8.569  1.00  0.00     0.009 A 
ATOM     73  C   UNL     1       0.479 -11.512   9.811  1.00  0.00     0.001 A 
ATOM     74  C   UNL     1       0.588 -10.019   7.918  1.00  0.00     0.001 A 
ATOM     75  C   UNL     1       0.052 -11.147   8.535  1.00  0.00     0.000 A 
ENDBRANCH  51  70
BRANCH  63  76
ATOM     76  C   UNL     1       8.577 -10.853  11.805  1.00  0.00    -0.014 A 
ATOM     77  C   UNL     1       9.073 -11.309  10.575  1.00  0.00     0.009 A 
ATOM     78  C   UNL     1       8.945 -11.530  12.979  1.00  0.00     0.009 A 
ATOM     79  C   UNL     1       9.890 -12.441  10.519  1.00  0.00     0.001 A 
ATOM     80  C   UNL     1       9.790 -12.639  12.924  1.00  0.00     0.001 A 
ATOM     81  C   UNL     1      10.253 -13.100  11.693  1.00  0.00     0.000 A 
ENDBRANCH  63  76
ENDBRANCH  37  38
ENDBRANCH  29  32
ENDBRANCH  27  28
ENDBRANCH  26  27
ENDBRANCH  25  26
ENDBRANCH  24  25
ENDBRANCH   1  24
TORSDOF 17
