REMARK SMILES CC(=O)N/C(=C/c1c[nH]c(-c2ccccc2)n1)C(=O)NCCCCCCNC(=O)c1ccc(-c2c3nc(c(-c4ccccc4)c4ccc([nH]4)c(-c4ccccc4)c4nc(c(-c5ccccc5)c5ccc2[nH]5)C=C4)C=C3)cc1
REMARK SMILES IDX 23 1 22 2 21 3 20 4 18 5 19 6 5 8 6 9 4 10 1 11 2 12 3 13
REMARK SMILES IDX 7 15 8 16 17 17 9 18 10 19 11 21 12 22 16 23 13 24 15 25
REMARK SMILES IDX 14 26 24 27 25 28 26 29 27 30 28 31 29 33 30 34 31 35 77 36
REMARK SMILES IDX 32 37 76 38 33 39 34 40 35 41 70 42 36 43 75 44 69 45 71 46
REMARK SMILES IDX 37 47 74 48 68 49 67 50 38 52 60 53 45 54 59 55 46 56 49 57
REMARK SMILES IDX 58 58 72 59 47 60 48 61 57 63 73 64 50 65 39 66 40 67 44 68
REMARK SMILES IDX 41 69 43 70 42 71 61 72 62 73 66 74 63 75 65 76 64 77 51 78
REMARK SMILES IDX 52 79 56 80 53 81 55 82 54 83
REMARK H PARENT 20 7 4 14 9 20 27 32 71 51 49 62
REMARK Flexibility Score: inf
ROOT
ATOM      1  C   UNL     1       2.186  -5.473   3.280  1.00  0.00     0.002 C 
ENDROOT
BRANCH   1   2
ATOM      2  C   UNL     1       1.278  -4.295   3.665  1.00  0.00     0.021 C 
BRANCH   2   3
ATOM      3  C   UNL     1       1.896  -2.902   3.591  1.00  0.00     0.116 C 
BRANCH   3   4
ATOM      4  N   UNL     1       2.297  -2.447   2.278  1.00  0.00    -0.351 N 
ATOM      5  C   UNL     1       2.635  -1.165   1.907  1.00  0.00     0.267 C 
ATOM      6  O   UNL     1       3.160  -0.975   0.811  1.00  0.00    -0.268 OA
ATOM      7  H   UNL     1       2.333  -3.130   1.570  1.00  0.00     0.163 HD
BRANCH   5   8
ATOM      8  C   UNL     1       2.247  -0.009   2.790  1.00  0.00     0.109 C 
ATOM      9  C   UNL     1       2.825   0.170   3.998  1.00  0.00     0.062 C 
BRANCH   8  10
ATOM     10  N   UNL     1       1.274   0.904   2.405  1.00  0.00    -0.322 N 
ATOM     11  C   UNL     1       0.693   0.289   0.039  1.00  0.00     0.114 C 
ATOM     12  C   UNL     1       0.521   1.098   1.287  1.00  0.00     0.221 C 
ATOM     13  O   UNL     1      -0.321   2.003   1.329  1.00  0.00    -0.275 OA
ATOM     14  H   UNL     1       1.083   1.567   3.107  1.00  0.00     0.170 HD
ENDBRANCH   8  10
BRANCH   9  15
ATOM     15  C   UNL     1       3.819  -0.614   4.638  1.00  0.00     0.084 A 
ATOM     16  C   UNL     1       3.755  -1.076   5.931  1.00  0.00     0.112 A 
ATOM     17  N   UNL     1       4.945  -1.061   4.005  1.00  0.00    -0.229 NA
ATOM     18  N   UNL     1       4.870  -1.854   6.070  1.00  0.00    -0.344 N 
ATOM     19  C   UNL     1       5.589  -1.795   4.895  1.00  0.00     0.138 A 
ATOM     20  H   UNL     1       5.118  -2.369   6.872  1.00  0.00     0.168 HD
BRANCH  19  21
ATOM     21  C   UNL     1       6.879  -2.460   4.752  1.00  0.00     0.017 A 
ATOM     22  C   UNL     1       6.963  -3.813   4.409  1.00  0.00     0.012 A 
ATOM     23  C   UNL     1       8.060  -1.767   5.027  1.00  0.00     0.012 A 
ATOM     24  C   UNL     1       8.182  -4.490   4.413  1.00  0.00     0.001 A 
ATOM     25  C   UNL     1       9.289  -2.432   5.000  1.00  0.00     0.001 A 
ATOM     26  C   UNL     1       9.348  -3.797   4.713  1.00  0.00     0.000 A 
ENDBRANCH  19  21
ENDBRANCH   9  15
ENDBRANCH   5   8
ENDBRANCH   3   4
ENDBRANCH   2   3
ENDBRANCH   1   2
BRANCH   1  27
ATOM     27  C   UNL     1       3.626  -5.419   3.794  1.00  0.00     0.002 C 
BRANCH  27  28
ATOM     28  C   UNL     1       3.781  -5.402   5.317  1.00  0.00     0.021 C 
BRANCH  28  29
ATOM     29  C   UNL     1       3.787  -6.764   6.001  1.00  0.00     0.116 C 
BRANCH  29  30
ATOM     30  N   UNL     1       4.831  -7.662   5.521  1.00  0.00    -0.352 N 
ATOM     31  C   UNL     1       5.883  -8.303   6.126  1.00  0.00     0.251 C 
ATOM     32  H   UNL     1       4.767  -7.848   4.556  1.00  0.00     0.163 HD
ATOM     33  O   UNL     1       6.655  -8.947   5.410  1.00  0.00    -0.269 OA
BRANCH  31  34
ATOM     34  C   UNL     1       6.150  -8.236   7.585  1.00  0.00     0.039 A 
ATOM     35  C   UNL     1       7.463  -8.434   8.037  1.00  0.00     0.014 A 
ATOM     36  C   UNL     1       5.147  -8.030   8.528  1.00  0.00     0.014 A 
ATOM     37  C   UNL     1       7.765  -8.363   9.402  1.00  0.00     0.010 A 
ATOM     38  C   UNL     1       5.467  -7.816   9.866  1.00  0.00     0.010 A 
ATOM     39  C   UNL     1       6.775  -8.007  10.328  1.00  0.00    -0.014 A 
BRANCH  39  40
ATOM     40  C   UNL     1       7.058  -7.874  11.783  1.00  0.00     0.031 A 
ATOM     41  C   UNL     1       6.285  -8.701  12.781  1.00  0.00     0.074 A 
ATOM     42  C   UNL     1       7.946  -6.958  12.217  1.00  0.00     0.049 A 
ATOM     43  N   UNL     1       6.298  -8.648  14.090  1.00  0.00    -0.248 NA
ATOM     44  C   UNL     1       5.338  -9.690  12.237  1.00  0.00     0.031 C 
ATOM     45  C   UNL     1       8.731  -6.061  11.364  1.00  0.00     0.029 A 
ATOM     46  N   UNL     1       8.334  -6.623  13.491  1.00  0.00    -0.354 N 
ATOM     47  C   UNL     1       5.342  -9.563  14.515  1.00  0.00     0.074 A 
ATOM     48  C   UNL     1       4.721 -10.109  13.330  1.00  0.00     0.031 C 
ATOM     49  C   UNL     1       9.531  -5.308  12.136  1.00  0.00     0.029 A 
ATOM     50  C   UNL     1       9.281  -5.628  13.536  1.00  0.00     0.049 A 
ATOM     51  H   UNL     1       7.968  -7.056  14.296  1.00  0.00     0.167 HD
ATOM     52  C   UNL     1       5.024  -9.940  15.777  1.00  0.00     0.031 A 
ATOM     53  C   UNL     1       9.876  -5.033  14.588  1.00  0.00     0.031 A 
ATOM     54  C   UNL     1       5.667  -9.424  16.955  1.00  0.00     0.049 A 
ATOM     55  C   UNL     1       9.511  -5.471  15.979  1.00  0.00     0.074 A 
ATOM     56  C   UNL     1       5.471  -9.791  18.275  1.00  0.00     0.029 A 
ATOM     57  N   UNL     1       6.637  -8.433  16.953  1.00  0.00    -0.354 N 
ATOM     58  N   UNL     1       8.650  -6.383  16.360  1.00  0.00    -0.248 NA
ATOM     59  C   UNL     1      10.210  -4.803  17.085  1.00  0.00     0.031 C 
ATOM     60  C   UNL     1       6.281  -8.980  19.076  1.00  0.00     0.029 A 
ATOM     61  C   UNL     1       7.030  -8.157  18.251  1.00  0.00     0.049 A 
ATOM     62  H   UNL     1       6.992  -7.992  16.148  1.00  0.00     0.167 HD
ATOM     63  C   UNL     1       8.727  -6.421  17.747  1.00  0.00     0.074 A 
ATOM     64  C   UNL     1       9.731  -5.453  18.136  1.00  0.00     0.031 C 
ATOM     65  C   UNL     1       8.030  -7.189  18.620  1.00  0.00     0.031 A 
BRANCH  52  66
ATOM     66  C   UNL     1       3.929 -10.960  15.945  1.00  0.00    -0.014 A 
ATOM     67  C   UNL     1       4.093 -12.289  15.521  1.00  0.00     0.009 A 
ATOM     68  C   UNL     1       2.723 -10.593  16.562  1.00  0.00     0.009 A 
ATOM     69  C   UNL     1       3.058 -13.215  15.670  1.00  0.00     0.001 A 
ATOM     70  C   UNL     1       1.703 -11.530  16.743  1.00  0.00     0.001 A 
ATOM     71  C   UNL     1       1.866 -12.836  16.285  1.00  0.00     0.000 A 
ENDBRANCH  52  66
BRANCH  53  72
ATOM     72  C   UNL     1      10.893  -3.970  14.366  1.00  0.00    -0.014 A 
ATOM     73  C   UNL     1      12.244  -4.204  14.665  1.00  0.00     0.009 A 
ATOM     74  C   UNL     1      10.520  -2.715  13.860  1.00  0.00     0.009 A 
ATOM     75  C   UNL     1      13.195  -3.196  14.489  1.00  0.00     0.001 A 
ATOM     76  C   UNL     1      11.478  -1.719  13.654  1.00  0.00     0.001 A 
ATOM     77  C   UNL     1      12.812  -1.956  13.979  1.00  0.00     0.000 A 
ENDBRANCH  53  72
BRANCH  65  78
ATOM     78  C   UNL     1       8.358  -7.042  20.079  1.00  0.00    -0.014 A 
ATOM     79  C   UNL     1       8.005  -5.889  20.797  1.00  0.00     0.009 A 
ATOM     80  C   UNL     1       8.996  -8.095  20.754  1.00  0.00     0.009 A 
ATOM     81  C   UNL     1       8.319  -5.779  22.153  1.00  0.00     0.001 A 
ATOM     82  C   UNL     1       9.278  -7.996  22.117  1.00  0.00     0.001 A 
ATOM     83  C   UNL     1       8.950  -6.834  22.812  1.00  0.00     0.000 A 
ENDBRANCH  65  78
ENDBRANCH  39  40
ENDBRANCH  31  34
ENDBRANCH  29  30
ENDBRANCH  28  29
ENDBRANCH  27  28
ENDBRANCH   1  27
TORSDOF 16
