REMARK SMILES CCC(CC)([NH2+]Cc1cc(C(N)=O)ccc1F)C(=O)NCCCCCCNC(=O)c1ccc(-c2c3nc(c(-c4ccccc4)c4ccc([nH]4)c(-c4ccccc4)c4nc(c(-c5ccccc5)c5ccc2[nH]5)C=C4)C=C3)cc1
REMARK SMILES IDX 22 1 21 2 20 3 18 4 19 5 3 7 2 8 1 9 4 10 5 11 6 12 7 15
REMARK SMILES IDX 8 16 9 17 16 18 10 19 15 20 17 21 14 22 11 23 12 24 13 25
REMARK SMILES IDX 23 28 24 29 25 30 26 31 27 32 28 33 29 35 30 36 31 37 77 38
REMARK SMILES IDX 32 39 76 40 33 41 34 42 35 43 70 44 36 45 75 46 69 47 71 48
REMARK SMILES IDX 37 49 74 50 68 51 67 52 38 54 60 55 45 56 59 57 46 58 49 59
REMARK SMILES IDX 58 60 72 61 47 62 48 63 57 65 73 66 50 67 39 68 40 69 44 70
REMARK SMILES IDX 41 71 43 72 42 73 61 74 62 75 66 76 63 77 65 78 64 79 51 80
REMARK SMILES IDX 52 81 56 82 53 83 55 84 54 85
REMARK H PARENT 20 6 6 13 6 14 12 26 12 27 27 34 71 53 49 64
REMARK Flexibility Score: inf
ROOT
ATOM      1  C   UNL     1       3.889   5.006  -2.290  1.00  0.00     0.021 C 
ENDROOT
BRANCH   1   2
ATOM      2  C   UNL     1       3.471   3.539  -2.448  1.00  0.00     0.116 C 
BRANCH   2   3
ATOM      3  N   UNL     1       3.458   2.825  -1.197  1.00  0.00    -0.351 N 
ATOM      4  C   UNL     1       2.538   2.260  -0.384  1.00  0.00     0.281 C 
ATOM      5  O   UNL     1       3.088   1.745   0.606  1.00  0.00    -0.268 OA
ATOM      6  H   UNL     1       4.367   2.721  -0.835  1.00  0.00     0.163 HD
BRANCH   4   7
ATOM      7  C   UNL     1       0.962   2.118  -0.585  1.00  0.00     0.175 C 
BRANCH   7   8
ATOM      8  C   UNL     1       0.431   1.665   0.855  1.00  0.00     0.076 C 
ATOM      9  C   UNL     1       0.689   0.199   1.253  1.00  0.00     0.011 C 
ENDBRANCH   7   8
BRANCH   7  10
ATOM     10  C   UNL     1       0.551   0.982  -1.552  1.00  0.00     0.076 C 
ATOM     11  C   UNL     1      -0.955   0.903  -1.844  1.00  0.00     0.011 C 
ENDBRANCH   7  10
BRANCH   7  12
ATOM     12  N   UNL     1       0.259   3.408  -0.822  1.00  0.00    -0.330 N 
ATOM     13  H   UNL     1       0.484   3.966   0.001  1.00  0.00     0.347 HD
ATOM     14  H   UNL     1      -0.649   3.017  -1.071  1.00  0.00     0.347 HD
BRANCH  12  15
ATOM     15  C   UNL     1       0.362   4.356  -1.931  1.00  0.00     0.301 C 
BRANCH  15  16
ATOM     16  C   UNL     1      -0.064   4.015  -3.356  1.00  0.00     0.043 A 
ATOM     17  C   UNL     1       0.404   2.912  -4.090  1.00  0.00     0.026 A 
ATOM     18  C   UNL     1      -0.862   4.913  -4.076  1.00  0.00     0.132 A 
ATOM     19  C   UNL     1      -0.043   2.585  -5.379  1.00  0.00     0.040 A 
ATOM     20  C   UNL     1      -1.241   4.674  -5.402  1.00  0.00     0.040 A 
ATOM     21  F   UNL     1      -1.247   6.066  -3.512  1.00  0.00    -0.206 F 
ATOM     22  C   UNL     1      -0.862   3.494  -6.042  1.00  0.00     0.017 A 
BRANCH  19  23
ATOM     23  C   UNL     1       0.309   1.298  -6.056  1.00  0.00     0.248 C 
ATOM     24  N   UNL     1       0.975   0.332  -5.350  1.00  0.00    -0.366 N 
ATOM     25  O   UNL     1      -0.024   1.079  -7.215  1.00  0.00    -0.270 OA
ATOM     26  H   UNL     1       1.245   0.502  -4.418  1.00  0.00     0.159 HD
ATOM     27  H   UNL     1       1.182  -0.532  -5.774  1.00  0.00     0.159 HD
ENDBRANCH  19  23
ENDBRANCH  15  16
ENDBRANCH  12  15
ENDBRANCH   7  12
ENDBRANCH   4   7
ENDBRANCH   2   3
ENDBRANCH   1   2
BRANCH   1  28
ATOM     28  C   UNL     1       5.294   5.310  -2.811  1.00  0.00     0.002 C 
BRANCH  28  29
ATOM     29  C   UNL     1       5.501   5.040  -4.307  1.00  0.00     0.002 C 
BRANCH  29  30
ATOM     30  C   UNL     1       4.550   5.777  -5.256  1.00  0.00     0.021 C 
BRANCH  30  31
ATOM     31  C   UNL     1       4.560   7.299  -5.130  1.00  0.00     0.116 C 
BRANCH  31  32
ATOM     32  N   UNL     1       5.895   7.855  -5.292  1.00  0.00    -0.352 N 
ATOM     33  C   UNL     1       6.389   8.719  -6.235  1.00  0.00     0.251 C 
ATOM     34  H   UNL     1       6.549   7.565  -4.615  1.00  0.00     0.163 HD
ATOM     35  O   UNL     1       7.599   8.900  -6.328  1.00  0.00    -0.269 OA
BRANCH  33  36
ATOM     36  C   UNL     1       5.471   9.425  -7.151  1.00  0.00     0.039 A 
ATOM     37  C   UNL     1       5.801   9.509  -8.507  1.00  0.00     0.014 A 
ATOM     38  C   UNL     1       4.304  10.028  -6.673  1.00  0.00     0.014 A 
ATOM     39  C   UNL     1       4.927  10.136  -9.395  1.00  0.00     0.010 A 
ATOM     40  C   UNL     1       3.402  10.595  -7.569  1.00  0.00     0.010 A 
ATOM     41  C   UNL     1       3.702  10.650  -8.939  1.00  0.00    -0.014 A 
BRANCH  41  42
ATOM     42  C   UNL     1       2.708  11.218  -9.881  1.00  0.00     0.031 A 
ATOM     43  C   UNL     1       2.327  12.669  -9.806  1.00  0.00     0.074 A 
ATOM     44  C   UNL     1       2.086  10.402 -10.754  1.00  0.00     0.049 A 
ATOM     45  N   UNL     1       1.424  13.322 -10.494  1.00  0.00    -0.248 NA
ATOM     46  C   UNL     1       3.035  13.488  -8.810  1.00  0.00     0.031 C 
ATOM     47  C   UNL     1       2.334   8.966 -10.893  1.00  0.00     0.029 A 
ATOM     48  N   UNL     1       1.105  10.662 -11.677  1.00  0.00    -0.354 N 
ATOM     49  C   UNL     1       1.448  14.623 -10.007  1.00  0.00     0.074 A 
ATOM     50  C   UNL     1       2.417  14.653  -8.932  1.00  0.00     0.031 C 
ATOM     51  C   UNL     1       1.536   8.474 -11.853  1.00  0.00     0.029 A 
ATOM     52  C   UNL     1       0.692   9.548 -12.367  1.00  0.00     0.049 A 
ATOM     53  H   UNL     1       0.732  11.560 -11.830  1.00  0.00     0.167 HD
ATOM     54  C   UNL     1       0.739  15.698 -10.427  1.00  0.00     0.031 A 
ATOM     55  C   UNL     1      -0.270   9.401 -13.297  1.00  0.00     0.031 A 
ATOM     56  C   UNL     1      -0.230  15.663 -11.490  1.00  0.00     0.049 A 
ATOM     57  C   UNL     1      -1.061  10.602 -13.731  1.00  0.00     0.074 A 
ATOM     58  C   UNL     1      -0.961  16.709 -12.027  1.00  0.00     0.029 A 
ATOM     59  N   UNL     1      -0.613  14.517 -12.172  1.00  0.00    -0.354 N 
ATOM     60  N   UNL     1      -0.974  11.841 -13.314  1.00  0.00    -0.248 NA
ATOM     61  C   UNL     1      -2.076  10.384 -14.771  1.00  0.00     0.031 C 
ATOM     62  C   UNL     1      -1.827  16.186 -12.993  1.00  0.00     0.029 A 
ATOM     63  C   UNL     1      -1.593  14.825 -13.101  1.00  0.00     0.049 A 
ATOM     64  H   UNL     1      -0.242  13.618 -12.018  1.00  0.00     0.167 HD
ATOM     65  C   UNL     1      -1.910  12.555 -14.050  1.00  0.00     0.074 A 
ATOM     66  C   UNL     1      -2.538  11.613 -14.954  1.00  0.00     0.031 C 
ATOM     67  C   UNL     1      -2.220  13.873 -13.983  1.00  0.00     0.031 A 
BRANCH  54  68
ATOM     68  C   UNL     1       0.982  17.002  -9.716  1.00  0.00    -0.014 A 
ATOM     69  C   UNL     1       2.202  17.686  -9.845  1.00  0.00     0.009 A 
ATOM     70  C   UNL     1      -0.027  17.561  -8.916  1.00  0.00     0.009 A 
ATOM     71  C   UNL     1       2.423  18.878  -9.151  1.00  0.00     0.001 A 
ATOM     72  C   UNL     1       0.185  18.769  -8.248  1.00  0.00     0.001 A 
ATOM     73  C   UNL     1       1.414  19.419  -8.356  1.00  0.00     0.000 A 
ENDBRANCH  54  68
BRANCH  55  74
ATOM     74  C   UNL     1      -0.533   8.058 -13.875  1.00  0.00    -0.014 A 
ATOM     75  C   UNL     1      -0.167   7.764 -15.197  1.00  0.00     0.009 A 
ATOM     76  C   UNL     1      -1.131   7.054 -13.096  1.00  0.00     0.009 A 
ATOM     77  C   UNL     1      -0.410   6.498 -15.732  1.00  0.00     0.001 A 
ATOM     78  C   UNL     1      -1.346   5.780 -13.625  1.00  0.00     0.001 A 
ATOM     79  C   UNL     1      -0.993   5.505 -14.945  1.00  0.00     0.000 A 
ENDBRANCH  55  74
BRANCH  67  80
ATOM     80  C   UNL     1      -3.279  14.377 -14.923  1.00  0.00    -0.014 A 
ATOM     81  C   UNL     1      -4.633  14.062 -14.729  1.00  0.00     0.009 A 
ATOM     82  C   UNL     1      -2.921  15.214 -15.992  1.00  0.00     0.009 A 
ATOM     83  C   UNL     1      -5.604  14.552 -15.606  1.00  0.00     0.001 A 
ATOM     84  C   UNL     1      -3.897  15.725 -16.849  1.00  0.00     0.001 A 
ATOM     85  C   UNL     1      -5.236  15.387 -16.660  1.00  0.00     0.000 A 
ENDBRANCH  67  80
ENDBRANCH  41  42
ENDBRANCH  33  36
ENDBRANCH  31  32
ENDBRANCH  30  31
ENDBRANCH  29  30
ENDBRANCH  28  29
ENDBRANCH   1  28
TORSDOF 19
