REMARK SMILES CS(=O)(=O)c1ccc(/C=C(/C(=O)NCCCCCCNC(=O)c2ccc(-c3c4nc(c(-c5ccccc5)c5ccc([nH]5)c(-c5ccccc5)c5nc(c(-c6ccccc6)c6ccc3[nH]6)C=C5)C=C4)cc2)c2ccc(-c3ccc(F)cc3F)cc2)cc1
REMARK SMILES IDX 16 1 15 2 14 3 13 4 11 5 12 6 10 8 9 9 8 10 5 11 6 12 86 13
REMARK SMILES IDX 7 14 85 15 2 16 1 17 3 18 4 19 71 20 72 21 84 22 73 23 83 24
REMARK SMILES IDX 74 25 75 26 76 27 81 28 77 29 80 30 82 31 78 32 79 33 17 34
REMARK SMILES IDX 18 35 19 36 20 37 21 38 22 40 23 41 24 42 70 43 25 44 69 45
REMARK SMILES IDX 26 46 27 47 28 48 63 49 29 50 68 51 62 52 64 53 30 54 67 55
REMARK SMILES IDX 61 56 60 57 31 59 53 60 38 61 52 62 39 63 42 64 51 65 65 66
REMARK SMILES IDX 40 67 41 68 50 70 66 71 43 72 32 73 33 74 37 75 34 76 36 77
REMARK SMILES IDX 35 78 54 79 55 80 59 81 56 82 58 83 57 84 44 85 45 86 49 87
REMARK SMILES IDX 46 88 48 89 47 90
REMARK H PARENT 13 7 20 39 64 58 42 69
REMARK Flexibility Score: inf
ROOT
ATOM      1  C   UNL     1       1.151  11.704   0.545  1.00  0.00     0.002 C 
ENDROOT
BRANCH   1   2
ATOM      2  C   UNL     1       0.975  10.216   0.194  1.00  0.00     0.021 C 
BRANCH   2   3
ATOM      3  C   UNL     1       2.299   9.490  -0.059  1.00  0.00     0.116 C 
BRANCH   3   4
ATOM      4  N   UNL     1       3.021   9.364   1.188  1.00  0.00    -0.352 N 
ATOM      5  C   UNL     1       3.201   8.363   2.085  1.00  0.00     0.251 C 
ATOM      6  O   UNL     1       3.777   8.686   3.128  1.00  0.00    -0.269 OA
ATOM      7  H   UNL     1       3.486  10.193   1.444  1.00  0.00     0.163 HD
BRANCH   5   8
ATOM      8  C   UNL     1       2.834   6.917   1.826  1.00  0.00     0.047 C 
ATOM      9  C   UNL     1       1.760   6.554   1.088  1.00  0.00     0.022 C 
BRANCH   9  10
ATOM     10  C   UNL     1       1.345   5.210   0.623  1.00  0.00    -0.025 A 
ATOM     11  C   UNL     1       0.672   2.702  -0.461  1.00  0.00     0.067 A 
ATOM     12  C   UNL     1       1.014   2.807   0.887  1.00  0.00     0.021 A 
ATOM     13  C   UNL     1       0.623   3.844  -1.263  1.00  0.00     0.021 A 
ATOM     14  C   UNL     1       1.323   4.064   1.426  1.00  0.00     0.009 A 
ATOM     15  C   UNL     1       0.957   5.088  -0.721  1.00  0.00     0.009 A 
BRANCH  11  16
ATOM     16  S   UNL     1       0.313   1.141  -1.230  1.00  0.00     0.175 S 
ATOM     17  C   UNL     1       0.949  -0.129  -0.175  1.00  0.00     0.163 C 
ATOM     18  O   UNL     1       1.086   1.100  -2.456  1.00  0.00    -0.224 OA
ATOM     19  O   UNL     1      -1.133   1.021  -1.252  1.00  0.00    -0.224 OA
ENDBRANCH  11  16
ENDBRANCH   9  10
BRANCH   8  20
ATOM     20  C   UNL     1       3.607   5.906   2.590  1.00  0.00    -0.013 A 
ATOM     21  C   UNL     1       3.467   5.900   3.983  1.00  0.00     0.009 A 
ATOM     22  C   UNL     1       4.410   4.931   1.993  1.00  0.00     0.009 A 
ATOM     23  C   UNL     1       4.093   4.930   4.762  1.00  0.00     0.009 A 
ATOM     24  C   UNL     1       5.013   3.936   2.781  1.00  0.00     0.009 A 
ATOM     25  C   UNL     1       4.854   3.905   4.179  1.00  0.00    -0.015 A 
BRANCH  25  26
ATOM     26  C   UNL     1       5.436   2.846   5.031  1.00  0.00     0.018 A 
ATOM     27  C   UNL     1       4.708   2.335   6.129  1.00  0.00     0.015 A 
ATOM     28  C   UNL     1       6.722   2.321   4.819  1.00  0.00     0.133 A 
ATOM     29  C   UNL     1       5.256   1.377   6.984  1.00  0.00     0.040 A 
ATOM     30  C   UNL     1       7.273   1.358   5.662  1.00  0.00     0.079 A 
ATOM     31  F   UNL     1       7.474   2.755   3.795  1.00  0.00    -0.206 F 
ATOM     32  C   UNL     1       6.536   0.901   6.743  1.00  0.00     0.126 A 
ATOM     33  F   UNL     1       7.064  -0.013   7.567  1.00  0.00    -0.207 F 
ENDBRANCH  25  26
ENDBRANCH   8  20
ENDBRANCH   5   8
ENDBRANCH   3   4
ENDBRANCH   2   3
ENDBRANCH   1   2
BRANCH   1  34
ATOM     34  C   UNL     1       1.854  12.543  -0.529  1.00  0.00     0.002 C 
BRANCH  34  35
ATOM     35  C   UNL     1       1.240  12.438  -1.927  1.00  0.00     0.021 C 
BRANCH  35  36
ATOM     36  C   UNL     1      -0.214  12.887  -2.002  1.00  0.00     0.116 C 
BRANCH  36  37
ATOM     37  N   UNL     1      -0.349  14.319  -1.784  1.00  0.00    -0.352 N 
ATOM     38  C   UNL     1      -0.970  15.252  -2.577  1.00  0.00     0.251 C 
ATOM     39  H   UNL     1       0.059  14.665  -0.957  1.00  0.00     0.163 HD
ATOM     40  O   UNL     1      -0.824  16.450  -2.366  1.00  0.00    -0.269 OA
BRANCH  38  41
ATOM     41  C   UNL     1      -1.808  14.795  -3.704  1.00  0.00     0.039 A 
ATOM     42  C   UNL     1      -1.630  15.371  -4.963  1.00  0.00     0.014 A 
ATOM     43  C   UNL     1      -2.760  13.790  -3.511  1.00  0.00     0.014 A 
ATOM     44  C   UNL     1      -2.372  14.899  -6.048  1.00  0.00     0.010 A 
ATOM     45  C   UNL     1      -3.451  13.278  -4.603  1.00  0.00     0.010 A 
ATOM     46  C   UNL     1      -3.268  13.831  -5.880  1.00  0.00    -0.014 A 
BRANCH  46  47
ATOM     47  C   UNL     1      -4.043  13.280  -7.018  1.00  0.00     0.031 A 
ATOM     48  C   UNL     1      -5.541  13.397  -7.024  1.00  0.00     0.074 A 
ATOM     49  C   UNL     1      -3.412  12.603  -7.996  1.00  0.00     0.049 A 
ATOM     50  N   UNL     1      -6.407  12.879  -7.857  1.00  0.00    -0.248 NA
ATOM     51  C   UNL     1      -6.147  14.179  -5.934  1.00  0.00     0.031 C 
ATOM     52  C   UNL     1      -1.965  12.400  -8.092  1.00  0.00     0.029 A 
ATOM     53  N   UNL     1      -3.914  11.947  -9.091  1.00  0.00    -0.354 N 
ATOM     54  C   UNL     1      -7.657  13.249  -7.377  1.00  0.00     0.074 A 
ATOM     55  C   UNL     1      -7.439  14.000  -6.160  1.00  0.00     0.031 C 
ATOM     56  C   UNL     1      -1.696  11.683  -9.196  1.00  0.00     0.029 A 
ATOM     57  C   UNL     1      -2.950  11.339  -9.858  1.00  0.00     0.049 A 
ATOM     58  H   UNL     1      -4.874  11.914  -9.307  1.00  0.00     0.167 HD
ATOM     59  C   UNL     1      -8.877  13.001  -7.910  1.00  0.00     0.031 A 
ATOM     60  C   UNL     1      -3.065  10.579 -10.964  1.00  0.00     0.031 A 
ATOM     61  C   UNL     1      -9.091  12.268  -9.129  1.00  0.00     0.049 A 
ATOM     62  C   UNL     1      -4.431  10.299 -11.525  1.00  0.00     0.074 A 
ATOM     63  C   UNL     1     -10.284  12.007  -9.779  1.00  0.00     0.029 A 
ATOM     64  N   UNL     1      -8.086  11.680  -9.880  1.00  0.00    -0.354 N 
ATOM     65  N   UNL     1      -5.601  10.698 -11.088  1.00  0.00    -0.248 NA
ATOM     66  C   UNL     1      -4.492   9.467 -12.735  1.00  0.00     0.031 C 
ATOM     67  C   UNL     1     -10.006  11.222 -10.902  1.00  0.00     0.029 A 
ATOM     68  C   UNL     1      -8.634  11.039 -10.978  1.00  0.00     0.049 A 
ATOM     69  H   UNL     1      -7.126  11.713  -9.666  1.00  0.00     0.167 HD
ATOM     70  C   UNL     1      -6.532  10.194 -11.986  1.00  0.00     0.074 A 
ATOM     71  C   UNL     1      -5.792   9.466 -12.996  1.00  0.00     0.031 C 
ATOM     72  C   UNL     1      -7.881  10.327 -11.977  1.00  0.00     0.031 A 
BRANCH  59  73
ATOM     73  C   UNL     1     -10.074  13.522  -7.166  1.00  0.00    -0.014 A 
ATOM     74  C   UNL     1     -10.354  14.896  -7.110  1.00  0.00     0.009 A 
ATOM     75  C   UNL     1     -10.947  12.624  -6.533  1.00  0.00     0.009 A 
ATOM     76  C   UNL     1     -11.463  15.363  -6.400  1.00  0.00     0.001 A 
ATOM     77  C   UNL     1     -12.070  13.092  -5.849  1.00  0.00     0.001 A 
ATOM     78  C   UNL     1     -12.321  14.461  -5.774  1.00  0.00     0.000 A 
ENDBRANCH  59  73
BRANCH  60  79
ATOM     79  C   UNL     1      -1.849  10.038 -11.623  1.00  0.00    -0.014 A 
ATOM     80  C   UNL     1      -1.421  10.556 -12.855  1.00  0.00     0.009 A 
ATOM     81  C   UNL     1      -1.109   9.005 -11.027  1.00  0.00     0.009 A 
ATOM     82  C   UNL     1      -0.291  10.035 -13.488  1.00  0.00     0.001 A 
ATOM     83  C   UNL     1       0.036   8.504 -11.650  1.00  0.00     0.001 A 
ATOM     84  C   UNL     1       0.439   9.013 -12.883  1.00  0.00     0.000 A 
ENDBRANCH  60  79
BRANCH  72  85
ATOM     85  C   UNL     1      -8.643   9.712 -13.116  1.00  0.00    -0.014 A 
ATOM     86  C   UNL     1      -8.840   8.325 -13.197  1.00  0.00     0.009 A 
ATOM     87  C   UNL     1      -9.224  10.543 -14.087  1.00  0.00     0.009 A 
ATOM     88  C   UNL     1      -9.587   7.781 -14.243  1.00  0.00     0.001 A 
ATOM     89  C   UNL     1      -9.991   9.998 -15.117  1.00  0.00     0.001 A 
ATOM     90  C   UNL     1     -10.167   8.617 -15.197  1.00  0.00     0.000 A 
ENDBRANCH  72  85
ENDBRANCH  46  47
ENDBRANCH  38  41
ENDBRANCH  36  37
ENDBRANCH  35  36
ENDBRANCH  34  35
ENDBRANCH   1  34
TORSDOF 17
