REMARK SMILES O=C(NCCCCCCNC(=O)[C@@H]1CCC[N@@H+]1CC(=O)N1CCSc2ccccc21)c1ccc(-c2c3nc(c(-c4ccccc4)c4ccc([nH]4)c(-c4ccccc4)c4nc(c(-c5ccccc5)c5ccc2[nH]5)C=C4)C=C3)cc1
REMARK SMILES IDX 7 1 6 2 5 3 4 4 3 5 1 6 2 7 31 9 32 10 78 11 33 12 77 13
REMARK SMILES IDX 34 14 35 15 36 16 71 17 37 18 76 19 70 20 72 21 38 22 75 23
REMARK SMILES IDX 69 24 68 25 39 27 61 28 46 29 60 30 47 31 50 32 59 33 73 34
REMARK SMILES IDX 48 35 49 36 58 38 74 39 51 40 40 41 41 42 45 43 42 44 44 45
REMARK SMILES IDX 43 46 62 47 63 48 67 49 64 50 66 51 65 52 52 53 53 54 57 55
REMARK SMILES IDX 54 56 56 57 55 58 8 59 9 60 10 61 11 62 12 64 13 65 14 66
REMARK SMILES IDX 17 67 15 68 16 69 18 71 19 72 20 73 21 74 22 75 30 76 23 77
REMARK SMILES IDX 25 78 29 79 24 80 26 81 28 82 27 83
REMARK H PARENT 3 8 72 26 50 37 10 63 17 70
REMARK Flexibility Score: inf
ROOT
ATOM      1  C   UNL     1       4.311   2.948  -4.035  1.00  0.00     0.002 C 
ENDROOT
BRANCH   1   2
ATOM      2  C   UNL     1       4.551   1.211  -3.957  1.00  0.00     0.002 C 
BRANCH   2   3
ATOM      3  C   UNL     1       4.885  -0.224  -2.328  1.00  0.00     0.021 C 
BRANCH   3   4
ATOM      4  C   UNL     1       4.161  -0.431  -0.715  1.00  0.00     0.116 C 
BRANCH   4   5
ATOM      5  N   UNL     1       2.740  -0.097  -0.403  1.00  0.00    -0.352 N 
ATOM      6  O   UNL     1       0.780  -0.002   0.716  1.00  0.00    -0.269 OA
ATOM      7  C   UNL     1       1.958  -0.327   0.680  1.00  0.00     0.251 C 
ATOM      8  H   UNL     1       2.280   0.387  -1.127  1.00  0.00     0.163 HD
BRANCH   7   9
ATOM      9  C   UNL     1       2.623  -0.910   1.816  1.00  0.00     0.039 A 
ATOM     10  C   UNL     1       2.195  -2.137   2.295  1.00  0.00     0.014 A 
ATOM     11  C   UNL     1       3.781  -0.264   2.251  1.00  0.00     0.014 A 
ATOM     12  C   UNL     1       2.982  -2.746   3.245  1.00  0.00     0.010 A 
ATOM     13  C   UNL     1       4.648  -0.958   3.046  1.00  0.00     0.010 A 
ATOM     14  C   UNL     1       4.214  -2.162   3.602  1.00  0.00    -0.014 A 
BRANCH  14  15
ATOM     15  C   UNL     1       5.013  -2.754   4.673  1.00  0.00     0.031 A 
ATOM     16  C   UNL     1       5.210  -1.966   5.929  1.00  0.00     0.074 A 
ATOM     17  C   UNL     1       5.488  -3.995   4.498  1.00  0.00     0.049 A 
ATOM     18  N   UNL     1       5.786  -2.338   7.037  1.00  0.00    -0.248 NA
ATOM     19  C   UNL     1       4.727  -0.570   5.946  1.00  0.00     0.031 C 
ATOM     20  C   UNL     1       5.359  -4.785   3.270  1.00  0.00     0.029 A 
ATOM     21  N   UNL     1       6.122  -4.827   5.373  1.00  0.00    -0.354 N 
ATOM     22  C   UNL     1       5.722  -1.230   7.868  1.00  0.00     0.074 A 
ATOM     23  C   UNL     1       5.174  -0.137   7.111  1.00  0.00     0.031 C 
ATOM     24  C   UNL     1       5.814  -6.023   3.503  1.00  0.00     0.029 A 
ATOM     25  C   UNL     1       6.316  -6.088   4.872  1.00  0.00     0.049 A 
ATOM     26  H   UNL     1       6.411  -4.550   6.273  1.00  0.00     0.167 HD
ATOM     27  C   UNL     1       6.032  -1.159   9.178  1.00  0.00     0.031 A 
ATOM     28  C   UNL     1       6.825  -7.178   5.470  1.00  0.00     0.031 A 
ATOM     29  C   UNL     1       6.554  -2.278   9.907  1.00  0.00     0.049 A 
ATOM     30  C   UNL     1       7.197  -7.066   6.921  1.00  0.00     0.074 A 
ATOM     31  C   UNL     1       6.906  -2.343  11.238  1.00  0.00     0.029 A 
ATOM     32  N   UNL     1       6.791  -3.531   9.356  1.00  0.00    -0.354 N 
ATOM     33  N   UNL     1       7.085  -6.032   7.723  1.00  0.00    -0.248 NA
ATOM     34  C   UNL     1       7.745  -8.267   7.555  1.00  0.00     0.031 C 
ATOM     35  C   UNL     1       7.436  -3.612  11.475  1.00  0.00     0.029 A 
ATOM     36  C   UNL     1       7.320  -4.371  10.317  1.00  0.00     0.049 A 
ATOM     37  H   UNL     1       6.609  -3.783   8.422  1.00  0.00     0.167 HD
ATOM     38  C   UNL     1       7.540  -6.457   8.963  1.00  0.00     0.074 A 
ATOM     39  C   UNL     1       7.890  -7.858   8.809  1.00  0.00     0.031 C 
ATOM     40  C   UNL     1       7.670  -5.758  10.119  1.00  0.00     0.031 A 
BRANCH  27  41
ATOM     41  C   UNL     1       5.796   0.146   9.883  1.00  0.00    -0.014 A 
ATOM     42  C   UNL     1       6.878   0.853  10.425  1.00  0.00     0.009 A 
ATOM     43  C   UNL     1       4.498   0.661  10.051  1.00  0.00     0.009 A 
ATOM     44  C   UNL     1       6.667   2.032  11.141  1.00  0.00     0.001 A 
ATOM     45  C   UNL     1       4.293   1.864  10.729  1.00  0.00     0.001 A 
ATOM     46  C   UNL     1       5.377   2.539  11.287  1.00  0.00     0.000 A 
ENDBRANCH  27  41
BRANCH  28  47
ATOM     47  C   UNL     1       6.938  -8.437   4.691  1.00  0.00    -0.014 A 
ATOM     48  C   UNL     1       7.774  -8.495   3.562  1.00  0.00     0.009 A 
ATOM     49  C   UNL     1       6.132  -9.545   4.988  1.00  0.00     0.009 A 
ATOM     50  C   UNL     1       7.766  -9.611   2.723  1.00  0.00     0.001 A 
ATOM     51  C   UNL     1       6.156 -10.678   4.169  1.00  0.00     0.001 A 
ATOM     52  C   UNL     1       6.958 -10.702   3.029  1.00  0.00     0.000 A 
ENDBRANCH  28  47
BRANCH  40  53
ATOM     53  C   UNL     1       8.229  -6.488  11.310  1.00  0.00    -0.014 A 
ATOM     54  C   UNL     1       7.442  -6.647  12.463  1.00  0.00     0.009 A 
ATOM     55  C   UNL     1       9.564  -6.917  11.334  1.00  0.00     0.009 A 
ATOM     56  C   UNL     1       7.987  -7.200  13.621  1.00  0.00     0.001 A 
ATOM     57  C   UNL     1      10.092  -7.516  12.478  1.00  0.00     0.001 A 
ATOM     58  C   UNL     1       9.308  -7.644  13.624  1.00  0.00     0.000 A 
ENDBRANCH  40  53
ENDBRANCH  14  15
ENDBRANCH   7   9
ENDBRANCH   4   5
ENDBRANCH   3   4
ENDBRANCH   2   3
ENDBRANCH   1   2
BRANCH   1  59
ATOM     59  C   UNL     1       5.445   3.801  -4.625  1.00  0.00     0.021 C 
BRANCH  59  60
ATOM     60  C   UNL     1       5.998   3.292  -5.960  1.00  0.00     0.116 C 
BRANCH  60  61
ATOM     61  N   UNL     1       7.109   4.044  -6.541  1.00  0.00    -0.351 N 
ATOM     62  C   UNL     1       8.142   3.339  -7.154  1.00  0.00     0.278 C 
ATOM     63  H   UNL     1       7.126   5.027  -6.500  1.00  0.00     0.163 HD
ATOM     64  O   UNL     1       7.932   2.810  -8.248  1.00  0.00    -0.268 OA
BRANCH  62  65
ATOM     65  C   UNL     1       9.575   3.368  -6.536  1.00  0.00     0.274 C 
ATOM     66  C   UNL     1      10.530   2.167  -6.629  1.00  0.00     0.081 C 
ATOM     67  N   UNL     1       9.723   3.783  -5.137  1.00  0.00    -0.317 N 
ATOM     68  C   UNL     1      11.607   2.435  -5.574  1.00  0.00     0.068 C 
ATOM     69  C   UNL     1      11.152   3.694  -4.861  1.00  0.00     0.263 C 
ATOM     70  H   UNL     1       9.346   4.729  -5.071  1.00  0.00     0.349 HD
BRANCH  67  71
ATOM     71  C   UNL     1       8.843   3.258  -4.087  1.00  0.00     0.364 C 
BRANCH  71  72
ATOM     72  C   UNL     1       8.704   1.765  -3.670  1.00  0.00     0.282 C 
ATOM     73  O   UNL     1       9.307   1.371  -2.664  1.00  0.00    -0.268 OA
BRANCH  72  74
ATOM     74  N   UNL     1       7.722   0.952  -4.270  1.00  0.00    -0.306 N 
ATOM     75  C   UNL     1       7.996   0.313  -5.565  1.00  0.00     0.137 C 
ATOM     76  C   UNL     1       6.536   0.538  -3.555  1.00  0.00     0.057 A 
ATOM     77  C   UNL     1       6.912  -0.331  -6.441  1.00  0.00     0.097 C 
ATOM     78  C   UNL     1       5.488  -0.708  -4.332  1.00  0.00     0.031 A 
ATOM     79  C   UNL     1       5.824   1.657  -2.343  1.00  0.00     0.027 A 
ATOM     80  S   UNL     1       6.141  -1.724  -5.627  1.00  0.00    -0.122 SA
ATOM     81  C   UNL     1       3.728  -0.781  -4.028  1.00  0.00     0.017 A 
ATOM     82  C   UNL     1       4.039   1.606  -2.013  1.00  0.00     0.002 A 
ATOM     83  C   UNL     1       2.985   0.395  -2.897  1.00  0.00     0.001 A 
ENDBRANCH  72  74
ENDBRANCH  71  72
ENDBRANCH  67  71
ENDBRANCH  62  65
ENDBRANCH  60  61
ENDBRANCH  59  60
ENDBRANCH   1  59
TORSDOF 16
