REMARK SMILES CC[C@@](C)([NH2+]CC(=O)N[C@@H](C)c1ccc(F)cc1)C(=O)NCCCCCCNC(=O)c1ccc(-c2c3nc(c(-c4ccccc4)c4ccc([nH]4)c(-c4ccccc4)c4nc(c(-c5ccccc5)c5ccc2[nH]5)C=C4)C=C3)cc1
REMARK SMILES IDX 23 1 22 2 21 3 19 4 20 5 3 7 4 8 2 9 1 10 5 11 6 14 7 15
REMARK SMILES IDX 8 16 9 17 10 19 11 20 12 21 13 22 18 23 14 24 17 25 15 26
REMARK SMILES IDX 16 27 24 28 25 29 26 30 27 31 28 32 29 33 30 35 31 36 32 37
REMARK SMILES IDX 78 38 33 39 77 40 34 41 35 42 36 43 71 44 37 45 76 46 70 47
REMARK SMILES IDX 72 48 38 49 75 50 69 51 68 52 39 54 61 55 46 56 60 57 47 58
REMARK SMILES IDX 50 59 59 60 73 61 48 62 49 63 58 65 74 66 51 67 40 68 41 69
REMARK SMILES IDX 45 70 42 71 44 72 43 73 62 74 63 75 67 76 64 77 66 78 65 79
REMARK SMILES IDX 52 80 53 81 57 82 54 83 56 84 55 85
REMARK H PARENT 21 6 5 12 5 13 9 18 28 34 72 53 50 64
REMARK Flexibility Score: inf
ROOT
ATOM      1  C   UNL     1       3.767   5.800   1.019  1.00  0.00     0.021 C 
ENDROOT
BRANCH   1   2
ATOM      2  C   UNL     1       3.402   4.518   0.262  1.00  0.00     0.116 C 
BRANCH   2   3
ATOM      3  N   UNL     1       3.011   3.409   1.138  1.00  0.00    -0.351 N 
ATOM      4  C   UNL     1       2.241   2.332   0.736  1.00  0.00     0.281 C 
ATOM      5  O   UNL     1       2.874   1.327   0.391  1.00  0.00    -0.268 OA
ATOM      6  H   UNL     1       3.316   3.433   2.074  1.00  0.00     0.163 HD
BRANCH   4   7
ATOM      7  C   UNL     1       0.630   2.308   0.897  1.00  0.00     0.172 C 
ATOM      8  C   UNL     1      -0.365   1.924  -0.221  1.00  0.00     0.090 C 
BRANCH   7   9
ATOM      9  C   UNL     1       0.416   1.124   1.926  1.00  0.00     0.075 C 
ATOM     10  C   UNL     1       0.514  -0.284   1.276  1.00  0.00     0.011 C 
ENDBRANCH   7   9
BRANCH   7  11
ATOM     11  N   UNL     1       0.145   3.598   1.397  1.00  0.00    -0.326 N 
ATOM     12  H   UNL     1       0.647   3.782   2.265  1.00  0.00     0.347 HD
ATOM     13  H   UNL     1      -0.864   3.457   1.451  1.00  0.00     0.347 HD
BRANCH  11  14
ATOM     14  C   UNL     1       0.266   4.821   0.568  1.00  0.00     0.362 C 
BRANCH  14  15
ATOM     15  C   UNL     1       0.071   4.943  -0.980  1.00  0.00     0.275 C 
ATOM     16  O   UNL     1      -0.713   5.832  -1.365  1.00  0.00    -0.268 OA
ATOM     17  N   UNL     1       0.726   4.356  -2.025  1.00  0.00    -0.345 N 
ATOM     18  H   UNL     1       0.646   4.905  -2.838  1.00  0.00     0.164 HD
BRANCH  17  19
ATOM     19  C   UNL     1       1.517   3.141  -2.293  1.00  0.00     0.109 C 
ATOM     20  C   UNL     1       0.756   2.194  -3.236  1.00  0.00     0.036 C 
BRANCH  19  21
ATOM     21  C   UNL     1       2.917   3.340  -2.850  1.00  0.00    -0.026 A 
ATOM     22  C   UNL     1       3.339   4.535  -3.443  1.00  0.00     0.009 A 
ATOM     23  C   UNL     1       3.820   2.251  -2.806  1.00  0.00     0.009 A 
ATOM     24  C   UNL     1       4.622   4.632  -3.991  1.00  0.00     0.039 A 
ATOM     25  C   UNL     1       5.096   2.348  -3.360  1.00  0.00     0.039 A 
ATOM     26  C   UNL     1       5.484   3.540  -3.950  1.00  0.00     0.123 A 
ATOM     27  F   UNL     1       6.706   3.644  -4.487  1.00  0.00    -0.207 F 
ENDBRANCH  19  21
ENDBRANCH  17  19
ENDBRANCH  14  15
ENDBRANCH  11  14
ENDBRANCH   7  11
ENDBRANCH   4   7
ENDBRANCH   2   3
ENDBRANCH   1   2
BRANCH   1  28
ATOM     28  C   UNL     1       5.155   6.342   0.667  1.00  0.00     0.002 C 
BRANCH  28  29
ATOM     29  C   UNL     1       5.367   6.711  -0.805  1.00  0.00     0.002 C 
BRANCH  29  30
ATOM     30  C   UNL     1       4.444   7.797  -1.364  1.00  0.00     0.021 C 
BRANCH  30  31
ATOM     31  C   UNL     1       4.478   9.122  -0.607  1.00  0.00     0.116 C 
BRANCH  31  32
ATOM     32  N   UNL     1       5.831   9.649  -0.479  1.00  0.00    -0.352 N 
ATOM     33  C   UNL     1       6.336  10.866  -0.838  1.00  0.00     0.251 C 
ATOM     34  H   UNL     1       6.481   9.032  -0.071  1.00  0.00     0.163 HD
ATOM     35  O   UNL     1       7.561  11.050  -0.842  1.00  0.00    -0.269 OA
BRANCH  33  36
ATOM     36  C   UNL     1       5.435  11.963  -1.229  1.00  0.00     0.039 A 
ATOM     37  C   UNL     1       5.770  12.758  -2.328  1.00  0.00     0.014 A 
ATOM     38  C   UNL     1       4.270  12.221  -0.501  1.00  0.00     0.014 A 
ATOM     39  C   UNL     1       4.905  13.775  -2.733  1.00  0.00     0.010 A 
ATOM     40  C   UNL     1       3.373  13.184  -0.950  1.00  0.00     0.010 A 
ATOM     41  C   UNL     1       3.684  13.972  -2.068  1.00  0.00    -0.014 A 
BRANCH  41  42
ATOM     42  C   UNL     1       2.712  14.985  -2.541  1.00  0.00     0.031 A 
ATOM     43  C   UNL     1       2.350  16.156  -1.673  1.00  0.00     0.074 A 
ATOM     44  C   UNL     1       2.103  14.809  -3.728  1.00  0.00     0.049 A 
ATOM     45  N   UNL     1       1.490  17.117  -1.900  1.00  0.00    -0.248 NA
ATOM     46  C   UNL     1       3.023  16.246  -0.368  1.00  0.00     0.031 C 
ATOM     47  C   UNL     1       2.332  13.684  -4.638  1.00  0.00     0.029 A 
ATOM     48  N   UNL     1       1.159  15.569  -4.370  1.00  0.00    -0.354 N 
ATOM     49  C   UNL     1       1.512  17.916  -0.764  1.00  0.00     0.074 A 
ATOM     50  C   UNL     1       2.423  17.296   0.172  1.00  0.00     0.031 C 
ATOM     51  C   UNL     1       1.569  13.841  -5.730  1.00  0.00     0.029 A 
ATOM     52  C   UNL     1       0.767  15.050  -5.579  1.00  0.00     0.049 A 
ATOM     53  H   UNL     1       0.796  16.406  -3.998  1.00  0.00     0.167 HD
ATOM     54  C   UNL     1       0.847  19.073  -0.529  1.00  0.00     0.031 A 
ATOM     55  C   UNL     1      -0.145  15.492  -6.465  1.00  0.00     0.031 A 
ATOM     56  C   UNL     1      -0.069  19.679  -1.460  1.00  0.00     0.049 A 
ATOM     57  C   UNL     1      -0.888  16.764  -6.176  1.00  0.00     0.074 A 
ATOM     58  C   UNL     1      -0.753  20.876  -1.342  1.00  0.00     0.029 A 
ATOM     59  N   UNL     1      -0.439  19.125  -2.677  1.00  0.00    -0.354 N 
ATOM     60  N   UNL     1      -0.798  17.554  -5.133  1.00  0.00    -0.248 NA
ATOM     61  C   UNL     1      -1.851  17.212  -7.191  1.00  0.00     0.031 C 
ATOM     62  C   UNL     1      -1.584  21.015  -2.460  1.00  0.00     0.029 A 
ATOM     63  C   UNL     1      -1.368  19.937  -3.305  1.00  0.00     0.049 A 
ATOM     64  H   UNL     1      -0.091  18.278  -3.040  1.00  0.00     0.167 HD
ATOM     65  C   UNL     1      -1.679  18.600  -5.372  1.00  0.00     0.074 A 
ATOM     66  C   UNL     1      -2.275  18.355  -6.670  1.00  0.00     0.031 C 
ATOM     67  C   UNL     1      -1.967  19.668  -4.588  1.00  0.00     0.031 A 
BRANCH  54  68
ATOM     68  C   UNL     1       1.080  19.741   0.799  1.00  0.00    -0.014 A 
ATOM     69  C   UNL     1       2.328  20.298   1.128  1.00  0.00     0.009 A 
ATOM     70  C   UNL     1       0.039  19.817   1.737  1.00  0.00     0.009 A 
ATOM     71  C   UNL     1       2.542  20.868   2.385  1.00  0.00     0.001 A 
ATOM     72  C   UNL     1       0.245  20.418   2.980  1.00  0.00     0.001 A 
ATOM     73  C   UNL     1       1.500  20.930   3.309  1.00  0.00     0.000 A 
ENDBRANCH  54  68
BRANCH  55  74
ATOM     74  C   UNL     1      -0.390  14.721  -7.711  1.00  0.00    -0.014 A 
ATOM     75  C   UNL     1       0.043  15.211  -8.952  1.00  0.00     0.009 A 
ATOM     76  C   UNL     1      -1.030  13.472  -7.660  1.00  0.00     0.009 A 
ATOM     77  C   UNL     1      -0.174  14.473 -10.118  1.00  0.00     0.001 A 
ATOM     78  C   UNL     1      -1.218  12.723  -8.823  1.00  0.00     0.001 A 
ATOM     79  C   UNL     1      -0.797  13.228 -10.052  1.00  0.00     0.000 A 
ENDBRANCH  55  74
BRANCH  67  80
ATOM     80  C   UNL     1      -2.965  20.659  -5.121  1.00  0.00    -0.014 A 
ATOM     81  C   UNL     1      -4.330  20.343  -5.211  1.00  0.00     0.009 A 
ATOM     82  C   UNL     1      -2.537  21.940  -5.505  1.00  0.00     0.009 A 
ATOM     83  C   UNL     1      -5.240  21.279  -5.706  1.00  0.00     0.001 A 
ATOM     84  C   UNL     1      -3.454  22.884  -5.969  1.00  0.00     0.001 A 
ATOM     85  C   UNL     1      -4.803  22.549  -6.079  1.00  0.00     0.000 A 
ENDBRANCH  67  80
ENDBRANCH  41  42
ENDBRANCH  33  36
ENDBRANCH  31  32
ENDBRANCH  30  31
ENDBRANCH  29  30
ENDBRANCH  28  29
ENDBRANCH   1  28
TORSDOF 19
