REMARK SMILES O=C(NCCCCCCNC(=O)[C@H]1C[C@H]2CCCC[C@@H]2[N@@H+]1Cc1ccno1)c1ccc(-c2c3nc(c(-c4ccccc4)c4ccc([nH]4)c(-c4ccccc4)c4nc(c(-c5ccccc5)c5ccc2[nH]5)C=C4)C=C3)cc1
REMARK SMILES IDX 6 1 5 2 4 3 3 4 1 5 2 6 28 8 29 9 75 10 30 11 74 12 31 13
REMARK SMILES IDX 32 14 33 15 68 16 34 17 73 18 67 19 69 20 35 21 72 22 66 23
REMARK SMILES IDX 65 24 36 26 58 27 43 28 57 29 44 30 47 31 56 32 70 33 45 34
REMARK SMILES IDX 46 35 55 37 71 38 48 39 37 40 38 41 42 42 39 43 41 44 40 45
REMARK SMILES IDX 59 46 60 47 64 48 61 49 63 50 62 51 49 52 50 53 54 54 51 55
REMARK SMILES IDX 53 56 52 57 7 58 8 59 9 60 10 61 11 62 12 64 13 65 14 66
REMARK SMILES IDX 21 67 15 68 20 69 16 71 19 72 17 73 18 74 22 75 23 76 24 77
REMARK SMILES IDX 27 78 25 79 26 80
REMARK H PARENT 3 7 69 25 47 36 10 63 21 70
REMARK Flexibility Score: inf
ROOT
ATOM      1  C   UNL     1      14.023   4.196  -8.846  1.00  0.00     0.002 C 
ENDROOT
BRANCH   1   2
ATOM      2  C   UNL     1      14.504   4.959  -7.610  1.00  0.00     0.021 C 
BRANCH   2   3
ATOM      3  C   UNL     1      15.775   4.399  -6.986  1.00  0.00     0.116 C 
BRANCH   3   4
ATOM      4  N   UNL     1      16.931   4.583  -7.850  1.00  0.00    -0.352 N 
ATOM      5  O   UNL     1      18.904   5.473  -8.494  1.00  0.00    -0.269 OA
ATOM      6  C   UNL     1      18.114   5.229  -7.587  1.00  0.00     0.251 C 
ATOM      7  H   UNL     1      16.855   4.189  -8.749  1.00  0.00     0.163 HD
BRANCH   6   8
ATOM      8  C   UNL     1      18.429   5.641  -6.203  1.00  0.00     0.039 A 
ATOM      9  C   UNL     1      18.201   4.765  -5.140  1.00  0.00     0.014 A 
ATOM     10  C   UNL     1      18.974   6.906  -5.968  1.00  0.00     0.014 A 
ATOM     11  C   UNL     1      18.390   5.201  -3.835  1.00  0.00     0.010 A 
ATOM     12  C   UNL     1      19.249   7.311  -4.659  1.00  0.00     0.010 A 
ATOM     13  C   UNL     1      18.938   6.470  -3.580  1.00  0.00    -0.014 A 
BRANCH  13  14
ATOM     14  C   UNL     1      19.245   6.845  -2.178  1.00  0.00     0.031 A 
ATOM     15  C   UNL     1      18.524   7.970  -1.490  1.00  0.00     0.074 A 
ATOM     16  C   UNL     1      20.156   6.113  -1.507  1.00  0.00     0.049 A 
ATOM     17  N   UNL     1      18.632   8.374  -0.248  1.00  0.00    -0.248 NA
ATOM     18  C   UNL     1      17.564   8.744  -2.292  1.00  0.00     0.031 C 
ATOM     19  C   UNL     1      20.929   5.004  -2.076  1.00  0.00     0.029 A 
ATOM     20  N   UNL     1      20.565   6.166  -0.200  1.00  0.00    -0.354 N 
ATOM     21  C   UNL     1      17.763   9.450  -0.121  1.00  0.00     0.074 A 
ATOM     22  C   UNL     1      17.157   9.657  -1.420  1.00  0.00     0.031 C 
ATOM     23  C   UNL     1      21.672   4.446  -1.110  1.00  0.00     0.029 A 
ATOM     24  C   UNL     1      21.479   5.193   0.126  1.00  0.00     0.049 A 
ATOM     25  H   UNL     1      20.236   6.835   0.442  1.00  0.00     0.167 HD
ATOM     26  C   UNL     1      17.491  10.192   0.979  1.00  0.00     0.031 A 
ATOM     27  C   UNL     1      22.104   4.934   1.288  1.00  0.00     0.031 A 
ATOM     28  C   UNL     1      18.105   9.992   2.267  1.00  0.00     0.049 A 
ATOM     29  C   UNL     1      21.801   5.790   2.481  1.00  0.00     0.074 A 
ATOM     30  C   UNL     1      17.893  10.692   3.443  1.00  0.00     0.029 A 
ATOM     31  N   UNL     1      19.054   9.021   2.547  1.00  0.00    -0.354 N 
ATOM     32  N   UNL     1      20.957   6.788   2.587  1.00  0.00    -0.248 NA
ATOM     33  C   UNL     1      22.534   5.481   3.715  1.00  0.00     0.031 C 
ATOM     34  C   UNL     1      18.745  10.171   4.423  1.00  0.00     0.029 A 
ATOM     35  C   UNL     1      19.448   9.112   3.872  1.00  0.00     0.049 A 
ATOM     36  H   UNL     1      19.397   8.363   1.900  1.00  0.00     0.167 HD
ATOM     37  C   UNL     1      21.051   7.221   3.902  1.00  0.00     0.074 A 
ATOM     38  C   UNL     1      22.008   6.355   4.561  1.00  0.00     0.031 C 
ATOM     39  C   UNL     1      20.408   8.248   4.508  1.00  0.00     0.031 A 
BRANCH  26  40
ATOM     40  C   UNL     1      16.491  11.306   0.837  1.00  0.00    -0.014 A 
ATOM     41  C   UNL     1      15.119  11.037   0.707  1.00  0.00     0.009 A 
ATOM     42  C   UNL     1      16.917  12.643   0.888  1.00  0.00     0.009 A 
ATOM     43  C   UNL     1      14.198  12.083   0.605  1.00  0.00     0.001 A 
ATOM     44  C   UNL     1      15.992  13.686   0.812  1.00  0.00     0.001 A 
ATOM     45  C   UNL     1      14.635  13.406   0.663  1.00  0.00     0.000 A 
ENDBRANCH  26  40
BRANCH  27  46
ATOM     46  C   UNL     1      23.093   3.829   1.367  1.00  0.00    -0.014 A 
ATOM     47  C   UNL     1      22.826   2.676   2.119  1.00  0.00     0.009 A 
ATOM     48  C   UNL     1      24.315   3.925   0.681  1.00  0.00     0.009 A 
ATOM     49  C   UNL     1      23.773   1.653   2.204  1.00  0.00     0.001 A 
ATOM     50  C   UNL     1      25.246   2.887   0.741  1.00  0.00     0.001 A 
ATOM     51  C   UNL     1      24.979   1.757   1.511  1.00  0.00     0.000 A 
ENDBRANCH  27  46
BRANCH  39  52
ATOM     52  C   UNL     1      20.709   8.468   5.963  1.00  0.00    -0.014 A 
ATOM     53  C   UNL     1      21.943   8.995   6.377  1.00  0.00     0.009 A 
ATOM     54  C   UNL     1      19.744   8.148   6.929  1.00  0.00     0.009 A 
ATOM     55  C   UNL     1      22.218   9.159   7.735  1.00  0.00     0.001 A 
ATOM     56  C   UNL     1      20.012   8.340   8.285  1.00  0.00     0.001 A 
ATOM     57  C   UNL     1      21.253   8.834   8.688  1.00  0.00     0.000 A 
ENDBRANCH  39  52
ENDBRANCH  13  14
ENDBRANCH   6   8
ENDBRANCH   3   4
ENDBRANCH   2   3
ENDBRANCH   1   2
BRANCH   1  58
ATOM     58  C   UNL     1      13.668   2.722  -8.606  1.00  0.00     0.002 C 
BRANCH  58  59
ATOM     59  C   UNL     1      12.704   2.460  -7.441  1.00  0.00     0.021 C 
BRANCH  59  60
ATOM     60  C   UNL     1      11.361   3.177  -7.584  1.00  0.00     0.116 C 
BRANCH  60  61
ATOM     61  N   UNL     1      10.480   2.478  -8.495  1.00  0.00    -0.351 N 
ATOM     62  C   UNL     1       9.412   1.660  -8.303  1.00  0.00     0.278 C 
ATOM     63  H   UNL     1      10.697   2.625  -9.444  1.00  0.00     0.163 HD
ATOM     64  O   UNL     1       8.889   1.217  -9.336  1.00  0.00    -0.268 OA
BRANCH  62  65
ATOM     65  C   UNL     1       8.883   1.185  -6.935  1.00  0.00     0.275 C 
ATOM     66  C   UNL     1       9.546  -0.128  -6.482  1.00  0.00     0.085 C 
ATOM     67  N   UNL     1       9.073   2.157  -5.820  1.00  0.00    -0.316 N 
ATOM     68  C   UNL     1       9.637   0.034  -4.971  1.00  0.00     0.054 C 
ATOM     69  C   UNL     1       9.972   1.511  -4.859  1.00  0.00     0.188 C 
ATOM     70  H   UNL     1       9.529   3.017  -6.124  1.00  0.00     0.349 HD
ATOM     71  C   UNL     1      10.664  -0.821  -4.244  1.00  0.00     0.010 C 
ATOM     72  C   UNL     1      10.097   2.007  -3.424  1.00  0.00     0.065 C 
ATOM     73  C   UNL     1      10.770  -0.367  -2.783  1.00  0.00     0.001 C 
ATOM     74  C   UNL     1      11.091   1.127  -2.656  1.00  0.00     0.006 C 
BRANCH  67  75
ATOM     75  C   UNL     1       7.825   2.761  -5.329  1.00  0.00     0.342 C 
BRANCH  75  76
ATOM     76  C   UNL     1       6.787   1.837  -4.787  1.00  0.00     0.190 A 
ATOM     77  C   UNL     1       6.512   1.290  -3.554  1.00  0.00     0.075 A 
ATOM     78  O   UNL     1       5.831   1.423  -5.669  1.00  0.00    -0.355 OA
ATOM     79  C   UNL     1       5.383   0.485  -3.775  1.00  0.00     0.158 A 
ATOM     80  N   UNL     1       4.956   0.557  -5.035  1.00  0.00    -0.088 NA
ENDBRANCH  75  76
ENDBRANCH  67  75
ENDBRANCH  62  65
ENDBRANCH  60  61
ENDBRANCH  59  60
ENDBRANCH  58  59
ENDBRANCH   1  58
TORSDOF 15
