REMARK SMILES COc1cc2ccccc2cc1C(=O)Nc1cc(C(=O)NCCCCCCNC(=O)c2ccc(-c3c4nc(c(-c5ccccc5)c5ccc([nH]5)c(-c5ccccc5)c5nc(c(-c6ccccc6)c6ccc3[nH]6)C=C5)C=C4)cc2)ccc1C
REMARK SMILES IDX 24 1 23 2 22 3 21 4 19 5 20 6 18 8 16 9 17 10 81 11 80 12
REMARK SMILES IDX 82 13 79 14 15 15 13 16 14 17 12 19 3 20 4 21 5 22 11 23
REMARK SMILES IDX 6 24 10 25 7 26 9 27 8 28 2 29 1 30 25 31 26 32 27 33 28 34
REMARK SMILES IDX 29 35 30 37 31 38 32 39 78 40 33 41 77 42 34 43 35 44 36 45
REMARK SMILES IDX 71 46 37 47 76 48 70 49 72 50 38 51 75 52 69 53 68 54 39 56
REMARK SMILES IDX 61 57 46 58 60 59 47 60 50 61 59 62 73 63 48 64 49 65 58 67
REMARK SMILES IDX 74 68 51 69 40 70 41 71 45 72 42 73 44 74 43 75 62 76 63 77
REMARK SMILES IDX 67 78 64 79 66 80 65 81 52 82 53 83 57 84 54 85 56 86 55 87
REMARK H PARENT 21 7 15 18 28 36 72 55 50 66
REMARK Flexibility Score: inf
ROOT
ATOM      1  C   UNL     1       0.595   4.948  -5.184  1.00  0.00     0.002 C 
ENDROOT
BRANCH   1   2
ATOM      2  C   UNL     1       1.052   3.790  -4.285  1.00  0.00     0.021 C 
BRANCH   2   3
ATOM      3  C   UNL     1       0.057   3.444  -3.176  1.00  0.00     0.116 C 
BRANCH   3   4
ATOM      4  N   UNL     1      -0.900   2.454  -3.622  1.00  0.00    -0.352 N 
ATOM      5  C   UNL     1      -1.011   1.095  -3.474  1.00  0.00     0.251 C 
ATOM      6  O   UNL     1      -1.990   0.570  -4.011  1.00  0.00    -0.269 OA
ATOM      7  H   UNL     1      -1.634   2.842  -4.150  1.00  0.00     0.163 HD
BRANCH   5   8
ATOM      8  C   UNL     1      -0.085   0.233  -2.678  1.00  0.00     0.041 A 
ATOM      9  C   UNL     1       1.854  -0.187  -1.267  1.00  0.00     0.045 A 
ATOM     10  C   UNL     1       1.165   0.613  -2.192  1.00  0.00     0.040 A 
ATOM     11  C   UNL     1       1.434  -1.503  -1.014  1.00  0.00    -0.027 A 
ATOM     12  C   UNL     1       0.214  -1.920  -1.563  1.00  0.00     0.006 A 
ATOM     13  C   UNL     1       2.119  -2.430  -0.047  1.00  0.00     0.046 C 
ATOM     14  C   UNL     1      -0.547  -1.053  -2.352  1.00  0.00     0.014 A 
BRANCH   9  15
ATOM     15  N   UNL     1       2.918   0.353  -0.527  1.00  0.00    -0.322 N 
ATOM     16  C   UNL     1       3.059   1.593   0.066  1.00  0.00     0.259 C 
ATOM     17  O   UNL     1       4.171   1.882   0.519  1.00  0.00    -0.269 OA
ATOM     18  H   UNL     1       3.688  -0.249  -0.412  1.00  0.00     0.170 HD
BRANCH  16  19
ATOM     19  C   UNL     1       1.950   2.582   0.261  1.00  0.00     0.082 A 
ATOM     20  C   UNL     1       0.594   2.289   0.458  1.00  0.00     0.132 A 
ATOM     21  C   UNL     1      -0.361   3.315   0.514  1.00  0.00     0.056 A 
ATOM     22  C   UNL     1       0.025   4.659   0.529  1.00  0.00    -0.015 A 
ATOM     23  C   UNL     1       2.337   3.936   0.329  1.00  0.00     0.026 A 
ATOM     24  C   UNL     1      -0.924   5.689   0.617  1.00  0.00     0.009 A 
ATOM     25  C   UNL     1       1.398   4.975   0.490  1.00  0.00    -0.017 A 
ATOM     26  C   UNL     1      -0.520   7.019   0.724  1.00  0.00     0.001 A 
ATOM     27  C   UNL     1       1.789   6.319   0.615  1.00  0.00     0.009 A 
ATOM     28  C   UNL     1       0.836   7.332   0.743  1.00  0.00     0.001 A 
BRANCH  20  29
ATOM     29  O   UNL     1       0.075   1.028   0.559  1.00  0.00    -0.496 OA
ATOM     30  C   UNL     1       0.309   0.472   1.850  1.00  0.00     0.278 C 
ENDBRANCH  20  29
ENDBRANCH  16  19
ENDBRANCH   9  15
ENDBRANCH   5   8
ENDBRANCH   3   4
ENDBRANCH   2   3
ENDBRANCH   1   2
BRANCH   1  31
ATOM     31  C   UNL     1       0.269   6.273  -4.469  1.00  0.00     0.002 C 
BRANCH  31  32
ATOM     32  C   UNL     1       1.291   6.737  -3.428  1.00  0.00     0.021 C 
BRANCH  32  33
ATOM     33  C   UNL     1       2.593   7.243  -4.035  1.00  0.00     0.116 C 
BRANCH  33  34
ATOM     34  N   UNL     1       2.617   8.685  -4.242  1.00  0.00    -0.352 N 
ATOM     35  C   UNL     1       3.552   9.478  -4.890  1.00  0.00     0.251 C 
ATOM     36  H   UNL     1       1.849   9.173  -3.863  1.00  0.00     0.163 HD
ATOM     37  O   UNL     1       3.417  10.682  -4.927  1.00  0.00    -0.269 OA
BRANCH  35  38
ATOM     38  C   UNL     1       4.641   8.823  -5.662  1.00  0.00     0.039 A 
ATOM     39  C   UNL     1       4.851   9.268  -6.972  1.00  0.00     0.014 A 
ATOM     40  C   UNL     1       5.264   7.667  -5.203  1.00  0.00     0.014 A 
ATOM     41  C   UNL     1       5.455   8.416  -7.890  1.00  0.00     0.010 A 
ATOM     42  C   UNL     1       5.781   6.782  -6.128  1.00  0.00     0.010 A 
ATOM     43  C   UNL     1       5.800   7.129  -7.482  1.00  0.00    -0.014 A 
BRANCH  43  44
ATOM     44  C   UNL     1       6.022   6.038  -8.422  1.00  0.00     0.031 A 
ATOM     45  C   UNL     1       7.373   5.517  -8.680  1.00  0.00     0.074 A 
ATOM     46  C   UNL     1       4.963   5.462  -9.032  1.00  0.00     0.049 A 
ATOM     47  N   UNL     1       7.710   4.924  -9.775  1.00  0.00    -0.248 NA
ATOM     48  C   UNL     1       8.472   5.661  -7.733  1.00  0.00     0.031 C 
ATOM     49  C   UNL     1       4.934   4.212  -9.784  1.00  0.00     0.029 A 
ATOM     50  N   UNL     1       3.718   6.035  -9.271  1.00  0.00    -0.354 N 
ATOM     51  C   UNL     1       8.938   4.352  -9.564  1.00  0.00     0.074 A 
ATOM     52  C   UNL     1       9.411   4.909  -8.315  1.00  0.00     0.031 C 
ATOM     53  C   UNL     1       3.853   4.210 -10.581  1.00  0.00     0.029 A 
ATOM     54  C   UNL     1       3.236   5.522 -10.487  1.00  0.00     0.049 A 
ATOM     55  H   UNL     1       3.257   6.683  -8.692  1.00  0.00     0.167 HD
ATOM     56  C   UNL     1       9.373   3.360 -10.387  1.00  0.00     0.031 A 
ATOM     57  C   UNL     1       3.006   6.357 -11.543  1.00  0.00     0.031 A 
ATOM     58  C   UNL     1       8.436   3.068 -11.469  1.00  0.00     0.049 A 
ATOM     59  C   UNL     1       3.891   6.105 -12.751  1.00  0.00     0.074 A 
ATOM     60  C   UNL     1       7.532   2.049 -11.722  1.00  0.00     0.029 A 
ATOM     61  N   UNL     1       8.138   4.071 -12.376  1.00  0.00    -0.354 N 
ATOM     62  N   UNL     1       4.838   5.209 -12.804  1.00  0.00    -0.248 NA
ATOM     63  C   UNL     1       3.843   6.928 -13.963  1.00  0.00     0.031 C 
ATOM     64  C   UNL     1       6.700   2.448 -12.807  1.00  0.00     0.029 A 
ATOM     65  C   UNL     1       7.107   3.703 -13.216  1.00  0.00     0.049 A 
ATOM     66  H   UNL     1       8.603   4.938 -12.416  1.00  0.00     0.167 HD
ATOM     67  C   UNL     1       5.551   5.366 -13.963  1.00  0.00     0.074 A 
ATOM     68  C   UNL     1       4.884   6.446 -14.664  1.00  0.00     0.031 C 
ATOM     69  C   UNL     1       6.672   4.638 -14.238  1.00  0.00     0.031 A 
BRANCH  56  70
ATOM     70  C   UNL     1      10.548   2.490 -10.034  1.00  0.00    -0.014 A 
ATOM     71  C   UNL     1      10.541   1.128 -10.382  1.00  0.00     0.009 A 
ATOM     72  C   UNL     1      11.671   2.947  -9.323  1.00  0.00     0.009 A 
ATOM     73  C   UNL     1      11.543   0.251  -9.952  1.00  0.00     0.001 A 
ATOM     74  C   UNL     1      12.654   2.067  -8.852  1.00  0.00     0.001 A 
ATOM     75  C   UNL     1      12.582   0.715  -9.157  1.00  0.00     0.000 A 
ENDBRANCH  56  70
BRANCH  57  76
ATOM     76  C   UNL     1       2.515   7.702 -11.126  1.00  0.00    -0.014 A 
ATOM     77  C   UNL     1       1.252   7.791 -10.506  1.00  0.00     0.009 A 
ATOM     78  C   UNL     1       3.397   8.786 -11.009  1.00  0.00     0.009 A 
ATOM     79  C   UNL     1       0.929   8.883  -9.695  1.00  0.00     0.001 A 
ATOM     80  C   UNL     1       3.062   9.884 -10.207  1.00  0.00     0.001 A 
ATOM     81  C   UNL     1       1.847   9.915  -9.524  1.00  0.00     0.000 A 
ENDBRANCH  57  76
BRANCH  69  82
ATOM     82  C   UNL     1       7.489   4.776 -15.494  1.00  0.00    -0.014 A 
ATOM     83  C   UNL     1       6.915   4.953 -16.759  1.00  0.00     0.009 A 
ATOM     84  C   UNL     1       8.888   4.597 -15.445  1.00  0.00     0.009 A 
ATOM     85  C   UNL     1       7.710   5.008 -17.913  1.00  0.00     0.001 A 
ATOM     86  C   UNL     1       9.681   4.628 -16.594  1.00  0.00     0.001 A 
ATOM     87  C   UNL     1       9.090   4.846 -17.830  1.00  0.00     0.000 A 
ENDBRANCH  69  82
ENDBRANCH  43  44
ENDBRANCH  35  38
ENDBRANCH  33  34
ENDBRANCH  32  33
ENDBRANCH  31  32
ENDBRANCH   1  31
TORSDOF 16
