REMARK SMILES CC1=C(C)C[C@@H](C(=O)NCCCCCCNC(=O)c2ccc(-c3c4nc(c(-c5ccccc5)c5ccc([nH]5)c(-c5ccccc5)c5nc(c(-c6ccccc6)c6ccc3[nH]6)C=C5)C=C4)cc2)[C@@H](C(=O)N2CCN(c3cccc(C(F)(F)F)c3)CC2)C1
REMARK SMILES IDX 12 1 11 2 10 3 9 4 7 5 8 6 6 8 1 9 2 10 3 11 86 12 4 13 5 14
REMARK SMILES IDX 67 15 68 16 69 17 70 18 71 19 85 20 72 21 84 22 73 23 74 24
REMARK SMILES IDX 75 25 83 26 76 27 78 28 77 29 79 30 80 31 81 32 82 33 13 34
REMARK SMILES IDX 14 35 15 36 16 37 17 38 18 40 19 41 20 42 66 43 21 44 65 45
REMARK SMILES IDX 22 46 23 47 24 48 59 49 25 50 64 51 58 52 60 53 26 54 63 55
REMARK SMILES IDX 57 56 56 57 27 59 49 60 34 61 48 62 35 63 38 64 47 65 61 66
REMARK SMILES IDX 36 67 37 68 46 70 62 71 39 72 28 73 29 74 33 75 30 76 32 77
REMARK SMILES IDX 31 78 50 79 51 80 55 81 52 82 54 83 53 84 40 85 41 86 45 87
REMARK SMILES IDX 42 88 44 89 43 90
REMARK H PARENT 9 7 16 39 60 58 38 69
REMARK Flexibility Score: inf
ROOT
ATOM      1  C   UNL     1       4.859   1.849   3.480  1.00  0.00     0.002 C 
ENDROOT
BRANCH   1   2
ATOM      2  C   UNL     1       3.670   1.518   2.580  1.00  0.00     0.021 C 
BRANCH   2   3
ATOM      3  C   UNL     1       2.359   1.390   3.350  1.00  0.00     0.116 C 
BRANCH   3   4
ATOM      4  N   UNL     1       1.945   2.586   4.049  1.00  0.00    -0.356 N 
ATOM      5  C   UNL     1       0.968   3.491   3.802  1.00  0.00     0.224 C 
ATOM      6  O   UNL     1       0.848   4.425   4.604  1.00  0.00    -0.275 OA
ATOM      7  H   UNL     1       2.473   2.779   4.858  1.00  0.00     0.163 HD
BRANCH   5   8
ATOM      8  C   UNL     1       0.019   3.417   2.607  1.00  0.00     0.095 C 
ATOM      9  C   UNL     1       0.729   0.121  -0.266  1.00  0.00     0.039 C 
ATOM     10  C   UNL     1       0.245   1.232   0.637  1.00  0.00    -0.074 C 
ATOM     11  C   UNL     1      -0.567   1.059   1.703  1.00  0.00    -0.074 C 
ATOM     12  C   UNL     1       0.860   2.576   0.294  1.00  0.00     0.045 C 
ATOM     13  C   UNL     1      -1.139  -0.259   2.169  1.00  0.00     0.039 C 
ATOM     14  C   UNL     1      -0.912   2.203   2.630  1.00  0.00     0.045 C 
ATOM     15  C   UNL     1       0.601   3.768   1.239  1.00  0.00     0.095 C 
BRANCH  15  16
ATOM     16  C   UNL     1       1.880   4.612   1.323  1.00  0.00     0.226 C 
ATOM     17  O   UNL     1       2.911   4.262   1.884  1.00  0.00    -0.275 OA
ATOM     18  N   UNL     1       1.877   5.757   0.568  1.00  0.00    -0.339 N 
ATOM     19  C   UNL     1       3.120   6.115  -0.116  1.00  0.00     0.141 C 
ATOM     20  C   UNL     1       1.101   6.903   1.036  1.00  0.00     0.141 C 
ATOM     21  C   UNL     1       2.821   7.000  -1.328  1.00  0.00     0.138 C 
ATOM     22  C   UNL     1       0.811   7.893  -0.098  1.00  0.00     0.138 C 
ATOM     23  N   UNL     1       2.011   8.147  -0.905  1.00  0.00    -0.368 N 
BRANCH  23  24
ATOM     24  C   UNL     1       2.464   9.416  -1.166  1.00  0.00     0.037 A 
ATOM     25  C   UNL     1       2.697   9.826  -2.483  1.00  0.00     0.026 A 
ATOM     26  C   UNL     1       2.750  10.310  -0.130  1.00  0.00     0.039 A 
ATOM     27  C   UNL     1       3.188  11.099  -2.766  1.00  0.00     0.003 A 
ATOM     28  C   UNL     1       3.273  11.585  -0.392  1.00  0.00     0.058 A 
ATOM     29  C   UNL     1       3.478  11.976  -1.724  1.00  0.00     0.013 A 
BRANCH  28  30
ATOM     30  C   UNL     1       3.629  12.520   0.733  1.00  0.00     0.416 C 
ATOM     31  F   UNL     1       4.929  12.925   0.683  1.00  0.00    -0.166 F 
ATOM     32  F   UNL     1       2.883  13.660   0.718  1.00  0.00    -0.166 F 
ATOM     33  F   UNL     1       3.457  11.979   1.972  1.00  0.00    -0.166 F 
ENDBRANCH  28  30
ENDBRANCH  23  24
ENDBRANCH  15  16
ENDBRANCH   5   8
ENDBRANCH   3   4
ENDBRANCH   2   3
ENDBRANCH   1   2
BRANCH   1  34
ATOM     34  C   UNL     1       5.186   0.714   4.452  1.00  0.00     0.002 C 
BRANCH  34  35
ATOM     35  C   UNL     1       5.386  -0.643   3.768  1.00  0.00     0.021 C 
BRANCH  35  36
ATOM     36  C   UNL     1       6.429  -0.614   2.657  1.00  0.00     0.116 C 
BRANCH  36  37
ATOM     37  N   UNL     1       7.744  -0.309   3.193  1.00  0.00    -0.352 N 
ATOM     38  C   UNL     1       8.869  -1.091   3.167  1.00  0.00     0.251 C 
ATOM     39  H   UNL     1       7.838   0.569   3.630  1.00  0.00     0.163 HD
ATOM     40  O   UNL     1       9.813  -0.865   3.911  1.00  0.00    -0.269 OA
BRANCH  38  41
ATOM     41  C   UNL     1       8.919  -2.219   2.218  1.00  0.00     0.039 A 
ATOM     42  C   UNL     1       9.340  -3.469   2.669  1.00  0.00     0.014 A 
ATOM     43  C   UNL     1       8.536  -2.030   0.886  1.00  0.00     0.014 A 
ATOM     44  C   UNL     1       9.345  -4.547   1.785  1.00  0.00     0.010 A 
ATOM     45  C   UNL     1       8.473  -3.121   0.027  1.00  0.00     0.010 A 
ATOM     46  C   UNL     1       8.890  -4.386   0.465  1.00  0.00    -0.014 A 
BRANCH  46  47
ATOM     47  C   UNL     1       8.855  -5.532  -0.475  1.00  0.00     0.031 A 
ATOM     48  C   UNL     1       9.723  -5.526  -1.703  1.00  0.00     0.074 A 
ATOM     49  C   UNL     1       8.005  -6.552  -0.248  1.00  0.00     0.049 A 
ATOM     50  N   UNL     1       9.803  -6.415  -2.660  1.00  0.00    -0.248 NA
ATOM     51  C   UNL     1      10.599  -4.357  -1.895  1.00  0.00     0.031 C 
ATOM     52  C   UNL     1       7.082  -6.652   0.885  1.00  0.00     0.029 A 
ATOM     53  N   UNL     1       7.775  -7.698  -0.966  1.00  0.00    -0.354 N 
ATOM     54  C   UNL     1      10.720  -5.906  -3.571  1.00  0.00     0.074 A 
ATOM     55  C   UNL     1      11.133  -4.611  -3.080  1.00  0.00     0.031 C 
ATOM     56  C   UNL     1       6.407  -7.810   0.800  1.00  0.00     0.029 A 
ATOM     57  C   UNL     1       6.815  -8.511  -0.413  1.00  0.00     0.049 A 
ATOM     58  H   UNL     1       8.253  -7.918  -1.798  1.00  0.00     0.167 HD
ATOM     59  C   UNL     1      11.191  -6.476  -4.705  1.00  0.00     0.031 A 
ATOM     60  C   UNL     1       6.313  -9.684  -0.841  1.00  0.00     0.031 A 
ATOM     61  C   UNL     1      10.787  -7.771  -5.184  1.00  0.00     0.049 A 
ATOM     62  C   UNL     1       6.845 -10.288  -2.111  1.00  0.00     0.074 A 
ATOM     63  C   UNL     1      11.254  -8.463  -6.288  1.00  0.00     0.029 A 
ATOM     64  N   UNL     1       9.819  -8.566  -4.591  1.00  0.00    -0.354 N 
ATOM     65  N   UNL     1       7.772  -9.831  -2.919  1.00  0.00    -0.248 NA
ATOM     66  C   UNL     1       6.269 -11.576  -2.522  1.00  0.00     0.031 C 
ATOM     67  C   UNL     1      10.523  -9.650  -6.398  1.00  0.00     0.029 A 
ATOM     68  C   UNL     1       9.650  -9.727  -5.325  1.00  0.00     0.049 A 
ATOM     69  H   UNL     1       9.325  -8.338  -3.771  1.00  0.00     0.167 HD
ATOM     70  C   UNL     1       7.910 -10.789  -3.915  1.00  0.00     0.074 A 
ATOM     71  C   UNL     1       6.987 -11.859  -3.599  1.00  0.00     0.031 C 
ATOM     72  C   UNL     1       8.727 -10.783  -4.997  1.00  0.00     0.031 A 
BRANCH  59  73
ATOM     73  C   UNL     1      12.190  -5.698  -5.516  1.00  0.00    -0.014 A 
ATOM     74  C   UNL     1      13.498  -5.484  -5.054  1.00  0.00     0.009 A 
ATOM     75  C   UNL     1      11.833  -5.218  -6.786  1.00  0.00     0.009 A 
ATOM     76  C   UNL     1      14.418  -4.780  -5.834  1.00  0.00     0.001 A 
ATOM     77  C   UNL     1      12.763  -4.541  -7.576  1.00  0.00     0.001 A 
ATOM     78  C   UNL     1      14.052  -4.316  -7.096  1.00  0.00     0.000 A 
ENDBRANCH  59  73
BRANCH  60  79
ATOM     79  C   UNL     1       5.245 -10.369  -0.065  1.00  0.00    -0.014 A 
ATOM     80  C   UNL     1       5.501 -11.584   0.590  1.00  0.00     0.009 A 
ATOM     81  C   UNL     1       3.954  -9.821   0.006  1.00  0.00     0.009 A 
ATOM     82  C   UNL     1       4.479 -12.253   1.267  1.00  0.00     0.001 A 
ATOM     83  C   UNL     1       2.943 -10.475   0.713  1.00  0.00     0.001 A 
ATOM     84  C   UNL     1       3.203 -11.697   1.331  1.00  0.00     0.000 A 
ENDBRANCH  60  79
BRANCH  72  85
ATOM     85  C   UNL     1       8.687 -11.986  -5.897  1.00  0.00    -0.014 A 
ATOM     86  C   UNL     1       7.583 -12.245  -6.723  1.00  0.00     0.009 A 
ATOM     87  C   UNL     1       9.793 -12.850  -5.947  1.00  0.00     0.009 A 
ATOM     88  C   UNL     1       7.572 -13.367  -7.554  1.00  0.00     0.001 A 
ATOM     89  C   UNL     1       9.793 -13.952  -6.803  1.00  0.00     0.001 A 
ATOM     90  C   UNL     1       8.679 -14.215  -7.598  1.00  0.00     0.000 A 
ENDBRANCH  72  85
ENDBRANCH  46  47
ENDBRANCH  38  41
ENDBRANCH  36  37
ENDBRANCH  35  36
ENDBRANCH  34  35
ENDBRANCH   1  34
TORSDOF 16
