REMARK SMILES Cc1ccc(C(=O)N2C[C@@H](C(=O)NCCCCCCNC(=O)c3ccc(-c4c5nc(c(-c6ccccc6)c6ccc([nH]6)c(-c6ccccc6)c6nc(c(-c7ccccc7)c7ccc4[nH]7)C=C6)C=C5)cc3)C[C@H](C(=O)N3CCOCC3)C2)cc1F
REMARK SMILES IDX 16 1 15 2 14 3 13 4 11 5 12 6 10 8 8 9 9 10 81 11 72 12
REMARK SMILES IDX 71 13 6 14 7 15 5 16 1 17 2 18 3 19 83 20 4 21 82 22 84 23
REMARK SMILES IDX 73 24 74 25 75 26 76 27 80 28 77 29 79 30 78 31 17 32 18 33
REMARK SMILES IDX 19 34 20 35 21 36 22 38 23 39 24 40 70 41 25 42 69 43 26 44
REMARK SMILES IDX 27 45 28 46 63 47 29 48 68 49 62 50 64 51 30 52 67 53 61 54
REMARK SMILES IDX 60 55 31 57 53 58 38 59 52 60 39 61 42 62 51 63 65 64 40 65
REMARK SMILES IDX 41 66 50 68 66 69 43 70 32 71 33 72 37 73 34 74 36 75 35 76
REMARK SMILES IDX 54 77 55 78 59 79 56 80 58 81 57 82 44 83 45 84 49 85 46 86
REMARK SMILES IDX 48 87 47 88
REMARK H PARENT 13 7 20 37 64 56 42 67
REMARK Flexibility Score: inf
ROOT
ATOM      1  C   UNL     1     -10.272   1.486   2.473  1.00  0.00     0.002 C 
ENDROOT
BRANCH   1   2
ATOM      2  C   UNL     1      -9.284   1.298   1.318  1.00  0.00     0.021 C 
BRANCH   2   3
ATOM      3  C   UNL     1      -7.975   0.651   1.742  1.00  0.00     0.116 C 
BRANCH   3   4
ATOM      4  N   UNL     1      -8.212  -0.683   2.248  1.00  0.00    -0.356 N 
ATOM      5  C   UNL     1      -7.701  -1.870   1.852  1.00  0.00     0.224 C 
ATOM      6  O   UNL     1      -8.175  -2.899   2.336  1.00  0.00    -0.275 OA
ATOM      7  H   UNL     1      -8.846  -0.734   2.999  1.00  0.00     0.163 HD
BRANCH   5   8
ATOM      8  C   UNL     1      -6.574  -1.939   0.848  1.00  0.00     0.099 C 
ATOM      9  N   UNL     1      -4.287  -1.120   0.344  1.00  0.00    -0.337 N 
ATOM     10  C   UNL     1      -5.346  -1.191   1.336  1.00  0.00     0.133 C 
ATOM     11  C   UNL     1      -4.660  -0.694  -1.004  1.00  0.00     0.133 C 
ATOM     12  C   UNL     1      -5.852  -1.488  -1.578  1.00  0.00     0.099 C 
ATOM     13  C   UNL     1      -7.008  -1.647  -0.591  1.00  0.00     0.030 C 
BRANCH   9  14
ATOM     14  C   UNL     1      -2.990  -1.306   0.808  1.00  0.00     0.254 C 
ATOM     15  O   UNL     1      -2.735  -2.011   1.784  1.00  0.00    -0.269 OA
BRANCH  14  16
ATOM     16  C   UNL     1      -1.865  -0.540   0.232  1.00  0.00     0.042 A 
ATOM     17  C   UNL     1       1.707   1.801  -0.236  1.00  0.00     0.047 C 
ATOM     18  C   UNL     1       0.444   0.996  -0.171  1.00  0.00    -0.015 A 
ATOM     19  C   UNL     1      -0.812   1.614  -0.126  1.00  0.00     0.007 A 
ATOM     20  C   UNL     1       0.516  -0.397  -0.070  1.00  0.00     0.126 A 
ATOM     21  C   UNL     1      -1.965   0.850   0.081  1.00  0.00     0.014 A 
ATOM     22  C   UNL     1      -0.621  -1.167   0.137  1.00  0.00     0.053 A 
ATOM     23  F   UNL     1       1.711  -1.004  -0.104  1.00  0.00    -0.207 F 
ENDBRANCH  14  16
ENDBRANCH   9  14
BRANCH  12  24
ATOM     24  C   UNL     1      -5.325  -2.713  -2.340  1.00  0.00     0.227 C 
ATOM     25  O   UNL     1      -5.081  -2.585  -3.546  1.00  0.00    -0.275 OA
ATOM     26  N   UNL     1      -4.870  -3.811  -1.653  1.00  0.00    -0.338 N 
ATOM     27  C   UNL     1      -5.649  -4.689  -0.778  1.00  0.00     0.148 C 
ATOM     28  C   UNL     1      -3.609  -4.426  -2.060  1.00  0.00     0.148 C 
ATOM     29  C   UNL     1      -4.808  -5.068   0.450  1.00  0.00     0.181 C 
ATOM     30  C   UNL     1      -2.817  -4.827  -0.808  1.00  0.00     0.181 C 
ATOM     31  O   UNL     1      -3.586  -5.705   0.034  1.00  0.00    -0.378 OA
ENDBRANCH  12  24
ENDBRANCH   5   8
ENDBRANCH   3   4
ENDBRANCH   2   3
ENDBRANCH   1   2
BRANCH   1  32
ATOM     32  C   UNL     1      -9.686   2.181   3.707  1.00  0.00     0.002 C 
BRANCH  32  33
ATOM     33  C   UNL     1      -8.982   3.507   3.416  1.00  0.00     0.021 C 
BRANCH  33  34
ATOM     34  C   UNL     1      -9.845   4.507   2.665  1.00  0.00     0.116 C 
BRANCH  34  35
ATOM     35  N   UNL     1     -11.013   4.894   3.436  1.00  0.00    -0.352 N 
ATOM     36  C   UNL     1     -11.448   6.161   3.726  1.00  0.00     0.251 C 
ATOM     37  H   UNL     1     -11.559   4.157   3.793  1.00  0.00     0.163 HD
ATOM     38  O   UNL     1     -12.328   6.354   4.558  1.00  0.00    -0.269 OA
BRANCH  36  39
ATOM     39  C   UNL     1     -10.819   7.294   3.024  1.00  0.00     0.039 A 
ATOM     40  C   UNL     1     -10.341   8.377   3.762  1.00  0.00     0.014 A 
ATOM     41  C   UNL     1     -10.660   7.247   1.635  1.00  0.00     0.014 A 
ATOM     42  C   UNL     1      -9.660   9.403   3.108  1.00  0.00     0.010 A 
ATOM     43  C   UNL     1      -9.910   8.225   1.000  1.00  0.00     0.010 A 
ATOM     44  C   UNL     1      -9.418   9.321   1.727  1.00  0.00    -0.014 A 
BRANCH  44  45
ATOM     45  C   UNL     1      -8.698  10.387   0.993  1.00  0.00     0.031 A 
ATOM     46  C   UNL     1      -9.421  11.150  -0.083  1.00  0.00     0.074 A 
ATOM     47  C   UNL     1      -7.390  10.608   1.224  1.00  0.00     0.049 A 
ATOM     48  N   UNL     1      -8.948  12.011  -0.946  1.00  0.00    -0.248 NA
ATOM     49  C   UNL     1     -10.862  10.882  -0.228  1.00  0.00     0.031 C 
ATOM     50  C   UNL     1      -6.575   9.924   2.229  1.00  0.00     0.029 A 
ATOM     51  N   UNL     1      -6.511  11.466   0.612  1.00  0.00    -0.354 N 
ATOM     52  C   UNL     1     -10.025  12.363  -1.751  1.00  0.00     0.074 A 
ATOM     53  C   UNL     1     -11.160  11.585  -1.309  1.00  0.00     0.031 C 
ATOM     54  C   UNL     1      -5.321  10.401   2.176  1.00  0.00     0.029 A 
ATOM     55  C   UNL     1      -5.230  11.384   1.101  1.00  0.00     0.049 A 
ATOM     56  H   UNL     1      -6.774  12.082  -0.110  1.00  0.00     0.167 HD
ATOM     57  C   UNL     1     -10.069  13.267  -2.756  1.00  0.00     0.031 A 
ATOM     58  C   UNL     1      -4.106  12.017   0.713  1.00  0.00     0.031 A 
ATOM     59  C   UNL     1      -8.942  14.050  -3.180  1.00  0.00     0.049 A 
ATOM     60  C   UNL     1      -4.174  12.995  -0.430  1.00  0.00     0.074 A 
ATOM     61  C   UNL     1      -8.892  15.027  -4.158  1.00  0.00     0.029 A 
ATOM     62  N   UNL     1      -7.666  13.946  -2.648  1.00  0.00    -0.354 N 
ATOM     63  N   UNL     1      -5.208  13.350  -1.153  1.00  0.00    -0.248 NA
ATOM     64  C   UNL     1      -2.920  13.664  -0.806  1.00  0.00     0.031 C 
ATOM     65  C   UNL     1      -7.572  15.476  -4.256  1.00  0.00     0.029 A 
ATOM     66  C   UNL     1      -6.816  14.827  -3.292  1.00  0.00     0.049 A 
ATOM     67  H   UNL     1      -7.404  13.336  -1.921  1.00  0.00     0.167 HD
ATOM     68  C   UNL     1      -4.740  14.315  -2.036  1.00  0.00     0.074 A 
ATOM     69  C   UNL     1      -3.329  14.489  -1.759  1.00  0.00     0.031 C 
ATOM     70  C   UNL     1      -5.420  15.002  -2.986  1.00  0.00     0.031 A 
BRANCH  57  71
ATOM     71  C   UNL     1     -11.378  13.445  -3.473  1.00  0.00    -0.014 A 
ATOM     72  C   UNL     1     -12.487  14.026  -2.837  1.00  0.00     0.009 A 
ATOM     73  C   UNL     1     -11.496  13.054  -4.816  1.00  0.00     0.009 A 
ATOM     74  C   UNL     1     -13.697  14.175  -3.518  1.00  0.00     0.001 A 
ATOM     75  C   UNL     1     -12.696  13.236  -5.505  1.00  0.00     0.001 A 
ATOM     76  C   UNL     1     -13.798  13.785  -4.853  1.00  0.00     0.000 A 
ENDBRANCH  57  71
BRANCH  58  77
ATOM     77  C   UNL     1      -2.820  11.753   1.411  1.00  0.00    -0.014 A 
ATOM     78  C   UNL     1      -2.223  12.747   2.202  1.00  0.00     0.009 A 
ATOM     79  C   UNL     1      -2.174  10.514   1.280  1.00  0.00     0.009 A 
ATOM     80  C   UNL     1      -0.992  12.517   2.821  1.00  0.00     0.001 A 
ATOM     81  C   UNL     1      -0.959  10.275   1.927  1.00  0.00     0.001 A 
ATOM     82  C   UNL     1      -0.363  11.280   2.686  1.00  0.00     0.000 A 
ENDBRANCH  58  77
BRANCH  70  83
ATOM     83  C   UNL     1      -4.676  16.056  -3.755  1.00  0.00    -0.014 A 
ATOM     84  C   UNL     1      -3.737  15.723  -4.742  1.00  0.00     0.009 A 
ATOM     85  C   UNL     1      -4.992  17.409  -3.542  1.00  0.00     0.009 A 
ATOM     86  C   UNL     1      -3.116  16.726  -5.489  1.00  0.00     0.001 A 
ATOM     87  C   UNL     1      -4.392  18.406  -4.311  1.00  0.00     0.001 A 
ATOM     88  C   UNL     1      -3.451  18.064  -5.280  1.00  0.00     0.000 A 
ENDBRANCH  70  83
ENDBRANCH  44  45
ENDBRANCH  36  39
ENDBRANCH  34  35
ENDBRANCH  33  34
ENDBRANCH  32  33
ENDBRANCH   1  32
TORSDOF 16
