REMARK SMILES O=C(CSc1ncnc2sc3c(c12)CCC3)NCCCCCCNC(=O)c1ccc(-c2c3nc(c(-c4ccccc4)c4ccc([nH]4)c(-c4ccccc4)c4nc(c(-c5ccccc5)c5ccc2[nH]5)C=C4)C=C3)cc1
REMARK SMILES IDX 20 1 19 2 18 3 17 4 1 5 2 6 3 8 4 9 5 10 6 11 13 12 7 13
REMARK SMILES IDX 9 14 12 15 8 16 10 17 11 18 14 19 16 20 15 21 21 22 22 23
REMARK SMILES IDX 23 24 24 25 25 26 26 28 27 29 28 30 74 31 29 32 73 33 30 34
REMARK SMILES IDX 31 35 32 36 67 37 33 38 72 39 66 40 68 41 34 42 71 43 65 44
REMARK SMILES IDX 64 45 35 47 57 48 42 49 56 50 43 51 46 52 55 53 69 54 44 55
REMARK SMILES IDX 45 56 54 58 70 59 47 60 36 61 37 62 41 63 38 64 40 65 39 66
REMARK SMILES IDX 58 67 59 68 63 69 60 70 62 71 61 72 48 73 49 74 53 75 50 76
REMARK SMILES IDX 52 77 51 78
REMARK H PARENT 17 7 24 27 68 46 46 57
REMARK Flexibility Score: inf
ROOT
ATOM      1  C   UNL     1       4.051  -2.475   3.225  1.00  0.00     0.002 C 
ENDROOT
BRANCH   1   2
ATOM      2  C   UNL     1       2.582  -2.351   2.801  1.00  0.00     0.021 C 
BRANCH   2   3
ATOM      3  C   UNL     1       2.109  -0.926   2.510  1.00  0.00     0.116 C 
BRANCH   3   4
ATOM      4  N   UNL     1       2.711  -0.373   1.313  1.00  0.00    -0.355 N 
ATOM      5  O   UNL     1       0.789  -0.356   0.068  1.00  0.00    -0.274 OA
ATOM      6  C   UNL     1       1.973  -0.077   0.181  1.00  0.00     0.230 C 
ATOM      7  H   UNL     1       3.680  -0.202   1.306  1.00  0.00     0.163 HD
BRANCH   6   8
ATOM      8  C   UNL     1       2.763   0.495  -0.991  1.00  0.00     0.176 C 
BRANCH   8   9
ATOM      9  S   UNL     1       4.107   1.624  -0.504  1.00  0.00    -0.096 SA
BRANCH   9  10
ATOM     10  C   UNL     1       3.174   3.076  -0.117  1.00  0.00     0.109 A 
ATOM     11  N   UNL     1       1.977   2.942   0.486  1.00  0.00    -0.229 NA
ATOM     12  C   UNL     1       3.694   4.348  -0.386  1.00  0.00     0.047 A 
ATOM     13  C   UNL     1       1.305   4.057   0.810  1.00  0.00     0.224 A 
ATOM     14  C   UNL     1       2.887   5.414   0.020  1.00  0.00     0.128 A 
ATOM     15  C   UNL     1       4.875   4.862  -0.994  1.00  0.00    -0.022 A 
ATOM     16  N   UNL     1       1.687   5.322   0.619  1.00  0.00    -0.225 NA
ATOM     17  S   UNL     1       3.575   6.956  -0.316  1.00  0.00    -0.120 S 
ATOM     18  C   UNL     1       4.913   6.230  -1.000  1.00  0.00     0.011 A 
ATOM     19  C   UNL     1       6.088   4.302  -1.645  1.00  0.00     0.038 C 
ATOM     20  C   UNL     1       6.128   6.805  -1.622  1.00  0.00     0.047 C 
ATOM     21  C   UNL     1       7.034   5.541  -1.720  1.00  0.00     0.010 C 
ENDBRANCH   9  10
ENDBRANCH   8   9
ENDBRANCH   6   8
ENDBRANCH   3   4
ENDBRANCH   2   3
ENDBRANCH   1   2
BRANCH   1  22
ATOM     22  C   UNL     1       4.437  -1.733   4.509  1.00  0.00     0.002 C 
BRANCH  22  23
ATOM     23  C   UNL     1       3.717  -2.183   5.793  1.00  0.00     0.021 C 
BRANCH  23  24
ATOM     24  C   UNL     1       4.061  -3.596   6.294  1.00  0.00     0.116 C 
BRANCH  24  25
ATOM     25  N   UNL     1       5.469  -3.700   6.635  1.00  0.00    -0.352 N 
ATOM     26  C   UNL     1       6.109  -4.171   7.747  1.00  0.00     0.251 C 
ATOM     27  H   UNL     1       6.076  -3.370   5.934  1.00  0.00     0.163 HD
ATOM     28  O   UNL     1       7.295  -3.876   7.901  1.00  0.00    -0.269 OA
BRANCH  26  29
ATOM     29  C   UNL     1       5.456  -5.031   8.761  1.00  0.00     0.039 A 
ATOM     30  C   UNL     1       5.872  -4.879  10.090  1.00  0.00     0.014 A 
ATOM     31  C   UNL     1       4.593  -6.079   8.426  1.00  0.00     0.014 A 
ATOM     32  C   UNL     1       5.418  -5.753  11.078  1.00  0.00     0.010 A 
ATOM     33  C   UNL     1       4.133  -6.954   9.422  1.00  0.00     0.010 A 
ATOM     34  C   UNL     1       4.540  -6.796  10.755  1.00  0.00    -0.014 A 
BRANCH  34  35
ATOM     35  C   UNL     1       4.013  -7.609  11.871  1.00  0.00     0.031 A 
ATOM     36  C   UNL     1       2.547  -7.892  11.852  1.00  0.00     0.074 A 
ATOM     37  C   UNL     1       4.784  -8.480  12.555  1.00  0.00     0.049 A 
ATOM     38  N   UNL     1       2.014  -8.872  11.181  1.00  0.00    -0.248 NA
ATOM     39  C   UNL     1       1.573  -6.956  12.412  1.00  0.00     0.031 C 
ATOM     40  C   UNL     1       5.815  -9.318  11.931  1.00  0.00     0.029 A 
ATOM     41  N   UNL     1       4.641  -8.999  13.820  1.00  0.00    -0.354 N 
ATOM     42  C   UNL     1       0.646  -8.665  11.177  1.00  0.00     0.074 A 
ATOM     43  C   UNL     1       0.418  -7.471  11.962  1.00  0.00     0.031 C 
ATOM     44  C   UNL     1       6.079 -10.355  12.753  1.00  0.00     0.029 A 
ATOM     45  C   UNL     1       5.374 -10.165  14.017  1.00  0.00     0.049 A 
ATOM     46  H   UNL     1       4.078  -8.588  14.515  1.00  0.00     0.167 HD
ATOM     47  C   UNL     1      -0.230  -9.474  10.524  1.00  0.00     0.031 A 
ATOM     48  C   UNL     1       5.044 -11.149  14.897  1.00  0.00     0.031 A 
ATOM     49  C   UNL     1       0.341 -10.614   9.876  1.00  0.00     0.049 A 
ATOM     50  C   UNL     1       3.905 -11.812  14.168  1.00  0.00     0.074 A 
ATOM     51  C   UNL     1       0.807 -10.943   8.621  1.00  0.00     0.029 A 
ATOM     52  N   UNL     1       0.586 -11.731  10.637  1.00  0.00    -0.354 N 
ATOM     53  N   UNL     1       4.008 -12.654  13.176  1.00  0.00    -0.248 NA
ATOM     54  C   UNL     1       2.571 -11.230  14.337  1.00  0.00     0.031 C 
ATOM     55  C   UNL     1       1.705 -12.039   8.822  1.00  0.00     0.029 A 
ATOM     56  C   UNL     1       1.771 -12.262  10.197  1.00  0.00     0.049 A 
ATOM     57  H   UNL     1       0.020 -12.083  11.361  1.00  0.00     0.167 HD
ATOM     58  C   UNL     1       2.858 -12.461  12.409  1.00  0.00     0.074 A 
ATOM     59  C   UNL     1       1.995 -11.610  13.204  1.00  0.00     0.031 C 
ATOM     60  C   UNL     1       2.760 -12.818  11.094  1.00  0.00     0.031 A 
BRANCH  47  61
ATOM     61  C   UNL     1      -1.699  -9.311  10.547  1.00  0.00    -0.014 A 
ATOM     62  C   UNL     1      -2.459 -10.190  11.335  1.00  0.00     0.009 A 
ATOM     63  C   UNL     1      -2.354  -8.449   9.661  1.00  0.00     0.009 A 
ATOM     64  C   UNL     1      -3.846 -10.240  11.209  1.00  0.00     0.001 A 
ATOM     65  C   UNL     1      -3.747  -8.494   9.543  1.00  0.00     0.001 A 
ATOM     66  C   UNL     1      -4.489  -9.398  10.305  1.00  0.00     0.000 A 
ENDBRANCH  47  61
BRANCH  48  67
ATOM     67  C   UNL     1       4.967 -10.733  16.335  1.00  0.00    -0.014 A 
ATOM     68  C   UNL     1       6.071 -10.040  16.876  1.00  0.00     0.009 A 
ATOM     69  C   UNL     1       3.890 -10.988  17.197  1.00  0.00     0.009 A 
ATOM     70  C   UNL     1       6.051  -9.526  18.176  1.00  0.00     0.001 A 
ATOM     71  C   UNL     1       3.856 -10.449  18.491  1.00  0.00     0.001 A 
ATOM     72  C   UNL     1       4.929  -9.705  18.974  1.00  0.00     0.000 A 
ENDBRANCH  48  67
BRANCH  60  73
ATOM     73  C   UNL     1       3.912 -13.588  10.529  1.00  0.00    -0.014 A 
ATOM     74  C   UNL     1       4.152 -14.908  10.926  1.00  0.00     0.009 A 
ATOM     75  C   UNL     1       4.746 -13.010   9.557  1.00  0.00     0.009 A 
ATOM     76  C   UNL     1       5.184 -15.645  10.342  1.00  0.00     0.001 A 
ATOM     77  C   UNL     1       5.763 -13.754   8.957  1.00  0.00     0.001 A 
ATOM     78  C   UNL     1       5.979 -15.073   9.348  1.00  0.00     0.000 A 
ENDBRANCH  60  73
ENDBRANCH  34  35
ENDBRANCH  26  29
ENDBRANCH  24  25
ENDBRANCH  23  24
ENDBRANCH  22  23
ENDBRANCH   1  22
TORSDOF 15
