REMARK SMILES O=C(NCCCCCCNC(=O)C(Cl)(c1ccccc1)c1ccccc1)c1ccc(-c2c3nc(c(-c4ccccc4)c4ccc([nH]4)c(-c4ccccc4)c4nc(c(-c5ccccc5)c5ccc2[nH]5)C=C4)C=C3)cc1
REMARK SMILES IDX 6 1 5 2 4 3 3 4 1 5 2 6 27 8 28 9 74 10 29 11 73 12 30 13
REMARK SMILES IDX 31 14 32 15 67 16 33 17 72 18 66 19 68 20 34 21 71 22 65 23
REMARK SMILES IDX 64 24 35 26 57 27 42 28 56 29 43 30 46 31 55 32 69 33 44 34
REMARK SMILES IDX 45 35 54 37 70 38 47 39 36 40 37 41 41 42 38 43 40 44 39 45
REMARK SMILES IDX 58 46 59 47 63 48 60 49 62 50 61 51 48 52 49 53 53 54 50 55
REMARK SMILES IDX 52 56 51 57 7 58 8 59 9 60 10 61 11 62 12 64 13 65 14 66
REMARK SMILES IDX 15 67 16 68 20 69 17 70 19 71 18 72 21 73 22 74 26 75 23 76
REMARK SMILES IDX 25 77 24 78
REMARK H PARENT 3 7 68 25 46 36 10 63
REMARK Flexibility Score: inf
ROOT
ATOM      1  C   UNL     1       4.087  -2.863   2.430  1.00  0.00     0.002 C 
ENDROOT
BRANCH   1   2
ATOM      2  C   UNL     1       4.601  -1.477   2.039  1.00  0.00     0.021 C 
BRANCH   2   3
ATOM      3  C   UNL     1       4.359  -1.099   0.584  1.00  0.00     0.116 C 
BRANCH   3   4
ATOM      4  N   UNL     1       2.944  -1.059   0.254  1.00  0.00    -0.352 N 
ATOM      5  O   UNL     1       0.974  -0.100  -0.285  1.00  0.00    -0.269 OA
ATOM      6  C   UNL     1       2.198  -0.019  -0.237  1.00  0.00     0.251 C 
ATOM      7  H   UNL     1       2.452  -1.899   0.404  1.00  0.00     0.163 HD
BRANCH   6   8
ATOM      8  C   UNL     1       2.875   1.212  -0.689  1.00  0.00     0.039 A 
ATOM      9  C   UNL     1       4.010   1.143  -1.502  1.00  0.00     0.014 A 
ATOM     10  C   UNL     1       2.363   2.450  -0.295  1.00  0.00     0.014 A 
ATOM     11  C   UNL     1       4.708   2.304  -1.813  1.00  0.00     0.010 A 
ATOM     12  C   UNL     1       3.017   3.620  -0.680  1.00  0.00     0.010 A 
ATOM     13  C   UNL     1       4.209   3.555  -1.420  1.00  0.00    -0.014 A 
BRANCH  13  14
ATOM     14  C   UNL     1       4.910   4.794  -1.835  1.00  0.00     0.031 A 
ATOM     15  C   UNL     1       5.516   5.717  -0.817  1.00  0.00     0.074 A 
ATOM     16  C   UNL     1       4.982   5.091  -3.146  1.00  0.00     0.049 A 
ATOM     17  N   UNL     1       6.118   6.865  -1.002  1.00  0.00    -0.248 NA
ATOM     18  C   UNL     1       5.429   5.303   0.592  1.00  0.00     0.031 C 
ATOM     19  C   UNL     1       4.436   4.269  -4.229  1.00  0.00     0.029 A 
ATOM     20  N   UNL     1       5.542   6.163  -3.791  1.00  0.00    -0.354 N 
ATOM     21  C   UNL     1       6.459   7.322   0.265  1.00  0.00     0.074 A 
ATOM     22  C   UNL     1       5.974   6.341   1.211  1.00  0.00     0.031 C 
ATOM     23  C   UNL     1       4.712   4.852  -5.404  1.00  0.00     0.029 A 
ATOM     24  C   UNL     1       5.388   6.119  -5.155  1.00  0.00     0.049 A 
ATOM     25  H   UNL     1       6.008   6.893  -3.323  1.00  0.00     0.167 HD
ATOM     26  C   UNL     1       7.118   8.457   0.606  1.00  0.00     0.031 A 
ATOM     27  C   UNL     1       5.725   7.013  -6.102  1.00  0.00     0.031 A 
ATOM     28  C   UNL     1       7.583   9.437  -0.342  1.00  0.00     0.049 A 
ATOM     29  C   UNL     1       6.400   8.289  -5.695  1.00  0.00     0.074 A 
ATOM     30  C   UNL     1       8.285  10.606  -0.100  1.00  0.00     0.029 A 
ATOM     31  N   UNL     1       7.382   9.370  -1.713  1.00  0.00    -0.354 N 
ATOM     32  N   UNL     1       6.747   8.692  -4.496  1.00  0.00    -0.248 NA
ATOM     33  C   UNL     1       6.734   9.231  -6.770  1.00  0.00     0.031 C 
ATOM     34  C   UNL     1       8.450  11.277  -1.316  1.00  0.00     0.029 A 
ATOM     35  C   UNL     1       7.919  10.491  -2.326  1.00  0.00     0.049 A 
ATOM     36  H   UNL     1       6.925   8.634  -2.182  1.00  0.00     0.167 HD
ATOM     37  C   UNL     1       7.367   9.921  -4.676  1.00  0.00     0.074 A 
ATOM     38  C   UNL     1       7.357  10.190  -6.100  1.00  0.00     0.031 C 
ATOM     39  C   UNL     1       7.901  10.748  -3.744  1.00  0.00     0.031 A 
BRANCH  26  40
ATOM     40  C   UNL     1       7.333   8.719   2.073  1.00  0.00    -0.014 A 
ATOM     41  C   UNL     1       8.209   7.934   2.840  1.00  0.00     0.009 A 
ATOM     42  C   UNL     1       6.666   9.788   2.692  1.00  0.00     0.009 A 
ATOM     43  C   UNL     1       8.375   8.184   4.205  1.00  0.00     0.001 A 
ATOM     44  C   UNL     1       6.859  10.057   4.049  1.00  0.00     0.001 A 
ATOM     45  C   UNL     1       7.703   9.247   4.807  1.00  0.00     0.000 A 
ENDBRANCH  26  40
BRANCH  27  46
ATOM     46  C   UNL     1       5.409   6.727  -7.526  1.00  0.00    -0.014 A 
ATOM     47  C   UNL     1       6.433   6.449  -8.443  1.00  0.00     0.009 A 
ATOM     48  C   UNL     1       4.076   6.701  -7.967  1.00  0.00     0.009 A 
ATOM     49  C   UNL     1       6.129   6.171  -9.777  1.00  0.00     0.001 A 
ATOM     50  C   UNL     1       3.773   6.390  -9.293  1.00  0.00     0.001 A 
ATOM     51  C   UNL     1       4.800   6.134 -10.199  1.00  0.00     0.000 A 
ENDBRANCH  27  46
BRANCH  39  52
ATOM     52  C   UNL     1       8.567  12.002  -4.238  1.00  0.00    -0.014 A 
ATOM     53  C   UNL     1       7.824  13.074  -4.758  1.00  0.00     0.009 A 
ATOM     54  C   UNL     1       9.962  12.127  -4.139  1.00  0.00     0.009 A 
ATOM     55  C   UNL     1       8.470  14.232  -5.196  1.00  0.00     0.001 A 
ATOM     56  C   UNL     1      10.601  13.297  -4.547  1.00  0.00     0.001 A 
ATOM     57  C   UNL     1       9.856  14.345  -5.084  1.00  0.00     0.000 A 
ENDBRANCH  39  52
ENDBRANCH  13  14
ENDBRANCH   6   8
ENDBRANCH   3   4
ENDBRANCH   2   3
ENDBRANCH   1   2
BRANCH   1  58
ATOM     58  C   UNL     1       4.582  -4.012   1.546  1.00  0.00     0.002 C 
BRANCH  58  59
ATOM     59  C   UNL     1       6.101  -4.086   1.362  1.00  0.00     0.021 C 
BRANCH  59  60
ATOM     60  C   UNL     1       6.887  -4.183   2.664  1.00  0.00     0.116 C 
BRANCH  60  61
ATOM     61  N   UNL     1       6.640  -5.441   3.334  1.00  0.00    -0.354 N 
ATOM     62  C   UNL     1       7.492  -6.327   3.935  1.00  0.00     0.250 C 
ATOM     63  H   UNL     1       5.693  -5.707   3.363  1.00  0.00     0.163 HD
ATOM     64  O   UNL     1       6.918  -7.243   4.542  1.00  0.00    -0.272 OA
BRANCH  62  65
ATOM     65  C   UNL     1       9.070  -6.146   3.942  1.00  0.00     0.173 C 
ATOM     66  Cl  UNL     1       9.612  -6.025   2.202  1.00  0.00    -0.098 Cl
BRANCH  65  67
ATOM     67  C   UNL     1       9.364  -4.866   4.767  1.00  0.00    -0.013 A 
ATOM     68  C   UNL     1       9.034  -4.864   6.142  1.00  0.00     0.006 A 
ATOM     69  C   UNL     1       9.840  -3.660   4.218  1.00  0.00     0.006 A 
ATOM     70  C   UNL     1       9.153  -3.711   6.920  1.00  0.00     0.000 A 
ATOM     71  C   UNL     1       9.922  -2.496   4.990  1.00  0.00     0.000 A 
ATOM     72  C   UNL     1       9.578  -2.522   6.338  1.00  0.00     0.000 A 
ENDBRANCH  65  67
BRANCH  65  73
ATOM     73  C   UNL     1       9.794  -7.423   4.452  1.00  0.00    -0.013 A 
ATOM     74  C   UNL     1       9.351  -8.703   4.048  1.00  0.00     0.006 A 
ATOM     75  C   UNL     1      10.933  -7.369   5.275  1.00  0.00     0.006 A 
ATOM     76  C   UNL     1       9.951  -9.869   4.524  1.00  0.00     0.000 A 
ATOM     77  C   UNL     1      11.532  -8.539   5.756  1.00  0.00     0.000 A 
ATOM     78  C   UNL     1      11.032  -9.786   5.393  1.00  0.00     0.000 A 
ENDBRANCH  65  73
ENDBRANCH  62  65
ENDBRANCH  60  61
ENDBRANCH  59  60
ENDBRANCH  58  59
ENDBRANCH   1  58
TORSDOF 15
