REMARK SMILES C[C@H](C(=O)NCCCCCCNC(=O)c1ccc(-c2c3nc(c(-c4ccccc4)c4ccc([nH]4)c(-c4ccccc4)c4nc(c(-c5ccccc5)c5ccc2[nH]5)C=C4)C=C3)cc1)[C@H](C)[N@@H+]1CC[C@H]([NH+]2CCCCC2)C1
REMARK SMILES IDX 8 1 7 2 6 3 5 4 3 5 4 6 2 8 1 9 63 10 64 11 65 12 66 13
REMARK SMILES IDX 75 14 67 16 68 17 69 18 70 19 74 20 71 22 73 23 72 24 9 25
REMARK SMILES IDX 10 26 11 27 12 28 13 29 14 31 15 32 16 33 62 34 17 35 61 36
REMARK SMILES IDX 18 37 19 38 20 39 55 40 21 41 60 42 54 43 56 44 22 45 59 46
REMARK SMILES IDX 53 47 52 48 23 50 45 51 30 52 44 53 31 54 34 55 43 56 57 57
REMARK SMILES IDX 32 58 33 59 42 61 58 62 35 63 24 64 25 65 29 66 26 67 28 68
REMARK SMILES IDX 27 69 46 70 47 71 51 72 48 73 50 74 49 75 36 76 37 77 41 78
REMARK SMILES IDX 38 79 40 80 39 81
REMARK H PARENT 5 7 65 15 69 21 12 30 56 49 34 60
REMARK Flexibility Score: inf
ROOT
ATOM      1  C   UNL     1       0.431   1.959   5.003  1.00  0.00     0.002 C 
ENDROOT
BRANCH   1   2
ATOM      2  C   UNL     1      -0.392   0.857   4.324  1.00  0.00     0.021 C 
BRANCH   2   3
ATOM      3  C   UNL     1      -1.331   1.322   3.216  1.00  0.00     0.116 C 
BRANCH   3   4
ATOM      4  N   UNL     1      -0.607   1.981   2.161  1.00  0.00    -0.356 N 
ATOM      5  C   UNL     1      -0.456   1.762   0.838  1.00  0.00     0.228 C 
ATOM      6  O   UNL     1       0.463   2.432   0.352  1.00  0.00    -0.275 OA
ATOM      7  H   UNL     1      -0.109   2.770   2.475  1.00  0.00     0.163 HD
BRANCH   5   8
ATOM      8  C   UNL     1      -1.207   0.702   0.015  1.00  0.00     0.133 C 
ATOM      9  C   UNL     1      -2.656   0.321   0.340  1.00  0.00     0.024 C 
BRANCH   8  10
ATOM     10  C   UNL     1      -1.050   0.986  -1.532  1.00  0.00     0.193 C 
ATOM     11  C   UNL     1       0.365   0.540  -1.988  1.00  0.00     0.076 C 
BRANCH  10  12
ATOM     12  N   UNL     1      -1.485   2.258  -2.138  1.00  0.00    -0.327 N 
ATOM     13  C   UNL     1      -0.568   3.384  -2.253  1.00  0.00     0.269 C 
ATOM     14  C   UNL     1      -2.818   2.804  -1.899  1.00  0.00     0.328 C 
ATOM     15  H   UNL     1      -1.505   1.751  -3.023  1.00  0.00     0.348 HD
ATOM     16  C   UNL     1      -1.135   4.483  -1.369  1.00  0.00     0.132 C 
ATOM     17  C   UNL     1      -2.650   4.258  -1.371  1.00  0.00     0.245 C 
BRANCH  17  18
ATOM     18  N   UNL     1      -3.393   4.676  -0.148  1.00  0.00    -0.328 N 
ATOM     19  C   UNL     1      -2.996   3.964   1.072  1.00  0.00     0.262 C 
ATOM     20  C   UNL     1      -3.258   6.128   0.078  1.00  0.00     0.262 C 
ATOM     21  H   UNL     1      -4.365   4.428  -0.333  1.00  0.00     0.348 HD
ATOM     22  C   UNL     1      -3.869   4.338   2.269  1.00  0.00     0.062 C 
ATOM     23  C   UNL     1      -4.063   6.616   1.290  1.00  0.00     0.062 C 
ATOM     24  C   UNL     1      -3.746   5.825   2.554  1.00  0.00     0.012 C 
ENDBRANCH  17  18
ENDBRANCH  10  12
ENDBRANCH   8  10
ENDBRANCH   5   8
ENDBRANCH   3   4
ENDBRANCH   2   3
ENDBRANCH   1   2
BRANCH   1  25
ATOM     25  C   UNL     1      -0.364   3.138   5.571  1.00  0.00     0.002 C 
BRANCH  25  26
ATOM     26  C   UNL     1      -1.515   2.768   6.506  1.00  0.00     0.021 C 
BRANCH  26  27
ATOM     27  C   UNL     1      -1.145   1.837   7.654  1.00  0.00     0.116 C 
BRANCH  27  28
ATOM     28  N   UNL     1      -0.162   2.414   8.552  1.00  0.00    -0.352 N 
ATOM     29  C   UNL     1      -0.153   2.433   9.926  1.00  0.00     0.251 C 
ATOM     30  H   UNL     1       0.605   2.852   8.117  1.00  0.00     0.163 HD
ATOM     31  O   UNL     1       0.685   3.089  10.529  1.00  0.00    -0.269 OA
BRANCH  29  32
ATOM     32  C   UNL     1      -1.181   1.678  10.677  1.00  0.00     0.039 A 
ATOM     33  C   UNL     1      -1.802   2.293  11.766  1.00  0.00     0.014 A 
ATOM     34  C   UNL     1      -1.530   0.373  10.316  1.00  0.00     0.014 A 
ATOM     35  C   UNL     1      -2.805   1.618  12.463  1.00  0.00     0.010 A 
ATOM     36  C   UNL     1      -2.587  -0.266  10.959  1.00  0.00     0.010 A 
ATOM     37  C   UNL     1      -3.226   0.344  12.048  1.00  0.00    -0.014 A 
BRANCH  37  38
ATOM     38  C   UNL     1      -4.320  -0.369  12.755  1.00  0.00     0.031 A 
ATOM     39  C   UNL     1      -4.043  -1.665  13.469  1.00  0.00     0.074 A 
ATOM     40  C   UNL     1      -5.572   0.127  12.722  1.00  0.00     0.049 A 
ATOM     41  N   UNL     1      -4.868  -2.438  14.129  1.00  0.00    -0.248 NA
ATOM     42  C   UNL     1      -2.662  -2.172  13.413  1.00  0.00     0.031 C 
ATOM     43  C   UNL     1      -5.980   1.356  12.037  1.00  0.00     0.029 A 
ATOM     44  N   UNL     1      -6.733  -0.342  13.283  1.00  0.00    -0.354 N 
ATOM     45  C   UNL     1      -4.112  -3.525  14.550  1.00  0.00     0.074 A 
ATOM     46  C   UNL     1      -2.778  -3.341  14.023  1.00  0.00     0.031 C 
ATOM     47  C   UNL     1      -7.288   1.566  12.255  1.00  0.00     0.029 A 
ATOM     48  C   UNL     1      -7.820   0.467  13.054  1.00  0.00     0.049 A 
ATOM     49  H   UNL     1      -6.783  -1.178  13.800  1.00  0.00     0.167 HD
ATOM     50  C   UNL     1      -4.486  -4.572  15.324  1.00  0.00     0.031 A 
ATOM     51  C   UNL     1      -9.102   0.339  13.446  1.00  0.00     0.031 A 
ATOM     52  C   UNL     1      -5.813  -4.752  15.852  1.00  0.00     0.049 A 
ATOM     53  C   UNL     1      -9.499  -0.848  14.280  1.00  0.00     0.074 A 
ATOM     54  C   UNL     1      -6.279  -5.748  16.692  1.00  0.00     0.029 A 
ATOM     55  N   UNL     1      -6.888  -3.918  15.584  1.00  0.00    -0.354 N 
ATOM     56  N   UNL     1      -8.755  -1.828  14.733  1.00  0.00    -0.248 NA
ATOM     57  C   UNL     1     -10.914  -0.936  14.667  1.00  0.00     0.031 C 
ATOM     58  C   UNL     1      -7.651  -5.553  16.881  1.00  0.00     0.029 A 
ATOM     59  C   UNL     1      -8.024  -4.396  16.216  1.00  0.00     0.049 A 
ATOM     60  H   UNL     1      -6.850  -3.107  15.027  1.00  0.00     0.167 HD
ATOM     61  C   UNL     1      -9.603  -2.629  15.488  1.00  0.00     0.074 A 
ATOM     62  C   UNL     1     -10.912  -2.011  15.443  1.00  0.00     0.031 C 
ATOM     63  C   UNL     1      -9.322  -3.772  16.161  1.00  0.00     0.031 A 
BRANCH  50  64
ATOM     64  C   UNL     1      -3.443  -5.613  15.629  1.00  0.00    -0.014 A 
ATOM     65  C   UNL     1      -2.337  -5.325  16.446  1.00  0.00     0.009 A 
ATOM     66  C   UNL     1      -3.579  -6.909  15.108  1.00  0.00     0.009 A 
ATOM     67  C   UNL     1      -1.366  -6.298  16.694  1.00  0.00     0.001 A 
ATOM     68  C   UNL     1      -2.625  -7.890  15.386  1.00  0.00     0.001 A 
ATOM     69  C   UNL     1      -1.513  -7.580  16.168  1.00  0.00     0.000 A 
ENDBRANCH  50  64
BRANCH  51  70
ATOM     70  C   UNL     1     -10.104   1.375  13.079  1.00  0.00    -0.014 A 
ATOM     71  C   UNL     1     -10.655   2.210  14.063  1.00  0.00     0.009 A 
ATOM     72  C   UNL     1     -10.524   1.527  11.748  1.00  0.00     0.009 A 
ATOM     73  C   UNL     1     -11.628   3.154  13.728  1.00  0.00     0.001 A 
ATOM     74  C   UNL     1     -11.474   2.494  11.411  1.00  0.00     0.001 A 
ATOM     75  C   UNL     1     -12.033   3.299  12.403  1.00  0.00     0.000 A 
ENDBRANCH  51  70
BRANCH  63  76
ATOM     76  C   UNL     1     -10.442  -4.403  16.941  1.00  0.00    -0.014 A 
ATOM     77  C   UNL     1     -11.525  -5.024  16.300  1.00  0.00     0.009 A 
ATOM     78  C   UNL     1     -10.395  -4.401  18.344  1.00  0.00     0.009 A 
ATOM     79  C   UNL     1     -12.558  -5.593  17.049  1.00  0.00     0.001 A 
ATOM     80  C   UNL     1     -11.410  -5.000  19.090  1.00  0.00     0.001 A 
ATOM     81  C   UNL     1     -12.496  -5.585  18.443  1.00  0.00     0.000 A 
ENDBRANCH  63  76
ENDBRANCH  37  38
ENDBRANCH  29  32
ENDBRANCH  27  28
ENDBRANCH  26  27
ENDBRANCH  25  26
ENDBRANCH   1  25
TORSDOF 16
