REMARK SMILES Cc1cc(/C=C2\C(=O)N(Cc3ccco3)C(=O)[NH+]=C2NCCCCCCNC(=O)c2ccc(-c3c4nc(c(-c5ccccc5)c5ccc([nH]5)c(-c5ccccc5)c5nc(c(-c6ccccc6)c6ccc3[nH]6)C=C5)C=C4)cc2)c(C)n1-c1ccc(Cl)c(C(=O)[O-])c1
REMARK SMILES IDX 23 1 22 2 21 3 20 4 5 5 6 6 7 7 19 8 8 9 9 10 18 11 16 12
REMARK SMILES IDX 17 15 4 16 1 17 2 18 3 19 80 20 78 21 79 22 81 23 82 24
REMARK SMILES IDX 90 25 83 26 86 27 84 28 85 29 87 30 88 31 89 32 10 33 11 34
REMARK SMILES IDX 12 35 15 36 13 37 14 38 24 39 25 40 26 41 27 42 28 43 29 45
REMARK SMILES IDX 30 46 31 47 77 48 32 49 76 50 33 51 34 52 35 53 70 54 36 55
REMARK SMILES IDX 75 56 69 57 71 58 37 59 74 60 68 61 67 62 38 64 60 65 45 66
REMARK SMILES IDX 59 67 46 68 49 69 58 70 72 71 47 72 48 73 57 75 73 76 50 77
REMARK SMILES IDX 39 78 40 79 44 80 41 81 43 82 42 83 61 84 62 85 66 86 63 87
REMARK SMILES IDX 65 88 64 89 51 90 52 91 56 92 53 93 55 94 54 95
REMARK H PARENT 18 13 20 14 27 44 71 63 49 74
REMARK Flexibility Score: inf
ROOT
ATOM      1  C   UNL     1       0.832  -8.989   0.098  1.00  0.00     0.003 C 
ENDROOT
BRANCH   1   2
ATOM      2  C   UNL     1       0.805  -7.494  -0.247  1.00  0.00     0.037 C 
BRANCH   2   3
ATOM      3  C   UNL     1       1.534  -7.145  -1.543  1.00  0.00     0.194 C 
BRANCH   3   4
ATOM      4  N   UNL     1       0.634  -7.352  -2.645  1.00  0.00    -0.305 N 
ATOM      5  C   UNL     1       0.084  -4.276  -2.223  1.00  0.00     0.032 C 
ATOM      6  C   UNL     1       0.068  -4.962  -3.383  1.00  0.00     0.129 C 
ATOM      7  C   UNL     1      -0.040  -4.363  -4.726  1.00  0.00     0.323 C 
ATOM      8  C   UNL     1      -0.033  -6.449  -3.431  1.00  0.00     0.236 C 
ATOM      9  O   UNL     1       0.719  -3.484  -5.122  1.00  0.00    -0.250 OA
ATOM     10  N   UNL     1      -1.087  -4.915  -5.433  1.00  0.00    -0.182 N 
ATOM     11  N   UNL     1      -0.793  -6.997  -4.339  1.00  0.00    -0.210 N 
ATOM     12  C   UNL     1      -1.520  -6.210  -5.199  1.00  0.00     0.444 C 
ATOM     13  H   UNL     1      -0.845  -7.978  -4.408  1.00  0.00     0.270 HD
ATOM     14  H   UNL     1       0.470  -8.296  -2.871  1.00  0.00     0.256 HD
ATOM     15  O   UNL     1      -2.518  -6.660  -5.754  1.00  0.00    -0.212 OA
BRANCH   5  16
ATOM     16  C   UNL     1       0.094  -2.867  -1.932  1.00  0.00    -0.003 A 
ATOM     17  C   UNL     1       1.110   0.059   0.153  1.00  0.00     0.065 C 
ATOM     18  C   UNL     1       0.591  -0.935  -0.831  1.00  0.00     0.020 A 
ATOM     19  C   UNL     1       0.791  -2.304  -0.831  1.00  0.00     0.031 A 
ATOM     20  N   UNL     1      -0.264  -0.640  -1.878  1.00  0.00    -0.318 N 
ATOM     21  C   UNL     1      -0.573  -1.823  -2.556  1.00  0.00     0.027 A 
ATOM     22  C   UNL     1      -1.399  -1.817  -3.794  1.00  0.00     0.065 C 
BRANCH  20  23
ATOM     23  C   UNL     1      -0.735   0.645  -2.260  1.00  0.00     0.046 A 
ATOM     24  C   UNL     1      -2.110   0.856  -2.380  1.00  0.00     0.028 A 
ATOM     25  C   UNL     1       0.173   1.617  -2.691  1.00  0.00     0.038 A 
ATOM     26  C   UNL     1      -2.578   1.995  -3.029  1.00  0.00     0.023 A 
ATOM     27  C   UNL     1      -0.295   2.783  -3.335  1.00  0.00     0.018 A 
ATOM     28  C   UNL     1      -1.679   2.949  -3.526  1.00  0.00     0.050 A 
ATOM     29  Cl  UNL     1      -2.393   4.265  -4.390  1.00  0.00    -0.084 Cl
BRANCH  27  30
ATOM     30  C   UNL     1       0.687   3.785  -3.840  1.00  0.00     0.073 C 
ATOM     31  O   UNL     1       0.472   4.805  -4.463  1.00  0.00    -0.545 OA
ATOM     32  O   UNL     1       1.956   3.461  -3.520  1.00  0.00    -0.545 OA
ENDBRANCH  27  30
ENDBRANCH  20  23
ENDBRANCH   5  16
BRANCH  10  33
ATOM     33  C   UNL     1      -1.796  -4.111  -6.409  1.00  0.00     0.285 C 
BRANCH  33  34
ATOM     34  C   UNL     1      -1.197  -4.211  -7.756  1.00  0.00     0.138 A 
ATOM     35  C   UNL     1      -1.191  -5.188  -8.728  1.00  0.00     0.049 A 
ATOM     36  O   UNL     1      -0.562  -3.093  -8.212  1.00  0.00    -0.466 OA
ATOM     37  C   UNL     1      -0.505  -4.637  -9.836  1.00  0.00     0.042 A 
ATOM     38  C   UNL     1      -0.140  -3.363  -9.471  1.00  0.00     0.195 A 
ENDBRANCH  33  34
ENDBRANCH  10  33
ENDBRANCH   3   4
ENDBRANCH   2   3
ENDBRANCH   1   2
BRANCH   1  39
ATOM     39  C   UNL     1       2.194  -9.541   0.541  1.00  0.00     0.002 C 
BRANCH  39  40
ATOM     40  C   UNL     1       2.988  -8.692   1.550  1.00  0.00     0.021 C 
BRANCH  40  41
ATOM     41  C   UNL     1       2.219  -8.096   2.746  1.00  0.00     0.116 C 
BRANCH  41  42
ATOM     42  N   UNL     1       2.251  -8.899   3.944  1.00  0.00    -0.352 N 
ATOM     43  C   UNL     1       1.914  -8.517   5.229  1.00  0.00     0.251 C 
ATOM     44  H   UNL     1       2.548  -9.831   3.833  1.00  0.00     0.163 HD
ATOM     45  O   UNL     1       1.934  -9.368   6.116  1.00  0.00    -0.269 OA
BRANCH  43  46
ATOM     46  C   UNL     1       1.603  -7.088   5.585  1.00  0.00     0.039 A 
ATOM     47  C   UNL     1       2.649  -6.266   5.977  1.00  0.00     0.014 A 
ATOM     48  C   UNL     1       0.298  -6.613   5.810  1.00  0.00     0.014 A 
ATOM     49  C   UNL     1       2.388  -4.998   6.563  1.00  0.00     0.010 A 
ATOM     50  C   UNL     1       0.038  -5.353   6.476  1.00  0.00     0.010 A 
ATOM     51  C   UNL     1       1.080  -4.513   6.912  1.00  0.00    -0.014 A 
BRANCH  51  52
ATOM     52  C   UNL     1       1.025  -3.535   8.153  1.00  0.00     0.031 A 
ATOM     53  C   UNL     1       1.900  -4.199   9.158  1.00  0.00     0.074 A 
ATOM     54  C   UNL     1       0.393  -2.407   8.649  1.00  0.00     0.049 A 
ATOM     55  N   UNL     1       1.640  -5.414   9.544  1.00  0.00    -0.248 NA
ATOM     56  C   UNL     1       3.243  -3.717   9.476  1.00  0.00     0.031 C 
ATOM     57  C   UNL     1      -0.668  -1.602   8.029  1.00  0.00     0.029 A 
ATOM     58  N   UNL     1       0.577  -1.691   9.865  1.00  0.00    -0.354 N 
ATOM     59  C   UNL     1       2.663  -5.765  10.386  1.00  0.00     0.074 A 
ATOM     60  C   UNL     1       3.711  -4.790  10.122  1.00  0.00     0.031 C 
ATOM     61  C   UNL     1      -0.931  -0.481   8.763  1.00  0.00     0.029 A 
ATOM     62  C   UNL     1      -0.119  -0.449   9.978  1.00  0.00     0.049 A 
ATOM     63  H   UNL     1       1.151  -2.033  10.588  1.00  0.00     0.167 HD
ATOM     64  C   UNL     1       2.317  -6.336  11.574  1.00  0.00     0.031 A 
ATOM     65  C   UNL     1      -0.102   0.504  10.980  1.00  0.00     0.031 A 
ATOM     66  C   UNL     1       2.502  -5.433  12.678  1.00  0.00     0.049 A 
ATOM     67  C   UNL     1       0.356  -0.142  12.218  1.00  0.00     0.074 A 
ATOM     68  C   UNL     1       3.503  -4.558  13.048  1.00  0.00     0.029 A 
ATOM     69  N   UNL     1       1.353  -5.005  13.310  1.00  0.00    -0.354 N 
ATOM     70  N   UNL     1      -0.454  -0.858  12.937  1.00  0.00    -0.248 NA
ATOM     71  C   UNL     1       1.665   0.108  12.812  1.00  0.00     0.031 C 
ATOM     72  C   UNL     1       2.827  -3.380  13.447  1.00  0.00     0.029 A 
ATOM     73  C   UNL     1       1.475  -3.664  13.606  1.00  0.00     0.049 A 
ATOM     74  H   UNL     1       0.571  -5.567  13.516  1.00  0.00     0.167 HD
ATOM     75  C   UNL     1       0.386  -1.544  13.757  1.00  0.00     0.074 A 
ATOM     76  C   UNL     1       1.578  -0.724  13.854  1.00  0.00     0.031 C 
ATOM     77  C   UNL     1       0.263  -2.893  13.767  1.00  0.00     0.031 A 
BRANCH  64  78
ATOM     78  C   UNL     1       1.192  -7.336  11.523  1.00  0.00    -0.014 A 
ATOM     79  C   UNL     1       1.432  -8.656  11.914  1.00  0.00     0.009 A 
ATOM     80  C   UNL     1      -0.092  -7.007  11.041  1.00  0.00     0.009 A 
ATOM     81  C   UNL     1       0.439  -9.631  11.755  1.00  0.00     0.001 A 
ATOM     82  C   UNL     1      -1.067  -7.983  10.847  1.00  0.00     0.001 A 
ATOM     83  C   UNL     1      -0.798  -9.299  11.197  1.00  0.00     0.000 A 
ENDBRANCH  64  78
BRANCH  65  84
ATOM     84  C   UNL     1      -0.561   1.923  11.330  1.00  0.00    -0.014 A 
ATOM     85  C   UNL     1      -1.053   2.183  12.649  1.00  0.00     0.009 A 
ATOM     86  C   UNL     1      -0.105   3.047  10.632  1.00  0.00     0.009 A 
ATOM     87  C   UNL     1      -0.962   3.436  13.279  1.00  0.00     0.001 A 
ATOM     88  C   UNL     1      -0.057   4.324  11.251  1.00  0.00     0.001 A 
ATOM     89  C   UNL     1      -0.444   4.510  12.580  1.00  0.00     0.000 A 
ENDBRANCH  65  84
BRANCH  77  90
ATOM     90  C   UNL     1      -1.143  -3.470  13.635  1.00  0.00    -0.014 A 
ATOM     91  C   UNL     1      -2.107  -3.056  12.688  1.00  0.00     0.009 A 
ATOM     92  C   UNL     1      -1.534  -4.466  14.540  1.00  0.00     0.009 A 
ATOM     93  C   UNL     1      -3.414  -3.559  12.691  1.00  0.00     0.001 A 
ATOM     94  C   UNL     1      -2.824  -5.010  14.511  1.00  0.00     0.001 A 
ATOM     95  C   UNL     1      -3.770  -4.543  13.602  1.00  0.00     0.000 A 
ENDBRANCH  77  90
ENDBRANCH  51  52
ENDBRANCH  43  46
ENDBRANCH  41  42
ENDBRANCH  40  41
ENDBRANCH  39  40
ENDBRANCH   1  39
TORSDOF 17
