REMARK SMILES Cc1ccc(-c2nc(NC(=O)[C@H]3[C@@H](C(=O)NCCCCCCNC(=O)c4ccc(-c5c6nc(c(-c7ccccc7)c7ccc([nH]7)c(-c7ccccc7)c7nc(c(-c8ccccc8)c8ccc5[nH]8)C=C7)C=C6)cc4)[C@@H]4CC[C@H]3O4)sc2C)cc1
REMARK SMILES IDX 19 1 18 2 17 3 16 4 14 5 15 6 13 8 12 9 77 10 74 11 76 12
REMARK SMILES IDX 78 13 75 14 10 15 9 16 11 18 8 19 6 20 7 21 80 22 79 23
REMARK SMILES IDX 81 24 5 25 1 26 2 27 3 28 83 29 4 30 82 31 20 32 21 33 22 34
REMARK SMILES IDX 23 35 24 36 25 38 26 39 27 40 73 41 28 42 72 43 29 44 30 45
REMARK SMILES IDX 31 46 66 47 32 48 71 49 65 50 67 51 33 52 70 53 64 54 63 55
REMARK SMILES IDX 34 57 56 58 41 59 55 60 42 61 45 62 54 63 68 64 43 65 44 66
REMARK SMILES IDX 53 68 69 69 46 70 35 71 36 72 40 73 37 74 39 75 38 76 57 77
REMARK SMILES IDX 58 78 62 79 59 80 61 81 60 82 47 83 48 84 52 85 49 86 51 87
REMARK SMILES IDX 50 88
REMARK H PARENT 16 7 9 17 23 37 67 56 45 67
REMARK Flexibility Score: inf
ROOT
ATOM      1  C   UNL     1      -4.783   1.200   0.294  1.00  0.00     0.002 C 
ENDROOT
BRANCH   1   2
ATOM      2  C   UNL     1      -5.472  -0.149   0.490  1.00  0.00     0.021 C 
BRANCH   2   3
ATOM      3  C   UNL     1      -6.466  -0.339   1.630  1.00  0.00     0.116 C 
BRANCH   3   4
ATOM      4  N   UNL     1      -7.447   0.705   1.832  1.00  0.00    -0.356 N 
ATOM      5  C   UNL     1      -8.785   0.608   1.574  1.00  0.00     0.226 C 
ATOM      6  O   UNL     1      -9.573   1.031   2.421  1.00  0.00    -0.275 OA
ATOM      7  H   UNL     1      -7.120   1.563   2.188  1.00  0.00     0.163 HD
BRANCH   5   8
ATOM      8  C   UNL     1      -9.248  -0.129   0.344  1.00  0.00     0.122 C 
ATOM      9  C   UNL     1      -8.631  -0.003  -1.054  1.00  0.00     0.123 C 
ATOM     10  C   UNL     1      -9.844  -0.466  -1.886  1.00  0.00     0.132 C 
ATOM     11  C   UNL     1     -10.770  -0.036   0.030  1.00  0.00     0.132 C 
ATOM     12  C   UNL     1     -10.411  -1.837  -1.425  1.00  0.00     0.035 C 
ATOM     13  O   UNL     1     -10.815   0.451  -1.341  1.00  0.00    -0.373 OA
ATOM     14  C   UNL     1     -11.296  -1.442  -0.234  1.00  0.00     0.035 C 
BRANCH   9  15
ATOM     15  C   UNL     1      -7.946   1.140  -1.869  1.00  0.00     0.232 C 
ATOM     16  N   UNL     1      -7.861   2.486  -1.784  1.00  0.00    -0.302 N 
ATOM     17  H   UNL     1      -7.340   2.855  -2.533  1.00  0.00     0.172 HD
ATOM     18  O   UNL     1      -7.334   0.715  -2.878  1.00  0.00    -0.274 OA
BRANCH  16  19
ATOM     19  C   UNL     1      -8.293   3.480  -0.950  1.00  0.00     0.190 A 
ATOM     20  C   UNL     1      -8.507   5.482   0.039  1.00  0.00     0.086 A 
ATOM     21  N   UNL     1      -7.914   4.748  -1.013  1.00  0.00    -0.220 NA
ATOM     22  C   UNL     1      -9.397   4.729   0.795  1.00  0.00     0.031 A 
ATOM     23  S   UNL     1      -9.444   3.144   0.203  1.00  0.00    -0.101 S 
ATOM     24  C   UNL     1     -10.298   5.026   1.938  1.00  0.00     0.059 C 
BRANCH  20  25
ATOM     25  C   UNL     1      -8.239   6.906   0.319  1.00  0.00     0.001 A 
ATOM     26  C   UNL     1      -7.944  11.128   1.331  1.00  0.00     0.044 C 
ATOM     27  C   UNL     1      -8.013   9.671   0.973  1.00  0.00    -0.051 A 
ATOM     28  C   UNL     1      -8.010   9.241  -0.363  1.00  0.00     0.004 A 
ATOM     29  C   UNL     1      -8.073   8.707   1.977  1.00  0.00     0.004 A 
ATOM     30  C   UNL     1      -8.125   7.871  -0.689  1.00  0.00     0.010 A 
ATOM     31  C   UNL     1      -8.160   7.350   1.651  1.00  0.00     0.010 A 
ENDBRANCH  20  25
ENDBRANCH  16  19
ENDBRANCH   9  15
ENDBRANCH   5   8
ENDBRANCH   3   4
ENDBRANCH   2   3
ENDBRANCH   1   2
BRANCH   1  32
ATOM     32  C   UNL     1      -4.023   1.851   1.453  1.00  0.00     0.002 C 
BRANCH  32  33
ATOM     33  C   UNL     1      -3.288   0.958   2.450  1.00  0.00     0.021 C 
BRANCH  33  34
ATOM     34  C   UNL     1      -2.317  -0.044   1.839  1.00  0.00     0.116 C 
BRANCH  34  35
ATOM     35  N   UNL     1      -0.949   0.092   2.317  1.00  0.00    -0.352 N 
ATOM     36  C   UNL     1       0.189  -0.638   1.996  1.00  0.00     0.251 C 
ATOM     37  H   UNL     1      -0.808   0.815   2.971  1.00  0.00     0.163 HD
ATOM     38  O   UNL     1       1.252  -0.346   2.481  1.00  0.00    -0.269 OA
BRANCH  36  39
ATOM     39  C   UNL     1       0.106  -1.689   0.942  1.00  0.00     0.039 A 
ATOM     40  C   UNL     1       1.138  -1.729  -0.002  1.00  0.00     0.014 A 
ATOM     41  C   UNL     1      -1.024  -2.484   0.773  1.00  0.00     0.014 A 
ATOM     42  C   UNL     1       0.918  -2.352  -1.226  1.00  0.00     0.010 A 
ATOM     43  C   UNL     1      -1.285  -3.026  -0.468  1.00  0.00     0.010 A 
ATOM     44  C   UNL     1      -0.339  -2.895  -1.485  1.00  0.00    -0.014 A 
BRANCH  44  45
ATOM     45  C   UNL     1      -0.764  -3.284  -2.819  1.00  0.00     0.031 A 
ATOM     46  C   UNL     1      -0.590  -4.672  -3.260  1.00  0.00     0.074 A 
ATOM     47  C   UNL     1      -1.283  -2.356  -3.650  1.00  0.00     0.049 A 
ATOM     48  N   UNL     1      -0.345  -5.024  -4.476  1.00  0.00    -0.248 NA
ATOM     49  C   UNL     1      -0.617  -5.785  -2.321  1.00  0.00     0.031 C 
ATOM     50  C   UNL     1      -1.885  -2.562  -4.962  1.00  0.00     0.029 A 
ATOM     51  N   UNL     1      -1.128  -0.976  -3.547  1.00  0.00    -0.354 N 
ATOM     52  C   UNL     1      -0.480  -6.391  -4.534  1.00  0.00     0.074 A 
ATOM     53  C   UNL     1      -0.537  -6.824  -3.156  1.00  0.00     0.031 C 
ATOM     54  C   UNL     1      -1.816  -1.409  -5.649  1.00  0.00     0.029 A 
ATOM     55  C   UNL     1      -1.045  -0.468  -4.851  1.00  0.00     0.049 A 
ATOM     56  H   UNL     1      -1.085  -0.454  -2.713  1.00  0.00     0.167 HD
ATOM     57  C   UNL     1      -0.700  -6.991  -5.738  1.00  0.00     0.031 A 
ATOM     58  C   UNL     1       0.090   0.165  -5.270  1.00  0.00     0.031 A 
ATOM     59  C   UNL     1      -0.642  -6.028  -6.840  1.00  0.00     0.049 A 
ATOM     60  C   UNL     1       0.793  -0.547  -6.404  1.00  0.00     0.074 A 
ATOM     61  C   UNL     1      -1.625  -5.377  -7.568  1.00  0.00     0.029 A 
ATOM     62  N   UNL     1       0.550  -5.361  -7.108  1.00  0.00    -0.354 N 
ATOM     63  N   UNL     1       0.592  -1.794  -6.733  1.00  0.00    -0.248 NA
ATOM     64  C   UNL     1       1.808   0.092  -7.237  1.00  0.00     0.031 C 
ATOM     65  C   UNL     1      -1.029  -4.263  -8.216  1.00  0.00     0.029 A 
ATOM     66  C   UNL     1       0.321  -4.258  -7.910  1.00  0.00     0.049 A 
ATOM     67  H   UNL     1       1.433  -5.636  -6.772  1.00  0.00     0.167 HD
ATOM     68  C   UNL     1       1.411  -2.132  -7.780  1.00  0.00     0.074 A 
ATOM     69  C   UNL     1       2.141  -0.910  -8.069  1.00  0.00     0.031 C 
ATOM     70  C   UNL     1       1.423  -3.390  -8.314  1.00  0.00     0.031 A 
BRANCH  57  71
ATOM     71  C   UNL     1      -1.310  -8.371  -5.852  1.00  0.00    -0.014 A 
ATOM     72  C   UNL     1      -2.122  -8.685  -6.957  1.00  0.00     0.009 A 
ATOM     73  C   UNL     1      -1.194  -9.375  -4.876  1.00  0.00     0.009 A 
ATOM     74  C   UNL     1      -2.866  -9.872  -7.021  1.00  0.00     0.001 A 
ATOM     75  C   UNL     1      -1.968 -10.544  -4.908  1.00  0.00     0.001 A 
ATOM     76  C   UNL     1      -2.818 -10.786  -5.978  1.00  0.00     0.000 A 
ENDBRANCH  57  71
BRANCH  58  77
ATOM     77  C   UNL     1       0.779   0.931  -4.192  1.00  0.00    -0.014 A 
ATOM     78  C   UNL     1       0.117   2.045  -3.635  1.00  0.00     0.009 A 
ATOM     79  C   UNL     1       1.861   0.381  -3.492  1.00  0.00     0.009 A 
ATOM     80  C   UNL     1       0.451   2.517  -2.362  1.00  0.00     0.001 A 
ATOM     81  C   UNL     1       2.202   0.868  -2.223  1.00  0.00     0.001 A 
ATOM     82  C   UNL     1       1.475   1.907  -1.643  1.00  0.00     0.000 A 
ENDBRANCH  58  77
BRANCH  70  83
ATOM     83  C   UNL     1       2.413  -3.925  -9.328  1.00  0.00    -0.014 A 
ATOM     84  C   UNL     1       3.658  -3.350  -9.613  1.00  0.00     0.009 A 
ATOM     85  C   UNL     1       2.132  -5.154  -9.970  1.00  0.00     0.009 A 
ATOM     86  C   UNL     1       4.546  -3.937 -10.527  1.00  0.00     0.001 A 
ATOM     87  C   UNL     1       3.034  -5.770 -10.841  1.00  0.00     0.001 A 
ATOM     88  C   UNL     1       4.239  -5.151 -11.132  1.00  0.00     0.000 A 
ENDBRANCH  70  83
ENDBRANCH  44  45
ENDBRANCH  36  39
ENDBRANCH  34  35
ENDBRANCH  33  34
ENDBRANCH  32  33
ENDBRANCH   1  32
TORSDOF 16
