REMARK SMILES Cc1ccc(-c2nc(C)c(C(=O)N3CCC(C(=O)NCCCCCCNC(=O)c4ccc(-c5c6nc(c(-c7ccccc7)c7ccc([nH]7)c(-c7ccccc7)c7nc(c(-c8ccccc8)c8ccc5[nH]8)C=C7)C=C6)cc4)CC3)s2)o1
REMARK SMILES IDX 22 1 21 2 20 3 19 4 17 5 18 6 16 8 11 9 12 10 13 11 14 12
REMARK SMILES IDX 78 13 15 14 77 15 10 16 6 17 7 18 79 19 8 20 9 21 5 22 1 23
REMARK SMILES IDX 2 24 3 25 80 26 4 27 23 28 24 29 25 30 26 31 27 32 28 34
REMARK SMILES IDX 29 35 30 36 76 37 31 38 75 39 32 40 33 41 34 42 69 43 35 44
REMARK SMILES IDX 74 45 68 46 70 47 36 48 73 49 67 50 66 51 37 53 59 54 44 55
REMARK SMILES IDX 58 56 45 57 48 58 57 59 71 60 46 61 47 62 56 64 72 65 49 66
REMARK SMILES IDX 38 67 39 68 43 69 40 70 42 71 41 72 60 73 61 74 65 75 62 76
REMARK SMILES IDX 64 77 63 78 50 79 51 80 55 81 52 82 54 83 53 84
REMARK H PARENT 19 7 26 33 70 52 48 63
REMARK Flexibility Score: inf
ROOT
ATOM      1  C   UNL     1     -12.089   5.088   2.848  1.00  0.00     0.002 C 
ENDROOT
BRANCH   1   2
ATOM      2  C   UNL     1     -10.580   5.133   2.592  1.00  0.00     0.021 C 
BRANCH   2   3
ATOM      3  C   UNL     1     -10.185   4.803   1.155  1.00  0.00     0.116 C 
BRANCH   3   4
ATOM      4  N   UNL     1     -10.579   5.862   0.242  1.00  0.00    -0.356 N 
ATOM      5  C   UNL     1      -9.838   6.654  -0.578  1.00  0.00     0.223 C 
ATOM      6  O   UNL     1     -10.426   7.512  -1.240  1.00  0.00    -0.275 OA
ATOM      7  H   UNL     1     -11.548   6.036   0.212  1.00  0.00     0.163 HD
BRANCH   5   8
ATOM      8  C   UNL     1      -8.333   6.485  -0.702  1.00  0.00     0.082 C 
ATOM      9  C   UNL     1      -5.341   4.101   0.797  1.00  0.00     0.265 C 
ATOM     10  O   UNL     1      -5.643   4.013   1.989  1.00  0.00    -0.268 OA
ATOM     11  N   UNL     1      -5.934   5.091   0.016  1.00  0.00    -0.338 N 
ATOM     12  C   UNL     1      -6.146   6.411   0.586  1.00  0.00     0.120 C 
ATOM     13  C   UNL     1      -6.482   4.859  -1.312  1.00  0.00     0.120 C 
ATOM     14  C   UNL     1      -7.611   6.808   0.614  1.00  0.00     0.035 C 
ATOM     15  C   UNL     1      -7.981   5.125  -1.327  1.00  0.00     0.035 C 
BRANCH   9  16
ATOM     16  C   UNL     1      -4.296   3.290   0.184  1.00  0.00     0.115 A 
ATOM     17  C   UNL     1      -2.518   1.657  -0.135  1.00  0.00     0.159 A 
ATOM     18  N   UNL     1      -2.427   2.601  -1.042  1.00  0.00    -0.237 NA
ATOM     19  S   UNL     1      -3.869   1.778   0.907  1.00  0.00    -0.105 S 
ATOM     20  C   UNL     1      -3.417   3.552  -0.861  1.00  0.00     0.062 A 
ATOM     21  C   UNL     1      -3.336   4.737  -1.754  1.00  0.00     0.068 C 
BRANCH  17  22
ATOM     22  C   UNL     1      -1.506   0.647  -0.011  1.00  0.00     0.162 A 
ATOM     23  C   UNL     1       2.013  -0.050  -0.011  1.00  0.00     0.087 C 
ATOM     24  C   UNL     1       0.544  -0.192   0.041  1.00  0.00     0.101 A 
ATOM     25  C   UNL     1      -0.310  -1.257   0.210  1.00  0.00     0.046 A 
ATOM     26  O   UNL     1      -0.169   0.954  -0.107  1.00  0.00    -0.459 OA
ATOM     27  C   UNL     1      -1.623  -0.719   0.193  1.00  0.00     0.054 A 
ENDBRANCH  17  22
ENDBRANCH   9  16
ENDBRANCH   5   8
ENDBRANCH   3   4
ENDBRANCH   2   3
ENDBRANCH   1   2
BRANCH   1  28
ATOM     28  C   UNL     1     -12.768   3.762   2.489  1.00  0.00     0.002 C 
BRANCH  28  29
ATOM     29  C   UNL     1     -12.140   2.516   3.119  1.00  0.00     0.021 C 
BRANCH  29  30
ATOM     30  C   UNL     1     -12.048   2.543   4.642  1.00  0.00     0.116 C 
BRANCH  30  31
ATOM     31  N   UNL     1     -13.352   2.675   5.268  1.00  0.00    -0.352 N 
ATOM     32  C   UNL     1     -13.929   1.924   6.259  1.00  0.00     0.251 C 
ATOM     33  H   UNL     1     -13.905   3.416   4.929  1.00  0.00     0.163 HD
ATOM     34  O   UNL     1     -15.116   2.079   6.532  1.00  0.00    -0.269 OA
BRANCH  32  35
ATOM     35  C   UNL     1     -13.135   0.912   6.987  1.00  0.00     0.039 A 
ATOM     36  C   UNL     1     -13.719  -0.330   7.248  1.00  0.00     0.014 A 
ATOM     37  C   UNL     1     -11.838   1.185   7.434  1.00  0.00     0.014 A 
ATOM     38  C   UNL     1     -12.985  -1.316   7.908  1.00  0.00     0.010 A 
ATOM     39  C   UNL     1     -11.082   0.178   8.032  1.00  0.00     0.010 A 
ATOM     40  C   UNL     1     -11.649  -1.081   8.277  1.00  0.00    -0.014 A 
BRANCH  40  41
ATOM     41  C   UNL     1     -10.841  -2.160   8.896  1.00  0.00     0.031 A 
ATOM     42  C   UNL     1     -10.357  -2.045  10.314  1.00  0.00     0.074 A 
ATOM     43  C   UNL     1     -10.515  -3.240   8.160  1.00  0.00     0.049 A 
ATOM     44  N   UNL     1      -9.671  -2.907  11.022  1.00  0.00    -0.248 NA
ATOM     45  C   UNL     1     -10.665  -0.794  11.024  1.00  0.00     0.031 C 
ATOM     46  C   UNL     1     -10.873  -3.445   6.755  1.00  0.00     0.029 A 
ATOM     47  N   UNL     1      -9.813  -4.370   8.493  1.00  0.00    -0.354 N 
ATOM     48  C   UNL     1      -9.463  -2.303  12.256  1.00  0.00     0.074 A 
ATOM     49  C   UNL     1     -10.048  -0.981  12.181  1.00  0.00     0.031 C 
ATOM     50  C   UNL     1     -10.419  -4.643   6.357  1.00  0.00     0.029 A 
ATOM     51  C   UNL     1      -9.714  -5.277   7.467  1.00  0.00     0.049 A 
ATOM     52  H   UNL     1      -9.417  -4.516   9.383  1.00  0.00     0.167 HD
ATOM     53  C   UNL     1      -8.861  -2.809  13.358  1.00  0.00     0.031 A 
ATOM     54  C   UNL     1      -9.128  -6.487   7.424  1.00  0.00     0.031 A 
ATOM     55  C   UNL     1      -8.272  -4.120  13.432  1.00  0.00     0.049 A 
ATOM     56  C   UNL     1      -8.469  -7.029   8.659  1.00  0.00     0.074 A 
ATOM     57  C   UNL     1      -7.680  -4.742  14.518  1.00  0.00     0.029 A 
ATOM     58  N   UNL     1      -8.194  -5.011  12.372  1.00  0.00    -0.354 N 
ATOM     59  N   UNL     1      -8.350  -6.476   9.842  1.00  0.00    -0.248 NA
ATOM     60  C   UNL     1      -7.879  -8.370   8.556  1.00  0.00     0.031 C 
ATOM     61  C   UNL     1      -7.201  -5.990  14.101  1.00  0.00     0.029 A 
ATOM     62  C   UNL     1      -7.543  -6.167  12.771  1.00  0.00     0.049 A 
ATOM     63  H   UNL     1      -8.549  -4.845  11.469  1.00  0.00     0.167 HD
ATOM     64  C   UNL     1      -7.685  -7.406  10.629  1.00  0.00     0.074 A 
ATOM     65  C   UNL     1      -7.453  -8.569   9.796  1.00  0.00     0.031 C 
ATOM     66  C   UNL     1      -7.298  -7.306  11.924  1.00  0.00     0.031 A 
BRANCH  53  67
ATOM     67  C   UNL     1      -8.807  -1.928  14.577  1.00  0.00    -0.014 A 
ATOM     68  C   UNL     1      -9.969  -1.625  15.305  1.00  0.00     0.009 A 
ATOM     69  C   UNL     1      -7.578  -1.413  15.017  1.00  0.00     0.009 A 
ATOM     70  C   UNL     1      -9.908  -0.791  16.423  1.00  0.00     0.001 A 
ATOM     71  C   UNL     1      -7.516  -0.603  16.153  1.00  0.00     0.001 A 
ATOM     72  C   UNL     1      -8.681  -0.284  16.849  1.00  0.00     0.000 A 
ENDBRANCH  53  67
BRANCH  54  73
ATOM     73  C   UNL     1      -9.163  -7.279   6.168  1.00  0.00    -0.014 A 
ATOM     74  C   UNL     1      -9.974  -8.419   6.065  1.00  0.00     0.009 A 
ATOM     75  C   UNL     1      -8.395  -6.889   5.060  1.00  0.00     0.009 A 
ATOM     76  C   UNL     1      -9.997  -9.166   4.886  1.00  0.00     0.001 A 
ATOM     77  C   UNL     1      -8.441  -7.622   3.873  1.00  0.00     0.001 A 
ATOM     78  C   UNL     1      -9.236  -8.764   3.789  1.00  0.00     0.000 A 
ENDBRANCH  54  73
BRANCH  66  79
ATOM     79  C   UNL     1      -6.592  -8.494  12.514  1.00  0.00    -0.014 A 
ATOM     80  C   UNL     1      -5.281  -8.823  12.133  1.00  0.00     0.009 A 
ATOM     81  C   UNL     1      -7.242  -9.289  13.470  1.00  0.00     0.009 A 
ATOM     82  C   UNL     1      -4.653  -9.951  12.665  1.00  0.00     0.001 A 
ATOM     83  C   UNL     1      -6.600 -10.399  14.023  1.00  0.00     0.001 A 
ATOM     84  C   UNL     1      -5.311 -10.735  13.611  1.00  0.00     0.000 A 
ENDBRANCH  66  79
ENDBRANCH  40  41
ENDBRANCH  32  35
ENDBRANCH  30  31
ENDBRANCH  29  30
ENDBRANCH  28  29
ENDBRANCH   1  28
TORSDOF 15
