REMARK SMILES COc1ccc(C)cc1[C@@H](C)NC(=O)CC1(C(=O)NCCCCCCNC(=O)c2ccc(-c3c4nc(c(-c5ccccc5)c5ccc([nH]5)c(-c5ccccc5)c5nc(c(-c6ccccc6)c6ccc3[nH]6)C=C5)C=C4)cc2)CCCC1
REMARK SMILES IDX 21 1 20 2 19 3 17 4 18 5 16 7 77 8 80 9 78 10 79 11 15 12
REMARK SMILES IDX 13 13 12 14 14 16 10 17 11 18 9 19 3 20 4 21 5 22 8 23 6 24
REMARK SMILES IDX 7 25 2 26 1 27 22 28 23 29 24 30 25 31 26 32 27 33 28 35
REMARK SMILES IDX 29 36 30 37 76 38 31 39 75 40 32 41 33 42 34 43 69 44 35 45
REMARK SMILES IDX 74 46 68 47 70 48 36 49 73 50 67 51 66 52 37 54 59 55 44 56
REMARK SMILES IDX 58 57 45 58 48 59 57 60 71 61 46 62 47 63 56 65 72 66 49 67
REMARK SMILES IDX 38 68 39 69 43 70 40 71 42 72 41 73 60 74 61 75 65 76 62 77
REMARK SMILES IDX 64 78 63 79 50 80 51 81 55 82 52 83 54 84 53 85
REMARK H PARENT 19 6 12 15 26 34 70 53 48 64
REMARK Flexibility Score: inf
ROOT
ATOM      1  C   UNL     1       3.364   3.236   1.235  1.00  0.00     0.021 C 
ENDROOT
BRANCH   1   2
ATOM      2  C   UNL     1       2.174   2.281   1.359  1.00  0.00     0.116 C 
BRANCH   2   3
ATOM      3  N   UNL     1       1.340   2.635   2.479  1.00  0.00    -0.356 N 
ATOM      4  C   UNL     1       0.055   3.012   2.624  1.00  0.00     0.226 C 
ATOM      5  O   UNL     1      -0.174   3.547   3.717  1.00  0.00    -0.274 OA
ATOM      6  H   UNL     1       1.821   2.591   3.338  1.00  0.00     0.163 HD
BRANCH   4   7
ATOM      7  C   UNL     1      -1.069   2.928   1.561  1.00  0.00     0.058 C 
ATOM      8  C   UNL     1      -0.951   1.923   0.398  1.00  0.00     0.017 C 
ATOM      9  C   UNL     1      -1.128   4.283   0.810  1.00  0.00     0.017 C 
ATOM     10  C   UNL     1      -0.553   2.667  -0.875  1.00  0.00     0.001 C 
ATOM     11  C   UNL     1      -0.315   4.104  -0.464  1.00  0.00     0.001 C 
BRANCH   7  12
ATOM     12  C   UNL     1      -2.417   2.665   2.324  1.00  0.00     0.117 C 
BRANCH  12  13
ATOM     13  C   UNL     1      -2.400   2.025   3.714  1.00  0.00     0.221 C 
ATOM     14  N   UNL     1      -1.854   0.810   3.972  1.00  0.00    -0.349 N 
ATOM     15  H   UNL     1      -1.668   0.651   4.926  1.00  0.00     0.164 HD
ATOM     16  O   UNL     1      -2.958   2.592   4.660  1.00  0.00    -0.275 OA
BRANCH  14  17
ATOM     17  C   UNL     1      -1.491  -0.307   3.104  1.00  0.00     0.113 C 
ATOM     18  C   UNL     1      -2.555  -1.403   3.225  1.00  0.00     0.036 C 
BRANCH  17  19
ATOM     19  C   UNL     1      -0.112  -0.872   3.442  1.00  0.00     0.016 A 
ATOM     20  C   UNL     1       0.846  -1.126   2.438  1.00  0.00     0.124 A 
ATOM     21  C   UNL     1       2.120  -1.591   2.783  1.00  0.00     0.047 A 
ATOM     22  C   UNL     1       2.427  -1.904   4.106  1.00  0.00     0.007 A 
ATOM     23  C   UNL     1       0.211  -1.224   4.770  1.00  0.00     0.013 A 
ATOM     24  C   UNL     1       1.465  -1.757   5.104  1.00  0.00    -0.051 A 
ATOM     25  C   UNL     1       1.740  -2.225   6.503  1.00  0.00     0.044 C 
BRANCH  20  26
ATOM     26  O   UNL     1       0.445  -0.916   1.148  1.00  0.00    -0.496 OA
ATOM     27  C   UNL     1       1.300  -1.342   0.096  1.00  0.00     0.278 C 
ENDBRANCH  20  26
ENDBRANCH  17  19
ENDBRANCH  14  17
ENDBRANCH  12  13
ENDBRANCH   7  12
ENDBRANCH   4   7
ENDBRANCH   2   3
ENDBRANCH   1   2
BRANCH   1  28
ATOM     28  C   UNL     1       4.454   3.081   2.306  1.00  0.00     0.002 C 
BRANCH  28  29
ATOM     29  C   UNL     1       5.032   1.672   2.517  1.00  0.00     0.002 C 
BRANCH  29  30
ATOM     30  C   UNL     1       5.368   0.870   1.258  1.00  0.00     0.021 C 
BRANCH  30  31
ATOM     31  C   UNL     1       6.475   1.471   0.403  1.00  0.00     0.116 C 
BRANCH  31  32
ATOM     32  N   UNL     1       7.754   0.779   0.510  1.00  0.00    -0.352 N 
ATOM     33  C   UNL     1       8.973   1.117  -0.067  1.00  0.00     0.251 C 
ATOM     34  H   UNL     1       7.754  -0.035   1.064  1.00  0.00     0.163 HD
ATOM     35  O   UNL     1       9.966   0.461   0.136  1.00  0.00    -0.269 OA
BRANCH  33  36
ATOM     36  C   UNL     1       9.046   2.386  -0.836  1.00  0.00     0.039 A 
ATOM     37  C   UNL     1       9.983   3.334  -0.419  1.00  0.00     0.014 A 
ATOM     38  C   UNL     1       8.050   2.720  -1.751  1.00  0.00     0.014 A 
ATOM     39  C   UNL     1       9.761   4.675  -0.714  1.00  0.00     0.010 A 
ATOM     40  C   UNL     1       7.777   4.056  -1.972  1.00  0.00     0.010 A 
ATOM     41  C   UNL     1       8.591   5.032  -1.387  1.00  0.00    -0.014 A 
BRANCH  41  42
ATOM     42  C   UNL     1       8.087   6.399  -1.390  1.00  0.00     0.031 A 
ATOM     43  C   UNL     1       8.268   7.260  -2.570  1.00  0.00     0.074 A 
ATOM     44  C   UNL     1       7.484   6.895  -0.287  1.00  0.00     0.049 A 
ATOM     45  N   UNL     1       8.421   8.541  -2.516  1.00  0.00    -0.248 NA
ATOM     46  C   UNL     1       8.348   6.719  -3.920  1.00  0.00     0.031 C 
ATOM     47  C   UNL     1       6.784   8.168  -0.148  1.00  0.00     0.029 A 
ATOM     48  N   UNL     1       7.603   6.422   1.016  1.00  0.00    -0.354 N 
ATOM     49  C   UNL     1       8.321   9.017  -3.801  1.00  0.00     0.074 A 
ATOM     50  C   UNL     1       8.377   7.842  -4.643  1.00  0.00     0.031 C 
ATOM     51  C   UNL     1       6.753   8.503   1.153  1.00  0.00     0.029 A 
ATOM     52  C   UNL     1       7.541   7.522   1.882  1.00  0.00     0.049 A 
ATOM     53  H   UNL     1       7.713   5.481   1.282  1.00  0.00     0.167 HD
ATOM     54  C   UNL     1       8.040  10.334  -4.014  1.00  0.00     0.031 A 
ATOM     55  C   UNL     1       8.585   7.817   2.709  1.00  0.00     0.031 A 
ATOM     56  C   UNL     1       7.977  11.089  -2.763  1.00  0.00     0.049 A 
ATOM     57  C   UNL     1       9.235   9.152   2.413  1.00  0.00     0.074 A 
ATOM     58  C   UNL     1       6.918  11.532  -1.985  1.00  0.00     0.029 A 
ATOM     59  N   UNL     1       9.120  11.228  -1.983  1.00  0.00    -0.354 N 
ATOM     60  N   UNL     1       9.051   9.827   1.312  1.00  0.00    -0.248 NA
ATOM     61  C   UNL     1      10.175   9.812   3.317  1.00  0.00     0.031 C 
ATOM     62  C   UNL     1       7.423  11.865  -0.703  1.00  0.00     0.029 A 
ATOM     63  C   UNL     1       8.790  11.655  -0.711  1.00  0.00     0.049 A 
ATOM     64  H   UNL     1      10.037  11.047  -2.294  1.00  0.00     0.167 HD
ATOM     65  C   UNL     1       9.812  10.966   1.337  1.00  0.00     0.074 A 
ATOM     66  C   UNL     1      10.489  10.919   2.620  1.00  0.00     0.031 C 
ATOM     67  C   UNL     1       9.825  11.850   0.296  1.00  0.00     0.031 A 
BRANCH  54  68
ATOM     68  C   UNL     1       7.496  10.845  -5.329  1.00  0.00    -0.014 A 
ATOM     69  C   UNL     1       6.612  11.941  -5.339  1.00  0.00     0.009 A 
ATOM     70  C   UNL     1       7.753  10.255  -6.577  1.00  0.00     0.009 A 
ATOM     71  C   UNL     1       5.934  12.340  -6.499  1.00  0.00     0.001 A 
ATOM     72  C   UNL     1       7.047  10.618  -7.734  1.00  0.00     0.001 A 
ATOM     73  C   UNL     1       6.125  11.653  -7.691  1.00  0.00     0.000 A 
ENDBRANCH  54  68
BRANCH  55  74
ATOM     74  C   UNL     1       9.300   6.616   3.222  1.00  0.00    -0.014 A 
ATOM     75  C   UNL     1       8.606   5.752   4.094  1.00  0.00     0.009 A 
ATOM     76  C   UNL     1      10.470   6.147   2.609  1.00  0.00     0.009 A 
ATOM     77  C   UNL     1       9.006   4.423   4.258  1.00  0.00     0.001 A 
ATOM     78  C   UNL     1      10.874   4.817   2.787  1.00  0.00     0.001 A 
ATOM     79  C   UNL     1      10.125   3.948   3.580  1.00  0.00     0.000 A 
ENDBRANCH  55  74
BRANCH  67  80
ATOM     80  C   UNL     1      10.748  13.034   0.148  1.00  0.00    -0.014 A 
ATOM     81  C   UNL     1      12.008  13.135   0.750  1.00  0.00     0.009 A 
ATOM     82  C   UNL     1      10.392  14.063  -0.754  1.00  0.00     0.009 A 
ATOM     83  C   UNL     1      12.848  14.231   0.501  1.00  0.00     0.001 A 
ATOM     84  C   UNL     1      11.243  15.133  -1.038  1.00  0.00     0.001 A 
ATOM     85  C   UNL     1      12.470  15.223  -0.399  1.00  0.00     0.000 A 
ENDBRANCH  67  80
ENDBRANCH  41  42
ENDBRANCH  33  36
ENDBRANCH  31  32
ENDBRANCH  30  31
ENDBRANCH  29  30
ENDBRANCH  28  29
ENDBRANCH   1  28
TORSDOF 18
