REMARK SMILES COc1ccc(C[N@@H+]2C[C@@H](C(=O)NCCCCCCNC(=O)c3ccc(-c4c5nc(c(-c6ccccc6)c6ccc([nH]6)c(-c6ccccc6)c6nc(c(-c7ccccc7)c7ccc4[nH]7)C=C6)C=C5)cc3)[C@H](c3ccccc3OC)C2)c(OC)c1
REMARK SMILES IDX 16 1 15 2 14 3 13 4 11 5 12 6 10 8 8 9 9 10 80 11 71 13 7 14
REMARK SMILES IDX 6 15 3 16 4 17 84 18 5 19 81 20 2 21 1 22 82 23 83 24 72 25
REMARK SMILES IDX 73 26 77 27 74 28 76 29 75 30 78 31 79 32 17 33 18 34 19 35
REMARK SMILES IDX 20 36 21 37 22 39 23 40 24 41 70 42 25 43 69 44 26 45 27 46
REMARK SMILES IDX 28 47 63 48 29 49 68 50 62 51 64 52 30 53 67 54 61 55 60 56
REMARK SMILES IDX 31 58 53 59 38 60 52 61 39 62 42 63 51 64 65 65 40 66 41 67
REMARK SMILES IDX 50 69 66 70 43 71 32 72 33 73 37 74 34 75 36 76 35 77 54 78
REMARK SMILES IDX 55 79 59 80 56 81 58 82 57 83 44 84 45 85 49 86 46 87 48 88
REMARK SMILES IDX 47 89
REMARK H PARENT 13 7 8 12 20 38 64 57 42 68
REMARK Flexibility Score: inf
ROOT
ATOM      1  C   UNL     1      -1.973   1.745  10.663  1.00  0.00     0.002 C 
ENDROOT
BRANCH   1   2
ATOM      2  C   UNL     1      -0.513   1.433  10.306  1.00  0.00     0.021 C 
BRANCH   2   3
ATOM      3  C   UNL     1      -0.310   0.139   9.517  1.00  0.00     0.116 C 
BRANCH   3   4
ATOM      4  N   UNL     1      -1.161   0.101   8.348  1.00  0.00    -0.356 N 
ATOM      5  C   UNL     1      -0.922  -0.128   7.036  1.00  0.00     0.229 C 
ATOM      6  O   UNL     1      -1.917  -0.117   6.302  1.00  0.00    -0.275 OA
ATOM      7  H   UNL     1      -2.109   0.278   8.547  1.00  0.00     0.163 HD
BRANCH   5   8
ATOM      8  C   UNL     1       0.421  -0.537   6.481  1.00  0.00     0.146 C 
ATOM      9  N   UNL     1       2.034  -2.273   6.780  1.00  0.00    -0.330 N 
ATOM     10  C   UNL     1       0.645  -1.950   7.033  1.00  0.00     0.276 C 
ATOM     11  C   UNL     1       2.745  -0.995   6.923  1.00  0.00     0.272 C 
ATOM     12  H   UNL     1       2.408  -2.947   7.447  1.00  0.00     0.348 HD
ATOM     13  C   UNL     1       1.754   0.213   6.685  1.00  0.00     0.096 C 
BRANCH   9  14
ATOM     14  C   UNL     1       2.269  -3.048   5.540  1.00  0.00     0.303 C 
BRANCH  14  15
ATOM     15  C   UNL     1       1.833  -2.440   4.218  1.00  0.00     0.048 A 
ATOM     16  C   UNL     1       0.911  -0.923   2.040  1.00  0.00     0.122 A 
ATOM     17  C   UNL     1       0.010  -1.640   2.817  1.00  0.00     0.047 A 
ATOM     18  C   UNL     1       2.281  -1.042   2.281  1.00  0.00     0.093 A 
ATOM     19  C   UNL     1       0.470  -2.433   3.866  1.00  0.00     0.017 A 
ATOM     20  C   UNL     1       2.747  -1.817   3.354  1.00  0.00     0.131 A 
BRANCH  16  21
ATOM     21  O   UNL     1       0.351  -0.058   1.142  1.00  0.00    -0.497 OA
ATOM     22  C   UNL     1       0.995  -0.005  -0.123  1.00  0.00     0.278 C 
ENDBRANCH  16  21
BRANCH  20  23
ATOM     23  O   UNL     1       4.075  -1.959   3.672  1.00  0.00    -0.496 OA
ATOM     24  C   UNL     1       5.000  -1.779   2.607  1.00  0.00     0.278 C 
ENDBRANCH  20  23
ENDBRANCH  14  15
ENDBRANCH   9  14
BRANCH  13  25
ATOM     25  C   UNL     1       2.172   1.259   5.616  1.00  0.00     0.004 A 
ATOM     26  C   UNL     1       3.408   1.101   4.937  1.00  0.00     0.008 A 
ATOM     27  C   UNL     1       1.442   2.414   5.248  1.00  0.00     0.122 A 
ATOM     28  C   UNL     1       3.869   1.960   3.930  1.00  0.00     0.001 A 
ATOM     29  C   UNL     1       1.925   3.287   4.240  1.00  0.00     0.047 A 
ATOM     30  C   UNL     1       3.123   3.061   3.576  1.00  0.00     0.004 A 
BRANCH  27  31
ATOM     31  O   UNL     1       0.186   2.788   5.631  1.00  0.00    -0.496 OA
ATOM     32  C   UNL     1      -0.121   2.895   7.003  1.00  0.00     0.278 C 
ENDBRANCH  27  31
ENDBRANCH  13  25
ENDBRANCH   5   8
ENDBRANCH   3   4
ENDBRANCH   2   3
ENDBRANCH   1   2
BRANCH   1  33
ATOM     33  C   UNL     1      -2.702   0.634  11.422  1.00  0.00     0.002 C 
BRANCH  33  34
ATOM     34  C   UNL     1      -1.988   0.151  12.684  1.00  0.00     0.021 C 
BRANCH  34  35
ATOM     35  C   UNL     1      -1.632   1.258  13.668  1.00  0.00     0.116 C 
BRANCH  35  36
ATOM     36  N   UNL     1      -2.812   1.923  14.195  1.00  0.00    -0.352 N 
ATOM     37  C   UNL     1      -3.157   2.142  15.501  1.00  0.00     0.251 C 
ATOM     38  H   UNL     1      -3.448   2.260  13.523  1.00  0.00     0.163 HD
ATOM     39  O   UNL     1      -4.285   2.548  15.788  1.00  0.00    -0.269 OA
BRANCH  37  40
ATOM     40  C   UNL     1      -2.179   1.866  16.571  1.00  0.00     0.039 A 
ATOM     41  C   UNL     1      -2.595   1.159  17.700  1.00  0.00     0.014 A 
ATOM     42  C   UNL     1      -0.852   2.293  16.454  1.00  0.00     0.014 A 
ATOM     43  C   UNL     1      -1.667   0.836  18.690  1.00  0.00     0.010 A 
ATOM     44  C   UNL     1       0.087   1.900  17.402  1.00  0.00     0.010 A 
ATOM     45  C   UNL     1      -0.313   1.176  18.535  1.00  0.00    -0.014 A 
BRANCH  45  46
ATOM     46  C   UNL     1       0.692   0.783  19.553  1.00  0.00     0.031 A 
ATOM     47  C   UNL     1       1.431   1.834  20.336  1.00  0.00     0.074 A 
ATOM     48  C   UNL     1       0.969  -0.521  19.745  1.00  0.00     0.049 A 
ATOM     49  N   UNL     1       2.350   1.682  21.256  1.00  0.00    -0.248 NA
ATOM     50  C   UNL     1       1.113   3.238  20.031  1.00  0.00     0.031 C 
ATOM     51  C   UNL     1       0.351  -1.635  19.021  1.00  0.00     0.029 A 
ATOM     52  N   UNL     1       1.841  -1.131  20.611  1.00  0.00    -0.354 N 
ATOM     53  C   UNL     1       2.725   2.966  21.630  1.00  0.00     0.074 A 
ATOM     54  C   UNL     1       1.978   3.884  20.798  1.00  0.00     0.031 C 
ATOM     55  C   UNL     1       0.837  -2.792  19.499  1.00  0.00     0.029 A 
ATOM     56  C   UNL     1       1.828  -2.503  20.530  1.00  0.00     0.049 A 
ATOM     57  H   UNL     1       2.422  -0.633  21.231  1.00  0.00     0.167 HD
ATOM     58  C   UNL     1       3.597   3.350  22.593  1.00  0.00     0.031 A 
ATOM     59  C   UNL     1       2.535  -3.425  21.209  1.00  0.00     0.031 A 
ATOM     60  C   UNL     1       4.338   2.437  23.422  1.00  0.00     0.049 A 
ATOM     61  C   UNL     1       3.513  -2.973  22.258  1.00  0.00     0.074 A 
ATOM     62  C   UNL     1       5.207   2.726  24.459  1.00  0.00     0.029 A 
ATOM     63  N   UNL     1       4.302   1.056  23.303  1.00  0.00    -0.354 N 
ATOM     64  N   UNL     1       3.802  -1.755  22.649  1.00  0.00    -0.248 NA
ATOM     65  C   UNL     1       4.251  -4.026  22.968  1.00  0.00     0.031 C 
ATOM     66  C   UNL     1       5.742   1.522  24.930  1.00  0.00     0.029 A 
ATOM     67  C   UNL     1       5.155   0.480  24.230  1.00  0.00     0.049 A 
ATOM     68  H   UNL     1       3.751   0.558  22.656  1.00  0.00     0.167 HD
ATOM     69  C   UNL     1       4.734  -1.897  23.669  1.00  0.00     0.074 A 
ATOM     70  C   UNL     1       4.945  -3.319  23.849  1.00  0.00     0.031 C 
ATOM     71  C   UNL     1       5.359  -0.936  24.393  1.00  0.00     0.031 A 
BRANCH  58  72
ATOM     72  C   UNL     1       3.800   4.827  22.795  1.00  0.00    -0.014 A 
ATOM     73  C   UNL     1       2.784   5.636  23.329  1.00  0.00     0.009 A 
ATOM     74  C   UNL     1       5.036   5.412  22.479  1.00  0.00     0.009 A 
ATOM     75  C   UNL     1       2.990   7.006  23.506  1.00  0.00     0.001 A 
ATOM     76  C   UNL     1       5.250   6.776  22.687  1.00  0.00     0.001 A 
ATOM     77  C   UNL     1       4.223   7.574  23.190  1.00  0.00     0.000 A 
ENDBRANCH  58  72
BRANCH  59  78
ATOM     78  C   UNL     1       2.334  -4.872  20.932  1.00  0.00    -0.014 A 
ATOM     79  C   UNL     1       1.726  -5.703  21.886  1.00  0.00     0.009 A 
ATOM     80  C   UNL     1       2.760  -5.432  19.718  1.00  0.00     0.009 A 
ATOM     81  C   UNL     1       1.576  -7.070  21.641  1.00  0.00     0.001 A 
ATOM     82  C   UNL     1       2.579  -6.793  19.462  1.00  0.00     0.001 A 
ATOM     83  C   UNL     1       1.998  -7.613  20.428  1.00  0.00     0.000 A 
ENDBRANCH  59  78
BRANCH  71  84
ATOM     84  C   UNL     1       6.304  -1.394  25.470  1.00  0.00    -0.014 A 
ATOM     85  C   UNL     1       7.538  -1.985  25.158  1.00  0.00     0.009 A 
ATOM     86  C   UNL     1       5.963  -1.203  26.818  1.00  0.00     0.009 A 
ATOM     87  C   UNL     1       8.394  -2.411  26.176  1.00  0.00     0.001 A 
ATOM     88  C   UNL     1       6.835  -1.600  27.833  1.00  0.00     0.001 A 
ATOM     89  C   UNL     1       8.044  -2.214  27.511  1.00  0.00     0.000 A 
ENDBRANCH  71  84
ENDBRANCH  45  46
ENDBRANCH  37  40
ENDBRANCH  35  36
ENDBRANCH  34  35
ENDBRANCH  33  34
ENDBRANCH   1  33
TORSDOF 19
