REMARK SMILES COc1cc2c(cc1OC)C1=C(C#N)C[N@@H+](CC(=O)NCCCCCCNC(=O)c3ccc(-c4c5nc(c(-c6ccccc6)c6ccc([nH]6)c(-c6ccccc6)c6nc(c(-c7ccccc7)c7ccc4[nH]7)C=C6)C=C5)cc3)CN1CC2
REMARK SMILES IDX 23 1 22 2 21 3 20 4 18 5 19 6 17 8 16 9 3 10 4 11 8 12 5 13
REMARK SMILES IDX 7 14 6 15 81 16 11 17 80 18 12 19 79 20 15 21 78 22 2 24
REMARK SMILES IDX 1 25 9 26 10 27 13 28 14 29 24 30 25 31 26 32 27 33 28 34
REMARK SMILES IDX 29 36 30 37 31 38 77 39 32 40 76 41 33 42 34 43 35 44 70 45
REMARK SMILES IDX 36 46 75 47 69 48 71 49 37 50 74 51 68 52 67 53 38 55 60 56
REMARK SMILES IDX 45 57 59 58 46 59 49 60 58 61 72 62 47 63 48 64 57 66 73 67
REMARK SMILES IDX 50 68 39 69 40 70 44 71 41 72 43 73 42 74 61 75 62 76 66 77
REMARK SMILES IDX 63 78 65 79 64 80 51 81 52 82 56 83 53 84 55 85 54 86
REMARK H PARENT 20 7 16 23 27 35 71 54 49 65
REMARK Flexibility Score: inf
ROOT
ATOM      1  C   UNL     1      -0.149  -0.545   7.233  1.00  0.00     0.002 C 
ENDROOT
BRANCH   1   2
ATOM      2  C   UNL     1       0.407   0.798   7.700  1.00  0.00     0.021 C 
BRANCH   2   3
ATOM      3  C   UNL     1       1.201   0.824   9.002  1.00  0.00     0.116 C 
BRANCH   3   4
ATOM      4  N   UNL     1       2.624   0.793   8.715  1.00  0.00    -0.351 N 
ATOM      5  C   UNL     1       3.522   1.815   8.582  1.00  0.00     0.275 C 
ATOM      6  O   UNL     1       4.631   1.543   8.110  1.00  0.00    -0.269 OA
ATOM      7  H   UNL     1       3.003  -0.108   8.597  1.00  0.00     0.163 HD
BRANCH   5   8
ATOM      8  C   UNL     1       3.209   3.222   9.097  1.00  0.00     0.365 C 
BRANCH   8   9
ATOM      9  N   UNL     1       2.895   4.246   8.092  1.00  0.00    -0.306 N 
ATOM     10  C   UNL     1       0.997   1.756   1.520  1.00  0.00     0.161 A 
ATOM     11  C   UNL     1       2.254   1.572   2.111  1.00  0.00     0.055 A 
ATOM     12  C   UNL     1       0.059   2.559   2.170  1.00  0.00     0.161 A 
ATOM     13  C   UNL     1       2.563   2.142   3.364  1.00  0.00    -0.033 A 
ATOM     14  C   UNL     1       0.390   3.135   3.411  1.00  0.00     0.061 A 
ATOM     15  C   UNL     1       1.600   2.879   4.078  1.00  0.00     0.006 A 
ATOM     16  C   UNL     1       3.954   2.007   3.937  1.00  0.00     0.058 C 
ATOM     17  C   UNL     1       1.952   3.419   5.446  1.00  0.00     0.068 C 
ATOM     18  C   UNL     1       4.333   3.286   4.693  1.00  0.00     0.127 C 
ATOM     19  C   UNL     1       1.068   3.703   6.435  1.00  0.00     0.108 C 
ATOM     20  N   UNL     1       3.317   3.586   5.703  1.00  0.00    -0.323 N 
ATOM     21  C   UNL     1       1.488   4.348   7.723  1.00  0.00     0.314 C 
ATOM     22  C   UNL     1       3.761   4.269   6.915  1.00  0.00     0.390 C 
ATOM     23  H   UNL     1       3.114   5.095   8.613  1.00  0.00     0.350 HD
BRANCH  10  24
ATOM     24  O   UNL     1       0.727   1.289   0.261  1.00  0.00    -0.493 OA
ATOM     25  C   UNL     1       1.117  -0.061   0.029  1.00  0.00     0.278 C 
ENDBRANCH  10  24
BRANCH  12  26
ATOM     26  O   UNL     1      -1.197   2.908   1.744  1.00  0.00    -0.493 OA
ATOM     27  C   UNL     1      -1.823   2.094   0.761  1.00  0.00     0.278 C 
ENDBRANCH  12  26
BRANCH  19  28
ATOM     28  C   UNL     1      -0.413   3.432   6.226  1.00  0.00     0.103 C 
ATOM     29  N   UNL     1      -1.641   3.208   6.053  1.00  0.00    -0.192 NA
ENDBRANCH  19  28
ENDBRANCH   8   9
ENDBRANCH   5   8
ENDBRANCH   3   4
ENDBRANCH   2   3
ENDBRANCH   1   2
BRANCH   1  30
ATOM     30  C   UNL     1      -1.534  -0.899   7.789  1.00  0.00     0.002 C 
BRANCH  30  31
ATOM     31  C   UNL     1      -2.667   0.103   7.517  1.00  0.00     0.021 C 
BRANCH  31  32
ATOM     32  C   UNL     1      -2.931   0.440   6.049  1.00  0.00     0.116 C 
BRANCH  32  33
ATOM     33  N   UNL     1      -3.582  -0.633   5.317  1.00  0.00    -0.352 N 
ATOM     34  C   UNL     1      -4.861  -0.723   4.825  1.00  0.00     0.251 C 
ATOM     35  H   UNL     1      -3.016  -1.420   5.147  1.00  0.00     0.163 HD
ATOM     36  O   UNL     1      -5.243  -1.777   4.317  1.00  0.00    -0.269 OA
BRANCH  34  37
ATOM     37  C   UNL     1      -5.810   0.410   4.936  1.00  0.00     0.039 A 
ATOM     38  C   UNL     1      -5.456   1.713   4.577  1.00  0.00     0.014 A 
ATOM     39  C   UNL     1      -7.110   0.147   5.383  1.00  0.00     0.014 A 
ATOM     40  C   UNL     1      -6.345   2.765   4.808  1.00  0.00     0.010 A 
ATOM     41  C   UNL     1      -8.024   1.194   5.544  1.00  0.00     0.010 A 
ATOM     42  C   UNL     1      -7.637   2.521   5.301  1.00  0.00    -0.014 A 
BRANCH  42  43
ATOM     43  C   UNL     1      -8.573   3.651   5.557  1.00  0.00     0.031 A 
ATOM     44  C   UNL     1      -9.039   3.966   6.955  1.00  0.00     0.074 A 
ATOM     45  C   UNL     1      -8.995   4.415   4.530  1.00  0.00     0.049 A 
ATOM     46  N   UNL     1      -9.849   4.913   7.361  1.00  0.00    -0.248 NA
ATOM     47  C   UNL     1      -8.535   3.107   8.040  1.00  0.00     0.031 C 
ATOM     48  C   UNL     1      -8.611   4.228   3.131  1.00  0.00     0.029 A 
ATOM     49  N   UNL     1      -9.822   5.512   4.505  1.00  0.00    -0.354 N 
ATOM     50  C   UNL     1      -9.959   4.758   8.738  1.00  0.00     0.074 A 
ATOM     51  C   UNL     1      -9.165   3.603   9.097  1.00  0.00     0.031 C 
ATOM     52  C   UNL     1      -9.161   5.203   2.392  1.00  0.00     0.029 A 
ATOM     53  C   UNL     1      -9.987   6.048   3.251  1.00  0.00     0.049 A 
ATOM     54  H   UNL     1     -10.255   5.879   5.309  1.00  0.00     0.167 HD
ATOM     55  C   UNL     1     -10.645   5.518   9.625  1.00  0.00     0.031 A 
ATOM     56  C   UNL     1     -10.724   7.094   2.827  1.00  0.00     0.031 A 
ATOM     57  C   UNL     1     -11.428   6.674   9.270  1.00  0.00     0.049 A 
ATOM     58  C   UNL     1     -11.524   7.886   3.823  1.00  0.00     0.074 A 
ATOM     59  C   UNL     1     -12.130   7.522  10.110  1.00  0.00     0.029 A 
ATOM     60  N   UNL     1     -11.613   7.145   7.980  1.00  0.00    -0.354 N 
ATOM     61  N   UNL     1     -11.594   7.742   5.124  1.00  0.00    -0.248 NA
ATOM     62  C   UNL     1     -12.344   8.986   3.296  1.00  0.00     0.031 C 
ATOM     63  C   UNL     1     -12.799   8.461   9.323  1.00  0.00     0.029 A 
ATOM     64  C   UNL     1     -12.448   8.250   7.999  1.00  0.00     0.049 A 
ATOM     65  H   UNL     1     -11.212   6.752   7.171  1.00  0.00     0.167 HD
ATOM     66  C   UNL     1     -12.449   8.740   5.572  1.00  0.00     0.074 A 
ATOM     67  C   UNL     1     -12.857   9.498   4.408  1.00  0.00     0.031 C 
ATOM     68  C   UNL     1     -12.857   8.999   6.838  1.00  0.00     0.031 A 
BRANCH  55  69
ATOM     69  C   UNL     1     -10.594   5.138  11.081  1.00  0.00    -0.014 A 
ATOM     70  C   UNL     1     -11.761   4.699  11.729  1.00  0.00     0.009 A 
ATOM     71  C   UNL     1      -9.428   5.322  11.840  1.00  0.00     0.009 A 
ATOM     72  C   UNL     1     -11.767   4.471  13.106  1.00  0.00     0.001 A 
ATOM     73  C   UNL     1      -9.429   5.062  13.213  1.00  0.00     0.001 A 
ATOM     74  C   UNL     1     -10.600   4.649  13.847  1.00  0.00     0.000 A 
ENDBRANCH  55  69
BRANCH  56  75
ATOM     75  C   UNL     1     -10.718   7.451   1.383  1.00  0.00    -0.014 A 
ATOM     76  C   UNL     1     -11.277   6.583   0.429  1.00  0.00     0.009 A 
ATOM     77  C   UNL     1     -10.101   8.631   0.942  1.00  0.00     0.009 A 
ATOM     78  C   UNL     1     -11.186   6.871  -0.934  1.00  0.00     0.001 A 
ATOM     79  C   UNL     1     -10.043   8.934  -0.421  1.00  0.00     0.001 A 
ATOM     80  C   UNL     1     -10.573   8.047  -1.358  1.00  0.00     0.000 A 
ENDBRANCH  56  75
BRANCH  68  81
ATOM     81  C   UNL     1     -13.793  10.157   7.058  1.00  0.00    -0.014 A 
ATOM     82  C   UNL     1     -13.354  11.282   7.777  1.00  0.00     0.009 A 
ATOM     83  C   UNL     1     -15.136  10.089   6.659  1.00  0.00     0.009 A 
ATOM     84  C   UNL     1     -14.245  12.304   8.110  1.00  0.00     0.001 A 
ATOM     85  C   UNL     1     -16.018  11.129   6.966  1.00  0.00     0.001 A 
ATOM     86  C   UNL     1     -15.575  12.228   7.702  1.00  0.00     0.000 A 
ENDBRANCH  68  81
ENDBRANCH  42  43
ENDBRANCH  34  37
ENDBRANCH  32  33
ENDBRANCH  31  32
ENDBRANCH  30  31
ENDBRANCH   1  30
TORSDOF 17
