REMARK SMILES CC1=C(C)C[C@@H](C(=O)NCC(=O)c2ccccc2)[C@H](C(=O)NCCCCCCNC(=O)c2ccc(-c3c4nc(c(-c5ccccc5)c5ccc([nH]5)c(-c5ccccc5)c5nc(c(-c6ccccc6)c6ccc3[nH]6)C=C5)C=C4)cc2)C1
REMARK SMILES IDX 24 1 23 2 22 3 20 4 21 5 19 7 1 8 2 9 3 10 80 11 4 12 5 13
REMARK SMILES IDX 6 14 7 15 8 16 9 17 10 19 11 20 12 21 13 22 14 23 18 24
REMARK SMILES IDX 15 25 17 26 16 27 25 28 26 29 27 30 28 31 29 32 30 33 31 35
REMARK SMILES IDX 32 36 33 37 79 38 34 39 78 40 35 41 36 42 37 43 72 44 38 45
REMARK SMILES IDX 77 46 71 47 73 48 39 49 76 50 70 51 69 52 40 54 62 55 47 56
REMARK SMILES IDX 61 57 48 58 51 59 60 60 74 61 49 62 50 63 59 65 75 66 52 67
REMARK SMILES IDX 41 68 42 69 46 70 43 71 45 72 44 73 63 74 64 75 68 76 65 77
REMARK SMILES IDX 67 78 66 79 53 80 54 81 58 82 55 83 57 84 56 85
REMARK H PARENT 22 6 9 18 29 34 73 53 51 64
REMARK Flexibility Score: inf
ROOT
ATOM      1  C   UNL     1      -3.588   2.839   1.083  1.00  0.00     0.021 C 
ENDROOT
BRANCH   1   2
ATOM      2  C   UNL     1      -2.268   2.731   0.334  1.00  0.00     0.116 C 
BRANCH   2   3
ATOM      3  N   UNL     1      -1.585   3.999   0.248  1.00  0.00    -0.356 N 
ATOM      4  C   UNL     1      -0.318   4.331   0.608  1.00  0.00     0.224 C 
ATOM      5  O   UNL     1       0.044   5.492   0.399  1.00  0.00    -0.275 OA
ATOM      6  H   UNL     1      -2.119   4.736  -0.127  1.00  0.00     0.163 HD
BRANCH   4   7
ATOM      7  C   UNL     1       0.640   3.325   1.255  1.00  0.00     0.095 C 
ATOM      8  C   UNL     1       0.974  -0.281  -0.262  1.00  0.00     0.039 C 
ATOM      9  C   UNL     1       0.618   0.752   0.780  1.00  0.00    -0.074 C 
ATOM     10  C   UNL     1       0.054   0.490   1.979  1.00  0.00    -0.074 C 
ATOM     11  C   UNL     1       0.961   2.154   0.325  1.00  0.00     0.045 C 
ATOM     12  C   UNL     1      -0.391  -0.872   2.454  1.00  0.00     0.039 C 
ATOM     13  C   UNL     1      -0.227   1.570   3.002  1.00  0.00     0.045 C 
ATOM     14  C   UNL     1       0.238   2.996   2.695  1.00  0.00     0.095 C 
BRANCH  14  15
ATOM     15  C   UNL     1       1.279   3.478   3.705  1.00  0.00     0.224 C 
ATOM     16  O   UNL     1       1.004   4.406   4.472  1.00  0.00    -0.275 OA
ATOM     17  N   UNL     1       2.519   2.948   3.833  1.00  0.00    -0.348 N 
ATOM     18  H   UNL     1       3.069   3.403   4.512  1.00  0.00     0.163 HD
BRANCH  17  19
ATOM     19  C   UNL     1       3.206   1.850   3.180  1.00  0.00     0.197 C 
BRANCH  19  20
ATOM     20  C   UNL     1       4.270   2.092   2.100  1.00  0.00     0.181 C 
ATOM     21  O   UNL     1       4.986   1.154   1.736  1.00  0.00    -0.292 OA
BRANCH  20  22
ATOM     22  C   UNL     1       4.362   3.367   1.333  1.00  0.00     0.019 A 
ATOM     23  C   UNL     1       4.685   3.270  -0.031  1.00  0.00     0.012 A 
ATOM     24  C   UNL     1       4.113   4.626   1.884  1.00  0.00     0.012 A 
ATOM     25  C   UNL     1       4.686   4.404  -0.844  1.00  0.00     0.001 A 
ATOM     26  C   UNL     1       4.099   5.758   1.064  1.00  0.00     0.001 A 
ATOM     27  C   UNL     1       4.375   5.646  -0.298  1.00  0.00     0.000 A 
ENDBRANCH  20  22
ENDBRANCH  19  20
ENDBRANCH  17  19
ENDBRANCH  14  15
ENDBRANCH   4   7
ENDBRANCH   2   3
ENDBRANCH   1   2
BRANCH   1  28
ATOM     28  C   UNL     1      -4.739   3.373   0.230  1.00  0.00     0.002 C 
BRANCH  28  29
ATOM     29  C   UNL     1      -5.028   2.571  -1.044  1.00  0.00     0.002 C 
BRANCH  29  30
ATOM     30  C   UNL     1      -5.202   1.062  -0.846  1.00  0.00     0.021 C 
BRANCH  30  31
ATOM     31  C   UNL     1      -6.278   0.669   0.161  1.00  0.00     0.116 C 
BRANCH  31  32
ATOM     32  N   UNL     1      -7.581   1.201  -0.201  1.00  0.00    -0.352 N 
ATOM     33  C   UNL     1      -8.770   0.549  -0.377  1.00  0.00     0.251 C 
ATOM     34  H   UNL     1      -7.613   2.175  -0.339  1.00  0.00     0.163 HD
ATOM     35  O   UNL     1      -9.725   1.138  -0.886  1.00  0.00    -0.269 OA
BRANCH  33  36
ATOM     36  C   UNL     1      -8.914  -0.862   0.031  1.00  0.00     0.039 A 
ATOM     37  C   UNL     1      -9.598  -1.739  -0.814  1.00  0.00     0.014 A 
ATOM     38  C   UNL     1      -8.415  -1.310   1.258  1.00  0.00     0.014 A 
ATOM     39  C   UNL     1      -9.750  -3.076  -0.445  1.00  0.00     0.010 A 
ATOM     40  C   UNL     1      -8.507  -2.658   1.593  1.00  0.00     0.010 A 
ATOM     41  C   UNL     1      -9.190  -3.550   0.752  1.00  0.00    -0.014 A 
BRANCH  41  42
ATOM     42  C   UNL     1      -9.333  -4.972   1.145  1.00  0.00     0.031 A 
ATOM     43  C   UNL     1     -10.144  -5.346   2.355  1.00  0.00     0.074 A 
ATOM     44  C   UNL     1      -8.703  -5.925   0.433  1.00  0.00     0.049 A 
ATOM     45  N   UNL     1     -10.382  -6.532   2.854  1.00  0.00    -0.248 NA
ATOM     46  C   UNL     1     -10.747  -4.240   3.116  1.00  0.00     0.031 C 
ATOM     47  C   UNL     1      -7.854  -5.687  -0.737  1.00  0.00     0.029 A 
ATOM     48  N   UNL     1      -8.683  -7.287   0.588  1.00  0.00    -0.354 N 
ATOM     49  C   UNL     1     -11.149  -6.315   3.992  1.00  0.00     0.074 A 
ATOM     50  C   UNL     1     -11.291  -4.883   4.139  1.00  0.00     0.031 C 
ATOM     51  C   UNL     1      -7.427  -6.867  -1.215  1.00  0.00     0.029 A 
ATOM     52  C   UNL     1      -7.944  -7.938  -0.369  1.00  0.00     0.049 A 
ATOM     53  H   UNL     1      -9.154  -7.754   1.316  1.00  0.00     0.167 HD
ATOM     54  C   UNL     1     -11.704  -7.224   4.828  1.00  0.00     0.031 A 
ATOM     55  C   UNL     1      -7.714  -9.252  -0.549  1.00  0.00     0.031 A 
ATOM     56  C   UNL     1     -11.570  -8.648   4.677  1.00  0.00     0.049 A 
ATOM     57  C   UNL     1      -8.339 -10.242   0.393  1.00  0.00     0.074 A 
ATOM     58  C   UNL     1     -12.136  -9.655   5.441  1.00  0.00     0.029 A 
ATOM     59  N   UNL     1     -10.813  -9.268   3.695  1.00  0.00    -0.354 N 
ATOM     60  N   UNL     1      -9.117 -10.023   1.425  1.00  0.00    -0.248 NA
ATOM     61  C   UNL     1      -8.066 -11.661   0.131  1.00  0.00     0.031 C 
ATOM     62  C   UNL     1     -11.684 -10.884   4.946  1.00  0.00     0.029 A 
ATOM     63  C   UNL     1     -10.880 -10.643   3.844  1.00  0.00     0.049 A 
ATOM     64  H   UNL     1     -10.304  -8.799   2.995  1.00  0.00     0.167 HD
ATOM     65  C   UNL     1      -9.447 -11.277   1.921  1.00  0.00     0.074 A 
ATOM     66  C   UNL     1      -8.799 -12.250   1.065  1.00  0.00     0.031 C 
ATOM     67  C   UNL     1     -10.221 -11.596   2.988  1.00  0.00     0.031 A 
BRANCH  54  68
ATOM     68  C   UNL     1     -12.502  -6.694   5.987  1.00  0.00    -0.014 A 
ATOM     69  C   UNL     1     -13.741  -6.062   5.790  1.00  0.00     0.009 A 
ATOM     70  C   UNL     1     -12.015  -6.836   7.296  1.00  0.00     0.009 A 
ATOM     71  C   UNL     1     -14.454  -5.546   6.874  1.00  0.00     0.001 A 
ATOM     72  C   UNL     1     -12.745  -6.346   8.381  1.00  0.00     0.001 A 
ATOM     73  C   UNL     1     -13.957  -5.691   8.168  1.00  0.00     0.000 A 
ENDBRANCH  54  68
BRANCH  55  74
ATOM     74  C   UNL     1      -6.883  -9.708  -1.691  1.00  0.00    -0.014 A 
ATOM     75  C   UNL     1      -7.477 -10.349  -2.789  1.00  0.00     0.009 A 
ATOM     76  C   UNL     1      -5.495  -9.502  -1.694  1.00  0.00     0.009 A 
ATOM     77  C   UNL     1      -6.695 -10.794  -3.857  1.00  0.00     0.001 A 
ATOM     78  C   UNL     1      -4.719  -9.925  -2.775  1.00  0.00     0.001 A 
ATOM     79  C   UNL     1      -5.318 -10.578  -3.851  1.00  0.00     0.000 A 
ENDBRANCH  55  74
BRANCH  67  80
ATOM     80  C   UNL     1     -10.430 -13.057   3.267  1.00  0.00    -0.014 A 
ATOM     81  C   UNL     1      -9.400 -13.855   3.788  1.00  0.00     0.009 A 
ATOM     82  C   UNL     1     -11.686 -13.637   3.027  1.00  0.00     0.009 A 
ATOM     83  C   UNL     1      -9.613 -15.214   4.027  1.00  0.00     0.001 A 
ATOM     84  C   UNL     1     -11.904 -14.989   3.294  1.00  0.00     0.001 A 
ATOM     85  C   UNL     1     -10.864 -15.778   3.784  1.00  0.00     0.000 A 
ENDBRANCH  67  80
ENDBRANCH  41  42
ENDBRANCH  33  36
ENDBRANCH  31  32
ENDBRANCH  30  31
ENDBRANCH  29  30
ENDBRANCH  28  29
ENDBRANCH   1  28
TORSDOF 17
