REMARK SMILES O=C(NCCCCCCNC(=O)[C@H]1CCCCN1C(=O)c1cn2ccccc2n1)c1ccc(-c2c3nc(c(-c4ccccc4)c4ccc([nH]4)c(-c4ccccc4)c4nc(c(-c5ccccc5)c5ccc2[nH]5)C=C4)C=C3)cc1
REMARK SMILES IDX 6 1 5 2 4 3 3 4 1 5 2 6 30 8 31 9 77 10 32 11 76 12 33 13
REMARK SMILES IDX 34 14 35 15 70 16 36 17 75 18 69 19 71 20 37 21 74 22 68 23
REMARK SMILES IDX 67 24 38 26 60 27 45 28 59 29 46 30 49 31 58 32 72 33 47 34
REMARK SMILES IDX 48 35 57 37 73 38 50 39 39 40 40 41 44 42 41 43 43 44 42 45
REMARK SMILES IDX 61 46 62 47 66 48 63 49 65 50 64 51 51 52 52 53 56 54 53 55
REMARK SMILES IDX 55 56 54 57 7 58 8 59 9 60 10 61 11 62 12 64 13 65 14 66
REMARK SMILES IDX 18 67 15 68 17 69 16 70 19 71 20 72 21 73 22 74 29 75 23 76
REMARK SMILES IDX 28 77 24 78 27 79 25 80 26 81
REMARK H PARENT 3 7 71 25 49 36 10 63
REMARK Flexibility Score: inf
ROOT
ATOM      1  C   UNL     1       5.416   0.753   2.426  1.00  0.00     0.002 C 
ENDROOT
BRANCH   1   2
ATOM      2  C   UNL     1       3.985   0.431   2.852  1.00  0.00     0.021 C 
BRANCH   2   3
ATOM      3  C   UNL     1       2.994   1.566   2.639  1.00  0.00     0.116 C 
BRANCH   3   4
ATOM      4  N   UNL     1       2.779   1.857   1.231  1.00  0.00    -0.352 N 
ATOM      5  O   UNL     1       1.597   1.995  -0.690  1.00  0.00    -0.269 OA
ATOM      6  C   UNL     1       1.597   1.904   0.533  1.00  0.00     0.251 C 
ATOM      7  H   UNL     1       3.590   2.046   0.707  1.00  0.00     0.163 HD
BRANCH   6   8
ATOM      8  C   UNL     1       0.318   1.822   1.269  1.00  0.00     0.039 A 
ATOM      9  C   UNL     1       0.118   2.579   2.426  1.00  0.00     0.014 A 
ATOM     10  C   UNL     1      -0.690   0.977   0.797  1.00  0.00     0.014 A 
ATOM     11  C   UNL     1      -1.030   2.390   3.184  1.00  0.00     0.010 A 
ATOM     12  C   UNL     1      -1.883   0.856   1.513  1.00  0.00     0.010 A 
ATOM     13  C   UNL     1      -2.053   1.544   2.725  1.00  0.00    -0.014 A 
BRANCH  13  14
ATOM     14  C   UNL     1      -3.322   1.463   3.489  1.00  0.00     0.031 A 
ATOM     15  C   UNL     1      -3.766   0.183   4.138  1.00  0.00     0.074 A 
ATOM     16  C   UNL     1      -4.070   2.577   3.605  1.00  0.00     0.049 A 
ATOM     17  N   UNL     1      -4.841  -0.045   4.851  1.00  0.00    -0.248 NA
ATOM     18  C   UNL     1      -2.901  -0.994   3.962  1.00  0.00     0.031 C 
ATOM     19  C   UNL     1      -3.743   3.877   3.012  1.00  0.00     0.029 A 
ATOM     20  N   UNL     1      -5.246   2.803   4.272  1.00  0.00    -0.354 N 
ATOM     21  C   UNL     1      -4.793  -1.391   5.192  1.00  0.00     0.074 A 
ATOM     22  C   UNL     1      -3.595  -1.935   4.588  1.00  0.00     0.031 C 
ATOM     23  C   UNL     1      -4.669   4.774   3.381  1.00  0.00     0.029 A 
ATOM     24  C   UNL     1      -5.688   4.099   4.175  1.00  0.00     0.049 A 
ATOM     25  H   UNL     1      -5.726   2.104   4.772  1.00  0.00     0.167 HD
ATOM     26  C   UNL     1      -5.667  -2.104   5.942  1.00  0.00     0.031 A 
ATOM     27  C   UNL     1      -6.801   4.683   4.653  1.00  0.00     0.031 A 
ATOM     28  C   UNL     1      -6.861  -1.558   6.536  1.00  0.00     0.049 A 
ATOM     29  C   UNL     1      -7.771   3.858   5.446  1.00  0.00     0.074 A 
ATOM     30  C   UNL     1      -7.793  -2.193   7.340  1.00  0.00     0.029 A 
ATOM     31  N   UNL     1      -7.294  -0.250   6.382  1.00  0.00    -0.354 N 
ATOM     32  N   UNL     1      -7.689   2.597   5.792  1.00  0.00    -0.248 NA
ATOM     33  C   UNL     1      -8.985   4.538   5.913  1.00  0.00     0.031 C 
ATOM     34  C   UNL     1      -8.818  -1.285   7.625  1.00  0.00     0.029 A 
ATOM     35  C   UNL     1      -8.494  -0.066   7.050  1.00  0.00     0.049 A 
ATOM     36  H   UNL     1      -6.819   0.446   5.873  1.00  0.00     0.167 HD
ATOM     37  C   UNL     1      -8.832   2.336   6.534  1.00  0.00     0.074 A 
ATOM     38  C   UNL     1      -9.578   3.576   6.606  1.00  0.00     0.031 C 
ATOM     39  C   UNL     1      -9.229   1.172   7.104  1.00  0.00     0.031 A 
BRANCH  26  40
ATOM     40  C   UNL     1      -5.384  -3.569   6.140  1.00  0.00    -0.014 A 
ATOM     41  C   UNL     1      -4.330  -4.008   6.958  1.00  0.00     0.009 A 
ATOM     42  C   UNL     1      -6.215  -4.526   5.536  1.00  0.00     0.009 A 
ATOM     43  C   UNL     1      -4.097  -5.373   7.139  1.00  0.00     0.001 A 
ATOM     44  C   UNL     1      -5.997  -5.889   5.741  1.00  0.00     0.001 A 
ATOM     45  C   UNL     1      -4.932  -6.312   6.535  1.00  0.00     0.000 A 
ENDBRANCH  26  40
BRANCH  27  46
ATOM     46  C   UNL     1      -7.061   6.118   4.372  1.00  0.00    -0.014 A 
ATOM     47  C   UNL     1      -7.006   7.070   5.400  1.00  0.00     0.009 A 
ATOM     48  C   UNL     1      -7.348   6.544   3.065  1.00  0.00     0.009 A 
ATOM     49  C   UNL     1      -7.256   8.417   5.127  1.00  0.00     0.001 A 
ATOM     50  C   UNL     1      -7.565   7.894   2.790  1.00  0.00     0.001 A 
ATOM     51  C   UNL     1      -7.528   8.829   3.823  1.00  0.00     0.000 A 
ENDBRANCH  27  46
BRANCH  39  52
ATOM     52  C   UNL     1     -10.516   1.198   7.878  1.00  0.00    -0.014 A 
ATOM     53  C   UNL     1     -11.756   1.301   7.227  1.00  0.00     0.009 A 
ATOM     54  C   UNL     1     -10.487   1.096   9.277  1.00  0.00     0.009 A 
ATOM     55  C   UNL     1     -12.939   1.338   7.968  1.00  0.00     0.001 A 
ATOM     56  C   UNL     1     -11.673   1.102  10.012  1.00  0.00     0.001 A 
ATOM     57  C   UNL     1     -12.897   1.233   9.358  1.00  0.00     0.000 A 
ENDBRANCH  39  52
ENDBRANCH  13  14
ENDBRANCH   6   8
ENDBRANCH   3   4
ENDBRANCH   2   3
ENDBRANCH   1   2
BRANCH   1  58
ATOM     58  C   UNL     1       6.029   1.986   3.098  1.00  0.00     0.002 C 
BRANCH  58  59
ATOM     59  C   UNL     1       5.987   1.992   4.634  1.00  0.00     0.021 C 
BRANCH  59  60
ATOM     60  C   UNL     1       6.607   0.757   5.291  1.00  0.00     0.116 C 
BRANCH  60  61
ATOM     61  N   UNL     1       8.002   0.631   4.918  1.00  0.00    -0.354 N 
ATOM     62  C   UNL     1       9.129   0.859   5.646  1.00  0.00     0.242 C 
ATOM     63  H   UNL     1       8.159   0.333   3.993  1.00  0.00     0.163 HD
ATOM     64  O   UNL     1      10.179   0.989   5.011  1.00  0.00    -0.273 OA
BRANCH  62  65
ATOM     65  C   UNL     1       9.085   0.868   7.192  1.00  0.00     0.174 C 
ATOM     66  C   UNL     1       9.719  -0.420   7.734  1.00  0.00     0.035 C 
ATOM     67  N   UNL     1       9.733   2.059   7.762  1.00  0.00    -0.325 N 
ATOM     68  C   UNL     1      11.241  -0.422   7.617  1.00  0.00     0.004 C 
ATOM     69  C   UNL     1      11.196   2.114   7.687  1.00  0.00     0.121 C 
ATOM     70  C   UNL     1      11.839   0.840   8.228  1.00  0.00     0.022 C 
BRANCH  67  71
ATOM     71  C   UNL     1       8.913   3.058   8.299  1.00  0.00     0.274 C 
ATOM     72  O   UNL     1       7.687   2.945   8.332  1.00  0.00    -0.267 OA
BRANCH  71  73
ATOM     73  C   UNL     1       9.559   4.259   8.826  1.00  0.00     0.147 A 
ATOM     74  C   UNL     1      10.205   5.237   8.090  1.00  0.00     0.127 A 
ATOM     75  N   UNL     1       9.570   4.587  10.172  1.00  0.00    -0.223 NA
ATOM     76  N   UNL     1      10.633   6.167   9.000  1.00  0.00    -0.306 N 
ATOM     77  C   UNL     1      10.216   5.731  10.253  1.00  0.00     0.137 A 
ATOM     78  C   UNL     1      11.353   7.340   8.793  1.00  0.00     0.093 A 
ATOM     79  C   UNL     1      10.545   6.554  11.368  1.00  0.00     0.048 A 
ATOM     80  C   UNL     1      11.669   8.111   9.848  1.00  0.00     0.018 A 
ATOM     81  C   UNL     1      11.241   7.693  11.176  1.00  0.00     0.005 A 
ENDBRANCH  71  73
ENDBRANCH  67  71
ENDBRANCH  62  65
ENDBRANCH  60  61
ENDBRANCH  59  60
ENDBRANCH  58  59
ENDBRANCH   1  58
TORSDOF 15
