REMARK SMILES C[C@@H](NC(=O)c1cc(C(=O)NCCCCCCNC(=O)c2ccc(-c3c4nc(c(-c5ccccc5)c5ccc([nH]5)c(-c5ccccc5)c5nc(c(-c6ccccc6)c6ccc3[nH]6)C=C5)C=C4)cc2)n(C)n1)c1ccccc1
REMARK SMILES IDX 14 1 13 2 12 3 11 4 9 5 10 6 8 8 6 9 7 10 71 11 69 12 70 13
REMARK SMILES IDX 4 14 3 15 5 17 2 18 1 19 72 20 73 21 77 22 74 23 76 24 75 25
REMARK SMILES IDX 15 26 16 27 17 28 18 29 19 30 20 32 21 33 22 34 68 35 23 36
REMARK SMILES IDX 67 37 24 38 25 39 26 40 61 41 27 42 66 43 60 44 62 45 28 46
REMARK SMILES IDX 65 47 59 48 58 49 29 51 51 52 36 53 50 54 37 55 40 56 49 57
REMARK SMILES IDX 63 58 38 59 39 60 48 62 64 63 41 64 30 65 31 66 35 67 32 68
REMARK SMILES IDX 34 69 33 70 52 71 53 72 57 73 54 74 56 75 55 76 42 77 43 78
REMARK SMILES IDX 47 79 44 80 46 81 45 82
REMARK H PARENT 11 7 3 16 18 31 62 50 40 61
REMARK Flexibility Score: inf
ROOT
ATOM      1  C   UNL     1      -8.345  -0.701   1.011  1.00  0.00     0.002 C 
ENDROOT
BRANCH   1   2
ATOM      2  C   UNL     1      -7.139  -0.409   1.914  1.00  0.00     0.021 C 
BRANCH   2   3
ATOM      3  C   UNL     1      -6.693  -1.579   2.793  1.00  0.00     0.116 C 
BRANCH   3   4
ATOM      4  N   UNL     1      -5.880  -2.515   2.066  1.00  0.00    -0.351 N 
ATOM      5  C   UNL     1      -4.568  -2.888   2.097  1.00  0.00     0.269 C 
ATOM      6  O   UNL     1      -4.364  -3.931   1.461  1.00  0.00    -0.268 OA
ATOM      7  H   UNL     1      -6.391  -3.003   1.381  1.00  0.00     0.163 HD
BRANCH   5   8
ATOM      8  C   UNL     1      -3.463  -2.204   2.748  1.00  0.00     0.126 A 
ATOM      9  C   UNL     1      -1.291  -1.767   3.167  1.00  0.00     0.151 A 
ATOM     10  C   UNL     1      -2.186  -2.772   2.770  1.00  0.00     0.069 A 
ATOM     11  N   UNL     1      -1.965  -0.697   3.599  1.00  0.00    -0.167 NA
ATOM     12  N   UNL     1      -3.257  -0.962   3.309  1.00  0.00    -0.262 N 
ATOM     13  C   UNL     1      -4.145   0.142   3.559  1.00  0.00     0.174 C 
BRANCH   9  14
ATOM     14  C   UNL     1       0.162  -1.795   3.163  1.00  0.00     0.272 C 
ATOM     15  N   UNL     1       0.854  -1.325   2.074  1.00  0.00    -0.344 N 
ATOM     16  H   UNL     1       1.781  -1.079   2.295  1.00  0.00     0.164 HD
ATOM     17  O   UNL     1       0.812  -2.188   4.132  1.00  0.00    -0.267 OA
BRANCH  15  18
ATOM     18  C   UNL     1       0.537  -1.103   0.659  1.00  0.00     0.109 C 
ATOM     19  C   UNL     1       1.375   0.078   0.145  1.00  0.00     0.036 C 
BRANCH  18  20
ATOM     20  C   UNL     1      -0.910  -0.965   0.233  1.00  0.00    -0.026 A 
ATOM     21  C   UNL     1      -1.644   0.216   0.420  1.00  0.00     0.006 A 
ATOM     22  C   UNL     1      -1.540  -2.040  -0.422  1.00  0.00     0.006 A 
ATOM     23  C   UNL     1      -2.965   0.319  -0.031  1.00  0.00     0.000 A 
ATOM     24  C   UNL     1      -2.862  -1.939  -0.863  1.00  0.00     0.000 A 
ATOM     25  C   UNL     1      -3.574  -0.759  -0.669  1.00  0.00     0.000 A 
ENDBRANCH  18  20
ENDBRANCH  15  18
ENDBRANCH   9  14
ENDBRANCH   5   8
ENDBRANCH   3   4
ENDBRANCH   2   3
ENDBRANCH   1   2
BRANCH   1  26
ATOM     26  C   UNL     1      -9.604  -1.208   1.724  1.00  0.00     0.002 C 
BRANCH  26  27
ATOM     27  C   UNL     1     -10.026  -0.411   2.961  1.00  0.00     0.021 C 
BRANCH  27  28
ATOM     28  C   UNL     1     -10.394   1.043   2.683  1.00  0.00     0.116 C 
BRANCH  28  29
ATOM     29  N   UNL     1     -11.626   1.148   1.920  1.00  0.00    -0.352 N 
ATOM     30  C   UNL     1     -12.807   1.764   2.254  1.00  0.00     0.251 C 
ATOM     31  H   UNL     1     -11.612   0.715   1.036  1.00  0.00     0.163 HD
ATOM     32  O   UNL     1     -13.818   1.555   1.592  1.00  0.00    -0.269 OA
BRANCH  30  33
ATOM     33  C   UNL     1     -12.866   2.675   3.418  1.00  0.00     0.039 A 
ATOM     34  C   UNL     1     -13.957   2.591   4.288  1.00  0.00     0.014 A 
ATOM     35  C   UNL     1     -11.873   3.636   3.630  1.00  0.00     0.014 A 
ATOM     36  C   UNL     1     -14.030   3.439   5.395  1.00  0.00     0.010 A 
ATOM     37  C   UNL     1     -11.915   4.439   4.767  1.00  0.00     0.010 A 
ATOM     38  C   UNL     1     -12.998   4.355   5.655  1.00  0.00    -0.014 A 
BRANCH  38  39
ATOM     39  C   UNL     1     -13.043   5.248   6.840  1.00  0.00     0.031 A 
ATOM     40  C   UNL     1     -13.163   6.736   6.660  1.00  0.00     0.074 A 
ATOM     41  C   UNL     1     -12.918   4.727   8.076  1.00  0.00     0.049 A 
ATOM     42  N   UNL     1     -13.144   7.683   7.564  1.00  0.00    -0.248 NA
ATOM     43  C   UNL     1     -13.300   7.227   5.279  1.00  0.00     0.031 C 
ATOM     44  C   UNL     1     -12.760   3.304   8.386  1.00  0.00     0.029 A 
ATOM     45  N   UNL     1     -12.895   5.339   9.304  1.00  0.00    -0.354 N 
ATOM     46  C   UNL     1     -13.254   8.877   6.863  1.00  0.00     0.074 A 
ATOM     47  C   UNL     1     -13.289   8.540   5.456  1.00  0.00     0.031 C 
ATOM     48  C   UNL     1     -12.670   3.153   9.717  1.00  0.00     0.029 A 
ATOM     49  C   UNL     1     -12.730   4.466  10.351  1.00  0.00     0.049 A 
ATOM     50  H   UNL     1     -12.987   6.312   9.423  1.00  0.00     0.167 HD
ATOM     51  C   UNL     1     -13.338  10.140   7.345  1.00  0.00     0.031 A 
ATOM     52  C   UNL     1     -12.630   4.697  11.674  1.00  0.00     0.031 A 
ATOM     53  C   UNL     1     -13.312  10.477   8.743  1.00  0.00     0.049 A 
ATOM     54  C   UNL     1     -12.725   6.107  12.184  1.00  0.00     0.074 A 
ATOM     55  C   UNL     1     -13.421  11.726   9.332  1.00  0.00     0.029 A 
ATOM     56  N   UNL     1     -13.172   9.560   9.772  1.00  0.00    -0.354 N 
ATOM     57  N   UNL     1     -12.873   7.221  11.509  1.00  0.00    -0.248 NA
ATOM     58  C   UNL     1     -12.654   6.290  13.641  1.00  0.00     0.031 C 
ATOM     59  C   UNL     1     -13.312  11.566  10.717  1.00  0.00     0.029 A 
ATOM     60  C   UNL     1     -13.184  10.214  10.992  1.00  0.00     0.049 A 
ATOM     61  H   UNL     1     -13.079   8.587   9.653  1.00  0.00     0.167 HD
ATOM     62  C   UNL     1     -12.941   8.232  12.459  1.00  0.00     0.074 A 
ATOM     63  C   UNL     1     -12.833   7.598  13.757  1.00  0.00     0.031 C 
ATOM     64  C   UNL     1     -13.081   9.567  12.273  1.00  0.00     0.031 A 
BRANCH  51  65
ATOM     65  C   UNL     1     -13.473  11.253   6.344  1.00  0.00    -0.014 A 
ATOM     66  C   UNL     1     -14.663  11.435   5.622  1.00  0.00     0.009 A 
ATOM     67  C   UNL     1     -12.412  12.150   6.144  1.00  0.00     0.009 A 
ATOM     68  C   UNL     1     -14.776  12.473   4.694  1.00  0.00     0.001 A 
ATOM     69  C   UNL     1     -12.538  13.203   5.235  1.00  0.00     0.001 A 
ATOM     70  C   UNL     1     -13.716  13.358   4.505  1.00  0.00     0.000 A 
ENDBRANCH  51  65
BRANCH  52  71
ATOM     71  C   UNL     1     -12.440   3.562  12.614  1.00  0.00    -0.014 A 
ATOM     72  C   UNL     1     -13.479   3.159  13.466  1.00  0.00     0.009 A 
ATOM     73  C   UNL     1     -11.213   2.882  12.670  1.00  0.00     0.009 A 
ATOM     74  C   UNL     1     -13.284   2.116  14.374  1.00  0.00     0.001 A 
ATOM     75  C   UNL     1     -11.031   1.822  13.560  1.00  0.00     0.001 A 
ATOM     76  C   UNL     1     -12.063   1.446  14.418  1.00  0.00     0.000 A 
ENDBRANCH  52  71
BRANCH  64  77
ATOM     77  C   UNL     1     -13.166  10.426  13.502  1.00  0.00    -0.014 A 
ATOM     78  C   UNL     1     -12.033  10.691  14.286  1.00  0.00     0.009 A 
ATOM     79  C   UNL     1     -14.393  11.009  13.856  1.00  0.00     0.009 A 
ATOM     80  C   UNL     1     -12.135  11.499  15.420  1.00  0.00     0.001 A 
ATOM     81  C   UNL     1     -14.486  11.837  14.975  1.00  0.00     0.001 A 
ATOM     82  C   UNL     1     -13.359  12.075  15.760  1.00  0.00     0.000 A 
ENDBRANCH  64  77
ENDBRANCH  38  39
ENDBRANCH  30  33
ENDBRANCH  28  29
ENDBRANCH  27  28
ENDBRANCH  26  27
ENDBRANCH   1  26
TORSDOF 16
