REMARK SMILES Cc1noc(C)c1C[NH2+][C@H](C)[C@H](C)C(=O)NCCCCCCNC(=O)c1ccc(-c2c3nc(c(-c4ccccc4)c4ccc([nH]4)c(-c4ccccc4)c4nc(c(-c5ccccc5)c5ccc2[nH]5)C=C4)C=C3)cc1
REMARK SMILES IDX 18 1 17 2 16 3 14 4 15 5 12 7 13 8 10 9 11 10 9 11 8 14 7 15
REMARK SMILES IDX 1 16 2 17 3 18 4 19 5 20 6 21 19 22 20 23 21 24 22 25 23 26
REMARK SMILES IDX 24 27 25 29 26 30 27 31 73 32 28 33 72 34 29 35 30 36 31 37
REMARK SMILES IDX 66 38 32 39 71 40 65 41 67 42 33 43 70 44 64 45 63 46 34 48
REMARK SMILES IDX 56 49 41 50 55 51 42 52 45 53 54 54 68 55 43 56 44 57 53 59
REMARK SMILES IDX 69 60 46 61 35 62 36 63 40 64 37 65 39 66 38 67 57 68 58 69
REMARK SMILES IDX 62 70 59 71 61 72 60 73 47 74 48 75 52 76 49 77 51 78 50 79
REMARK H PARENT 16 6 9 12 9 13 23 28 67 47 45 58
REMARK Flexibility Score: inf
ROOT
ATOM      1  C   UNL     1      -1.868   7.259   1.146  1.00  0.00     0.021 C 
ENDROOT
BRANCH   1   2
ATOM      2  C   UNL     1      -2.480   6.622  -0.098  1.00  0.00     0.116 C 
BRANCH   2   3
ATOM      3  N   UNL     1      -1.874   7.122  -1.315  1.00  0.00    -0.356 N 
ATOM      4  C   UNL     1      -1.417   6.475  -2.418  1.00  0.00     0.228 C 
ATOM      5  O   UNL     1      -0.955   7.167  -3.329  1.00  0.00    -0.275 OA
ATOM      6  H   UNL     1      -1.775   8.101  -1.347  1.00  0.00     0.163 HD
BRANCH   4   7
ATOM      7  C   UNL     1      -1.481   4.956  -2.558  1.00  0.00     0.133 C 
ATOM      8  C   UNL     1      -0.614   4.264  -1.500  1.00  0.00     0.024 C 
BRANCH   7   9
ATOM      9  C   UNL     1      -2.942   4.449  -2.629  1.00  0.00     0.191 C 
ATOM     10  C   UNL     1      -3.692   5.078  -3.811  1.00  0.00     0.076 C 
BRANCH   9  11
ATOM     11  N   UNL     1      -3.031   2.990  -2.803  1.00  0.00    -0.339 N 
ATOM     12  H   UNL     1      -3.464   2.792  -3.705  1.00  0.00     0.346 HD
ATOM     13  H   UNL     1      -2.085   2.610  -2.755  1.00  0.00     0.346 HD
BRANCH  11  14
ATOM     14  C   UNL     1      -3.822   2.357  -1.753  1.00  0.00     0.303 C 
BRANCH  14  15
ATOM     15  C   UNL     1      -3.983   0.921  -2.084  1.00  0.00     0.071 A 
ATOM     16  C   UNL     1      -5.467   1.051  -4.229  1.00  0.00     0.071 C 
ATOM     17  C   UNL     1      -4.715   0.349  -3.162  1.00  0.00     0.090 A 
ATOM     18  N   UNL     1      -4.668  -0.988  -3.134  1.00  0.00    -0.085 NA
ATOM     19  O   UNL     1      -3.899  -1.313  -2.034  1.00  0.00    -0.361 OA
ATOM     20  C   UNL     1      -3.495  -0.177  -1.409  1.00  0.00     0.142 A 
ATOM     21  C   UNL     1      -2.672  -0.355  -0.198  1.00  0.00     0.091 C 
ENDBRANCH  14  15
ENDBRANCH  11  14
ENDBRANCH   9  11
ENDBRANCH   7   9
ENDBRANCH   4   7
ENDBRANCH   2   3
ENDBRANCH   1   2
BRANCH   1  22
ATOM     22  C   UNL     1      -2.136   8.760   1.298  1.00  0.00     0.002 C 
BRANCH  22  23
ATOM     23  C   UNL     1      -3.610   9.174   1.280  1.00  0.00     0.002 C 
BRANCH  23  24
ATOM     24  C   UNL     1      -4.516   8.447   2.278  1.00  0.00     0.021 C 
BRANCH  24  25
ATOM     25  C   UNL     1      -4.062   8.498   3.733  1.00  0.00     0.116 C 
BRANCH  25  26
ATOM     26  N   UNL     1      -3.974   9.852   4.246  1.00  0.00    -0.352 N 
ATOM     27  C   UNL     1      -4.344  10.344   5.468  1.00  0.00     0.251 C 
ATOM     28  H   UNL     1      -3.592  10.513   3.624  1.00  0.00     0.163 HD
ATOM     29  O   UNL     1      -4.306  11.561   5.672  1.00  0.00    -0.269 OA
BRANCH  27  30
ATOM     30  C   UNL     1      -4.807   9.441   6.545  1.00  0.00     0.039 A 
ATOM     31  C   UNL     1      -5.887   9.848   7.333  1.00  0.00     0.014 A 
ATOM     32  C   UNL     1      -4.159   8.233   6.820  1.00  0.00     0.014 A 
ATOM     33  C   UNL     1      -6.332   9.037   8.379  1.00  0.00     0.010 A 
ATOM     34  C   UNL     1      -4.643   7.394   7.824  1.00  0.00     0.010 A 
ATOM     35  C   UNL     1      -5.719   7.800   8.628  1.00  0.00    -0.014 A 
BRANCH  35  36
ATOM     36  C   UNL     1      -6.165   6.951   9.760  1.00  0.00     0.031 A 
ATOM     37  C   UNL     1      -5.263   6.737  10.945  1.00  0.00     0.074 A 
ATOM     38  C   UNL     1      -7.372   6.357   9.719  1.00  0.00     0.049 A 
ATOM     39  N   UNL     1      -5.481   6.045  12.036  1.00  0.00    -0.248 NA
ATOM     40  C   UNL     1      -3.932   7.364  10.889  1.00  0.00     0.031 C 
ATOM     41  C   UNL     1      -8.325   6.448   8.611  1.00  0.00     0.029 A 
ATOM     42  N   UNL     1      -8.005   5.561  10.639  1.00  0.00    -0.354 N 
ATOM     43  C   UNL     1      -4.313   6.139  12.782  1.00  0.00     0.074 A 
ATOM     44  C   UNL     1      -3.373   6.914  12.002  1.00  0.00     0.031 C 
ATOM     45  C   UNL     1      -9.435   5.762   8.931  1.00  0.00     0.029 A 
ATOM     46  C   UNL     1      -9.263   5.168  10.254  1.00  0.00     0.049 A 
ATOM     47  H   UNL     1      -7.596   5.296  11.495  1.00  0.00     0.167 HD
ATOM     48  C   UNL     1      -4.050   5.644  14.015  1.00  0.00     0.031 A 
ATOM     49  C   UNL     1     -10.181   4.426  10.900  1.00  0.00     0.031 A 
ATOM     50  C   UNL     1      -4.987   4.893  14.805  1.00  0.00     0.049 A 
ATOM     51  C   UNL     1      -9.881   3.919  12.282  1.00  0.00     0.074 A 
ATOM     52  C   UNL     1      -4.832   4.390  16.085  1.00  0.00     0.029 A 
ATOM     53  N   UNL     1      -6.262   4.542  14.389  1.00  0.00    -0.354 N 
ATOM     54  N   UNL     1      -8.794   4.069  12.999  1.00  0.00    -0.248 NA
ATOM     55  C   UNL     1     -10.946   3.160  12.952  1.00  0.00     0.031 C 
ATOM     56  C   UNL     1      -6.004   3.708  16.432  1.00  0.00     0.029 A 
ATOM     57  C   UNL     1      -6.902   3.824  15.383  1.00  0.00     0.049 A 
ATOM     58  H   UNL     1      -6.654   4.771  13.515  1.00  0.00     0.167 HD
ATOM     59  C   UNL     1      -9.055   3.450  14.214  1.00  0.00     0.074 A 
ATOM     60  C   UNL     1     -10.406   2.934  14.141  1.00  0.00     0.031 C 
ATOM     61  C   UNL     1      -8.248   3.321  15.295  1.00  0.00     0.031 A 
BRANCH  48  62
ATOM     62  C   UNL     1      -2.683   5.905  14.581  1.00  0.00    -0.014 A 
ATOM     63  C   UNL     1      -2.309   7.189  15.012  1.00  0.00     0.009 A 
ATOM     64  C   UNL     1      -1.762   4.853  14.700  1.00  0.00     0.009 A 
ATOM     65  C   UNL     1      -1.026   7.421  15.512  1.00  0.00     0.001 A 
ATOM     66  C   UNL     1      -0.489   5.083  15.226  1.00  0.00     0.001 A 
ATOM     67  C   UNL     1      -0.119   6.368  15.622  1.00  0.00     0.000 A 
ENDBRANCH  48  62
BRANCH  49  68
ATOM     68  C   UNL     1     -11.496   4.157  10.266  1.00  0.00    -0.014 A 
ATOM     69  C   UNL     1     -12.650   4.815  10.720  1.00  0.00     0.009 A 
ATOM     70  C   UNL     1     -11.606   3.239   9.211  1.00  0.00     0.009 A 
ATOM     71  C   UNL     1     -13.893   4.540  10.146  1.00  0.00     0.001 A 
ATOM     72  C   UNL     1     -12.847   2.984   8.623  1.00  0.00     0.001 A 
ATOM     73  C   UNL     1     -13.990   3.627   9.097  1.00  0.00     0.000 A 
ENDBRANCH  49  68
BRANCH  61  74
ATOM     74  C   UNL     1      -8.823   2.629  16.497  1.00  0.00    -0.014 A 
ATOM     75  C   UNL     1      -9.011   1.238  16.516  1.00  0.00     0.009 A 
ATOM     76  C   UNL     1      -9.161   3.379  17.634  1.00  0.00     0.009 A 
ATOM     77  C   UNL     1      -9.563   0.618  17.638  1.00  0.00     0.001 A 
ATOM     78  C   UNL     1      -9.689   2.753  18.763  1.00  0.00     0.001 A 
ATOM     79  C   UNL     1      -9.899   1.375  18.761  1.00  0.00     0.000 A 
ENDBRANCH  61  74
ENDBRANCH  35  36
ENDBRANCH  27  30
ENDBRANCH  25  26
ENDBRANCH  24  25
ENDBRANCH  23  24
ENDBRANCH  22  23
ENDBRANCH   1  22
TORSDOF 17
