REMARK SMILES CCCCCCNC(=O)Nc1cccc(-c2ccc([C@@H](C)C(=O)NCCCCCCNC(=O)c3ccc(-c4c5nc(c(-c6ccccc6)c6ccc([nH]6)c(-c6ccccc6)c6nc(c(-c7ccccc7)c7ccc4[nH]7)C=C6)C=C5)cc3)cc2F)c1
REMARK SMILES IDX 22 1 23 2 24 3 20 5 21 6 19 7 16 8 17 9 83 10 18 11 82 12
REMARK SMILES IDX 84 13 15 14 11 15 12 16 85 17 13 18 14 19 10 20 7 21 8 22
REMARK SMILES IDX 9 24 6 26 5 27 4 28 3 29 2 30 1 31 25 32 26 33 27 34 28 35
REMARK SMILES IDX 29 36 30 37 31 38 32 39 33 41 34 42 35 43 81 44 36 45 80 46
REMARK SMILES IDX 37 47 38 48 39 49 74 50 40 51 79 52 73 53 75 54 41 55 78 56
REMARK SMILES IDX 72 57 71 58 42 60 64 61 49 62 63 63 50 64 53 65 62 66 76 67
REMARK SMILES IDX 51 68 52 69 61 71 77 72 54 73 43 74 44 75 48 76 45 77 47 78
REMARK SMILES IDX 46 79 65 80 66 81 70 82 67 83 69 84 68 85 55 86 56 87 60 88
REMARK SMILES IDX 57 89 59 90 58 91
REMARK H PARENT 24 4 7 23 10 25 31 40 75 59 53 70
REMARK Flexibility Score: inf
ROOT
ATOM      1  C   UNL     1      -0.474   3.027   5.524  1.00  0.00     0.227 C 
ATOM      2  O   UNL     1       0.474   3.821   5.556  1.00  0.00    -0.274 OA
ATOM      3  N   UNL     1      -0.149   1.708   5.479  1.00  0.00    -0.356 N 
ATOM      4  H   UNL     1       0.809   1.524   5.610  1.00  0.00     0.163 HD
ENDROOT
BRANCH   1   5
ATOM      5  C   UNL     1      -1.915   3.555   5.556  1.00  0.00     0.105 C 
ATOM      6  C   UNL     1      -2.771   2.999   6.694  1.00  0.00     0.023 C 
BRANCH   5   7
ATOM      7  C   UNL     1      -2.602   3.603   4.198  1.00  0.00    -0.033 A 
ATOM      8  C   UNL     1      -3.836   3.768   1.615  1.00  0.00     0.018 A 
ATOM      9  C   UNL     1      -3.825   2.575   2.354  1.00  0.00     0.012 A 
ATOM     10  C   UNL     1      -3.226   4.878   2.216  1.00  0.00     0.131 A 
ATOM     11  C   UNL     1      -3.249   2.503   3.629  1.00  0.00     0.005 A 
ATOM     12  C   UNL     1      -2.606   4.799   3.467  1.00  0.00     0.044 A 
ATOM     13  F   UNL     1      -3.220   6.069   1.597  1.00  0.00    -0.206 F 
BRANCH   8  14
ATOM     14  C   UNL     1      -4.413   3.801   0.252  1.00  0.00    -0.013 A 
ATOM     15  C   UNL     1      -4.200   4.395  -2.112  1.00  0.00     0.043 A 
ATOM     16  C   UNL     1      -5.363   3.693  -2.416  1.00  0.00     0.026 A 
ATOM     17  C   UNL     1      -3.779   4.508  -0.782  1.00  0.00     0.035 A 
ATOM     18  C   UNL     1      -6.030   3.006  -1.406  1.00  0.00     0.003 A 
ATOM     19  C   UNL     1      -5.551   3.048  -0.092  1.00  0.00     0.009 A 
BRANCH  15  20
ATOM     20  N   UNL     1      -3.443   4.913  -3.173  1.00  0.00    -0.308 N 
ATOM     21  N   UNL     1      -1.217   4.350  -2.596  1.00  0.00    -0.338 N 
ATOM     22  C   UNL     1      -2.106   5.121  -3.270  1.00  0.00     0.319 C 
ATOM     23  H   UNL     1      -0.302   4.711  -2.561  1.00  0.00     0.165 HD
ATOM     24  O   UNL     1      -1.674   5.962  -4.060  1.00  0.00    -0.249 OA
ATOM     25  H   UNL     1      -3.962   5.165  -3.971  1.00  0.00     0.171 HD
BRANCH  21  26
ATOM     26  C   UNL     1      -1.396   3.075  -1.915  1.00  0.00     0.117 C 
BRANCH  26  27
ATOM     27  C   UNL     1      -0.466   1.980  -2.423  1.00  0.00     0.021 C 
BRANCH  27  28
ATOM     28  C   UNL     1       1.014   2.183  -2.101  1.00  0.00     0.002 C 
BRANCH  28  29
ATOM     29  C   UNL     1       1.361   2.289  -0.612  1.00  0.00    -0.000 C 
BRANCH  29  30
ATOM     30  C   UNL     1       0.870   1.137   0.270  1.00  0.00    -0.003 C 
ATOM     31  C   UNL     1       1.345  -0.228  -0.202  1.00  0.00     0.004 C 
ENDBRANCH  29  30
ENDBRANCH  28  29
ENDBRANCH  27  28
ENDBRANCH  26  27
ENDBRANCH  21  26
ENDBRANCH  15  20
ENDBRANCH   8  14
ENDBRANCH   5   7
ENDBRANCH   1   5
BRANCH   3  32
ATOM     32  C   UNL     1      -0.954   0.524   5.275  1.00  0.00     0.116 C 
BRANCH  32  33
ATOM     33  C   UNL     1      -0.837   0.024   3.835  1.00  0.00     0.021 C 
BRANCH  33  34
ATOM     34  C   UNL     1       0.334  -0.939   3.625  1.00  0.00     0.002 C 
BRANCH  34  35
ATOM     35  C   UNL     1       0.213  -2.278   4.360  1.00  0.00     0.002 C 
BRANCH  35  36
ATOM     36  C   UNL     1      -1.060  -3.073   4.055  1.00  0.00     0.021 C 
BRANCH  36  37
ATOM     37  C   UNL     1      -1.262  -3.410   2.580  1.00  0.00     0.116 C 
BRANCH  37  38
ATOM     38  N   UNL     1      -0.193  -4.252   2.066  1.00  0.00    -0.352 N 
ATOM     39  C   UNL     1      -0.252  -5.528   1.563  1.00  0.00     0.251 C 
ATOM     40  H   UNL     1       0.704  -3.847   2.081  1.00  0.00     0.163 HD
ATOM     41  O   UNL     1       0.775  -6.177   1.400  1.00  0.00    -0.269 OA
BRANCH  39  42
ATOM     42  C   UNL     1      -1.561  -6.123   1.226  1.00  0.00     0.039 A 
ATOM     43  C   UNL     1      -1.829  -7.439   1.611  1.00  0.00     0.014 A 
ATOM     44  C   UNL     1      -2.514  -5.389   0.513  1.00  0.00     0.014 A 
ATOM     45  C   UNL     1      -3.077  -8.000   1.330  1.00  0.00     0.010 A 
ATOM     46  C   UNL     1      -3.780  -5.924   0.299  1.00  0.00     0.010 A 
ATOM     47  C   UNL     1      -4.073  -7.236   0.700  1.00  0.00    -0.014 A 
BRANCH  47  48
ATOM     48  C   UNL     1      -5.426  -7.792   0.449  1.00  0.00     0.031 A 
ATOM     49  C   UNL     1      -5.920  -7.972  -0.961  1.00  0.00     0.074 A 
ATOM     50  C   UNL     1      -6.234  -8.076   1.489  1.00  0.00     0.049 A 
ATOM     51  N   UNL     1      -7.091  -8.383  -1.378  1.00  0.00    -0.248 NA
ATOM     52  C   UNL     1      -4.986  -7.622  -2.042  1.00  0.00     0.031 C 
ATOM     53  C   UNL     1      -5.887  -7.913   2.902  1.00  0.00     0.029 A 
ATOM     54  N   UNL     1      -7.519  -8.556   1.516  1.00  0.00    -0.354 N 
ATOM     55  C   UNL     1      -7.038  -8.325  -2.765  1.00  0.00     0.074 A 
ATOM     56  C   UNL     1      -5.741  -7.791  -3.118  1.00  0.00     0.031 C 
ATOM     57  C   UNL     1      -6.923  -8.312   3.658  1.00  0.00     0.029 A 
ATOM     58  C   UNL     1      -8.020  -8.716   2.786  1.00  0.00     0.049 A 
ATOM     59  H   UNL     1      -8.034  -8.765   0.704  1.00  0.00     0.167 HD
ATOM     60  C   UNL     1      -7.977  -8.700  -3.667  1.00  0.00     0.031 A 
ATOM     61  C   UNL     1      -9.230  -9.135   3.201  1.00  0.00     0.031 A 
ATOM     62  C   UNL     1      -9.264  -9.239  -3.317  1.00  0.00     0.049 A 
ATOM     63  C   UNL     1     -10.263  -9.524   2.180  1.00  0.00     0.074 A 
ATOM     64  C   UNL     1     -10.264  -9.698  -4.157  1.00  0.00     0.029 A 
ATOM     65  N   UNL     1      -9.731  -9.388  -2.020  1.00  0.00    -0.354 N 
ATOM     66  N   UNL     1     -10.173  -9.525   0.872  1.00  0.00    -0.248 NA
ATOM     67  C   UNL     1     -11.562  -9.979   2.695  1.00  0.00     0.031 C 
ATOM     68  C   UNL     1     -11.358 -10.072  -3.370  1.00  0.00     0.029 A 
ATOM     69  C   UNL     1     -11.015  -9.906  -2.038  1.00  0.00     0.049 A 
ATOM     70  H   UNL     1      -9.225  -9.159  -1.207  1.00  0.00     0.167 HD
ATOM     71  C   UNL     1     -11.389 -10.011   0.410  1.00  0.00     0.074 A 
ATOM     72  C   UNL     1     -12.194 -10.307   1.577  1.00  0.00     0.031 C 
ATOM     73  C   UNL     1     -11.803 -10.196  -0.868  1.00  0.00     0.031 A 
BRANCH  60  74
ATOM     74  C   UNL     1      -7.646  -8.531  -5.124  1.00  0.00    -0.014 A 
ATOM     75  C   UNL     1      -6.675  -9.330  -5.749  1.00  0.00     0.009 A 
ATOM     76  C   UNL     1      -8.342  -7.585  -5.893  1.00  0.00     0.009 A 
ATOM     77  C   UNL     1      -6.382  -9.159  -7.104  1.00  0.00     0.001 A 
ATOM     78  C   UNL     1      -8.069  -7.438  -7.255  1.00  0.00     0.001 A 
ATOM     79  C   UNL     1      -7.082  -8.217  -7.856  1.00  0.00     0.000 A 
ENDBRANCH  60  74
BRANCH  61  80
ATOM     80  C   UNL     1      -9.533  -9.220   4.655  1.00  0.00    -0.014 A 
ATOM     81  C   UNL     1      -9.698 -10.467   5.277  1.00  0.00     0.009 A 
ATOM     82  C   UNL     1      -9.670  -8.055   5.426  1.00  0.00     0.009 A 
ATOM     83  C   UNL     1     -10.026 -10.545   6.632  1.00  0.00     0.001 A 
ATOM     84  C   UNL     1      -9.967  -8.136   6.788  1.00  0.00     0.001 A 
ATOM     85  C   UNL     1     -10.156  -9.380   7.387  1.00  0.00     0.000 A 
ENDBRANCH  61  80
BRANCH  73  86
ATOM     86  C   UNL     1     -13.172 -10.784  -1.070  1.00  0.00    -0.014 A 
ATOM     87  C   UNL     1     -14.333 -10.042  -0.806  1.00  0.00     0.009 A 
ATOM     88  C   UNL     1     -13.298 -12.088  -1.574  1.00  0.00     0.009 A 
ATOM     89  C   UNL     1     -15.593 -10.608  -1.010  1.00  0.00     0.001 A 
ATOM     90  C   UNL     1     -14.558 -12.640  -1.806  1.00  0.00     0.001 A 
ATOM     91  C   UNL     1     -15.704 -11.903  -1.515  1.00  0.00     0.000 A 
ENDBRANCH  73  86
ENDBRANCH  47  48
ENDBRANCH  39  42
ENDBRANCH  37  38
ENDBRANCH  36  37
ENDBRANCH  35  36
ENDBRANCH  34  35
ENDBRANCH  33  34
ENDBRANCH  32  33
ENDBRANCH   3  32
TORSDOF 21
