REMARK SMILES COc1cc(C(C)C)cc([C@H]([NH3+])C(=O)NCCCCCCNC(=O)c2ccc(-c3c4nc(c(-c5ccccc5)c5ccc([nH]5)c(-c5ccccc5)c5nc(c(-c6ccccc6)c6ccc3[nH]6)C=C5)C=C4)cc2)c1O
REMARK SMILES IDX 18 1 17 2 16 3 15 4 13 5 14 6 11 8 10 9 3 10 4 11 73 12 5 13
REMARK SMILES IDX 9 14 2 15 1 16 74 17 6 19 7 20 8 21 12 22 19 26 20 27 21 28
REMARK SMILES IDX 22 29 23 30 24 32 25 33 26 34 72 35 27 36 71 37 28 38 29 39
REMARK SMILES IDX 30 40 65 41 31 42 70 43 64 44 66 45 32 46 69 47 63 48 62 49
REMARK SMILES IDX 33 51 55 52 40 53 54 54 41 55 44 56 53 57 67 58 42 59 43 60
REMARK SMILES IDX 52 62 68 63 45 64 34 65 35 66 39 67 36 68 38 69 37 70 56 71
REMARK SMILES IDX 57 72 61 73 58 74 60 75 59 76 46 77 47 78 51 79 48 80 50 81
REMARK SMILES IDX 49 82
REMARK H PARENT 15 7 74 18 12 23 12 24 12 25 22 31 66 50 44 61
REMARK Flexibility Score: inf
ROOT
ATOM      1  C   UNL     1      -1.604   2.419  -7.756  1.00  0.00     0.002 C 
ENDROOT
BRANCH   1   2
ATOM      2  C   UNL     1      -1.868   2.296  -6.252  1.00  0.00     0.021 C 
BRANCH   2   3
ATOM      3  C   UNL     1      -2.744   1.111  -5.854  1.00  0.00     0.116 C 
BRANCH   3   4
ATOM      4  N   UNL     1      -2.086  -0.158  -6.112  1.00  0.00    -0.351 N 
ATOM      5  C   UNL     1      -1.854  -1.192  -5.243  1.00  0.00     0.283 C 
ATOM      6  O   UNL     1      -1.282  -2.197  -5.676  1.00  0.00    -0.268 OA
ATOM      7  H   UNL     1      -1.764  -0.293  -7.033  1.00  0.00     0.163 HD
BRANCH   5   8
ATOM      8  C   UNL     1      -2.316  -1.104  -3.760  1.00  0.00     0.306 C 
BRANCH   8   9
ATOM      9  C   UNL     1      -3.833  -0.996  -3.611  1.00  0.00     0.065 A 
ATOM     10  C   UNL     1      -5.852  -0.198  -2.501  1.00  0.00     0.161 A 
ATOM     11  C   UNL     1      -6.656  -0.791  -3.473  1.00  0.00     0.054 A 
ATOM     12  C   UNL     1      -4.461  -0.365  -2.531  1.00  0.00     0.167 A 
ATOM     13  C   UNL     1      -6.074  -1.540  -4.503  1.00  0.00    -0.041 A 
ATOM     14  C   UNL     1      -4.671  -1.621  -4.561  1.00  0.00     0.018 A 
BRANCH  10  15
ATOM     15  O   UNL     1      -6.477   0.471  -1.479  1.00  0.00    -0.493 OA
ATOM     16  C   UNL     1      -6.122   1.858  -1.433  1.00  0.00     0.278 C 
ENDBRANCH  10  15
BRANCH  12  17
ATOM     17  O   UNL     1      -3.718   0.046  -1.454  1.00  0.00    -0.504 OA
ATOM     18  H   UNL     1      -4.136   0.469  -0.730  1.00  0.00     0.293 HD
ENDBRANCH  12  17
BRANCH  13  19
ATOM     19  C   UNL     1      -6.904  -2.277  -5.540  1.00  0.00     0.013 C 
ATOM     20  C   UNL     1      -7.841  -3.298  -4.891  1.00  0.00     0.012 C 
ATOM     21  C   UNL     1      -7.678  -1.313  -6.440  1.00  0.00     0.012 C 
ENDBRANCH  13  19
ENDBRANCH   8   9
BRANCH   8  22
ATOM     22  N   UNL     1      -1.546  -0.010  -3.124  1.00  0.00    -0.343 N 
ATOM     23  H   UNL     1      -1.740   0.868  -3.607  1.00  0.00     0.345 HD
ATOM     24  H   UNL     1      -0.549  -0.217  -3.182  1.00  0.00     0.345 HD
ATOM     25  H   UNL     1      -1.820   0.074  -2.145  1.00  0.00     0.345 HD
ENDBRANCH   8  22
ENDBRANCH   5   8
ENDBRANCH   3   4
ENDBRANCH   2   3
ENDBRANCH   1   2
BRANCH   1  26
ATOM     26  C   UNL     1      -2.853   2.527  -8.637  1.00  0.00     0.002 C 
BRANCH  26  27
ATOM     27  C   UNL     1      -3.821   3.658  -8.278  1.00  0.00     0.021 C 
BRANCH  27  28
ATOM     28  C   UNL     1      -3.210   5.057  -8.241  1.00  0.00     0.116 C 
BRANCH  28  29
ATOM     29  N   UNL     1      -2.627   5.448  -9.512  1.00  0.00    -0.352 N 
ATOM     30  C   UNL     1      -2.759   6.614 -10.223  1.00  0.00     0.251 C 
ATOM     31  H   UNL     1      -2.047   4.771  -9.929  1.00  0.00     0.163 HD
ATOM     32  O   UNL     1      -2.290   6.693 -11.355  1.00  0.00    -0.269 OA
BRANCH  30  33
ATOM     33  C   UNL     1      -3.483   7.771  -9.651  1.00  0.00     0.039 A 
ATOM     34  C   UNL     1      -4.351   8.486 -10.483  1.00  0.00     0.014 A 
ATOM     35  C   UNL     1      -3.290   8.181  -8.329  1.00  0.00     0.014 A 
ATOM     36  C   UNL     1      -5.065   9.572  -9.975  1.00  0.00     0.010 A 
ATOM     37  C   UNL     1      -4.048   9.230  -7.806  1.00  0.00     0.010 A 
ATOM     38  C   UNL     1      -4.942   9.935  -8.624  1.00  0.00    -0.014 A 
BRANCH  38  39
ATOM     39  C   UNL     1      -5.765  11.035  -8.062  1.00  0.00     0.031 A 
ATOM     40  C   UNL     1      -5.130  12.317  -7.604  1.00  0.00     0.074 A 
ATOM     41  C   UNL     1      -7.095  10.862  -7.933  1.00  0.00     0.049 A 
ATOM     42  N   UNL     1      -5.699  13.388  -7.109  1.00  0.00    -0.248 NA
ATOM     43  C   UNL     1      -3.664  12.404  -7.696  1.00  0.00     0.031 C 
ATOM     44  C   UNL     1      -7.830   9.648  -8.294  1.00  0.00     0.029 A 
ATOM     45  N   UNL     1      -8.065  11.712  -7.465  1.00  0.00    -0.354 N 
ATOM     46  C   UNL     1      -4.665  14.269  -6.822  1.00  0.00     0.074 A 
ATOM     47  C   UNL     1      -3.430  13.593  -7.157  1.00  0.00     0.031 C 
ATOM     48  C   UNL     1      -9.139   9.843  -8.065  1.00  0.00     0.029 A 
ATOM     49  C   UNL     1      -9.331  11.182  -7.518  1.00  0.00     0.049 A 
ATOM     50  H   UNL     1      -7.873  12.615  -7.124  1.00  0.00     0.167 HD
ATOM     51  C   UNL     1      -4.736  15.533  -6.339  1.00  0.00     0.031 A 
ATOM     52  C   UNL     1     -10.517  11.715  -7.171  1.00  0.00     0.031 A 
ATOM     53  C   UNL     1      -5.961  16.212  -6.012  1.00  0.00     0.049 A 
ATOM     54  C   UNL     1     -10.569  13.121  -6.645  1.00  0.00     0.074 A 
ATOM     55  C   UNL     1      -6.136  17.515  -5.577  1.00  0.00     0.029 A 
ATOM     56  N   UNL     1      -7.222  15.641  -6.081  1.00  0.00    -0.354 N 
ATOM     57  N   UNL     1      -9.588  13.967  -6.453  1.00  0.00    -0.248 NA
ATOM     58  C   UNL     1     -11.898  13.647  -6.301  1.00  0.00     0.031 C 
ATOM     59  C   UNL     1      -7.500  17.719  -5.341  1.00  0.00     0.029 A 
ATOM     60  C   UNL     1      -8.178  16.557  -5.673  1.00  0.00     0.049 A 
ATOM     61  H   UNL     1      -7.410  14.721  -6.376  1.00  0.00     0.167 HD
ATOM     62  C   UNL     1     -10.180  15.131  -5.983  1.00  0.00     0.074 A 
ATOM     63  C   UNL     1     -11.607  14.889  -5.938  1.00  0.00     0.031 C 
ATOM     64  C   UNL     1      -9.593  16.297  -5.621  1.00  0.00     0.031 A 
BRANCH  51  65
ATOM     65  C   UNL     1      -3.440  16.265  -6.131  1.00  0.00    -0.014 A 
ATOM     66  C   UNL     1      -2.688  16.731  -7.221  1.00  0.00     0.009 A 
ATOM     67  C   UNL     1      -2.984  16.525  -4.830  1.00  0.00     0.009 A 
ATOM     68  C   UNL     1      -1.488  17.413  -7.012  1.00  0.00     0.001 A 
ATOM     69  C   UNL     1      -1.796  17.230  -4.623  1.00  0.00     0.001 A 
ATOM     70  C   UNL     1      -1.045  17.665  -5.714  1.00  0.00     0.000 A 
ENDBRANCH  51  65
BRANCH  52  71
ATOM     71  C   UNL     1     -11.762  10.923  -7.338  1.00  0.00    -0.014 A 
ATOM     72  C   UNL     1     -12.666  11.232  -8.365  1.00  0.00     0.009 A 
ATOM     73  C   UNL     1     -12.049   9.855  -6.475  1.00  0.00     0.009 A 
ATOM     74  C   UNL     1     -13.847  10.500  -8.511  1.00  0.00     0.001 A 
ATOM     75  C   UNL     1     -13.218   9.109  -6.639  1.00  0.00     0.001 A 
ATOM     76  C   UNL     1     -14.119   9.437  -7.651  1.00  0.00     0.000 A 
ENDBRANCH  52  71
BRANCH  64  77
ATOM     77  C   UNL     1     -10.500  17.401  -5.158  1.00  0.00    -0.014 A 
ATOM     78  C   UNL     1     -11.115  17.352  -3.897  1.00  0.00     0.009 A 
ATOM     79  C   UNL     1     -10.725  18.512  -5.984  1.00  0.00     0.009 A 
ATOM     80  C   UNL     1     -11.966  18.380  -3.487  1.00  0.00     0.001 A 
ATOM     81  C   UNL     1     -11.557  19.550  -5.562  1.00  0.00     0.001 A 
ATOM     82  C   UNL     1     -12.184  19.478  -4.318  1.00  0.00     0.000 A 
ENDBRANCH  64  77
ENDBRANCH  38  39
ENDBRANCH  30  33
ENDBRANCH  28  29
ENDBRANCH  27  28
ENDBRANCH  26  27
ENDBRANCH   1  26
TORSDOF 18
