REMARK SMILES CC1=CC2=[NH+]C(=O)C[C@@](C)(C(=O)NCCCCCCNC(=O)c3ccc(-c4c5nc(c(-c6ccccc6)c6ccc([nH]6)c(-c6ccccc6)c6nc(c(-c7ccccc7)c7ccc4[nH]7)C=C6)C=C5)cc3)N2C=C1
REMARK SMILES IDX 17 1 16 2 15 3 14 4 13 5 11 6 12 7 9 9 1 10 2 11 3 12 73 13
REMARK SMILES IDX 4 14 72 15 5 16 71 17 6 18 7 20 8 21 10 22 18 23 19 24 20 25
REMARK SMILES IDX 21 26 22 28 23 29 24 30 70 31 25 32 69 33 26 34 27 35 28 36
REMARK SMILES IDX 63 37 29 38 68 39 62 40 64 41 30 42 67 43 61 44 60 45 31 47
REMARK SMILES IDX 53 48 38 49 52 50 39 51 42 52 51 53 65 54 40 55 41 56 50 58
REMARK SMILES IDX 66 59 43 60 32 61 33 62 37 63 34 64 36 65 35 66 54 67 55 68
REMARK SMILES IDX 59 69 56 70 58 71 57 72 44 73 45 74 49 75 46 76 48 77 47 78
REMARK H PARENT 13 8 5 19 20 27 64 46 42 57
REMARK Flexibility Score: inf
ROOT
ATOM      1  C   UNL     1      -2.239   6.070   9.084  1.00  0.00     0.002 C 
ENDROOT
BRANCH   1   2
ATOM      2  C   UNL     1      -2.928   5.565   7.817  1.00  0.00     0.002 C 
BRANCH   2   3
ATOM      3  C   UNL     1      -2.393   6.096   6.486  1.00  0.00     0.021 C 
BRANCH   3   4
ATOM      4  C   UNL     1      -0.897   5.937   6.211  1.00  0.00     0.116 C 
BRANCH   4   5
ATOM      5  N   UNL     1      -0.347   4.596   6.257  1.00  0.00    -0.352 N 
ATOM      6  C   UNL     1      -0.112   3.692   5.253  1.00  0.00     0.268 C 
ATOM      7  O   UNL     1       0.864   2.954   5.431  1.00  0.00    -0.270 OA
ATOM      8  H   UNL     1      -0.102   4.282   7.157  1.00  0.00     0.163 HD
BRANCH   6   9
ATOM      9  C   UNL     1      -1.124   3.462   4.086  1.00  0.00     0.197 C 
ATOM     10  C   UNL     1       1.083  -0.030  -0.018  1.00  0.00     0.045 C 
ATOM     11  C   UNL     1       0.462   0.816   1.051  1.00  0.00    -0.039 C 
ATOM     12  C   UNL     1      -0.654   0.443   1.702  1.00  0.00     0.102 C 
ATOM     13  C   UNL     1       1.107   2.081   1.367  1.00  0.00     0.047 C 
ATOM     14  C   UNL     1      -1.263   1.407   2.674  1.00  0.00     0.282 C 
ATOM     15  C   UNL     1       0.621   2.853   2.350  1.00  0.00     0.202 C 
ATOM     16  N   UNL     1      -2.479   1.121   3.033  1.00  0.00    -0.210 N 
ATOM     17  N   UNL     1      -0.541   2.542   3.061  1.00  0.00    -0.219 N 
ATOM     18  C   UNL     1      -3.122   2.054   3.792  1.00  0.00     0.312 C 
ATOM     19  H   UNL     1      -2.912   0.277   2.771  1.00  0.00     0.315 HD
ATOM     20  O   UNL     1      -4.322   2.285   3.705  1.00  0.00    -0.247 OA
ATOM     21  C   UNL     1      -2.285   2.766   4.797  1.00  0.00     0.191 C 
ATOM     22  C   UNL     1      -1.555   4.724   3.326  1.00  0.00     0.074 C 
ENDBRANCH   6   9
ENDBRANCH   4   5
ENDBRANCH   3   4
ENDBRANCH   2   3
ENDBRANCH   1   2
BRANCH   1  23
ATOM     23  C   UNL     1      -2.044   7.583   9.185  1.00  0.00     0.021 C 
BRANCH  23  24
ATOM     24  C   UNL     1      -3.317   8.416   9.082  1.00  0.00     0.116 C 
BRANCH  24  25
ATOM     25  N   UNL     1      -4.182   8.253  10.238  1.00  0.00    -0.352 N 
ATOM     26  C   UNL     1      -4.582   9.183  11.168  1.00  0.00     0.251 C 
ATOM     27  H   UNL     1      -4.533   7.344  10.376  1.00  0.00     0.163 HD
ATOM     28  O   UNL     1      -5.163   8.824  12.188  1.00  0.00    -0.269 OA
BRANCH  26  29
ATOM     29  C   UNL     1      -4.297  10.620  10.956  1.00  0.00     0.039 A 
ATOM     30  C   UNL     1      -3.815  11.381  12.025  1.00  0.00     0.014 A 
ATOM     31  C   UNL     1      -4.521  11.222   9.715  1.00  0.00     0.014 A 
ATOM     32  C   UNL     1      -3.500  12.729  11.833  1.00  0.00     0.010 A 
ATOM     33  C   UNL     1      -4.135  12.544   9.505  1.00  0.00     0.010 A 
ATOM     34  C   UNL     1      -3.628  13.314  10.563  1.00  0.00    -0.014 A 
BRANCH  34  35
ATOM     35  C   UNL     1      -3.261  14.733  10.320  1.00  0.00     0.031 A 
ATOM     36  C   UNL     1      -4.316  15.720   9.896  1.00  0.00     0.074 A 
ATOM     37  C   UNL     1      -1.974  15.122  10.410  1.00  0.00     0.049 A 
ATOM     38  N   UNL     1      -4.181  16.974   9.543  1.00  0.00    -0.248 NA
ATOM     39  C   UNL     1      -5.700  15.225   9.835  1.00  0.00     0.031 C 
ATOM     40  C   UNL     1      -0.851  14.262  10.787  1.00  0.00     0.029 A 
ATOM     41  N   UNL     1      -1.393  16.345  10.179  1.00  0.00    -0.354 N 
ATOM     42  C   UNL     1      -5.456  17.407   9.199  1.00  0.00     0.074 A 
ATOM     43  C   UNL     1      -6.341  16.272   9.338  1.00  0.00     0.031 C 
ATOM     44  C   UNL     1       0.279  14.989  10.781  1.00  0.00     0.029 A 
ATOM     45  C   UNL     1      -0.031  16.351  10.358  1.00  0.00     0.049 A 
ATOM     46  H   UNL     1      -1.905  17.142   9.910  1.00  0.00     0.167 HD
ATOM     47  C   UNL     1      -5.859  18.643   8.819  1.00  0.00     0.031 A 
ATOM     48  C   UNL     1       0.870  17.337  10.190  1.00  0.00     0.031 A 
ATOM     49  C   UNL     1      -4.983  19.777   8.693  1.00  0.00     0.049 A 
ATOM     50  C   UNL     1       0.401  18.695   9.744  1.00  0.00     0.074 A 
ATOM     51  C   UNL     1      -5.305  21.082   8.361  1.00  0.00     0.029 A 
ATOM     52  N   UNL     1      -3.612  19.741   8.893  1.00  0.00    -0.354 N 
ATOM     53  N   UNL     1      -0.816  19.102   9.474  1.00  0.00    -0.248 NA
ATOM     54  C   UNL     1       1.431  19.733   9.589  1.00  0.00     0.031 C 
ATOM     55  C   UNL     1      -4.121  21.824   8.310  1.00  0.00     0.029 A 
ATOM     56  C   UNL     1      -3.070  20.995   8.671  1.00  0.00     0.049 A 
ATOM     57  H   UNL     1      -3.100  18.942   9.154  1.00  0.00     0.167 HD
ATOM     58  C   UNL     1      -0.703  20.449   9.155  1.00  0.00     0.074 A 
ATOM     59  C   UNL     1       0.699  20.793   9.273  1.00  0.00     0.031 C 
ATOM     60  C   UNL     1      -1.675  21.325   8.800  1.00  0.00     0.031 A 
BRANCH  47  61
ATOM     61  C   UNL     1      -7.317  18.828   8.500  1.00  0.00    -0.014 A 
ATOM     62  C   UNL     1      -8.296  18.781   9.507  1.00  0.00     0.009 A 
ATOM     63  C   UNL     1      -7.716  19.086   7.179  1.00  0.00     0.009 A 
ATOM     64  C   UNL     1      -9.645  18.948   9.191  1.00  0.00     0.001 A 
ATOM     65  C   UNL     1      -9.063  19.285   6.871  1.00  0.00     0.001 A 
ATOM     66  C   UNL     1     -10.027  19.205   7.875  1.00  0.00     0.000 A 
ENDBRANCH  47  61
BRANCH  48  67
ATOM     67  C   UNL     1       2.311  17.085  10.454  1.00  0.00    -0.014 A 
ATOM     68  C   UNL     1       2.946  17.674  11.559  1.00  0.00     0.009 A 
ATOM     69  C   UNL     1       3.063  16.266   9.598  1.00  0.00     0.009 A 
ATOM     70  C   UNL     1       4.309  17.471  11.784  1.00  0.00     0.001 A 
ATOM     71  C   UNL     1       4.420  16.040   9.844  1.00  0.00     0.001 A 
ATOM     72  C   UNL     1       5.044  16.651  10.930  1.00  0.00     0.000 A 
ENDBRANCH  48  67
BRANCH  60  73
ATOM     73  C   UNL     1      -1.268  22.752   8.565  1.00  0.00    -0.014 A 
ATOM     74  C   UNL     1      -0.544  23.130   7.424  1.00  0.00     0.009 A 
ATOM     75  C   UNL     1      -1.665  23.742   9.478  1.00  0.00     0.009 A 
ATOM     76  C   UNL     1      -0.199  24.468   7.219  1.00  0.00     0.001 A 
ATOM     77  C   UNL     1      -1.345  25.082   9.256  1.00  0.00     0.001 A 
ATOM     78  C   UNL     1      -0.605  25.443   8.131  1.00  0.00     0.000 A 
ENDBRANCH  60  73
ENDBRANCH  34  35
ENDBRANCH  26  29
ENDBRANCH  24  25
ENDBRANCH  23  24
ENDBRANCH   1  23
TORSDOF 13
