REMARK SMILES Cc1c(C(=O)NCCCCCCNC(=O)c2ccc(-c3c4nc(c(-c5ccccc5)c5ccc([nH]5)c(-c5ccccc5)c5nc(c(-c6ccccc6)c6ccc3[nH]6)C=C5)C=C4)cc2)cccc1N1[C@@H](C)C=C(/C=C(\C#N)C(=O)NCCc2c[nH]c3ccccc23)[C@@H]1C
REMARK SMILES IDX 7 1 6 2 4 3 5 4 3 6 1 7 2 8 67 9 64 10 66 11 65 12 68 13
REMARK SMILES IDX 69 14 91 15 71 16 70 17 72 18 92 19 73 20 74 21 75 22 76 23
REMARK SMILES IDX 77 24 78 25 79 26 80 28 81 29 82 30 83 31 90 32 84 33 85 34
REMARK SMILES IDX 89 35 86 37 88 38 87 39 8 40 9 41 10 42 11 43 12 44 13 45
REMARK SMILES IDX 14 46 15 48 16 49 17 50 63 51 18 52 62 53 19 54 20 55 21 56
REMARK SMILES IDX 56 57 22 58 61 59 55 60 57 61 23 62 60 63 54 64 53 65 24 67
REMARK SMILES IDX 46 68 31 69 45 70 32 71 35 72 44 73 58 74 33 75 34 76 43 78
REMARK SMILES IDX 59 79 36 80 25 81 26 82 30 83 27 84 29 85 28 86 47 87 48 88
REMARK SMILES IDX 52 89 49 90 51 91 50 92 37 93 38 94 42 95 39 96 41 97 40 98
REMARK H PARENT 6 5 79 27 84 36 13 47 57 66 35 77
REMARK Flexibility Score: inf
ROOT
ATOM      1  C   UNL     1       3.310  -2.206  -0.244  1.00  0.00     0.116 C 
ENDROOT
BRANCH   1   2
ATOM      2  N   UNL     1       2.046  -2.801   0.071  1.00  0.00    -0.352 N 
ATOM      3  C   UNL     1       0.763  -2.368   0.185  1.00  0.00     0.251 C 
ATOM      4  O   UNL     1      -0.031  -3.290   0.419  1.00  0.00    -0.269 OA
ATOM      5  H   UNL     1       2.127  -3.766   0.248  1.00  0.00     0.163 HD
BRANCH   3   6
ATOM      6  C   UNL     1       0.216  -0.970   0.010  1.00  0.00     0.044 A 
ATOM      7  C   UNL     1       2.250   0.530   0.531  1.00  0.00     0.047 C 
ATOM      8  C   UNL     1       0.839   0.307   0.066  1.00  0.00    -0.015 A 
ATOM      9  C   UNL     1       0.067   1.485  -0.174  1.00  0.00     0.041 A 
ATOM     10  C   UNL     1      -1.192  -0.996  -0.139  1.00  0.00     0.014 A 
ATOM     11  C   UNL     1      -1.325   1.381  -0.310  1.00  0.00     0.026 A 
ATOM     12  C   UNL     1      -1.958   0.154  -0.264  1.00  0.00     0.003 A 
BRANCH   9  13
ATOM     13  N   UNL     1       0.604   2.754  -0.097  1.00  0.00    -0.358 N 
ATOM     14  C   UNL     1       0.286   3.613   1.048  1.00  0.00     0.103 C 
ATOM     15  C   UNL     1       1.696   3.279  -0.929  1.00  0.00     0.110 C 
ATOM     16  C   UNL     1       1.414   4.589   0.993  1.00  0.00     0.003 C 
ATOM     17  C   UNL     1       0.348   2.895   2.399  1.00  0.00     0.035 C 
ATOM     18  C   UNL     1       2.274   4.337  -0.003  1.00  0.00    -0.026 C 
ATOM     19  C   UNL     1       1.132   3.893  -2.214  1.00  0.00     0.036 C 
BRANCH  18  20
ATOM     20  C   UNL     1       3.569   4.947  -0.225  1.00  0.00     0.031 C 
ATOM     21  C   UNL     1       4.316   5.671   0.641  1.00  0.00     0.117 C 
BRANCH  21  22
ATOM     22  C   UNL     1       3.911   5.968   1.972  1.00  0.00     0.105 C 
ATOM     23  N   UNL     1       3.574   6.229   3.046  1.00  0.00    -0.192 NA
ENDBRANCH  21  22
BRANCH  21  24
ATOM     24  C   UNL     1       5.500   6.369   0.065  1.00  0.00     0.261 C 
ATOM     25  O   UNL     1       5.784   6.260  -1.129  1.00  0.00    -0.268 OA
ATOM     26  N   UNL     1       6.153   7.317   0.787  1.00  0.00    -0.351 N 
ATOM     27  H   UNL     1       6.271   8.166   0.302  1.00  0.00     0.163 HD
BRANCH  26  28
ATOM     28  C   UNL     1       6.721   7.336   2.145  1.00  0.00     0.121 C 
BRANCH  28  29
ATOM     29  C   UNL     1       8.111   6.643   2.292  1.00  0.00     0.059 C 
BRANCH  29  30
ATOM     30  C   UNL     1       9.248   7.320   1.521  1.00  0.00    -0.021 A 
ATOM     31  C   UNL     1       9.254   8.682   1.224  1.00  0.00     0.087 A 
ATOM     32  C   UNL     1       9.848   6.812   0.324  1.00  0.00     0.003 A 
ATOM     33  N   UNL     1       8.673   8.640  -0.048  1.00  0.00    -0.361 N 
ATOM     34  C   UNL     1       9.174   7.516  -0.675  1.00  0.00     0.046 A 
ATOM     35  C   UNL     1      10.793   5.847  -0.064  1.00  0.00     0.010 A 
ATOM     36  H   UNL     1       8.032   9.286  -0.423  1.00  0.00     0.166 HD
ATOM     37  C   UNL     1       9.153   7.126  -2.010  1.00  0.00     0.026 A 
ATOM     38  C   UNL     1      10.954   5.594  -1.437  1.00  0.00     0.001 A 
ATOM     39  C   UNL     1      10.091   6.162  -2.379  1.00  0.00     0.002 A 
ENDBRANCH  29  30
ENDBRANCH  28  29
ENDBRANCH  26  28
ENDBRANCH  21  24
ENDBRANCH  18  20
ENDBRANCH   9  13
ENDBRANCH   3   6
ENDBRANCH   1   2
BRANCH   1  40
ATOM     40  C   UNL     1       4.159  -2.059   1.028  1.00  0.00     0.021 C 
BRANCH  40  41
ATOM     41  C   UNL     1       5.330  -3.039   1.083  1.00  0.00     0.002 C 
BRANCH  41  42
ATOM     42  C   UNL     1       6.232  -3.001  -0.155  1.00  0.00     0.002 C 
BRANCH  42  43
ATOM     43  C   UNL     1       6.652  -1.598  -0.590  1.00  0.00     0.021 C 
BRANCH  43  44
ATOM     44  C   UNL     1       7.663  -0.978   0.352  1.00  0.00     0.116 C 
BRANCH  44  45
ATOM     45  N   UNL     1       8.973  -1.581   0.157  1.00  0.00    -0.352 N 
ATOM     46  C   UNL     1      10.241  -1.117   0.417  1.00  0.00     0.251 C 
ATOM     47  H   UNL     1       8.946  -2.485  -0.231  1.00  0.00     0.163 HD
ATOM     48  O   UNL     1      11.198  -1.689  -0.101  1.00  0.00    -0.269 OA
BRANCH  46  49
ATOM     49  C   UNL     1      10.472  -0.129   1.506  1.00  0.00     0.039 A 
ATOM     50  C   UNL     1      11.489  -0.532   2.387  1.00  0.00     0.014 A 
ATOM     51  C   UNL     1       9.406   0.623   1.972  1.00  0.00     0.014 A 
ATOM     52  C   UNL     1      11.219  -0.570   3.741  1.00  0.00     0.010 A 
ATOM     53  C   UNL     1       9.046   0.426   3.273  1.00  0.00     0.010 A 
ATOM     54  C   UNL     1       9.932  -0.233   4.127  1.00  0.00    -0.014 A 
BRANCH  54  55
ATOM     55  C   UNL     1       9.419  -0.368   5.463  1.00  0.00     0.031 A 
ATOM     56  C   UNL     1       9.590   0.833   6.289  1.00  0.00     0.074 A 
ATOM     57  C   UNL     1       8.639  -1.447   5.697  1.00  0.00     0.049 A 
ATOM     58  N   UNL     1       9.505   0.862   7.562  1.00  0.00    -0.248 NA
ATOM     59  C   UNL     1       9.950   2.142   5.720  1.00  0.00     0.031 C 
ATOM     60  C   UNL     1       7.677  -1.705   6.758  1.00  0.00     0.029 A 
ATOM     61  N   UNL     1       8.741  -2.676   5.040  1.00  0.00    -0.354 N 
ATOM     62  C   UNL     1       9.366   2.189   7.912  1.00  0.00     0.074 A 
ATOM     63  C   UNL     1       9.822   2.944   6.779  1.00  0.00     0.031 C 
ATOM     64  C   UNL     1       7.519  -3.039   6.887  1.00  0.00     0.029 A 
ATOM     65  C   UNL     1       8.477  -3.677   5.994  1.00  0.00     0.049 A 
ATOM     66  H   UNL     1       8.956  -2.816   4.090  1.00  0.00     0.167 HD
ATOM     67  C   UNL     1       8.667   2.467   9.044  1.00  0.00     0.031 A 
ATOM     68  C   UNL     1       9.513  -4.471   6.408  1.00  0.00     0.031 A 
ATOM     69  C   UNL     1       8.322   1.215   9.717  1.00  0.00     0.049 A 
ATOM     70  C   UNL     1       9.924  -4.122   7.827  1.00  0.00     0.074 A 
ATOM     71  C   UNL     1       7.170   0.446   9.711  1.00  0.00     0.029 A 
ATOM     72  N   UNL     1       9.357   0.376  10.117  1.00  0.00    -0.354 N 
ATOM     73  N   UNL     1       9.760  -2.943   8.371  1.00  0.00    -0.248 NA
ATOM     74  C   UNL     1      10.450  -5.105   8.769  1.00  0.00     0.031 C 
ATOM     75  C   UNL     1       7.550  -0.896  10.004  1.00  0.00     0.029 A 
ATOM     76  C   UNL     1       8.921  -0.933  10.202  1.00  0.00     0.049 A 
ATOM     77  H   UNL     1      10.274   0.674  10.312  1.00  0.00     0.167 HD
ATOM     78  C   UNL     1      10.050  -3.014   9.709  1.00  0.00     0.074 A 
ATOM     79  C   UNL     1      10.504  -4.381   9.901  1.00  0.00     0.031 C 
ATOM     80  C   UNL     1       9.861  -1.980  10.584  1.00  0.00     0.031 A 
BRANCH  67  81
ATOM     81  C   UNL     1       8.041   3.795   9.383  1.00  0.00    -0.014 A 
ATOM     82  C   UNL     1       7.062   3.829  10.394  1.00  0.00     0.009 A 
ATOM     83  C   UNL     1       8.304   5.018   8.741  1.00  0.00     0.009 A 
ATOM     84  C   UNL     1       6.363   4.997  10.720  1.00  0.00     0.001 A 
ATOM     85  C   UNL     1       7.604   6.193   9.059  1.00  0.00     0.001 A 
ATOM     86  C   UNL     1       6.630   6.181  10.047  1.00  0.00     0.000 A 
ENDBRANCH  67  81
BRANCH  68  87
ATOM     87  C   UNL     1      10.418  -4.826   5.263  1.00  0.00    -0.014 A 
ATOM     88  C   UNL     1       9.847  -5.596   4.221  1.00  0.00     0.009 A 
ATOM     89  C   UNL     1      11.540  -4.040   4.962  1.00  0.00     0.009 A 
ATOM     90  C   UNL     1      10.237  -5.408   2.890  1.00  0.00     0.001 A 
ATOM     91  C   UNL     1      11.950  -3.888   3.627  1.00  0.00     0.001 A 
ATOM     92  C   UNL     1      11.258  -4.513   2.590  1.00  0.00     0.000 A 
ENDBRANCH  68  87
BRANCH  80  93
ATOM     93  C   UNL     1      10.503  -1.871  11.948  1.00  0.00    -0.014 A 
ATOM     94  C   UNL     1      11.594  -2.640  12.364  1.00  0.00     0.009 A 
ATOM     95  C   UNL     1      10.103  -0.827  12.818  1.00  0.00     0.009 A 
ATOM     96  C   UNL     1      12.204  -2.428  13.606  1.00  0.00     0.001 A 
ATOM     97  C   UNL     1      10.760  -0.558  14.017  1.00  0.00     0.001 A 
ATOM     98  C   UNL     1      11.798  -1.379  14.424  1.00  0.00     0.000 A 
ENDBRANCH  80  93
ENDBRANCH  54  55
ENDBRANCH  46  49
ENDBRANCH  44  45
ENDBRANCH  43  44
ENDBRANCH  42  43
ENDBRANCH  41  42
ENDBRANCH  40  41
ENDBRANCH   1  40
TORSDOF 20
