REMARK SMILES C[C@]1(C(=O)NCCCCCCNC(=O)c2ccc(-c3c4nc(c(-c5ccccc5)c5ccc([nH]5)c(-c5ccccc5)c5nc(c(-c6ccccc6)c6ccc3[nH]6)C=C5)C=C4)cc2)COC[C@H]1Nc1ccc2nnnn2n1
REMARK SMILES IDX 8 1 7 2 6 3 5 4 3 5 4 6 2 8 1 9 63 10 66 11 64 12 65 13
REMARK SMILES IDX 67 14 68 16 69 17 76 18 70 19 75 20 71 21 74 22 72 23 73 24
REMARK SMILES IDX 9 25 10 26 11 27 12 28 13 29 14 31 15 32 16 33 62 34 17 35
REMARK SMILES IDX 61 36 18 37 19 38 20 39 55 40 21 41 60 42 54 43 56 44 22 45
REMARK SMILES IDX 59 46 53 47 52 48 23 50 45 51 30 52 44 53 31 54 34 55 43 56
REMARK SMILES IDX 57 57 32 58 33 59 42 61 58 62 35 63 24 64 25 65 29 66 26 67
REMARK SMILES IDX 28 68 27 69 46 70 47 71 51 72 48 73 50 74 49 75 36 76 37 77
REMARK SMILES IDX 41 78 38 79 40 80 39 81
REMARK H PARENT 5 7 67 15 12 30 56 49 34 60
REMARK Flexibility Score: inf
ROOT
ATOM      1  C   UNL     1      -0.590  -3.146  -2.599  1.00  0.00     0.002 C 
ENDROOT
BRANCH   1   2
ATOM      2  C   UNL     1      -0.891  -1.648  -2.675  1.00  0.00     0.021 C 
BRANCH   2   3
ATOM      3  C   UNL     1      -0.985  -0.885  -1.353  1.00  0.00     0.116 C 
BRANCH   3   4
ATOM      4  N   UNL     1       0.233  -0.938  -0.572  1.00  0.00    -0.355 N 
ATOM      5  C   UNL     1       0.803  -0.044   0.277  1.00  0.00     0.230 C 
ATOM      6  O   UNL     1       1.841  -0.423   0.835  1.00  0.00    -0.274 OA
ATOM      7  H   UNL     1       0.740  -1.775  -0.675  1.00  0.00     0.163 HD
BRANCH   5   8
ATOM      8  C   UNL     1       0.244   1.361   0.529  1.00  0.00     0.092 C 
ATOM      9  C   UNL     1      -1.272   1.372   0.830  1.00  0.00     0.026 C 
ATOM     10  C   UNL     1       0.955   1.960   1.755  1.00  0.00     0.179 C 
ATOM     11  C   UNL     1       0.577   2.396  -0.553  1.00  0.00     0.124 C 
ATOM     12  O   UNL     1       0.878   3.384   1.608  1.00  0.00    -0.378 OA
ATOM     13  C   UNL     1       1.036   3.648   0.213  1.00  0.00     0.186 C 
BRANCH  11  14
ATOM     14  N   UNL     1       1.585   1.988  -1.550  1.00  0.00    -0.362 N 
ATOM     15  H   UNL     1       2.454   1.616  -1.275  1.00  0.00     0.162 HD
BRANCH  14  16
ATOM     16  C   UNL     1       1.264   2.147  -2.879  1.00  0.00     0.149 A 
ATOM     17  C   UNL     1       1.475   3.484  -3.508  1.00  0.00     0.053 A 
ATOM     18  N   UNL     1       0.621   1.196  -3.491  1.00  0.00    -0.129 NA
ATOM     19  C   UNL     1       0.442   3.953  -4.223  1.00  0.00     0.057 A 
ATOM     20  N   UNL     1      -0.010   1.643  -4.602  1.00  0.00    -0.108 N 
ATOM     21  C   UNL     1      -0.261   2.959  -4.943  1.00  0.00     0.200 A 
ATOM     22  N   UNL     1      -0.701   0.838  -5.417  1.00  0.00    -0.022 NA
ATOM     23  N   UNL     1      -1.055   2.971  -5.990  1.00  0.00    -0.107 NA
ATOM     24  N   UNL     1      -1.326   1.647  -6.264  1.00  0.00    -0.022 NA
ENDBRANCH  14  16
ENDBRANCH  11  14
ENDBRANCH   5   8
ENDBRANCH   3   4
ENDBRANCH   2   3
ENDBRANCH   1   2
BRANCH   1  25
ATOM     25  C   UNL     1      -1.556  -3.999  -1.779  1.00  0.00     0.002 C 
BRANCH  25  26
ATOM     26  C   UNL     1      -3.039  -3.855  -2.124  1.00  0.00     0.021 C 
BRANCH  26  27
ATOM     27  C   UNL     1      -3.405  -4.040  -3.594  1.00  0.00     0.116 C 
BRANCH  27  28
ATOM     28  N   UNL     1      -3.097  -5.372  -4.098  1.00  0.00    -0.352 N 
ATOM     29  C   UNL     1      -3.882  -6.213  -4.817  1.00  0.00     0.251 C 
ATOM     30  H   UNL     1      -2.195  -5.707  -3.888  1.00  0.00     0.163 HD
ATOM     31  O   UNL     1      -3.478  -7.386  -5.055  1.00  0.00    -0.269 OA
BRANCH  29  32
ATOM     32  C   UNL     1      -5.210  -5.811  -5.308  1.00  0.00     0.039 A 
ATOM     33  C   UNL     1      -6.282  -6.700  -5.187  1.00  0.00     0.014 A 
ATOM     34  C   UNL     1      -5.407  -4.562  -5.910  1.00  0.00     0.014 A 
ATOM     35  C   UNL     1      -7.555  -6.325  -5.622  1.00  0.00     0.010 A 
ATOM     36  C   UNL     1      -6.689  -4.164  -6.282  1.00  0.00     0.010 A 
ATOM     37  C   UNL     1      -7.775  -5.044  -6.154  1.00  0.00    -0.014 A 
BRANCH  37  38
ATOM     38  C   UNL     1      -9.124  -4.621  -6.608  1.00  0.00     0.031 A 
ATOM     39  C   UNL     1      -9.373  -4.337  -8.065  1.00  0.00     0.074 A 
ATOM     40  C   UNL     1     -10.112  -4.442  -5.709  1.00  0.00     0.049 A 
ATOM     41  N   UNL     1     -10.462  -3.900  -8.647  1.00  0.00    -0.248 NA
ATOM     42  C   UNL     1      -8.245  -4.551  -8.985  1.00  0.00     0.031 C 
ATOM     43  C   UNL     1      -9.996  -4.653  -4.265  1.00  0.00     0.029 A 
ATOM     44  N   UNL     1     -11.411  -4.032  -5.881  1.00  0.00    -0.354 N 
ATOM     45  C   UNL     1     -10.141  -3.765  -9.993  1.00  0.00     0.074 A 
ATOM     46  C   UNL     1      -8.748  -4.126 -10.135  1.00  0.00     0.031 C 
ATOM     47  C   UNL     1     -11.180  -4.393  -3.687  1.00  0.00     0.029 A 
ATOM     48  C   UNL     1     -12.127  -3.963  -4.710  1.00  0.00     0.049 A 
ATOM     49  H   UNL     1     -11.794  -3.809  -6.761  1.00  0.00     0.167 HD
ATOM     50  C   UNL     1     -10.938  -3.390 -11.022  1.00  0.00     0.031 A 
ATOM     51  C   UNL     1     -13.401  -3.590  -4.486  1.00  0.00     0.031 A 
ATOM     52  C   UNL     1     -12.329  -3.052 -10.889  1.00  0.00     0.049 A 
ATOM     53  C   UNL     1     -14.264  -3.176  -5.647  1.00  0.00     0.074 A 
ATOM     54  C   UNL     1     -13.233  -2.715 -11.882  1.00  0.00     0.029 A 
ATOM     55  N   UNL     1     -13.018  -3.010  -9.688  1.00  0.00    -0.354 N 
ATOM     56  N   UNL     1     -13.961  -3.113  -6.921  1.00  0.00    -0.248 NA
ATOM     57  C   UNL     1     -15.649  -2.793  -5.337  1.00  0.00     0.031 C 
ATOM     58  C   UNL     1     -14.460  -2.429 -11.276  1.00  0.00     0.029 A 
ATOM     59  C   UNL     1     -14.332  -2.636  -9.912  1.00  0.00     0.049 A 
ATOM     60  H   UNL     1     -12.631  -3.216  -8.806  1.00  0.00     0.167 HD
ATOM     61  C   UNL     1     -15.125  -2.718  -7.567  1.00  0.00     0.074 A 
ATOM     62  C   UNL     1     -16.142  -2.567  -6.547  1.00  0.00     0.031 C 
ATOM     63  C   UNL     1     -15.334  -2.501  -8.888  1.00  0.00     0.031 A 
BRANCH  50  64
ATOM     64  C   UNL     1     -10.318  -3.323 -12.390  1.00  0.00    -0.014 A 
ATOM     65  C   UNL     1      -9.964  -4.489 -13.086  1.00  0.00     0.009 A 
ATOM     66  C   UNL     1     -10.124  -2.077 -13.007  1.00  0.00     0.009 A 
ATOM     67  C   UNL     1      -9.397  -4.408 -14.360  1.00  0.00     0.001 A 
ATOM     68  C   UNL     1      -9.582  -2.001 -14.292  1.00  0.00     0.001 A 
ATOM     69  C   UNL     1      -9.212  -3.165 -14.963  1.00  0.00     0.000 A 
ENDBRANCH  50  64
BRANCH  51  70
ATOM     70  C   UNL     1     -13.954  -3.602  -3.107  1.00  0.00    -0.014 A 
ATOM     71  C   UNL     1     -14.915  -4.555  -2.734  1.00  0.00     0.009 A 
ATOM     72  C   UNL     1     -13.542  -2.649  -2.163  1.00  0.00     0.009 A 
ATOM     73  C   UNL     1     -15.476  -4.533  -1.456  1.00  0.00     0.001 A 
ATOM     74  C   UNL     1     -14.084  -2.647  -0.875  1.00  0.00     0.001 A 
ATOM     75  C   UNL     1     -15.058  -3.582  -0.526  1.00  0.00     0.000 A 
ENDBRANCH  51  70
BRANCH  63  76
ATOM     76  C   UNL     1     -16.724  -2.123  -9.312  1.00  0.00    -0.014 A 
ATOM     77  C   UNL     1     -17.245  -0.846  -9.052  1.00  0.00     0.009 A 
ATOM     78  C   UNL     1     -17.508  -3.049 -10.018  1.00  0.00     0.009 A 
ATOM     79  C   UNL     1     -18.538  -0.516  -9.464  1.00  0.00     0.001 A 
ATOM     80  C   UNL     1     -18.789  -2.707 -10.452  1.00  0.00     0.001 A 
ATOM     81  C   UNL     1     -19.306  -1.444 -10.167  1.00  0.00     0.000 A 
ENDBRANCH  63  76
ENDBRANCH  37  38
ENDBRANCH  29  32
ENDBRANCH  27  28
ENDBRANCH  26  27
ENDBRANCH  25  26
ENDBRANCH   1  25
TORSDOF 15
