REMARK SMILES Cc1ccc(F)c(NC(=O)NC(=O)CCCCC(=O)NCCCCCCNC(=O)c2ccc(-c3c4nc(c(-c5ccccc5)c5ccc([nH]5)c(-c5ccccc5)c5nc(c(-c6ccccc6)c6ccc3[nH]6)C=C5)C=C4)cc2)c1
REMARK SMILES IDX 22 1 21 2 20 3 18 4 19 5 17 7 16 8 15 9 14 10 12 11 8 12
REMARK SMILES IDX 9 13 10 15 11 16 13 18 7 19 1 20 2 21 3 22 78 23 4 24 5 25
REMARK SMILES IDX 6 26 23 27 24 28 25 29 26 30 27 31 28 32 29 34 30 35 31 36
REMARK SMILES IDX 77 37 32 38 76 39 33 40 34 41 35 42 70 43 36 44 75 45 69 46
REMARK SMILES IDX 71 47 37 48 74 49 68 50 67 51 38 53 60 54 45 55 59 56 46 57
REMARK SMILES IDX 49 58 58 59 72 60 47 61 48 62 57 64 73 65 50 66 39 67 40 68
REMARK SMILES IDX 44 69 41 70 43 71 42 72 61 73 62 74 66 75 63 76 65 77 64 78
REMARK SMILES IDX 51 79 52 80 56 81 53 82 55 83 54 84
REMARK H PARENT 20 6 8 14 11 17 27 33 71 52 49 63
REMARK Flexibility Score: inf
ROOT
ATOM      1  C   UNL     1       1.844   0.627   2.183  1.00  0.00     0.021 C 
ENDROOT
BRANCH   1   2
ATOM      2  C   UNL     1       1.415  -0.506   1.267  1.00  0.00     0.116 C 
BRANCH   2   3
ATOM      3  N   UNL     1       1.692  -1.809   1.821  1.00  0.00    -0.356 N 
ATOM      4  C   UNL     1       0.888  -2.906   1.867  1.00  0.00     0.219 C 
ATOM      5  O   UNL     1       1.373  -3.969   2.255  1.00  0.00    -0.275 OA
ATOM      6  H   UNL     1       2.586  -1.919   2.220  1.00  0.00     0.163 HD
BRANCH   4   7
ATOM      7  C   UNL     1      -0.546  -2.829   1.378  1.00  0.00     0.100 C 
BRANCH   7   8
ATOM      8  C   UNL     1      -1.603  -2.302   2.348  1.00  0.00     0.010 C 
BRANCH   8   9
ATOM      9  C   UNL     1      -1.881  -0.792   2.371  1.00  0.00     0.010 C 
BRANCH   9  10
ATOM     10  C   UNL     1      -2.217  -0.110   1.042  1.00  0.00     0.100 C 
BRANCH  10  11
ATOM     11  C   UNL     1      -3.555  -0.445   0.435  1.00  0.00     0.227 C 
ATOM     12  N   UNL     1      -1.712  -2.200  -1.676  1.00  0.00    -0.305 N 
ATOM     13  C   UNL     1      -2.975  -2.264  -1.210  1.00  0.00     0.325 C 
ATOM     14  H   UNL     1      -1.331  -3.095  -1.829  1.00  0.00     0.171 HD
ATOM     15  O   UNL     1      -3.528  -3.368  -1.240  1.00  0.00    -0.248 OA
ATOM     16  N   UNL     1      -3.667  -1.208  -0.710  1.00  0.00    -0.278 N 
ATOM     17  H   UNL     1      -4.410  -0.926  -1.291  1.00  0.00     0.174 HD
ATOM     18  O   UNL     1      -4.593  -0.036   0.966  1.00  0.00    -0.275 OA
BRANCH  12  19
ATOM     19  C   UNL     1      -0.800  -1.179  -1.999  1.00  0.00     0.079 A 
ATOM     20  C   UNL     1       3.013  -1.093  -2.288  1.00  0.00     0.044 C 
ATOM     21  C   UNL     1       1.576  -0.648  -2.311  1.00  0.00    -0.049 A 
ATOM     22  C   UNL     1       1.248   0.709  -2.391  1.00  0.00     0.006 A 
ATOM     23  C   UNL     1       0.544  -1.581  -2.125  1.00  0.00     0.032 A 
ATOM     24  C   UNL     1      -0.087   1.115  -2.325  1.00  0.00     0.042 A 
ATOM     25  C   UNL     1      -1.101   0.173  -2.148  1.00  0.00     0.146 A 
ATOM     26  F   UNL     1      -2.363   0.616  -2.094  1.00  0.00    -0.205 F 
ENDBRANCH  12  19
ENDBRANCH  10  11
ENDBRANCH   9  10
ENDBRANCH   8   9
ENDBRANCH   7   8
ENDBRANCH   4   7
ENDBRANCH   2   3
ENDBRANCH   1   2
BRANCH   1  27
ATOM     27  C   UNL     1       3.303   1.026   1.955  1.00  0.00     0.002 C 
BRANCH  27  28
ATOM     28  C   UNL     1       3.578   1.698   0.602  1.00  0.00     0.002 C 
BRANCH  28  29
ATOM     29  C   UNL     1       2.759   2.957   0.318  1.00  0.00     0.021 C 
BRANCH  29  30
ATOM     30  C   UNL     1       2.858   4.011   1.409  1.00  0.00     0.116 C 
BRANCH  30  31
ATOM     31  N   UNL     1       4.237   4.417   1.645  1.00  0.00    -0.352 N 
ATOM     32  C   UNL     1       4.774   5.676   1.641  1.00  0.00     0.251 C 
ATOM     33  H   UNL     1       4.868   3.685   1.835  1.00  0.00     0.163 HD
ATOM     34  O   UNL     1       5.993   5.838   1.629  1.00  0.00    -0.269 OA
BRANCH  32  35
ATOM     35  C   UNL     1       3.867   6.835   1.637  1.00  0.00     0.039 A 
ATOM     36  C   UNL     1       4.124   7.907   0.782  1.00  0.00     0.014 A 
ATOM     37  C   UNL     1       2.740   6.837   2.464  1.00  0.00     0.014 A 
ATOM     38  C   UNL     1       3.217   8.965   0.723  1.00  0.00     0.010 A 
ATOM     39  C   UNL     1       1.787   7.832   2.322  1.00  0.00     0.010 A 
ATOM     40  C   UNL     1       2.029   8.919   1.471  1.00  0.00    -0.014 A 
BRANCH  40  41
ATOM     41  C   UNL     1       1.036  10.017   1.416  1.00  0.00     0.031 A 
ATOM     42  C   UNL     1       0.708  10.785   2.667  1.00  0.00     0.074 A 
ATOM     43  C   UNL     1       0.386  10.274   0.265  1.00  0.00     0.049 A 
ATOM     44  N   UNL     1      -0.173  11.735   2.847  1.00  0.00    -0.248 NA
ATOM     45  C   UNL     1       1.441  10.409   3.889  1.00  0.00     0.031 C 
ATOM     46  C   UNL     1       0.582   9.561  -0.999  1.00  0.00     0.029 A 
ATOM     47  N   UNL     1      -0.576  11.206  -0.024  1.00  0.00    -0.354 N 
ATOM     48  C   UNL     1      -0.117  12.046   4.200  1.00  0.00     0.074 A 
ATOM     49  C   UNL     1       0.830  11.140   4.807  1.00  0.00     0.031 C 
ATOM     50  C   UNL     1      -0.205  10.109  -1.938  1.00  0.00     0.029 A 
ATOM     51  C   UNL     1      -0.992  11.178  -1.333  1.00  0.00     0.049 A 
ATOM     52  H   UNL     1      -0.935  11.836   0.642  1.00  0.00     0.167 HD
ATOM     53  C   UNL     1      -0.774  13.019   4.873  1.00  0.00     0.031 A 
ATOM     54  C   UNL     1      -1.907  11.931  -1.971  1.00  0.00     0.031 A 
ATOM     55  C   UNL     1      -1.702  13.928   4.258  1.00  0.00     0.049 A 
ATOM     56  C   UNL     1      -2.627  13.005  -1.204  1.00  0.00     0.074 A 
ATOM     57  C   UNL     1      -2.376  14.991   4.830  1.00  0.00     0.029 A 
ATOM     58  N   UNL     1      -2.087  13.875   2.927  1.00  0.00    -0.354 N 
ATOM     59  N   UNL     1      -2.507  13.340   0.059  1.00  0.00    -0.248 NA
ATOM     60  C   UNL     1      -3.597  13.813  -1.954  1.00  0.00     0.031 C 
ATOM     61  C   UNL     1      -3.215  15.546   3.858  1.00  0.00     0.029 A 
ATOM     62  C   UNL     1      -3.011  14.870   2.664  1.00  0.00     0.049 A 
ATOM     63  H   UNL     1      -1.753  13.225   2.267  1.00  0.00     0.167 HD
ATOM     64  C   UNL     1      -3.365  14.415   0.248  1.00  0.00     0.074 A 
ATOM     65  C   UNL     1      -3.984  14.686  -1.034  1.00  0.00     0.031 C 
ATOM     66  C   UNL     1      -3.617  15.118   1.380  1.00  0.00     0.031 A 
BRANCH  53  67
ATOM     67  C   UNL     1      -0.511  13.135   6.351  1.00  0.00    -0.014 A 
ATOM     68  C   UNL     1       0.746  13.528   6.843  1.00  0.00     0.009 A 
ATOM     69  C   UNL     1      -1.535  12.851   7.266  1.00  0.00     0.009 A 
ATOM     70  C   UNL     1       0.984  13.583   8.218  1.00  0.00     0.001 A 
ATOM     71  C   UNL     1      -1.305  12.943   8.641  1.00  0.00     0.001 A 
ATOM     72  C   UNL     1      -0.042  13.295   9.115  1.00  0.00     0.000 A 
ENDBRANCH  53  67
BRANCH  54  73
ATOM     73  C   UNL     1      -2.172  11.711  -3.417  1.00  0.00    -0.014 A 
ATOM     74  C   UNL     1      -1.768  12.661  -4.368  1.00  0.00     0.009 A 
ATOM     75  C   UNL     1      -2.816  10.544  -3.858  1.00  0.00     0.009 A 
ATOM     76  C   UNL     1      -2.026  12.459  -5.726  1.00  0.00     0.001 A 
ATOM     77  C   UNL     1      -3.045  10.330  -5.219  1.00  0.00     0.001 A 
ATOM     78  C   UNL     1      -2.658  11.291  -6.151  1.00  0.00     0.000 A 
ENDBRANCH  54  73
BRANCH  66  79
ATOM     79  C   UNL     1      -4.577  16.270   1.274  1.00  0.00    -0.014 A 
ATOM     80  C   UNL     1      -5.952  16.062   1.091  1.00  0.00     0.009 A 
ATOM     81  C   UNL     1      -4.098  17.583   1.408  1.00  0.00     0.009 A 
ATOM     82  C   UNL     1      -6.824  17.149   1.009  1.00  0.00     0.001 A 
ATOM     83  C   UNL     1      -4.976  18.666   1.360  1.00  0.00     0.001 A 
ATOM     84  C   UNL     1      -6.337  18.448   1.150  1.00  0.00     0.000 A 
ENDBRANCH  66  79
ENDBRANCH  40  41
ENDBRANCH  32  35
ENDBRANCH  30  31
ENDBRANCH  29  30
ENDBRANCH  28  29
ENDBRANCH  27  28
ENDBRANCH   1  27
TORSDOF 18
