REMARK SMILES Cc1cccc(C(=O)NCCCCCCNC(=O)c2ccc(-c3c4nc(c(-c5ccccc5)c5ccc([nH]5)c(-c5ccccc5)c5nc(c(-c6ccccc6)c6ccc3[nH]6)C=C5)C=C4)cc2)c1OC[C@@H]1C[C@H]2CC[C@@H]1C2
REMARK SMILES IDX 12 1 11 2 10 3 9 4 7 5 8 6 6 8 1 9 2 10 3 11 67 12 4 13 5 14
REMARK SMILES IDX 68 15 69 16 70 17 71 18 75 19 72 20 74 21 76 22 73 23 13 24
REMARK SMILES IDX 14 25 15 26 16 27 17 28 18 30 19 31 20 32 66 33 21 34 65 35
REMARK SMILES IDX 22 36 23 37 24 38 59 39 25 40 64 41 58 42 60 43 26 44 63 45
REMARK SMILES IDX 57 46 56 47 27 49 49 50 34 51 48 52 35 53 38 54 47 55 61 56
REMARK SMILES IDX 36 57 37 58 46 60 62 61 39 62 28 63 29 64 33 65 30 66 32 67
REMARK SMILES IDX 31 68 50 69 51 70 55 71 52 72 54 73 53 74 40 75 41 76 45 77
REMARK SMILES IDX 42 78 44 79 43 80
REMARK H PARENT 9 7 16 29 60 48 38 59
REMARK Flexibility Score: inf
ROOT
ATOM      1  C   UNL     1       0.194   6.281  -0.896  1.00  0.00     0.002 C 
ENDROOT
BRANCH   1   2
ATOM      2  C   UNL     1       0.648   4.824  -0.711  1.00  0.00     0.021 C 
BRANCH   2   3
ATOM      3  C   UNL     1       0.024   4.101   0.488  1.00  0.00     0.116 C 
BRANCH   3   4
ATOM      4  N   UNL     1      -1.253   3.549   0.126  1.00  0.00    -0.352 N 
ATOM      5  C   UNL     1      -1.678   2.280  -0.140  1.00  0.00     0.255 C 
ATOM      6  O   UNL     1      -2.869   2.189  -0.465  1.00  0.00    -0.269 OA
ATOM      7  H   UNL     1      -1.966   4.224   0.055  1.00  0.00     0.163 HD
BRANCH   5   8
ATOM      8  C   UNL     1      -0.892   1.009  -0.017  1.00  0.00     0.082 A 
ATOM      9  C   UNL     1       1.928  -1.068  -1.560  1.00  0.00     0.048 C 
ATOM     10  C   UNL     1       0.792  -0.620  -0.678  1.00  0.00    -0.008 A 
ATOM     11  C   UNL     1      -0.044  -1.657  -0.217  1.00  0.00     0.007 A 
ATOM     12  C   UNL     1       0.421   0.731  -0.469  1.00  0.00     0.134 A 
ATOM     13  C   UNL     1      -1.272  -1.382   0.359  1.00  0.00     0.001 A 
ATOM     14  C   UNL     1      -1.703  -0.064   0.420  1.00  0.00     0.018 A 
BRANCH  12  15
ATOM     15  O   UNL     1       1.251   1.760  -0.805  1.00  0.00    -0.492 OA
BRANCH  15  16
ATOM     16  C   UNL     1       2.595   1.812  -0.261  1.00  0.00     0.233 C 
BRANCH  16  17
ATOM     17  C   UNL     1       2.837   1.337   1.196  1.00  0.00     0.030 C 
ATOM     18  C   UNL     1       3.735   2.325   2.002  1.00  0.00     0.011 C 
ATOM     19  C   UNL     1       3.704   0.046   1.268  1.00  0.00    -0.004 C 
ATOM     20  C   UNL     1       4.927   1.463   2.460  1.00  0.00    -0.010 C 
ATOM     21  C   UNL     1       3.621  -0.537   2.689  1.00  0.00     0.004 C 
ATOM     22  C   UNL     1       5.140   0.576   1.241  1.00  0.00     0.007 C 
ATOM     23  C   UNL     1       4.454   0.450   3.515  1.00  0.00     0.004 C 
ENDBRANCH  16  17
ENDBRANCH  15  16
ENDBRANCH  12  15
ENDBRANCH   5   8
ENDBRANCH   3   4
ENDBRANCH   2   3
ENDBRANCH   1   2
BRANCH   1  24
ATOM     24  C   UNL     1       0.402   7.217   0.307  1.00  0.00     0.002 C 
BRANCH  24  25
ATOM     25  C   UNL     1       1.742   7.086   1.038  1.00  0.00     0.021 C 
BRANCH  25  26
ATOM     26  C   UNL     1       2.929   7.627   0.250  1.00  0.00     0.116 C 
BRANCH  26  27
ATOM     27  N   UNL     1       3.395   8.925   0.727  1.00  0.00    -0.352 N 
ATOM     28  C   UNL     1       4.330   9.778   0.167  1.00  0.00     0.251 C 
ATOM     29  H   UNL     1       2.987   9.239   1.566  1.00  0.00     0.163 HD
ATOM     30  O   UNL     1       4.600  10.842   0.699  1.00  0.00    -0.269 OA
BRANCH  28  31
ATOM     31  C   UNL     1       4.900   9.437  -1.157  1.00  0.00     0.039 A 
ATOM     32  C   UNL     1       4.800  10.397  -2.167  1.00  0.00     0.014 A 
ATOM     33  C   UNL     1       5.300   8.135  -1.449  1.00  0.00     0.014 A 
ATOM     34  C   UNL     1       4.851   9.987  -3.495  1.00  0.00     0.010 A 
ATOM     35  C   UNL     1       5.275   7.712  -2.764  1.00  0.00     0.010 A 
ATOM     36  C   UNL     1       4.971   8.624  -3.778  1.00  0.00    -0.014 A 
BRANCH  36  37
ATOM     37  C   UNL     1       4.617   8.067  -5.076  1.00  0.00     0.031 A 
ATOM     38  C   UNL     1       5.652   7.681  -6.050  1.00  0.00     0.074 A 
ATOM     39  C   UNL     1       3.319   7.948  -5.434  1.00  0.00     0.049 A 
ATOM     40  N   UNL     1       5.491   7.776  -7.328  1.00  0.00    -0.248 NA
ATOM     41  C   UNL     1       6.969   7.193  -5.660  1.00  0.00     0.031 C 
ATOM     42  C   UNL     1       2.777   7.261  -6.603  1.00  0.00     0.029 A 
ATOM     43  N   UNL     1       2.228   8.620  -4.914  1.00  0.00    -0.354 N 
ATOM     44  C   UNL     1       6.528   7.099  -7.915  1.00  0.00     0.074 A 
ATOM     45  C   UNL     1       7.469   6.835  -6.848  1.00  0.00     0.031 C 
ATOM     46  C   UNL     1       1.543   7.730  -6.848  1.00  0.00     0.029 A 
ATOM     47  C   UNL     1       1.295   8.829  -5.931  1.00  0.00     0.049 A 
ATOM     48  H   UNL     1       2.126   8.906  -3.977  1.00  0.00     0.167 HD
ATOM     49  C   UNL     1       6.432   6.692  -9.210  1.00  0.00     0.031 A 
ATOM     50  C   UNL     1       0.914  10.088  -6.296  1.00  0.00     0.031 A 
ATOM     51  C   UNL     1       5.162   7.056  -9.832  1.00  0.00     0.049 A 
ATOM     52  C   UNL     1       1.270  10.463  -7.725  1.00  0.00     0.074 A 
ATOM     53  C   UNL     1       4.012   6.352 -10.153  1.00  0.00     0.029 A 
ATOM     54  N   UNL     1       4.836   8.396  -9.967  1.00  0.00    -0.354 N 
ATOM     55  N   UNL     1       1.942   9.709  -8.550  1.00  0.00    -0.248 NA
ATOM     56  C   UNL     1       0.986  11.780  -8.294  1.00  0.00     0.031 C 
ATOM     57  C   UNL     1       3.000   7.284 -10.512  1.00  0.00     0.029 A 
ATOM     58  C   UNL     1       3.539   8.552 -10.418  1.00  0.00     0.049 A 
ATOM     59  H   UNL     1       5.449   9.141  -9.768  1.00  0.00     0.167 HD
ATOM     60  C   UNL     1       2.246  10.419  -9.687  1.00  0.00     0.074 A 
ATOM     61  C   UNL     1       1.616  11.710  -9.479  1.00  0.00     0.031 C 
ATOM     62  C   UNL     1       3.037   9.896 -10.672  1.00  0.00     0.031 A 
BRANCH  49  63
ATOM     63  C   UNL     1       7.410   5.715  -9.800  1.00  0.00    -0.014 A 
ATOM     64  C   UNL     1       6.963   4.715 -10.680  1.00  0.00     0.009 A 
ATOM     65  C   UNL     1       8.781   5.714  -9.491  1.00  0.00     0.009 A 
ATOM     66  C   UNL     1       7.813   3.703 -11.140  1.00  0.00     0.001 A 
ATOM     67  C   UNL     1       9.629   4.681  -9.914  1.00  0.00     0.001 A 
ATOM     68  C   UNL     1       9.140   3.667 -10.729  1.00  0.00     0.000 A 
ENDBRANCH  49  63
BRANCH  50  69
ATOM     69  C   UNL     1       0.881  11.053  -5.162  1.00  0.00    -0.014 A 
ATOM     70  C   UNL     1      -0.092  10.875  -4.158  1.00  0.00     0.009 A 
ATOM     71  C   UNL     1       1.967  11.899  -4.899  1.00  0.00     0.009 A 
ATOM     72  C   UNL     1       0.074  11.441  -2.891  1.00  0.00     0.001 A 
ATOM     73  C   UNL     1       2.124  12.473  -3.632  1.00  0.00     0.001 A 
ATOM     74  C   UNL     1       1.198  12.218  -2.621  1.00  0.00     0.000 A 
ENDBRANCH  50  69
BRANCH  62  75
ATOM     75  C   UNL     1       3.475  10.583 -11.952  1.00  0.00    -0.014 A 
ATOM     76  C   UNL     1       2.817  11.665 -12.547  1.00  0.00     0.009 A 
ATOM     77  C   UNL     1       4.588  10.071 -12.663  1.00  0.00     0.009 A 
ATOM     78  C   UNL     1       3.296  12.256 -13.729  1.00  0.00     0.001 A 
ATOM     79  C   UNL     1       5.059  10.641 -13.848  1.00  0.00     0.001 A 
ATOM     80  C   UNL     1       4.421  11.751 -14.373  1.00  0.00     0.000 A 
ENDBRANCH  62  75
ENDBRANCH  36  37
ENDBRANCH  28  31
ENDBRANCH  26  27
ENDBRANCH  25  26
ENDBRANCH  24  25
ENDBRANCH   1  24
TORSDOF 16
