REMARK SMILES CC(C)CSc1cc2c(cc1Cl)C=C(C(=O)NCCCCCCNC(=O)c1ccc(-c3c4nc(c(-c5ccccc5)c5ccc([nH]5)c(-c5ccccc5)c5nc(c(-c6ccccc6)c6ccc3[nH]6)C=C5)C=C4)cc1)[C@@H](C(F)(F)F)O2
REMARK SMILES IDX 20 1 19 2 18 3 17 4 15 5 16 6 14 8 6 9 7 10 11 11 8 12 10 13
REMARK SMILES IDX 12 14 9 15 80 16 13 17 75 18 5 19 4 20 2 21 1 22 3 23 76 24
REMARK SMILES IDX 77 25 78 26 79 27 21 28 22 29 23 30 24 31 25 32 26 34 27 35
REMARK SMILES IDX 28 36 74 37 29 38 73 39 30 40 31 41 32 42 67 43 33 44 72 45
REMARK SMILES IDX 66 46 68 47 34 48 71 49 65 50 64 51 35 53 57 54 42 55 56 56
REMARK SMILES IDX 43 57 46 58 55 59 69 60 44 61 45 62 54 64 70 65 47 66 36 67
REMARK SMILES IDX 37 68 41 69 38 70 40 71 39 72 58 73 59 74 63 75 60 76 62 77
REMARK SMILES IDX 61 78 48 79 49 80 53 81 50 82 52 83 51 84
REMARK H PARENT 17 7 24 33 68 52 46 63
REMARK Flexibility Score: inf
ROOT
ATOM      1  C   UNL     1       4.580  -7.316   6.589  1.00  0.00     0.002 C 
ENDROOT
BRANCH   1   2
ATOM      2  C   UNL     1       3.923  -5.996   6.169  1.00  0.00     0.021 C 
BRANCH   2   3
ATOM      3  C   UNL     1       3.866  -5.782   4.659  1.00  0.00     0.116 C 
BRANCH   3   4
ATOM      4  N   UNL     1       2.723  -6.448   4.059  1.00  0.00    -0.352 N 
ATOM      5  C   UNL     1       1.595  -6.096   3.402  1.00  0.00     0.251 C 
ATOM      6  O   UNL     1       0.892  -7.039   3.025  1.00  0.00    -0.270 OA
ATOM      7  H   UNL     1       2.788  -7.426   4.160  1.00  0.00     0.163 HD
BRANCH   5   8
ATOM      8  C   UNL     1       1.159  -4.697   3.114  1.00  0.00     0.067 C 
ATOM      9  C   UNL     1      -1.352  -0.600   1.601  1.00  0.00     0.030 A 
ATOM     10  C   UNL     1      -0.299  -0.828   2.491  1.00  0.00     0.063 A 
ATOM     11  C   UNL     1      -2.034  -1.704   1.062  1.00  0.00     0.055 A 
ATOM     12  C   UNL     1       0.136  -2.124   2.746  1.00  0.00     0.129 A 
ATOM     13  C   UNL     1      -1.623  -3.011   1.368  1.00  0.00     0.033 A 
ATOM     14  Cl  UNL     1      -3.402  -1.528   0.019  1.00  0.00    -0.083 Cl
ATOM     15  C   UNL     1      -0.519  -3.224   2.196  1.00  0.00     0.019 A 
ATOM     16  O   UNL     1       1.223  -2.248   3.560  1.00  0.00    -0.475 OA
ATOM     17  C   UNL     1      -0.046  -4.563   2.526  1.00  0.00     0.025 C 
ATOM     18  C   UNL     1       1.985  -3.476   3.406  1.00  0.00     0.314 C 
BRANCH   9  19
ATOM     19  S   UNL     1      -1.711   1.111   1.233  1.00  0.00    -0.124 SA
BRANCH  19  20
ATOM     20  C   UNL     1      -1.032   1.251  -0.464  1.00  0.00     0.078 C 
BRANCH  20  21
ATOM     21  C   UNL     1       0.494   1.466  -0.545  1.00  0.00    -0.007 C 
ATOM     22  C   UNL     1       1.295   0.166  -0.428  1.00  0.00     0.008 C 
ATOM     23  C   UNL     1       0.840   2.130  -1.883  1.00  0.00     0.008 C 
ENDBRANCH  20  21
ENDBRANCH  19  20
ENDBRANCH   9  19
BRANCH  18  24
ATOM     24  C   UNL     1       3.109  -3.267   2.372  1.00  0.00     0.429 C 
ATOM     25  F   UNL     1       4.002  -2.348   2.817  1.00  0.00    -0.167 F 
ATOM     26  F   UNL     1       3.814  -4.400   2.138  1.00  0.00    -0.167 F 
ATOM     27  F   UNL     1       2.647  -2.837   1.177  1.00  0.00    -0.167 F 
ENDBRANCH  18  24
ENDBRANCH   5   8
ENDBRANCH   3   4
ENDBRANCH   2   3
ENDBRANCH   1   2
BRANCH   1  28
ATOM     28  C   UNL     1       6.005  -7.542   6.067  1.00  0.00     0.002 C 
BRANCH  28  29
ATOM     29  C   UNL     1       6.979  -6.379   6.270  1.00  0.00     0.021 C 
BRANCH  29  30
ATOM     30  C   UNL     1       7.176  -5.954   7.720  1.00  0.00     0.116 C 
BRANCH  30  31
ATOM     31  N   UNL     1       7.795  -6.991   8.529  1.00  0.00    -0.352 N 
ATOM     32  C   UNL     1       8.869  -6.900   9.381  1.00  0.00     0.251 C 
ATOM     33  H   UNL     1       7.386  -7.884   8.457  1.00  0.00     0.163 HD
ATOM     34  O   UNL     1       9.354  -7.910   9.882  1.00  0.00    -0.269 OA
BRANCH  32  35
ATOM     35  C   UNL     1       9.462  -5.576   9.665  1.00  0.00     0.039 A 
ATOM     36  C   UNL     1       8.648  -4.484   9.973  1.00  0.00     0.014 A 
ATOM     37  C   UNL     1      10.849  -5.422   9.592  1.00  0.00     0.014 A 
ATOM     38  C   UNL     1       9.204  -3.212  10.048  1.00  0.00     0.010 A 
ATOM     39  C   UNL     1      11.415  -4.154   9.748  1.00  0.00     0.010 A 
ATOM     40  C   UNL     1      10.592  -3.031   9.931  1.00  0.00    -0.014 A 
BRANCH  40  41
ATOM     41  C   UNL     1      11.157  -1.660  10.001  1.00  0.00     0.031 A 
ATOM     42  C   UNL     1      11.820  -1.037   8.802  1.00  0.00     0.074 A 
ATOM     43  C   UNL     1      11.015  -0.949  11.136  1.00  0.00     0.049 A 
ATOM     44  N   UNL     1      12.330   0.164   8.678  1.00  0.00    -0.248 NA
ATOM     45  C   UNL     1      11.927  -1.860   7.587  1.00  0.00     0.031 C 
ATOM     46  C   UNL     1      10.371  -1.438  12.358  1.00  0.00     0.029 A 
ATOM     47  N   UNL     1      11.370   0.341  11.440  1.00  0.00    -0.354 N 
ATOM     48  C   UNL     1      12.829   0.233   7.383  1.00  0.00     0.074 A 
ATOM     49  C   UNL     1      12.587  -1.053   6.767  1.00  0.00     0.031 C 
ATOM     50  C   UNL     1      10.321  -0.442  13.254  1.00  0.00     0.029 A 
ATOM     51  C   UNL     1      10.987   0.732  12.700  1.00  0.00     0.049 A 
ATOM     52  H   UNL     1      11.853   0.929  10.815  1.00  0.00     0.167 HD
ATOM     53  C   UNL     1      13.425   1.278   6.762  1.00  0.00     0.031 A 
ATOM     54  C   UNL     1      11.158   1.901  13.346  1.00  0.00     0.031 A 
ATOM     55  C   UNL     1      13.655   2.560   7.373  1.00  0.00     0.049 A 
ATOM     56  C   UNL     1      11.867   3.026  12.651  1.00  0.00     0.074 A 
ATOM     57  C   UNL     1      14.236   3.685   6.812  1.00  0.00     0.029 A 
ATOM     58  N   UNL     1      13.317   2.890   8.675  1.00  0.00    -0.354 N 
ATOM     59  N   UNL     1      12.327   3.075  11.425  1.00  0.00    -0.248 NA
ATOM     60  C   UNL     1      12.088   4.254  13.428  1.00  0.00     0.031 C 
ATOM     61  C   UNL     1      14.301   4.677   7.793  1.00  0.00     0.029 A 
ATOM     62  C   UNL     1      13.703   4.192   8.945  1.00  0.00     0.049 A 
ATOM     63  H   UNL     1      12.870   2.289   9.314  1.00  0.00     0.167 HD
ATOM     64  C   UNL     1      12.883   4.338  11.279  1.00  0.00     0.074 A 
ATOM     65  C   UNL     1      12.684   5.033  12.534  1.00  0.00     0.031 C 
ATOM     66  C   UNL     1      13.507   4.870  10.201  1.00  0.00     0.031 A 
BRANCH  53  67
ATOM     67  C   UNL     1      13.888   1.088   5.344  1.00  0.00    -0.014 A 
ATOM     68  C   UNL     1      15.263   1.059   5.058  1.00  0.00     0.009 A 
ATOM     69  C   UNL     1      12.973   1.039   4.281  1.00  0.00     0.009 A 
ATOM     70  C   UNL     1      15.713   0.996   3.738  1.00  0.00     0.001 A 
ATOM     71  C   UNL     1      13.426   0.950   2.962  1.00  0.00     0.001 A 
ATOM     72  C   UNL     1      14.794   0.939   2.692  1.00  0.00     0.000 A 
ENDBRANCH  53  67
BRANCH  54  73
ATOM     73  C   UNL     1      10.636   2.050  14.729  1.00  0.00    -0.014 A 
ATOM     74  C   UNL     1      11.206   1.324  15.788  1.00  0.00     0.009 A 
ATOM     75  C   UNL     1       9.531   2.873  14.989  1.00  0.00     0.009 A 
ATOM     76  C   UNL     1      10.662   1.394  17.072  1.00  0.00     0.001 A 
ATOM     77  C   UNL     1       9.008   2.965  16.281  1.00  0.00     0.001 A 
ATOM     78  C   UNL     1       9.566   2.218  17.318  1.00  0.00     0.000 A 
ENDBRANCH  54  73
BRANCH  66  79
ATOM     79  C   UNL     1      14.025   6.275  10.314  1.00  0.00    -0.014 A 
ATOM     80  C   UNL     1      13.411   7.306   9.585  1.00  0.00     0.009 A 
ATOM     81  C   UNL     1      15.178   6.561  11.061  1.00  0.00     0.009 A 
ATOM     82  C   UNL     1      13.951   8.593   9.588  1.00  0.00     0.001 A 
ATOM     83  C   UNL     1      15.700   7.856  11.084  1.00  0.00     0.001 A 
ATOM     84  C   UNL     1      15.092   8.868  10.340  1.00  0.00     0.000 A 
ENDBRANCH  66  79
ENDBRANCH  40  41
ENDBRANCH  32  35
ENDBRANCH  30  31
ENDBRANCH  29  30
ENDBRANCH  28  29
ENDBRANCH   1  28
TORSDOF 17
