REMARK SMILES C[C@H]1c2ccc(O)cc2OC(=O)[C@@H]1CC(=O)N[C@@H](CC1=c2ccccc2=NC1)C(=O)NCCCCCCNC(=O)c1ccc(-c2c3nc(c(-c4ccccc4)c4ccc([nH]4)c(-c4ccccc4)c4nc(c(-c5ccccc5)c5ccc2[nH]5)C=C4)C=C3)cc1
REMARK SMILES IDX 33 1 32 2 31 3 29 4 30 5 18 7 17 8 15 9 16 10 14 12 13 13
REMARK SMILES IDX 1 14 2 15 3 16 4 17 9 18 11 19 5 20 8 21 10 22 12 23 6 24
REMARK SMILES IDX 7 25 19 27 20 28 21 29 28 30 22 31 26 32 27 33 23 34 25 35
REMARK SMILES IDX 24 36 34 37 35 38 36 39 37 40 38 41 39 42 40 44 41 45 42 46
REMARK SMILES IDX 88 47 43 48 87 49 44 50 45 51 46 52 81 53 47 54 86 55 80 56
REMARK SMILES IDX 82 57 48 58 85 59 79 60 78 61 49 63 71 64 56 65 70 66 57 67
REMARK SMILES IDX 60 68 69 69 83 70 58 71 59 72 68 74 84 75 61 76 50 77 51 78
REMARK SMILES IDX 55 79 52 80 54 81 53 82 72 83 73 84 77 85 74 86 76 87 75 88
REMARK SMILES IDX 62 89 63 90 67 91 64 92 66 93 65 94
REMARK H PARENT 31 6 17 11 7 26 38 43 82 62 60 73
REMARK Flexibility Score: inf
ROOT
ATOM      1  C   UNL     1      -3.204  -8.484  -2.018  1.00  0.00     0.021 C 
ENDROOT
BRANCH   1   2
ATOM      2  C   UNL     1      -2.375  -7.470  -1.246  1.00  0.00     0.116 C 
BRANCH   2   3
ATOM      3  N   UNL     1      -1.077  -7.040  -1.673  1.00  0.00    -0.354 N 
ATOM      4  C   UNL     1      -0.328  -6.157  -0.918  1.00  0.00     0.242 C 
ATOM      5  O   UNL     1       0.867  -6.436  -0.764  1.00  0.00    -0.273 OA
ATOM      6  H   UNL     1      -0.711  -7.379  -2.522  1.00  0.00     0.163 HD
BRANCH   4   7
ATOM      7  C   UNL     1      -0.918  -4.865  -0.226  1.00  0.00     0.175 C 
BRANCH   7   8
ATOM      8  N   UNL     1      -2.031  -4.149  -0.858  1.00  0.00    -0.344 N 
ATOM      9  C   UNL     1      -2.038  -2.922  -1.458  1.00  0.00     0.221 C 
ATOM     10  O   UNL     1      -3.129  -2.411  -1.720  1.00  0.00    -0.275 OA
ATOM     11  H   UNL     1      -2.895  -4.620  -0.849  1.00  0.00     0.164 HD
BRANCH   9  12
ATOM     12  C   UNL     1      -0.741  -2.228  -1.859  1.00  0.00     0.116 C 
BRANCH  12  13
ATOM     13  C   UNL     1      -0.099  -1.303  -0.797  1.00  0.00     0.116 C 
ATOM     14  C   UNL     1       1.350   0.770  -0.366  1.00  0.00     0.014 C 
ATOM     15  C   UNL     1       0.863  -0.253  -1.408  1.00  0.00     0.034 C 
ATOM     16  C   UNL     1       2.033  -0.984  -2.031  1.00  0.00    -0.001 A 
ATOM     17  C   UNL     1       2.745  -0.466  -3.116  1.00  0.00     0.011 A 
ATOM     18  C   UNL     1       2.397  -2.240  -1.532  1.00  0.00     0.138 A 
ATOM     19  C   UNL     1       0.760  -2.048   0.197  1.00  0.00     0.315 C 
ATOM     20  C   UNL     1       3.748  -1.231  -3.722  1.00  0.00     0.047 A 
ATOM     21  C   UNL     1       3.358  -3.030  -2.152  1.00  0.00     0.093 A 
ATOM     22  O   UNL     1       1.827  -2.740  -0.351  1.00  0.00    -0.426 OA
ATOM     23  O   UNL     1       0.532  -2.061   1.400  1.00  0.00    -0.251 OA
ATOM     24  C   UNL     1       4.025  -2.516  -3.253  1.00  0.00     0.119 A 
BRANCH  24  25
ATOM     25  O   UNL     1       4.964  -3.304  -3.849  1.00  0.00    -0.508 OA
ATOM     26  H   UNL     1       5.434  -2.990  -4.595  1.00  0.00     0.293 HD
ENDBRANCH  24  25
ENDBRANCH  12  13
ENDBRANCH   9  12
ENDBRANCH   7   8
BRANCH   7  27
ATOM     27  C   UNL     1      -0.962  -4.733   1.350  1.00  0.00     0.068 C 
BRANCH  27  28
ATOM     28  C   UNL     1      -2.008  -5.421   2.235  1.00  0.00    -0.037 C 
ATOM     29  C   UNL     1      -3.252  -4.918   2.418  1.00  0.00     0.001 A 
ATOM     30  C   UNL     1      -2.104  -6.885   2.003  1.00  0.00     0.174 C 
ATOM     31  C   UNL     1      -4.147  -5.138   3.576  1.00  0.00     0.010 A 
ATOM     32  C   UNL     1      -3.866  -5.788   1.373  1.00  0.00     0.065 A 
ATOM     33  N   UNL     1      -3.325  -6.946   1.182  1.00  0.00    -0.280 NA
ATOM     34  C   UNL     1      -5.473  -5.289   3.343  1.00  0.00     0.001 A 
ATOM     35  C   UNL     1      -5.198  -5.372   0.927  1.00  0.00     0.028 A 
ATOM     36  C   UNL     1      -6.001  -5.156   1.982  1.00  0.00     0.002 A 
ENDBRANCH  27  28
ENDBRANCH   7  27
ENDBRANCH   4   7
ENDBRANCH   2   3
ENDBRANCH   1   2
BRANCH   1  37
ATOM     37  C   UNL     1      -2.961  -9.973  -1.709  1.00  0.00     0.002 C 
BRANCH  37  38
ATOM     38  C   UNL     1      -2.756 -10.447  -0.258  1.00  0.00     0.002 C 
BRANCH  38  39
ATOM     39  C   UNL     1      -3.821 -10.155   0.800  1.00  0.00     0.021 C 
BRANCH  39  40
ATOM     40  C   UNL     1      -5.271 -10.444   0.460  1.00  0.00     0.116 C 
BRANCH  40  41
ATOM     41  N   UNL     1      -5.506 -11.833   0.116  1.00  0.00    -0.352 N 
ATOM     42  C   UNL     1      -6.426 -12.734   0.607  1.00  0.00     0.251 C 
ATOM     43  H   UNL     1      -4.912 -12.190  -0.582  1.00  0.00     0.163 HD
ATOM     44  O   UNL     1      -6.379 -13.900   0.258  1.00  0.00    -0.269 OA
BRANCH  42  45
ATOM     45  C   UNL     1      -7.452 -12.301   1.590  1.00  0.00     0.039 A 
ATOM     46  C   UNL     1      -8.122 -11.085   1.462  1.00  0.00     0.014 A 
ATOM     47  C   UNL     1      -7.756 -13.150   2.660  1.00  0.00     0.014 A 
ATOM     48  C   UNL     1      -8.958 -10.643   2.484  1.00  0.00     0.010 A 
ATOM     49  C   UNL     1      -8.669 -12.745   3.641  1.00  0.00     0.010 A 
ATOM     50  C   UNL     1      -9.240 -11.465   3.588  1.00  0.00    -0.014 A 
BRANCH  50  51
ATOM     51  C   UNL     1     -10.140 -10.963   4.661  1.00  0.00     0.031 A 
ATOM     52  C   UNL     1      -9.630 -10.741   6.061  1.00  0.00     0.074 A 
ATOM     53  C   UNL     1     -11.412 -10.641   4.353  1.00  0.00     0.049 A 
ATOM     54  N   UNL     1     -10.259 -10.236   7.094  1.00  0.00    -0.248 NA
ATOM     55  C   UNL     1      -8.240 -11.135   6.344  1.00  0.00     0.031 C 
ATOM     56  C   UNL     1     -12.021 -10.802   3.032  1.00  0.00     0.029 A 
ATOM     57  N   UNL     1     -12.409 -10.080   5.113  1.00  0.00    -0.354 N 
ATOM     58  C   UNL     1      -9.351 -10.262   8.145  1.00  0.00     0.074 A 
ATOM     59  C   UNL     1      -8.138 -10.866   7.639  1.00  0.00     0.031 C 
ATOM     60  C   UNL     1     -13.259 -10.288   3.054  1.00  0.00     0.029 A 
ATOM     61  C   UNL     1     -13.559  -9.826   4.405  1.00  0.00     0.049 A 
ATOM     62  H   UNL     1     -12.309  -9.879   6.071  1.00  0.00     0.167 HD
ATOM     63  C   UNL     1      -9.508  -9.809   9.412  1.00  0.00     0.031 A 
ATOM     64  C   UNL     1     -14.731  -9.285   4.792  1.00  0.00     0.031 A 
ATOM     65  C   UNL     1     -10.716  -9.203   9.911  1.00  0.00     0.049 A 
ATOM     66  C   UNL     1     -14.895  -8.834   6.215  1.00  0.00     0.074 A 
ATOM     67  C   UNL     1     -10.957  -8.690  11.174  1.00  0.00     0.029 A 
ATOM     68  N   UNL     1     -11.881  -9.030   9.180  1.00  0.00    -0.354 N 
ATOM     69  N   UNL     1     -14.014  -8.838   7.186  1.00  0.00    -0.248 NA
ATOM     70  C   UNL     1     -16.210  -8.301   6.596  1.00  0.00     0.031 C 
ATOM     71  C   UNL     1     -12.289  -8.274  11.230  1.00  0.00     0.029 A 
ATOM     72  C   UNL     1     -12.854  -8.449   9.977  1.00  0.00     0.049 A 
ATOM     73  H   UNL     1     -11.999  -9.282   8.236  1.00  0.00     0.167 HD
ATOM     74  C   UNL     1     -14.662  -8.299   8.290  1.00  0.00     0.074 A 
ATOM     75  C   UNL     1     -16.001  -7.951   7.859  1.00  0.00     0.031 C 
ATOM     76  C   UNL     1     -14.189  -8.116   9.546  1.00  0.00     0.031 A 
BRANCH  63  77
ATOM     77  C   UNL     1      -8.353  -9.950  10.368  1.00  0.00    -0.014 A 
ATOM     78  C   UNL     1      -8.469 -10.799  11.482  1.00  0.00     0.009 A 
ATOM     79  C   UNL     1      -7.197  -9.165  10.234  1.00  0.00     0.009 A 
ATOM     80  C   UNL     1      -7.463 -10.844  12.449  1.00  0.00     0.001 A 
ATOM     81  C   UNL     1      -6.178  -9.236  11.187  1.00  0.00     0.001 A 
ATOM     82  C   UNL     1      -6.317 -10.066  12.299  1.00  0.00     0.000 A 
ENDBRANCH  63  77
BRANCH  64  83
ATOM     83  C   UNL     1     -15.827  -9.134   3.798  1.00  0.00    -0.014 A 
ATOM     84  C   UNL     1     -16.437 -10.267   3.231  1.00  0.00     0.009 A 
ATOM     85  C   UNL     1     -16.227  -7.863   3.361  1.00  0.00     0.009 A 
ATOM     86  C   UNL     1     -17.394 -10.131   2.224  1.00  0.00     0.001 A 
ATOM     87  C   UNL     1     -17.212  -7.729   2.378  1.00  0.00     0.001 A 
ATOM     88  C   UNL     1     -17.784  -8.862   1.801  1.00  0.00     0.000 A 
ENDBRANCH  64  83
BRANCH  76  89
ATOM     89  C   UNL     1     -15.116  -7.509  10.565  1.00  0.00    -0.014 A 
ATOM     90  C   UNL     1     -14.834  -6.241  11.099  1.00  0.00     0.009 A 
ATOM     91  C   UNL     1     -16.213  -8.226  11.066  1.00  0.00     0.009 A 
ATOM     92  C   UNL     1     -15.620  -5.711  12.124  1.00  0.00     0.001 A 
ATOM     93  C   UNL     1     -17.019  -7.678  12.066  1.00  0.00     0.001 A 
ATOM     94  C   UNL     1     -16.715  -6.427  12.602  1.00  0.00     0.000 A 
ENDBRANCH  76  89
ENDBRANCH  50  51
ENDBRANCH  42  45
ENDBRANCH  40  41
ENDBRANCH  39  40
ENDBRANCH  38  39
ENDBRANCH  37  38
ENDBRANCH   1  37
TORSDOF 19
