REMARK SMILES O=C(NCCCCCCNC(=O)c1cc(=O)[nH]c2c(Br)cccc12)c1ccc(-c2c3nc(c(-c4ccccc4)c4ccc([nH]4)c(-c4ccccc4)c4nc(c(-c5ccccc5)c5ccc2[nH]5)C=C4)C=C3)cc1
REMARK SMILES IDX 5 1 4 2 3 3 1 4 2 5 25 7 26 8 72 9 27 10 71 11 28 12 29 13
REMARK SMILES IDX 30 14 65 15 31 16 70 17 64 18 66 19 32 20 69 21 63 22 62 23
REMARK SMILES IDX 33 25 55 26 40 27 54 28 41 29 44 30 53 31 67 32 42 33 43 34
REMARK SMILES IDX 52 36 68 37 45 38 34 39 35 40 39 41 36 42 38 43 37 44 56 45
REMARK SMILES IDX 57 46 61 47 58 48 60 49 59 50 46 51 47 52 51 53 48 54 50 55
REMARK SMILES IDX 49 56 6 57 7 58 8 59 9 60 10 61 11 62 12 64 13 65 14 66
REMARK SMILES IDX 24 67 15 68 18 69 23 70 16 71 17 72 19 73 22 74 20 76 21 77
REMARK H PARENT 3 6 66 24 44 35 10 63 17 75
REMARK Flexibility Score: inf
ROOT
ATOM      1  C   UNL     1       4.852   0.211   2.477  1.00  0.00     0.021 C 
ENDROOT
BRANCH   1   2
ATOM      2  C   UNL     1       4.553  -0.366   1.098  1.00  0.00     0.116 C 
BRANCH   2   3
ATOM      3  N   UNL     1       3.126  -0.500   0.870  1.00  0.00    -0.352 N 
ATOM      4  O   UNL     1       1.121   0.007  -0.010  1.00  0.00    -0.269 OA
ATOM      5  C   UNL     1       2.344   0.043  -0.115  1.00  0.00     0.251 C 
ATOM      6  H   UNL     1       2.649  -1.067   1.519  1.00  0.00     0.163 HD
BRANCH   5   7
ATOM      7  C   UNL     1       2.957   0.660  -1.311  1.00  0.00     0.039 A 
ATOM      8  C   UNL     1       2.368   1.808  -1.849  1.00  0.00     0.014 A 
ATOM      9  C   UNL     1       4.042   0.061  -1.959  1.00  0.00     0.014 A 
ATOM     10  C   UNL     1       2.859   2.352  -3.037  1.00  0.00     0.010 A 
ATOM     11  C   UNL     1       4.576   0.644  -3.105  1.00  0.00     0.010 A 
ATOM     12  C   UNL     1       3.963   1.769  -3.678  1.00  0.00    -0.014 A 
BRANCH  12  13
ATOM     13  C   UNL     1       4.427   2.251  -5.003  1.00  0.00     0.031 A 
ATOM     14  C   UNL     1       4.290   1.351  -6.202  1.00  0.00     0.074 A 
ATOM     15  C   UNL     1       4.991   3.467  -5.130  1.00  0.00     0.049 A 
ATOM     16  N   UNL     1       4.722   1.533  -7.423  1.00  0.00    -0.248 NA
ATOM     17  C   UNL     1       3.591   0.069  -6.000  1.00  0.00     0.031 C 
ATOM     18  C   UNL     1       5.170   4.433  -4.046  1.00  0.00     0.029 A 
ATOM     19  N   UNL     1       5.524   4.094  -6.229  1.00  0.00    -0.354 N 
ATOM     20  C   UNL     1       4.366   0.386  -8.123  1.00  0.00     0.074 A 
ATOM     21  C   UNL     1       3.724  -0.506  -7.186  1.00  0.00     0.031 C 
ATOM     22  C   UNL     1       5.761   5.534  -4.536  1.00  0.00     0.029 A 
ATOM     23  C   UNL     1       6.050   5.334  -5.955  1.00  0.00     0.049 A 
ATOM     24  H   UNL     1       5.530   3.694  -7.129  1.00  0.00     0.167 HD
ATOM     25  C   UNL     1       4.539   0.115  -9.436  1.00  0.00     0.031 A 
ATOM     26  C   UNL     1       6.710   6.204  -6.747  1.00  0.00     0.031 A 
ATOM     27  C   UNL     1       5.144   1.023 -10.371  1.00  0.00     0.049 A 
ATOM     28  C   UNL     1       6.921   5.863  -8.198  1.00  0.00     0.074 A 
ATOM     29  C   UNL     1       5.314   0.853 -11.733  1.00  0.00     0.029 A 
ATOM     30  N   UNL     1       5.665   2.264 -10.049  1.00  0.00    -0.354 N 
ATOM     31  N   UNL     1       6.544   4.792  -8.854  1.00  0.00    -0.248 NA
ATOM     32  C   UNL     1       7.637   6.848  -9.023  1.00  0.00     0.031 C 
ATOM     33  C   UNL     1       6.007   1.958 -12.223  1.00  0.00     0.029 A 
ATOM     34  C   UNL     1       6.190   2.857 -11.183  1.00  0.00     0.049 A 
ATOM     35  H   UNL     1       5.663   2.665  -9.149  1.00  0.00     0.167 HD
ATOM     36  C   UNL     1       6.954   4.984 -10.168  1.00  0.00     0.074 A 
ATOM     37  C   UNL     1       7.594   6.281 -10.223  1.00  0.00     0.031 C 
ATOM     38  C   UNL     1       6.812   4.155 -11.230  1.00  0.00     0.031 A 
BRANCH  25  39
ATOM     39  C   UNL     1       4.063  -1.208  -9.968  1.00  0.00    -0.014 A 
ATOM     40  C   UNL     1       4.997  -2.135 -10.461  1.00  0.00     0.009 A 
ATOM     41  C   UNL     1       2.694  -1.480 -10.116  1.00  0.00     0.009 A 
ATOM     42  C   UNL     1       4.572  -3.287 -11.123  1.00  0.00     0.001 A 
ATOM     43  C   UNL     1       2.271  -2.650 -10.750  1.00  0.00     0.001 A 
ATOM     44  C   UNL     1       3.209  -3.544 -11.267  1.00  0.00     0.000 A 
ENDBRANCH  25  39
BRANCH  26  45
ATOM     45  C   UNL     1       7.213   7.480  -6.169  1.00  0.00    -0.014 A 
ATOM     46  C   UNL     1       8.227   7.470  -5.195  1.00  0.00     0.009 A 
ATOM     47  C   UNL     1       6.654   8.711  -6.545  1.00  0.00     0.009 A 
ATOM     48  C   UNL     1       8.647   8.656  -4.590  1.00  0.00     0.001 A 
ATOM     49  C   UNL     1       7.102   9.900  -5.963  1.00  0.00     0.001 A 
ATOM     50  C   UNL     1       8.088   9.871  -4.978  1.00  0.00     0.000 A 
ENDBRANCH  26  45
BRANCH  38  51
ATOM     51  C   UNL     1       7.333   4.602 -12.569  1.00  0.00    -0.014 A 
ATOM     52  C   UNL     1       6.429   4.838 -13.620  1.00  0.00     0.009 A 
ATOM     53  C   UNL     1       8.709   4.625 -12.838  1.00  0.00     0.009 A 
ATOM     54  C   UNL     1       6.892   5.048 -14.920  1.00  0.00     0.001 A 
ATOM     55  C   UNL     1       9.169   4.869 -14.133  1.00  0.00     0.001 A 
ATOM     56  C   UNL     1       8.262   5.064 -15.175  1.00  0.00     0.000 A 
ENDBRANCH  38  51
ENDBRANCH  12  13
ENDBRANCH   5   7
ENDBRANCH   2   3
ENDBRANCH   1   2
BRANCH   1  57
ATOM     57  C   UNL     1       4.364  -0.643   3.650  1.00  0.00     0.002 C 
BRANCH  57  58
ATOM     58  C   UNL     1       4.883  -2.084   3.670  1.00  0.00     0.002 C 
BRANCH  58  59
ATOM     59  C   UNL     1       6.407  -2.232   3.617  1.00  0.00     0.021 C 
BRANCH  59  60
ATOM     60  C   UNL     1       7.164  -1.464   4.697  1.00  0.00     0.116 C 
BRANCH  60  61
ATOM     61  N   UNL     1       6.813  -1.913   6.034  1.00  0.00    -0.352 N 
ATOM     62  C   UNL     1       7.623  -2.353   7.040  1.00  0.00     0.252 C 
ATOM     63  H   UNL     1       5.852  -1.897   6.244  1.00  0.00     0.163 HD
ATOM     64  O   UNL     1       7.134  -2.793   8.077  1.00  0.00    -0.269 OA
BRANCH  62  65
ATOM     65  C   UNL     1       9.092  -2.312   6.837  1.00  0.00     0.054 A 
ATOM     66  C   UNL     1       9.632  -1.094   6.665  1.00  0.00     0.086 A 
ATOM     67  C   UNL     1       9.949  -3.508   6.891  1.00  0.00     0.012 A 
ATOM     68  C   UNL     1      11.073  -0.932   6.407  1.00  0.00     0.249 A 
ATOM     69  C   UNL     1      11.331  -3.348   6.691  1.00  0.00     0.063 A 
ATOM     70  C   UNL     1       9.443  -4.794   7.126  1.00  0.00     0.011 A 
ATOM     71  O   UNL     1      11.539   0.175   6.155  1.00  0.00    -0.270 OA
ATOM     72  N   UNL     1      11.836  -2.060   6.441  1.00  0.00    -0.321 N 
ATOM     73  C   UNL     1      12.186  -4.457   6.737  1.00  0.00     0.042 A 
ATOM     74  C   UNL     1      10.299  -5.897   7.173  1.00  0.00     0.002 A 
ATOM     75  H   UNL     1      12.803  -1.968   6.281  1.00  0.00     0.170 HD
ATOM     76  Br  UNL     1      14.058  -4.277   6.482  1.00  0.00    -0.049 Br
ATOM     77  C   UNL     1      11.670  -5.730   6.980  1.00  0.00     0.018 A 
ENDBRANCH  62  65
ENDBRANCH  60  61
ENDBRANCH  59  60
ENDBRANCH  58  59
ENDBRANCH  57  58
ENDBRANCH   1  57
TORSDOF 13
