REMARK SMILES CC[C@@](C)(NC(=O)[C@@H](C)NC(=O)c1ccco1)C(=O)NCCCCCCNC(=O)c1ccc(-c2c3nc(c(-c4ccccc4)c4ccc([nH]4)c(-c4ccccc4)c4nc(c(-c5ccccc5)c5ccc2[nH]5)C=C4)C=C3)cc1
REMARK SMILES IDX 22 1 21 2 20 3 18 4 19 5 3 7 4 8 2 9 1 10 5 11 6 12 7 14
REMARK SMILES IDX 8 15 9 16 10 17 11 18 12 20 13 21 14 22 17 23 15 24 16 25
REMARK SMILES IDX 23 26 24 27 25 28 26 29 27 30 28 31 29 33 30 34 31 35 77 36
REMARK SMILES IDX 32 37 76 38 33 39 34 40 35 41 70 42 36 43 75 44 69 45 71 46
REMARK SMILES IDX 37 47 74 48 68 49 67 50 38 52 60 53 45 54 59 55 46 56 49 57
REMARK SMILES IDX 58 58 72 59 47 60 48 61 57 63 73 64 50 65 39 66 40 67 44 68
REMARK SMILES IDX 41 69 43 70 42 71 61 72 62 73 66 74 63 75 65 76 64 77 51 78
REMARK SMILES IDX 52 79 56 80 53 81 55 82 54 83
REMARK H PARENT 20 6 5 13 10 19 27 32 71 51 49 62
REMARK Flexibility Score: inf
ROOT
ATOM      1  C   UNL     1       2.752  -5.088   3.395  1.00  0.00     0.021 C 
ENDROOT
BRANCH   1   2
ATOM      2  C   UNL     1       2.132  -3.715   3.634  1.00  0.00     0.116 C 
BRANCH   2   3
ATOM      3  N   UNL     1       2.791  -2.657   2.882  1.00  0.00    -0.354 N 
ATOM      4  C   UNL     1       2.475  -2.030   1.714  1.00  0.00     0.245 C 
ATOM      5  O   UNL     1       3.356  -1.322   1.213  1.00  0.00    -0.272 OA
ATOM      6  H   UNL     1       3.623  -2.332   3.296  1.00  0.00     0.163 HD
BRANCH   4   7
ATOM      7  C   UNL     1       1.123  -2.240   0.997  1.00  0.00     0.116 C 
ATOM      8  C   UNL     1      -0.024  -1.806   1.947  1.00  0.00     0.045 C 
BRANCH   7   9
ATOM      9  C   UNL     1       0.955  -1.401  -0.301  1.00  0.00     0.035 C 
ATOM     10  C   UNL     1       1.037   0.117  -0.161  1.00  0.00     0.007 C 
ENDBRANCH   7   9
BRANCH   7  11
ATOM     11  N   UNL     1       0.976  -3.676   0.659  1.00  0.00    -0.340 N 
ATOM     12  C   UNL     1       1.669  -4.570  -0.092  1.00  0.00     0.243 C 
ATOM     13  H   UNL     1       0.184  -4.080   1.083  1.00  0.00     0.164 HD
ATOM     14  O   UNL     1       0.991  -5.549  -0.447  1.00  0.00    -0.273 OA
BRANCH  12  15
ATOM     15  C   UNL     1       3.131  -4.464  -0.634  1.00  0.00     0.168 C 
ATOM     16  C   UNL     1       3.196  -3.809  -2.008  1.00  0.00     0.041 C 
BRANCH  15  17
ATOM     17  N   UNL     1       4.211  -3.923   0.184  1.00  0.00    -0.338 N 
ATOM     18  C   UNL     1       5.374  -4.518   0.629  1.00  0.00     0.287 C 
ATOM     19  H   UNL     1       4.091  -2.987   0.464  1.00  0.00     0.164 HD
ATOM     20  O   UNL     1       6.140  -3.815   1.289  1.00  0.00    -0.266 OA
BRANCH  18  21
ATOM     21  C   UNL     1       5.648  -5.915   0.356  1.00  0.00     0.191 A 
ATOM     22  C   UNL     1       5.684  -6.677  -0.799  1.00  0.00     0.056 A 
ATOM     23  O   UNL     1       6.026  -6.706   1.413  1.00  0.00    -0.459 OA
ATOM     24  C   UNL     1       6.060  -7.991  -0.419  1.00  0.00     0.043 A 
ATOM     25  C   UNL     1       6.250  -7.956   0.940  1.00  0.00     0.196 A 
ENDBRANCH  18  21
ENDBRANCH  15  17
ENDBRANCH  12  15
ENDBRANCH   7  11
ENDBRANCH   4   7
ENDBRANCH   2   3
ENDBRANCH   1   2
BRANCH   1  26
ATOM     26  C   UNL     1       4.235  -5.175   3.745  1.00  0.00     0.002 C 
BRANCH  26  27
ATOM     27  C   UNL     1       4.584  -5.072   5.224  1.00  0.00     0.002 C 
BRANCH  27  28
ATOM     28  C   UNL     1       3.993  -6.176   6.093  1.00  0.00     0.021 C 
BRANCH  28  29
ATOM     29  C   UNL     1       4.223  -7.591   5.575  1.00  0.00     0.116 C 
BRANCH  29  30
ATOM     30  N   UNL     1       5.632  -7.935   5.448  1.00  0.00    -0.352 N 
ATOM     31  C   UNL     1       6.311  -8.996   6.007  1.00  0.00     0.251 C 
ATOM     32  H   UNL     1       6.171  -7.331   4.888  1.00  0.00     0.163 HD
ATOM     33  O   UNL     1       7.517  -9.111   5.909  1.00  0.00    -0.269 OA
BRANCH  31  34
ATOM     34  C   UNL     1       5.525  -9.992   6.763  1.00  0.00     0.039 A 
ATOM     35  C   UNL     1       5.855 -10.252   8.093  1.00  0.00     0.014 A 
ATOM     36  C   UNL     1       4.410 -10.588   6.169  1.00  0.00     0.014 A 
ATOM     37  C   UNL     1       5.015 -11.063   8.857  1.00  0.00     0.010 A 
ATOM     38  C   UNL     1       3.530 -11.320   6.955  1.00  0.00     0.010 A 
ATOM     39  C   UNL     1       3.827 -11.572   8.305  1.00  0.00    -0.014 A 
BRANCH  39  40
ATOM     40  C   UNL     1       2.896 -12.404   9.105  1.00  0.00     0.031 A 
ATOM     41  C   UNL     1       2.643 -13.829   8.696  1.00  0.00     0.074 A 
ATOM     42  C   UNL     1       2.235 -11.870  10.151  1.00  0.00     0.049 A 
ATOM     43  N   UNL     1       1.806 -14.699   9.203  1.00  0.00    -0.248 NA
ATOM     44  C   UNL     1       3.407 -14.333   7.542  1.00  0.00     0.031 C 
ATOM     45  C   UNL     1       2.353 -10.487  10.620  1.00  0.00     0.029 A 
ATOM     46  N   UNL     1       1.324 -12.434  11.009  1.00  0.00    -0.354 N 
ATOM     47  C   UNL     1       1.931 -15.838   8.418  1.00  0.00     0.074 A 
ATOM     48  C   UNL     1       2.872 -15.531   7.365  1.00  0.00     0.031 C 
ATOM     49  C   UNL     1       1.565 -10.319  11.696  1.00  0.00     0.029 A 
ATOM     50  C   UNL     1       0.865 -11.569  11.974  1.00  0.00     0.049 A 
ATOM     51  H   UNL     1       1.026 -13.370  10.940  1.00  0.00     0.167 HD
ATOM     52  C   UNL     1       1.343 -17.047   8.576  1.00  0.00     0.031 A 
ATOM     53  C   UNL     1      -0.019 -11.766  12.970  1.00  0.00     0.031 A 
ATOM     54  C   UNL     1       0.429 -17.365   9.637  1.00  0.00     0.049 A 
ATOM     55  C   UNL     1      -0.639 -13.127  13.141  1.00  0.00     0.074 A 
ATOM     56  C   UNL     1      -0.204 -18.567   9.902  1.00  0.00     0.029 A 
ATOM     57  N   UNL     1       0.033 -16.476  10.623  1.00  0.00    -0.354 N 
ATOM     58  N   UNL     1      -0.476 -14.207  12.415  1.00  0.00    -0.248 NA
ATOM     59  C   UNL     1      -1.546 -13.301  14.284  1.00  0.00     0.031 C 
ATOM     60  C   UNL     1      -1.001 -18.398  11.039  1.00  0.00     0.029 A 
ATOM     61  C   UNL     1      -0.828 -17.104  11.504  1.00  0.00     0.049 A 
ATOM     62  H   UNL     1       0.322 -15.537  10.688  1.00  0.00     0.167 HD
ATOM     63  C   UNL     1      -1.229 -15.196  13.034  1.00  0.00     0.074 A 
ATOM     64  C   UNL     1      -1.837 -14.592  14.201  1.00  0.00     0.031 C 
ATOM     65  C   UNL     1      -1.402 -16.489  12.671  1.00  0.00     0.031 A 
BRANCH  52  66
ATOM     66  C   UNL     1       1.696 -18.117   7.583  1.00  0.00    -0.014 A 
ATOM     67  C   UNL     1       2.973 -18.702   7.580  1.00  0.00     0.009 A 
ATOM     68  C   UNL     1       0.743 -18.558   6.652  1.00  0.00     0.009 A 
ATOM     69  C   UNL     1       3.300 -19.681   6.640  1.00  0.00     0.001 A 
ATOM     70  C   UNL     1       1.065 -19.559   5.733  1.00  0.00     0.001 A 
ATOM     71  C   UNL     1       2.345 -20.112   5.722  1.00  0.00     0.000 A 
ENDBRANCH  52  66
BRANCH  53  72
ATOM     72  C   UNL     1      -0.356 -10.664  13.909  1.00  0.00    -0.014 A 
ATOM     73  C   UNL     1       0.077 -10.708  15.244  1.00  0.00     0.009 A 
ATOM     74  C   UNL     1      -1.143  -9.582  13.488  1.00  0.00     0.009 A 
ATOM     75  C   UNL     1      -0.305  -9.713  16.147  1.00  0.00     0.001 A 
ATOM     76  C   UNL     1      -1.500  -8.573  14.386  1.00  0.00     0.001 A 
ATOM     77  C   UNL     1      -1.092  -8.646  15.717  1.00  0.00     0.000 A 
ENDBRANCH  53  72
BRANCH  65  78
ATOM     78  C   UNL     1      -2.231 -17.352  13.579  1.00  0.00    -0.014 A 
ATOM     79  C   UNL     1      -3.626 -17.218  13.644  1.00  0.00     0.009 A 
ATOM     80  C   UNL     1      -1.603 -18.340  14.352  1.00  0.00     0.009 A 
ATOM     81  C   UNL     1      -4.372 -18.035  14.495  1.00  0.00     0.001 A 
ATOM     82  C   UNL     1      -2.354 -19.174  15.181  1.00  0.00     0.001 A 
ATOM     83  C   UNL     1      -3.736 -19.014  15.259  1.00  0.00     0.000 A 
ENDBRANCH  65  78
ENDBRANCH  39  40
ENDBRANCH  31  34
ENDBRANCH  29  30
ENDBRANCH  28  29
ENDBRANCH  27  28
ENDBRANCH  26  27
ENDBRANCH   1  26
TORSDOF 18
