REMARK SMILES C[C@H]1[C@H](C(=O)NCCCCCCNC(=O)c2ccc(-c3c4nc(c(-c5ccccc5)c5ccc([nH]5)c(-c5ccccc5)c5nc(c(-c6ccccc6)c6ccc3[nH]6)C=C5)C=C4)cc2)CCN1C(=O)c1ccc2ccccc2c1
REMARK SMILES IDX 9 1 8 2 7 3 6 4 4 5 5 6 3 8 1 9 2 10 66 11 64 12 65 13 67 14
REMARK SMILES IDX 68 15 69 16 70 17 78 18 71 19 77 20 72 21 76 22 73 23 75 24
REMARK SMILES IDX 74 25 10 26 11 27 12 28 13 29 14 30 15 32 16 33 17 34 63 35
REMARK SMILES IDX 18 36 62 37 19 38 20 39 21 40 56 41 22 42 61 43 55 44 57 45
REMARK SMILES IDX 23 46 60 47 54 48 53 49 24 51 46 52 31 53 45 54 32 55 35 56
REMARK SMILES IDX 44 57 58 58 33 59 34 60 43 62 59 63 36 64 25 65 26 66 30 67
REMARK SMILES IDX 27 68 29 69 28 70 47 71 48 72 52 73 49 74 51 75 50 76 37 77
REMARK SMILES IDX 38 78 42 79 39 80 41 81 40 82
REMARK H PARENT 6 7 13 31 57 50 35 61
REMARK Flexibility Score: inf
ROOT
ATOM      1  C   UNL     1      -0.187   1.117   5.360  1.00  0.00     0.002 C 
ENDROOT
BRANCH   1   2
ATOM      2  C   UNL     1      -0.019   0.283   4.087  1.00  0.00     0.021 C 
BRANCH   2   3
ATOM      3  C   UNL     1      -0.943   0.707   2.950  1.00  0.00     0.116 C 
BRANCH   3   4
ATOM      4  N   UNL     1      -0.504   1.957   2.362  1.00  0.00    -0.356 N 
ATOM      5  C   UNL     1      -0.035   2.236   1.118  1.00  0.00     0.225 C 
ATOM      6  O   UNL     1       0.346   3.389   0.898  1.00  0.00    -0.275 OA
ATOM      7  H   UNL     1      -0.554   2.734   2.965  1.00  0.00     0.163 HD
BRANCH   5   8
ATOM      8  C   UNL     1       0.012   1.194   0.013  1.00  0.00     0.102 C 
ATOM      9  C   UNL     1       2.111  -0.014  -0.669  1.00  0.00     0.032 C 
ATOM     10  C   UNL     1       0.948   0.010   0.323  1.00  0.00     0.094 C 
ATOM     11  N   UNL     1       0.090  -1.176   0.226  1.00  0.00    -0.335 N 
ATOM     12  C   UNL     1      -1.365   0.612  -0.318  1.00  0.00     0.037 C 
ATOM     13  C   UNL     1      -1.150  -0.881  -0.463  1.00  0.00     0.121 C 
BRANCH  11  14
ATOM     14  C   UNL     1       0.295  -2.436   0.762  1.00  0.00     0.254 C 
ATOM     15  O   UNL     1      -0.583  -3.289   0.850  1.00  0.00    -0.269 OA
BRANCH  14  16
ATOM     16  C   UNL     1       1.655  -2.817   1.178  1.00  0.00     0.040 A 
ATOM     17  C   UNL     1       2.472  -3.412   0.216  1.00  0.00     0.014 A 
ATOM     18  C   UNL     1       2.079  -2.698   2.503  1.00  0.00     0.022 A 
ATOM     19  C   UNL     1       3.757  -3.822   0.559  1.00  0.00     0.009 A 
ATOM     20  C   UNL     1       3.360  -3.151   2.870  1.00  0.00    -0.018 A 
ATOM     21  C   UNL     1       4.216  -3.693   1.878  1.00  0.00    -0.018 A 
ATOM     22  C   UNL     1       3.811  -3.106   4.201  1.00  0.00     0.009 A 
ATOM     23  C   UNL     1       5.502  -4.125   2.232  1.00  0.00     0.009 A 
ATOM     24  C   UNL     1       5.080  -3.581   4.543  1.00  0.00     0.001 A 
ATOM     25  C   UNL     1       5.929  -4.076   3.558  1.00  0.00     0.001 A 
ENDBRANCH  14  16
ENDBRANCH  11  14
ENDBRANCH   5   8
ENDBRANCH   3   4
ENDBRANCH   2   3
ENDBRANCH   1   2
BRANCH   1  26
ATOM     26  C   UNL     1      -1.601   1.101   5.953  1.00  0.00     0.002 C 
BRANCH  26  27
ATOM     27  C   UNL     1      -2.181  -0.294   6.201  1.00  0.00     0.021 C 
BRANCH  27  28
ATOM     28  C   UNL     1      -1.331  -1.178   7.106  1.00  0.00     0.116 C 
BRANCH  28  29
ATOM     29  N   UNL     1      -1.172  -0.601   8.431  1.00  0.00    -0.352 N 
ATOM     30  C   UNL     1      -1.503  -1.125   9.655  1.00  0.00     0.251 C 
ATOM     31  H   UNL     1      -0.767   0.296   8.454  1.00  0.00     0.163 HD
ATOM     32  O   UNL     1      -1.505  -0.413  10.652  1.00  0.00    -0.269 OA
BRANCH  30  33
ATOM     33  C   UNL     1      -1.872  -2.551   9.764  1.00  0.00     0.039 A 
ATOM     34  C   UNL     1      -2.975  -2.905  10.543  1.00  0.00     0.014 A 
ATOM     35  C   UNL     1      -1.128  -3.535   9.107  1.00  0.00     0.014 A 
ATOM     36  C   UNL     1      -3.366  -4.242  10.618  1.00  0.00     0.010 A 
ATOM     37  C   UNL     1      -1.566  -4.856   9.117  1.00  0.00     0.010 A 
ATOM     38  C   UNL     1      -2.686  -5.224   9.878  1.00  0.00    -0.014 A 
BRANCH  38  39
ATOM     39  C   UNL     1      -3.135  -6.638   9.887  1.00  0.00     0.031 A 
ATOM     40  C   UNL     1      -2.244  -7.715  10.442  1.00  0.00     0.074 A 
ATOM     41  C   UNL     1      -4.325  -6.960   9.345  1.00  0.00     0.049 A 
ATOM     42  N   UNL     1      -2.449  -9.007  10.501  1.00  0.00    -0.248 NA
ATOM     43  C   UNL     1      -0.943  -7.288  10.982  1.00  0.00     0.031 C 
ATOM     44  C   UNL     1      -5.266  -6.014   8.742  1.00  0.00     0.029 A 
ATOM     45  N   UNL     1      -4.947  -8.177   9.212  1.00  0.00    -0.354 N 
ATOM     46  C   UNL     1      -1.302  -9.545  11.070  1.00  0.00     0.074 A 
ATOM     47  C   UNL     1      -0.383  -8.449  11.287  1.00  0.00     0.031 C 
ATOM     48  C   UNL     1      -6.358  -6.680   8.334  1.00  0.00     0.029 A 
ATOM     49  C   UNL     1      -6.176  -8.103   8.603  1.00  0.00     0.049 A 
ATOM     50  H   UNL     1      -4.550  -9.022   9.524  1.00  0.00     0.167 HD
ATOM     51  C   UNL     1      -1.043 -10.833  11.400  1.00  0.00     0.031 A 
ATOM     52  C   UNL     1      -7.055  -9.072   8.287  1.00  0.00     0.031 A 
ATOM     53  C   UNL     1      -1.956 -11.923  11.181  1.00  0.00     0.049 A 
ATOM     54  C   UNL     1      -6.727 -10.499   8.631  1.00  0.00     0.074 A 
ATOM     55  C   UNL     1      -1.807 -13.255  11.527  1.00  0.00     0.029 A 
ATOM     56  N   UNL     1      -3.185 -11.808  10.550  1.00  0.00    -0.354 N 
ATOM     57  N   UNL     1      -5.670 -10.982   9.237  1.00  0.00    -0.248 NA
ATOM     58  C   UNL     1      -7.722 -11.513   8.255  1.00  0.00     0.031 C 
ATOM     59  C   UNL     1      -2.918 -13.956  11.048  1.00  0.00     0.029 A 
ATOM     60  C   UNL     1      -3.791 -13.051  10.466  1.00  0.00     0.049 A 
ATOM     61  H   UNL     1      -3.570 -10.967  10.211  1.00  0.00     0.167 HD
ATOM     62  C   UNL     1      -5.884 -12.351   9.340  1.00  0.00     0.074 A 
ATOM     63  C   UNL     1      -7.181 -12.616   8.752  1.00  0.00     0.031 C 
ATOM     64  C   UNL     1      -5.080 -13.302   9.874  1.00  0.00     0.031 A 
BRANCH  51  65
ATOM     65  C   UNL     1       0.294 -11.132  12.024  1.00  0.00    -0.014 A 
ATOM     66  C   UNL     1       0.615 -10.679  13.315  1.00  0.00     0.009 A 
ATOM     67  C   UNL     1       1.234 -11.904  11.325  1.00  0.00     0.009 A 
ATOM     68  C   UNL     1       1.865 -10.958  13.873  1.00  0.00     0.001 A 
ATOM     69  C   UNL     1       2.470 -12.210  11.899  1.00  0.00     0.001 A 
ATOM     70  C   UNL     1       2.788 -11.728  13.167  1.00  0.00     0.000 A 
ENDBRANCH  51  65
BRANCH  52  71
ATOM     71  C   UNL     1      -8.336  -8.728   7.616  1.00  0.00    -0.014 A 
ATOM     72  C   UNL     1      -9.557  -8.868   8.294  1.00  0.00     0.009 A 
ATOM     73  C   UNL     1      -8.347  -8.266   6.290  1.00  0.00     0.009 A 
ATOM     74  C   UNL     1     -10.762  -8.581   7.649  1.00  0.00     0.001 A 
ATOM     75  C   UNL     1      -9.551  -7.948   5.659  1.00  0.00     0.001 A 
ATOM     76  C   UNL     1     -10.758  -8.116   6.335  1.00  0.00     0.000 A 
ENDBRANCH  52  71
BRANCH  64  77
ATOM     77  C   UNL     1      -5.593 -14.715   9.877  1.00  0.00    -0.014 A 
ATOM     78  C   UNL     1      -5.707 -15.457   8.691  1.00  0.00     0.009 A 
ATOM     79  C   UNL     1      -5.932 -15.327  11.095  1.00  0.00     0.009 A 
ATOM     80  C   UNL     1      -6.184 -16.769   8.721  1.00  0.00     0.001 A 
ATOM     81  C   UNL     1      -6.376 -16.649  11.126  1.00  0.00     0.001 A 
ATOM     82  C   UNL     1      -6.512 -17.365   9.938  1.00  0.00     0.000 A 
ENDBRANCH  64  77
ENDBRANCH  38  39
ENDBRANCH  30  33
ENDBRANCH  28  29
ENDBRANCH  27  28
ENDBRANCH  26  27
ENDBRANCH   1  26
TORSDOF 15
