REMARK SMILES C#Cc1cccc(N(C)S(=O)(=O)c2cc(F)c(F)c(C(=O)NCCCCCCNC(=O)c3ccc(-c4c5nc(c(-c6ccccc6)c6ccc([nH]6)c(-c6ccccc6)c6nc(c(-c7ccccc7)c7ccc4[nH]7)C=C6)C=C5)cc3)c2)c1
REMARK SMILES IDX 24 1 23 2 22 3 20 4 21 5 19 7 13 8 14 9 80 10 15 11 16 12
REMARK SMILES IDX 17 13 18 14 10 15 11 16 12 17 8 18 9 19 7 20 3 21 4 22 81 23
REMARK SMILES IDX 5 24 6 25 2 26 1 27 25 28 26 29 27 30 28 31 29 32 30 33
REMARK SMILES IDX 31 35 32 36 33 37 79 38 34 39 78 40 35 41 36 42 37 43 72 44
REMARK SMILES IDX 38 45 77 46 71 47 73 48 39 49 76 50 70 51 69 52 40 54 62 55
REMARK SMILES IDX 47 56 61 57 48 58 51 59 60 60 74 61 49 62 50 63 59 65 75 66
REMARK SMILES IDX 52 67 41 68 42 69 46 70 43 71 45 72 44 73 63 74 64 75 68 76
REMARK SMILES IDX 65 77 67 78 66 79 53 80 54 81 58 82 55 83 57 84 56 85
REMARK H PARENT 22 6 29 34 73 53 51 64
REMARK Flexibility Score: inf
ROOT
ATOM      1  C   UNL     1       6.881  -2.707   1.394  1.00  0.00     0.021 C 
ENDROOT
BRANCH   1   2
ATOM      2  C   UNL     1       6.340  -3.549   0.249  1.00  0.00     0.116 C 
BRANCH   2   3
ATOM      3  N   UNL     1       6.934  -4.829  -0.017  1.00  0.00    -0.352 N 
ATOM      4  C   UNL     1       6.312  -6.018  -0.368  1.00  0.00     0.254 C 
ATOM      5  O   UNL     1       7.039  -6.975  -0.625  1.00  0.00    -0.269 OA
ATOM      6  H   UNL     1       7.914  -4.867   0.059  1.00  0.00     0.163 HD
BRANCH   4   7
ATOM      7  C   UNL     1       4.815  -6.187  -0.379  1.00  0.00     0.079 A 
ATOM      8  C   UNL     1       2.530  -5.305  -0.405  1.00  0.00     0.091 A 
ATOM      9  C   UNL     1       2.055  -6.556   0.016  1.00  0.00     0.064 A 
ATOM     10  C   UNL     1       3.893  -5.163  -0.711  1.00  0.00     0.039 A 
ATOM     11  C   UNL     1       2.940  -7.616   0.175  1.00  0.00     0.161 A 
ATOM     12  F   UNL     1       2.463  -8.814   0.538  1.00  0.00    -0.204 F 
ATOM     13  C   UNL     1       4.311  -7.432   0.021  1.00  0.00     0.171 A 
ATOM     14  F   UNL     1       5.121  -8.463   0.299  1.00  0.00    -0.203 F 
BRANCH   8  15
ATOM     15  S   UNL     1       1.330  -3.950  -0.326  1.00  0.00     0.264 S 
ATOM     16  O   UNL     1       0.728  -4.089   0.987  1.00  0.00    -0.201 OA
ATOM     17  O   UNL     1       0.534  -4.070  -1.529  1.00  0.00    -0.201 OA
BRANCH  15  18
ATOM     18  N   UNL     1       2.108  -2.410  -0.345  1.00  0.00    -0.269 N 
ATOM     19  C   UNL     1       3.352  -2.302   0.427  1.00  0.00     0.164 C 
BRANCH  18  20
ATOM     20  C   UNL     1       1.267  -1.198  -0.243  1.00  0.00     0.053 A 
ATOM     21  C   UNL     1      -0.850  -0.000  -0.049  1.00  0.00     0.026 A 
ATOM     22  C   UNL     1      -0.186   1.227  -0.020  1.00  0.00     0.017 A 
ATOM     23  C   UNL     1      -0.130  -1.205  -0.153  1.00  0.00     0.044 A 
ATOM     24  C   UNL     1       1.196   1.260  -0.127  1.00  0.00     0.003 A 
ATOM     25  C   UNL     1       1.904   0.064  -0.270  1.00  0.00     0.027 A 
BRANCH  21  26
ATOM     26  C   UNL     1      -2.278  -0.014   0.013  1.00  0.00    -0.070 C 
ATOM     27  C   UNL     1      -3.481   0.004   0.045  1.00  0.00     0.010 C 
ENDBRANCH  21  26
ENDBRANCH  18  20
ENDBRANCH  15  18
ENDBRANCH   8  15
ENDBRANCH   4   7
ENDBRANCH   2   3
ENDBRANCH   1   2
BRANCH   1  28
ATOM     28  C   UNL     1       8.170  -1.940   1.134  1.00  0.00     0.002 C 
BRANCH  28  29
ATOM     29  C   UNL     1       8.173  -1.023  -0.094  1.00  0.00     0.002 C 
BRANCH  29  30
ATOM     30  C   UNL     1       7.066   0.035  -0.161  1.00  0.00     0.021 C 
BRANCH  30  31
ATOM     31  C   UNL     1       6.985   0.980   1.035  1.00  0.00     0.116 C 
BRANCH  31  32
ATOM     32  N   UNL     1       8.229   1.697   1.260  1.00  0.00    -0.352 N 
ATOM     33  C   UNL     1       8.477   3.046   1.304  1.00  0.00     0.251 C 
ATOM     34  H   UNL     1       9.018   1.125   1.402  1.00  0.00     0.163 HD
ATOM     35  O   UNL     1       9.633   3.457   1.296  1.00  0.00    -0.269 OA
BRANCH  33  36
ATOM     36  C   UNL     1       7.356   4.008   1.347  1.00  0.00     0.039 A 
ATOM     37  C   UNL     1       7.432   5.169   0.572  1.00  0.00     0.014 A 
ATOM     38  C   UNL     1       6.244   3.782   2.163  1.00  0.00     0.014 A 
ATOM     39  C   UNL     1       6.367   6.071   0.571  1.00  0.00     0.010 A 
ATOM     40  C   UNL     1       5.149   4.638   2.095  1.00  0.00     0.010 A 
ATOM     41  C   UNL     1       5.200   5.795   1.303  1.00  0.00    -0.014 A 
BRANCH  41  42
ATOM     42  C   UNL     1       4.026   6.701   1.243  1.00  0.00     0.031 A 
ATOM     43  C   UNL     1       3.535   7.398   2.482  1.00  0.00     0.074 A 
ATOM     44  C   UNL     1       3.366   6.855   0.079  1.00  0.00     0.049 A 
ATOM     45  N   UNL     1       2.507   8.195   2.627  1.00  0.00    -0.248 NA
ATOM     46  C   UNL     1       4.282   7.148   3.724  1.00  0.00     0.031 C 
ATOM     47  C   UNL     1       3.720   6.210  -1.187  1.00  0.00     0.029 A 
ATOM     48  N   UNL     1       2.257   7.603  -0.229  1.00  0.00    -0.354 N 
ATOM     49  C   UNL     1       2.478   8.531   3.975  1.00  0.00     0.074 A 
ATOM     50  C   UNL     1       3.551   7.802   4.614  1.00  0.00     0.031 C 
ATOM     51  C   UNL     1       2.870   6.619  -2.141  1.00  0.00     0.029 A 
ATOM     52  C   UNL     1       1.879   7.510  -1.546  1.00  0.00     0.049 A 
ATOM     53  H   UNL     1       1.778   8.153   0.432  1.00  0.00     0.167 HD
ATOM     54  C   UNL     1       1.647   9.384   4.621  1.00  0.00     0.031 A 
ATOM     55  C   UNL     1       0.845   8.069  -2.203  1.00  0.00     0.031 A 
ATOM     56  C   UNL     1       0.570  10.097   3.985  1.00  0.00     0.049 A 
ATOM     57  C   UNL     1      -0.094   8.974  -1.456  1.00  0.00     0.074 A 
ATOM     58  C   UNL     1      -0.302  11.016   4.541  1.00  0.00     0.029 A 
ATOM     59  N   UNL     1       0.208   9.959   2.653  1.00  0.00    -0.354 N 
ATOM     60  N   UNL     1      -0.067   9.335  -0.196  1.00  0.00    -0.248 NA
ATOM     61  C   UNL     1      -1.202   9.556  -2.227  1.00  0.00     0.031 C 
ATOM     62  C   UNL     1      -1.240  11.373   3.567  1.00  0.00     0.029 A 
ATOM     63  C   UNL     1      -0.900  10.745   2.380  1.00  0.00     0.049 A 
ATOM     64  H   UNL     1       0.669   9.387   1.998  1.00  0.00     0.167 HD
ATOM     65  C   UNL     1      -1.132  10.212  -0.030  1.00  0.00     0.074 A 
ATOM     66  C   UNL     1      -1.773  10.339  -1.323  1.00  0.00     0.031 C 
ATOM     67  C   UNL     1      -1.538  10.857   1.092  1.00  0.00     0.031 A 
BRANCH  54  68
ATOM     68  C   UNL     1       1.857   9.567   6.101  1.00  0.00    -0.014 A 
ATOM     69  C   UNL     1       3.020  10.169   6.611  1.00  0.00     0.009 A 
ATOM     70  C   UNL     1       0.868   9.143   7.003  1.00  0.00     0.009 A 
ATOM     71  C   UNL     1       3.211  10.292   7.989  1.00  0.00     0.001 A 
ATOM     72  C   UNL     1       1.043   9.305   8.379  1.00  0.00     0.001 A 
ATOM     73  C   UNL     1       2.220   9.864   8.871  1.00  0.00     0.000 A 
ENDBRANCH  54  68
BRANCH  55  74
ATOM     74  C   UNL     1       0.649   7.788  -3.651  1.00  0.00    -0.014 A 
ATOM     75  C   UNL     1       0.826   8.798  -4.608  1.00  0.00     0.009 A 
ATOM     76  C   UNL     1       0.288   6.501  -4.084  1.00  0.00     0.009 A 
ATOM     77  C   UNL     1       0.621   8.533  -5.964  1.00  0.00     0.001 A 
ATOM     78  C   UNL     1       0.120   6.230  -5.443  1.00  0.00     0.001 A 
ATOM     79  C   UNL     1       0.275   7.248  -6.381  1.00  0.00     0.000 A 
ENDBRANCH  55  74
BRANCH  67  80
ATOM     80  C   UNL     1      -2.711  11.793   0.966  1.00  0.00    -0.014 A 
ATOM     81  C   UNL     1      -4.010  11.320   0.721  1.00  0.00     0.009 A 
ATOM     82  C   UNL     1      -2.515  13.173   1.137  1.00  0.00     0.009 A 
ATOM     83  C   UNL     1      -5.078  12.213   0.610  1.00  0.00     0.001 A 
ATOM     84  C   UNL     1      -3.590  14.059   1.065  1.00  0.00     0.001 A 
ATOM     85  C   UNL     1      -4.869  13.580   0.790  1.00  0.00     0.000 A 
ENDBRANCH  67  80
ENDBRANCH  41  42
ENDBRANCH  33  36
ENDBRANCH  31  32
ENDBRANCH  30  31
ENDBRANCH  29  30
ENDBRANCH  28  29
ENDBRANCH   1  28
TORSDOF 17
