REMARK SMILES O=C(CS(=O)(=O)NCc1ccc(N2CCOCC2)nc1)NCCCCCCNC(=O)c1ccc(-c2c3nc(c(-c4ccccc4)c4ccc([nH]4)c(-c4ccccc4)c4nc(c(-c5ccccc5)c5ccc2[nH]5)C=C4)C=C3)cc1
REMARK SMILES IDX 23 1 22 2 21 3 1 4 2 5 3 7 4 8 5 9 6 10 7 11 8 13 9 14 10 15
REMARK SMILES IDX 20 16 11 17 19 18 12 19 13 20 14 21 18 22 15 23 17 24 16 25
REMARK SMILES IDX 24 26 25 27 26 28 27 29 28 30 29 31 30 33 31 34 32 35 78 36
REMARK SMILES IDX 33 37 77 38 34 39 35 40 36 41 71 42 37 43 76 44 70 45 72 46
REMARK SMILES IDX 38 47 75 48 69 49 68 50 39 52 61 53 46 54 60 55 47 56 50 57
REMARK SMILES IDX 59 58 73 59 48 60 49 61 58 63 74 64 51 65 40 66 41 67 45 68
REMARK SMILES IDX 42 69 44 70 43 71 62 72 63 73 67 74 64 75 66 76 65 77 52 78
REMARK SMILES IDX 53 79 57 80 54 81 56 82 55 83
REMARK H PARENT 21 6 7 12 28 32 72 51 50 62
REMARK Flexibility Score: inf
ROOT
ATOM      1  C   UNL     1       2.514  -3.473  -0.630  1.00  0.00     0.021 C 
ENDROOT
BRANCH   1   2
ATOM      2  C   UNL     1       2.050  -2.352   0.296  1.00  0.00     0.116 C 
BRANCH   2   3
ATOM      3  N   UNL     1       2.732  -1.098   0.038  1.00  0.00    -0.355 N 
ATOM      4  O   UNL     1       0.837   0.176  -0.067  1.00  0.00    -0.274 OA
ATOM      5  C   UNL     1       2.063   0.094  -0.121  1.00  0.00     0.236 C 
ATOM      6  H   UNL     1       3.715  -1.100  -0.026  1.00  0.00     0.163 HD
BRANCH   5   7
ATOM      7  C   UNL     1       2.897   1.291  -0.452  1.00  0.00     0.253 C 
BRANCH   7   8
ATOM      8  S   UNL     1       4.094   1.641   0.802  1.00  0.00     0.220 S 
ATOM      9  O   UNL     1       4.908   0.461   0.991  1.00  0.00    -0.212 OA
ATOM     10  O   UNL     1       4.721   2.901   0.454  1.00  0.00    -0.212 OA
BRANCH   8  11
ATOM     11  N   UNL     1       3.235   1.978   2.186  1.00  0.00    -0.210 NA
ATOM     12  H   UNL     1       2.467   2.583   1.894  1.00  0.00     0.141 HD
BRANCH  11  13
ATOM     13  C   UNL     1       2.630   0.957   3.047  1.00  0.00     0.135 C 
BRANCH  13  14
ATOM     14  C   UNL     1       3.565  -0.066   3.620  1.00  0.00    -0.015 A 
ATOM     15  C   UNL     1       4.841   0.251   4.076  1.00  0.00     0.010 A 
ATOM     16  C   UNL     1       3.183  -1.399   3.723  1.00  0.00     0.118 A 
ATOM     17  C   UNL     1       5.678  -0.765   4.530  1.00  0.00     0.047 A 
ATOM     18  N   UNL     1       3.993  -2.407   4.130  1.00  0.00    -0.239 NA
ATOM     19  C   UNL     1       5.239  -2.086   4.526  1.00  0.00     0.128 A 
BRANCH  19  20
ATOM     20  N   UNL     1       6.098  -3.079   4.904  1.00  0.00    -0.352 N 
ATOM     21  C   UNL     1       6.556  -3.215   6.276  1.00  0.00     0.146 C 
ATOM     22  C   UNL     1       6.533  -4.105   3.969  1.00  0.00     0.146 C 
ATOM     23  C   UNL     1       8.083  -3.371   6.266  1.00  0.00     0.181 C 
ATOM     24  C   UNL     1       8.060  -4.263   4.072  1.00  0.00     0.181 C 
ATOM     25  O   UNL     1       8.493  -4.469   5.430  1.00  0.00    -0.378 OA
ENDBRANCH  19  20
ENDBRANCH  13  14
ENDBRANCH  11  13
ENDBRANCH   8  11
ENDBRANCH   7   8
ENDBRANCH   5   7
ENDBRANCH   2   3
ENDBRANCH   1   2
BRANCH   1  26
ATOM     26  C   UNL     1       4.008  -3.807  -0.559  1.00  0.00     0.002 C 
BRANCH  26  27
ATOM     27  C   UNL     1       4.568  -4.054   0.842  1.00  0.00     0.002 C 
BRANCH  27  28
ATOM     28  C   UNL     1       3.887  -5.168   1.639  1.00  0.00     0.021 C 
BRANCH  28  29
ATOM     29  C   UNL     1       4.101  -6.572   1.089  1.00  0.00     0.116 C 
BRANCH  29  30
ATOM     30  N   UNL     1       5.494  -6.995   1.127  1.00  0.00    -0.352 N 
ATOM     31  C   UNL     1       6.032  -8.207   1.483  1.00  0.00     0.251 C 
ATOM     32  H   UNL     1       6.147  -6.309   0.858  1.00  0.00     0.163 HD
ATOM     33  O   UNL     1       7.251  -8.330   1.571  1.00  0.00    -0.269 OA
BRANCH  31  34
ATOM     34  C   UNL     1       5.154  -9.361   1.788  1.00  0.00     0.039 A 
ATOM     35  C   UNL     1       5.481 -10.195   2.862  1.00  0.00     0.014 A 
ATOM     36  C   UNL     1       4.021  -9.636   1.017  1.00  0.00     0.014 A 
ATOM     37  C   UNL     1       4.641 -11.259   3.201  1.00  0.00     0.010 A 
ATOM     38  C   UNL     1       3.145 -10.648   1.402  1.00  0.00     0.010 A 
ATOM     39  C   UNL     1       3.446 -11.473   2.496  1.00  0.00    -0.014 A 
BRANCH  39  40
ATOM     40  C   UNL     1       2.502 -12.557   2.873  1.00  0.00     0.031 A 
ATOM     41  C   UNL     1       2.214 -13.677   1.910  1.00  0.00     0.074 A 
ATOM     42  C   UNL     1       1.851 -12.500   4.052  1.00  0.00     0.049 A 
ATOM     43  N   UNL     1       1.353 -14.657   2.015  1.00  0.00    -0.248 NA
ATOM     44  C   UNL     1       2.977 -13.682   0.650  1.00  0.00     0.031 C 
ATOM     45  C   UNL     1       2.011 -11.451   5.062  1.00  0.00     0.029 A 
ATOM     46  N   UNL     1       0.912 -13.342   4.595  1.00  0.00    -0.354 N 
ATOM     47  C   UNL     1       1.459 -15.382   0.835  1.00  0.00     0.074 A 
ATOM     48  C   UNL     1       2.430 -14.703   0.006  1.00  0.00     0.031 C 
ATOM     49  C   UNL     1       1.212 -11.723   6.108  1.00  0.00     0.029 A 
ATOM     50  C   UNL     1       0.456 -12.938   5.827  1.00  0.00     0.049 A 
ATOM     51  H   UNL     1       0.596 -14.158   4.144  1.00  0.00     0.167 HD
ATOM     52  C   UNL     1       0.825 -16.525   0.479  1.00  0.00     0.031 A 
ATOM     53  C   UNL     1      -0.475 -13.480   6.635  1.00  0.00     0.031 A 
ATOM     54  C   UNL     1      -0.130 -17.212   1.306  1.00  0.00     0.049 A 
ATOM     55  C   UNL     1      -1.175 -14.742   6.210  1.00  0.00     0.074 A 
ATOM     56  C   UNL     1      -0.801 -18.396   1.047  1.00  0.00     0.029 A 
ATOM     57  N   UNL     1      -0.545 -16.782   2.556  1.00  0.00    -0.354 N 
ATOM     58  N   UNL     1      -1.024 -15.441   5.111  1.00  0.00    -0.248 NA
ATOM     59  C   UNL     1      -2.164 -15.297   7.145  1.00  0.00     0.031 C 
ATOM     60  C   UNL     1      -1.650 -18.662   2.125  1.00  0.00     0.029 A 
ATOM     61  C   UNL     1      -1.469 -17.672   3.077  1.00  0.00     0.049 A 
ATOM     62  H   UNL     1      -0.229 -15.966   3.007  1.00  0.00     0.167 HD
ATOM     63  C   UNL     1      -1.873 -16.533   5.238  1.00  0.00     0.074 A 
ATOM     64  C   UNL     1      -2.523 -16.413   6.526  1.00  0.00     0.031 C 
ATOM     65  C   UNL     1      -2.095 -17.546   4.366  1.00  0.00     0.031 A 
BRANCH  52  66
ATOM     66  C   UNL     1       1.152 -17.111  -0.865  1.00  0.00    -0.014 A 
ATOM     67  C   UNL     1       2.396 -17.717  -1.105  1.00  0.00     0.009 A 
ATOM     68  C   UNL     1       0.190 -17.107  -1.887  1.00  0.00     0.009 A 
ATOM     69  C   UNL     1       2.680 -18.280  -2.351  1.00  0.00     0.001 A 
ATOM     70  C   UNL     1       0.467 -17.696  -3.123  1.00  0.00     0.001 A 
ATOM     71  C   UNL     1       1.714 -18.274  -3.356  1.00  0.00     0.000 A 
ENDBRANCH  52  66
BRANCH  53  72
ATOM     72  C   UNL     1      -0.807 -12.840   7.936  1.00  0.00    -0.014 A 
ATOM     73  C   UNL     1      -0.461 -13.463   9.146  1.00  0.00     0.009 A 
ATOM     74  C   UNL     1      -1.502 -11.621   7.976  1.00  0.00     0.009 A 
ATOM     75  C   UNL     1      -0.839 -12.898  10.366  1.00  0.00     0.001 A 
ATOM     76  C   UNL     1      -1.850 -11.043   9.198  1.00  0.00     0.001 A 
ATOM     77  C   UNL     1      -1.531 -11.689  10.392  1.00  0.00     0.000 A 
ENDBRANCH  53  72
BRANCH  65  78
ATOM     78  C   UNL     1      -3.041 -18.631   4.797  1.00  0.00    -0.014 A 
ATOM     79  C   UNL     1      -4.425 -18.412   4.860  1.00  0.00     0.009 A 
ATOM     80  C   UNL     1      -2.537 -19.904   5.105  1.00  0.00     0.009 A 
ATOM     81  C   UNL     1      -5.283 -19.439   5.257  1.00  0.00     0.001 A 
ATOM     82  C   UNL     1      -3.399 -20.937   5.473  1.00  0.00     0.001 A 
ATOM     83  C   UNL     1      -4.771 -20.701   5.558  1.00  0.00     0.000 A 
ENDBRANCH  65  78
ENDBRANCH  39  40
ENDBRANCH  31  34
ENDBRANCH  29  30
ENDBRANCH  28  29
ENDBRANCH  27  28
ENDBRANCH  26  27
ENDBRANCH   1  26
TORSDOF 18
