REMARK SMILES Nc1c(N2CCCC2)ncnc1N1CCC(C(=O)NCCCCCCNC(=O)c2ccc(-c3c4nc(c(-c5ccccc5)c5ccc([nH]5)c(-c5ccccc5)c5nc(c(-c6ccccc6)c6ccc3[nH]6)C=C5)C=C4)cc2)CC1
REMARK SMILES IDX 22 1 21 2 20 3 19 4 17 5 18 6 16 8 13 9 14 10 78 11 15 12
REMARK SMILES IDX 77 13 12 14 2 15 3 16 9 17 11 18 10 19 1 20 4 23 5 24 8 25
REMARK SMILES IDX 6 26 7 27 23 28 24 29 25 30 26 31 27 32 28 34 29 35 30 36
REMARK SMILES IDX 76 37 31 38 75 39 32 40 33 41 34 42 69 43 35 44 74 45 68 46
REMARK SMILES IDX 70 47 36 48 73 49 67 50 66 51 37 53 59 54 44 55 58 56 45 57
REMARK SMILES IDX 48 58 57 59 71 60 46 61 47 62 56 64 72 65 49 66 38 67 39 68
REMARK SMILES IDX 43 69 40 70 42 71 41 72 60 73 61 74 65 75 62 76 64 77 63 78
REMARK SMILES IDX 50 79 51 80 55 81 52 82 54 83 53 84
REMARK H PARENT 19 7 1 21 1 22 26 33 70 52 48 63
REMARK Flexibility Score: inf
ROOT
ATOM      1  C   UNL     1       1.234   2.353   8.826  1.00  0.00     0.002 C 
ENDROOT
BRANCH   1   2
ATOM      2  C   UNL     1       1.362   1.606   7.495  1.00  0.00     0.021 C 
BRANCH   2   3
ATOM      3  C   UNL     1       1.330   2.516   6.269  1.00  0.00     0.116 C 
BRANCH   3   4
ATOM      4  N   UNL     1       2.527   3.338   6.194  1.00  0.00    -0.356 N 
ATOM      5  C   UNL     1       3.506   3.393   5.249  1.00  0.00     0.223 C 
ATOM      6  O   UNL     1       4.456   4.156   5.438  1.00  0.00    -0.275 OA
ATOM      7  H   UNL     1       2.650   3.957   6.950  1.00  0.00     0.163 HD
BRANCH   5   8
ATOM      8  C   UNL     1       3.425   2.560   3.979  1.00  0.00     0.082 C 
ATOM      9  N   UNL     1       1.792   0.697   2.644  1.00  0.00    -0.355 N 
ATOM     10  C   UNL     1       3.031   0.162   3.167  1.00  0.00     0.119 C 
ATOM     11  C   UNL     1       1.826   2.025   2.061  1.00  0.00     0.119 C 
ATOM     12  C   UNL     1       3.524   1.056   4.293  1.00  0.00     0.035 C 
ATOM     13  C   UNL     1       2.222   3.021   3.137  1.00  0.00     0.035 C 
BRANCH   9  14
ATOM     14  C   UNL     1       0.796  -0.203   2.306  1.00  0.00     0.157 A 
ATOM     15  C   UNL     1       0.440  -0.457   0.974  1.00  0.00     0.118 A 
ATOM     16  C   UNL     1      -0.668  -1.301   0.770  1.00  0.00     0.157 A 
ATOM     17  N   UNL     1      -1.353  -1.839   1.792  1.00  0.00    -0.217 NA
ATOM     18  N   UNL     1       0.164  -0.800   3.333  1.00  0.00    -0.217 NA
ATOM     19  C   UNL     1      -0.887  -1.571   3.019  1.00  0.00     0.226 A 
BRANCH  15  20
ATOM     20  N   UNL     1       1.069   0.183  -0.110  1.00  0.00    -0.393 N 
ATOM     21  H   UNL     1       0.790  -0.022  -1.032  1.00  0.00     0.156 HD
ATOM     22  H   UNL     1       1.787   0.836   0.053  1.00  0.00     0.156 HD
ENDBRANCH  15  20
BRANCH  16  23
ATOM     23  N   UNL     1      -1.070  -1.579  -0.521  1.00  0.00    -0.355 N 
ATOM     24  C   UNL     1      -0.257  -2.398  -1.400  1.00  0.00     0.118 C 
ATOM     25  C   UNL     1      -2.475  -1.709  -0.863  1.00  0.00     0.118 C 
ATOM     26  C   UNL     1      -0.967  -2.168  -2.725  1.00  0.00     0.023 C 
ATOM     27  C   UNL     1      -2.445  -2.163  -2.332  1.00  0.00     0.023 C 
ENDBRANCH  16  23
ENDBRANCH   9  14
ENDBRANCH   5   8
ENDBRANCH   3   4
ENDBRANCH   2   3
ENDBRANCH   1   2
BRANCH   1  28
ATOM     28  C   UNL     1      -0.027   3.212   8.965  1.00  0.00     0.002 C 
BRANCH  28  29
ATOM     29  C   UNL     1      -1.342   2.478   8.692  1.00  0.00     0.021 C 
BRANCH  29  30
ATOM     30  C   UNL     1      -1.562   1.239   9.552  1.00  0.00     0.116 C 
BRANCH  30  31
ATOM     31  N   UNL     1      -1.641   1.567  10.966  1.00  0.00    -0.352 N 
ATOM     32  C   UNL     1      -2.667   1.351  11.849  1.00  0.00     0.251 C 
ATOM     33  H   UNL     1      -0.845   2.007  11.343  1.00  0.00     0.163 HD
ATOM     34  O   UNL     1      -2.652   1.879  12.960  1.00  0.00    -0.269 OA
BRANCH  32  35
ATOM     35  C   UNL     1      -3.802   0.493  11.458  1.00  0.00     0.039 A 
ATOM     36  C   UNL     1      -5.101   0.924  11.733  1.00  0.00     0.014 A 
ATOM     37  C   UNL     1      -3.584  -0.740  10.835  1.00  0.00     0.014 A 
ATOM     38  C   UNL     1      -6.186   0.139  11.340  1.00  0.00     0.010 A 
ATOM     39  C   UNL     1      -4.667  -1.486  10.379  1.00  0.00     0.010 A 
ATOM     40  C   UNL     1      -5.978  -1.060  10.639  1.00  0.00    -0.014 A 
BRANCH  40  41
ATOM     41  C   UNL     1      -7.123  -1.895  10.199  1.00  0.00     0.031 A 
ATOM     42  C   UNL     1      -7.321  -3.265  10.789  1.00  0.00     0.074 A 
ATOM     43  C   UNL     1      -7.962  -1.437   9.250  1.00  0.00     0.049 A 
ATOM     44  N   UNL     1      -8.235  -4.158  10.505  1.00  0.00    -0.248 NA
ATOM     45  C   UNL     1      -6.360  -3.698  11.819  1.00  0.00     0.031 C 
ATOM     46  C   UNL     1      -7.861  -0.136   8.584  1.00  0.00     0.029 A 
ATOM     47  N   UNL     1      -9.068  -2.015   8.678  1.00  0.00    -0.354 N 
ATOM     48  C   UNL     1      -7.954  -5.254  11.311  1.00  0.00     0.074 A 
ATOM     49  C   UNL     1      -6.759  -4.938  12.061  1.00  0.00     0.031 C 
ATOM     50  C   UNL     1      -8.877  -0.006   7.715  1.00  0.00     0.029 A 
ATOM     51  C   UNL     1      -9.676  -1.228   7.730  1.00  0.00     0.049 A 
ATOM     52  H   UNL     1      -9.396  -2.910   8.925  1.00  0.00     0.167 HD
ATOM     53  C   UNL     1      -8.644  -6.410  11.433  1.00  0.00     0.031 A 
ATOM     54  C   UNL     1     -10.751  -1.466   6.953  1.00  0.00     0.031 A 
ATOM     55  C   UNL     1      -9.846  -6.715  10.706  1.00  0.00     0.049 A 
ATOM     56  C   UNL     1     -11.479  -2.776   7.091  1.00  0.00     0.074 A 
ATOM     57  C   UNL     1     -10.644  -7.841  10.805  1.00  0.00     0.029 A 
ATOM     58  N   UNL     1     -10.422  -5.894   9.751  1.00  0.00    -0.354 N 
ATOM     59  N   UNL     1     -11.238  -3.773   7.908  1.00  0.00    -0.248 NA
ATOM     60  C   UNL     1     -12.634  -2.990   6.207  1.00  0.00     0.031 C 
ATOM     61  C   UNL     1     -11.672  -7.729   9.867  1.00  0.00     0.029 A 
ATOM     62  C   UNL     1     -11.549  -6.505   9.229  1.00  0.00     0.049 A 
ATOM     63  H   UNL     1     -10.082  -5.010   9.483  1.00  0.00     0.167 HD
ATOM     64  C   UNL     1     -12.221  -4.720   7.650  1.00  0.00     0.074 A 
ATOM     65  C   UNL     1     -13.077  -4.169   6.622  1.00  0.00     0.031 C 
ATOM     66  C   UNL     1     -12.394  -5.941   8.210  1.00  0.00     0.031 A 
BRANCH  53  67
ATOM     67  C   UNL     1      -8.137  -7.443  12.399  1.00  0.00    -0.014 A 
ATOM     68  C   UNL     1      -8.274  -7.263  13.784  1.00  0.00     0.009 A 
ATOM     69  C   UNL     1      -7.626  -8.658  11.916  1.00  0.00     0.009 A 
ATOM     70  C   UNL     1      -7.906  -8.280  14.667  1.00  0.00     0.001 A 
ATOM     71  C   UNL     1      -7.283  -9.682  12.800  1.00  0.00     0.001 A 
ATOM     72  C   UNL     1      -7.422  -9.492  14.174  1.00  0.00     0.000 A 
ENDBRANCH  53  67
BRANCH  54  73
ATOM     73  C   UNL     1     -11.205  -0.449   5.966  1.00  0.00    -0.014 A 
ATOM     74  C   UNL     1     -12.436   0.206   6.126  1.00  0.00     0.009 A 
ATOM     75  C   UNL     1     -10.420  -0.145   4.842  1.00  0.00     0.009 A 
ATOM     76  C   UNL     1     -12.886   1.116   5.166  1.00  0.00     0.001 A 
ATOM     77  C   UNL     1     -10.856   0.790   3.901  1.00  0.00     0.001 A 
ATOM     78  C   UNL     1     -12.094   1.410   4.057  1.00  0.00     0.000 A 
ENDBRANCH  54  73
BRANCH  66  79
ATOM     79  C   UNL     1     -13.561  -6.764   7.743  1.00  0.00    -0.014 A 
ATOM     80  C   UNL     1     -13.565  -7.359   6.472  1.00  0.00     0.009 A 
ATOM     81  C   UNL     1     -14.632  -7.014   8.616  1.00  0.00     0.009 A 
ATOM     82  C   UNL     1     -14.630  -8.169   6.077  1.00  0.00     0.001 A 
ATOM     83  C   UNL     1     -15.680  -7.850   8.230  1.00  0.00     0.001 A 
ATOM     84  C   UNL     1     -15.682  -8.421   6.958  1.00  0.00     0.000 A 
ENDBRANCH  66  79
ENDBRANCH  40  41
ENDBRANCH  32  35
ENDBRANCH  30  31
ENDBRANCH  29  30
ENDBRANCH  28  29
ENDBRANCH   1  28
TORSDOF 16
