REMARK SMILES Cc1n[nH]c2c1[C@@]1(C(=O)N([C@@H](C)C(=O)NCCCCCCNC(=O)c3ccc(-c4c5nc(c(-c6ccccc6)c6ccc([nH]6)c(-c6ccccc6)c6nc(c(-c7ccccc7)c7ccc4[nH]7)C=C6)C=C5)cc3)c3ccccc31)C(C#N)=C(N)O2
REMARK SMILES IDX 18 1 17 2 16 3 15 4 13 5 14 6 11 8 12 9 10 10 1 11 2 12 3 13
REMARK SMILES IDX 6 14 4 15 5 16 7 17 84 19 8 20 78 21 79 22 82 23 9 24 73 25
REMARK SMILES IDX 77 26 74 27 76 28 75 29 80 30 81 31 83 32 19 35 20 36 21 37
REMARK SMILES IDX 22 38 23 39 24 41 25 42 26 43 72 44 27 45 71 46 28 47 29 48
REMARK SMILES IDX 30 49 65 50 31 51 70 52 64 53 66 54 32 55 69 56 63 57 62 58
REMARK SMILES IDX 33 60 55 61 40 62 54 63 41 64 44 65 53 66 67 67 42 68 43 69
REMARK SMILES IDX 52 71 68 72 45 73 34 74 35 75 39 76 36 77 38 78 37 79 56 80
REMARK SMILES IDX 57 81 61 82 58 83 60 84 59 85 46 86 47 87 51 88 48 89 50 90
REMARK SMILES IDX 49 91
REMARK H PARENT 15 7 4 18 83 33 83 34 22 40 66 59 44 70
REMARK Flexibility Score: inf
ROOT
ATOM      1  C   UNL     1      -6.190  -0.202   0.173  1.00  0.00     0.002 C 
ENDROOT
BRANCH   1   2
ATOM      2  C   UNL     1      -4.712   0.096  -0.056  1.00  0.00     0.021 C 
BRANCH   2   3
ATOM      3  C   UNL     1      -4.319   0.379  -1.510  1.00  0.00     0.116 C 
BRANCH   3   4
ATOM      4  N   UNL     1      -4.295   1.807  -1.784  1.00  0.00    -0.354 N 
ATOM      5  C   UNL     1      -3.299   2.729  -1.841  1.00  0.00     0.242 C 
ATOM      6  O   UNL     1      -3.660   3.900  -2.033  1.00  0.00    -0.273 OA
ATOM      7  H   UNL     1      -5.187   2.184  -1.966  1.00  0.00     0.163 HD
BRANCH   5   8
ATOM      8  C   UNL     1      -1.790   2.438  -1.645  1.00  0.00     0.176 C 
ATOM      9  C   UNL     1      -1.186   1.404  -2.588  1.00  0.00     0.042 C 
BRANCH   8  10
ATOM     10  N   UNL     1      -1.409   2.281  -0.243  1.00  0.00    -0.298 N 
ATOM     11  C   UNL     1       1.535  -0.058   0.429  1.00  0.00     0.069 C 
ATOM     12  C   UNL     1       0.951  -0.257   1.780  1.00  0.00     0.068 A 
ATOM     13  N   UNL     1       1.449  -1.218   2.578  1.00  0.00    -0.177 NA
ATOM     14  C   UNL     1      -0.167   0.381   2.378  1.00  0.00     0.063 A 
ATOM     15  N   UNL     1       0.617  -1.238   3.636  1.00  0.00    -0.246 N 
ATOM     16  C   UNL     1      -0.373  -0.316   3.540  1.00  0.00     0.222 A 
ATOM     17  C   UNL     1      -1.163   1.407   1.949  1.00  0.00     0.149 C 
ATOM     18  H   UNL     1       0.717  -1.855   4.397  1.00  0.00     0.193 HD
ATOM     19  O   UNL     1      -1.383  -0.205   4.391  1.00  0.00    -0.422 OA
ATOM     20  C   UNL     1      -1.594   1.119   0.504  1.00  0.00     0.248 C 
ATOM     21  C   UNL     1      -0.452   2.725   1.804  1.00  0.00     0.002 A 
ATOM     22  C   UNL     1      -2.357   1.450   2.906  1.00  0.00     0.114 C 
ATOM     23  C   UNL     1      -2.410   0.686   4.036  1.00  0.00     0.208 C 
ATOM     24  O   UNL     1      -1.944   0.020   0.083  1.00  0.00    -0.273 OA
ATOM     25  C   UNL     1      -0.677   3.225   0.511  1.00  0.00     0.050 A 
ATOM     26  C   UNL     1       0.309   3.429   2.729  1.00  0.00     0.008 A 
ATOM     27  C   UNL     1      -0.150   4.443   0.123  1.00  0.00     0.027 A 
ATOM     28  C   UNL     1       0.863   4.646   2.335  1.00  0.00     0.001 A 
ATOM     29  C   UNL     1       0.631   5.150   1.046  1.00  0.00     0.002 A 
BRANCH  22  30
ATOM     30  C   UNL     1      -3.519   2.399   2.663  1.00  0.00     0.102 C 
ATOM     31  N   UNL     1      -4.483   3.187   2.461  1.00  0.00    -0.193 NA
ENDBRANCH  22  30
BRANCH  23  32
ATOM     32  N   UNL     1      -3.424   0.694   4.949  1.00  0.00    -0.369 N 
ATOM     33  H   UNL     1      -4.204   1.279   4.813  1.00  0.00     0.159 HD
ATOM     34  H   UNL     1      -3.375   0.116   5.745  1.00  0.00     0.159 HD
ENDBRANCH  23  32
ENDBRANCH   8  10
ENDBRANCH   5   8
ENDBRANCH   3   4
ENDBRANCH   2   3
ENDBRANCH   1   2
BRANCH   1  35
ATOM     35  C   UNL     1      -6.641  -1.569  -0.351  1.00  0.00     0.002 C 
BRANCH  35  36
ATOM     36  C   UNL     1      -5.882  -2.785   0.199  1.00  0.00     0.021 C 
BRANCH  36  37
ATOM     37  C   UNL     1      -5.841  -2.895   1.725  1.00  0.00     0.116 C 
BRANCH  37  38
ATOM     38  N   UNL     1      -7.146  -2.852   2.353  1.00  0.00    -0.352 N 
ATOM     39  C   UNL     1      -8.172  -3.739   2.521  1.00  0.00     0.251 C 
ATOM     40  H   UNL     1      -7.340  -1.974   2.754  1.00  0.00     0.163 HD
ATOM     41  O   UNL     1      -9.147  -3.327   3.155  1.00  0.00    -0.269 OA
BRANCH  39  42
ATOM     42  C   UNL     1      -8.216  -5.124   1.970  1.00  0.00     0.039 A 
ATOM     43  C   UNL     1      -7.164  -5.790   1.344  1.00  0.00     0.014 A 
ATOM     44  C   UNL     1      -9.448  -5.797   2.088  1.00  0.00     0.014 A 
ATOM     45  C   UNL     1      -7.358  -7.045   0.769  1.00  0.00     0.010 A 
ATOM     46  C   UNL     1      -9.638  -7.067   1.547  1.00  0.00     0.010 A 
ATOM     47  C   UNL     1      -8.604  -7.675   0.841  1.00  0.00    -0.014 A 
BRANCH  47  48
ATOM     48  C   UNL     1      -8.752  -8.968   0.171  1.00  0.00     0.031 A 
ATOM     49  C   UNL     1      -7.846 -10.076   0.601  1.00  0.00     0.074 A 
ATOM     50  C   UNL     1      -9.706  -9.235  -0.742  1.00  0.00     0.049 A 
ATOM     51  N   UNL     1      -7.016 -10.765  -0.118  1.00  0.00    -0.248 NA
ATOM     52  C   UNL     1      -7.860 -10.450   2.022  1.00  0.00     0.031 C 
ATOM     53  C   UNL     1     -10.884  -8.437  -1.093  1.00  0.00     0.029 A 
ATOM     54  N   UNL     1      -9.860 -10.366  -1.491  1.00  0.00    -0.354 N 
ATOM     55  C   UNL     1      -6.477 -11.738   0.725  1.00  0.00     0.074 A 
ATOM     56  C   UNL     1      -6.990 -11.461   2.045  1.00  0.00     0.031 C 
ATOM     57  C   UNL     1     -11.742  -9.203  -1.803  1.00  0.00     0.029 A 
ATOM     58  C   UNL     1     -11.100 -10.474  -2.093  1.00  0.00     0.049 A 
ATOM     59  H   UNL     1      -9.152 -11.043  -1.594  1.00  0.00     0.167 HD
ATOM     60  C   UNL     1      -5.728 -12.784   0.276  1.00  0.00     0.031 A 
ATOM     61  C   UNL     1     -11.592 -11.556  -2.735  1.00  0.00     0.031 A 
ATOM     62  C   UNL     1      -5.238 -12.582  -1.056  1.00  0.00     0.049 A 
ATOM     63  C   UNL     1     -10.458 -12.407  -3.151  1.00  0.00     0.074 A 
ATOM     64  C   UNL     1      -4.349 -11.711  -1.650  1.00  0.00     0.029 A 
ATOM     65  N   UNL     1      -5.904 -13.201  -2.083  1.00  0.00    -0.354 N 
ATOM     66  N   UNL     1      -9.578 -12.061  -4.046  1.00  0.00    -0.248 NA
ATOM     67  C   UNL     1     -10.094 -13.550  -2.330  1.00  0.00     0.031 C 
ATOM     68  C   UNL     1      -4.845 -11.518  -2.972  1.00  0.00     0.029 A 
ATOM     69  C   UNL     1      -6.002 -12.292  -3.104  1.00  0.00     0.049 A 
ATOM     70  H   UNL     1      -6.247 -14.124  -2.085  1.00  0.00     0.167 HD
ATOM     71  C   UNL     1      -8.400 -12.667  -3.642  1.00  0.00     0.074 A 
ATOM     72  C   UNL     1      -8.811 -13.678  -2.675  1.00  0.00     0.031 C 
ATOM     73  C   UNL     1      -7.185 -12.107  -3.919  1.00  0.00     0.031 A 
BRANCH  60  74
ATOM     74  C   UNL     1      -5.621 -14.122   0.959  1.00  0.00    -0.014 A 
ATOM     75  C   UNL     1      -6.577 -14.587   1.880  1.00  0.00     0.009 A 
ATOM     76  C   UNL     1      -4.676 -15.061   0.500  1.00  0.00     0.009 A 
ATOM     77  C   UNL     1      -6.585 -15.911   2.334  1.00  0.00     0.001 A 
ATOM     78  C   UNL     1      -4.705 -16.397   0.921  1.00  0.00     0.001 A 
ATOM     79  C   UNL     1      -5.660 -16.821   1.840  1.00  0.00     0.000 A 
ENDBRANCH  60  74
BRANCH  61  80
ATOM     80  C   UNL     1     -12.984 -12.048  -2.696  1.00  0.00    -0.014 A 
ATOM     81  C   UNL     1     -13.761 -11.849  -1.539  1.00  0.00     0.009 A 
ATOM     82  C   UNL     1     -13.463 -12.940  -3.665  1.00  0.00     0.009 A 
ATOM     83  C   UNL     1     -14.959 -12.540  -1.341  1.00  0.00     0.001 A 
ATOM     84  C   UNL     1     -14.663 -13.634  -3.466  1.00  0.00     0.001 A 
ATOM     85  C   UNL     1     -15.402 -13.445  -2.299  1.00  0.00     0.000 A 
ENDBRANCH  61  80
BRANCH  73  86
ATOM     86  C   UNL     1      -7.133 -10.967  -4.909  1.00  0.00    -0.014 A 
ATOM     87  C   UNL     1      -6.234 -11.044  -5.984  1.00  0.00     0.009 A 
ATOM     88  C   UNL     1      -7.802  -9.750  -4.689  1.00  0.00     0.009 A 
ATOM     89  C   UNL     1      -6.002  -9.938  -6.806  1.00  0.00     0.001 A 
ATOM     90  C   UNL     1      -7.588  -8.650  -5.525  1.00  0.00     0.001 A 
ATOM     91  C   UNL     1      -6.680  -8.742  -6.577  1.00  0.00     0.000 A 
ENDBRANCH  73  86
ENDBRANCH  47  48
ENDBRANCH  39  42
ENDBRANCH  37  38
ENDBRANCH  36  37
ENDBRANCH  35  36
ENDBRANCH   1  35
TORSDOF 16
