REMARK SMILES COc1ccc(Cl)cc1Nc1ncnc2sc(C(=O)NCCCCCCNC(=O)c3ccc(-c4c5nc(c(-c6ccccc6)c6ccc([nH]6)c(-c6ccccc6)c6nc(c(-c7ccccc7)c7ccc4[nH]7)C=C6)C=C5)cc3)c(C)c12
REMARK SMILES IDX 23 1 22 2 21 3 20 4 18 5 19 6 17 8 11 9 12 10 80 11 13 12
REMARK SMILES IDX 15 13 78 14 14 15 16 16 79 17 10 18 9 20 3 21 4 22 5 23 8 24
REMARK SMILES IDX 6 25 7 26 2 27 1 28 24 29 25 30 26 31 27 32 28 33 29 35
REMARK SMILES IDX 30 36 31 37 77 38 32 39 76 40 33 41 34 42 35 43 70 44 36 45
REMARK SMILES IDX 75 46 69 47 71 48 37 49 74 50 68 51 67 52 38 54 60 55 45 56
REMARK SMILES IDX 59 57 46 58 49 59 58 60 72 61 47 62 48 63 57 65 73 66 50 67
REMARK SMILES IDX 39 68 40 69 44 70 41 71 43 72 42 73 61 74 62 75 66 76 63 77
REMARK SMILES IDX 65 78 64 79 51 80 52 81 56 82 53 83 55 84 54 85
REMARK H PARENT 20 7 10 19 27 34 71 53 49 64
REMARK Flexibility Score: inf
ROOT
ATOM      1  C   UNL     1     -10.102  -2.132  -5.685  1.00  0.00     0.002 C 
ENDROOT
BRANCH   1   2
ATOM      2  C   UNL     1      -9.010  -3.050  -5.118  1.00  0.00     0.021 C 
BRANCH   2   3
ATOM      3  C   UNL     1      -7.622  -2.772  -5.697  1.00  0.00     0.116 C 
BRANCH   3   4
ATOM      4  N   UNL     1      -7.047  -1.588  -5.092  1.00  0.00    -0.351 N 
ATOM      5  C   UNL     1      -6.086  -1.361  -4.138  1.00  0.00     0.261 C 
ATOM      6  O   UNL     1      -5.923  -0.162  -3.893  1.00  0.00    -0.268 OA
ATOM      7  H   UNL     1      -7.435  -0.755  -5.445  1.00  0.00     0.163 HD
BRANCH   5   8
ATOM      8  C   UNL     1      -5.278  -2.407  -3.502  1.00  0.00     0.098 A 
ATOM      9  C   UNL     1      -2.192  -3.910  -1.974  1.00  0.00     0.142 A 
ATOM     10  N   UNL     1      -1.873  -5.227  -1.945  1.00  0.00    -0.219 NA
ATOM     11  C   UNL     1      -3.451  -3.531  -2.493  1.00  0.00     0.058 A 
ATOM     12  C   UNL     1      -2.769  -6.129  -2.358  1.00  0.00     0.225 A 
ATOM     13  C   UNL     1      -4.270  -4.576  -2.873  1.00  0.00     0.129 A 
ATOM     14  C   UNL     1      -4.073  -2.245  -2.803  1.00  0.00    -0.014 A 
ATOM     15  N   UNL     1      -3.994  -5.889  -2.818  1.00  0.00    -0.225 NA
ATOM     16  S   UNL     1      -5.769  -4.045  -3.433  1.00  0.00    -0.110 S 
ATOM     17  C   UNL     1      -3.410  -0.936  -2.480  1.00  0.00     0.047 C 
BRANCH   9  18
ATOM     18  N   UNL     1      -1.237  -2.983  -1.565  1.00  0.00    -0.337 N 
ATOM     19  H   UNL     1      -1.538  -2.319  -0.903  1.00  0.00     0.168 HD
BRANCH  18  20
ATOM     20  C   UNL     1       0.106  -2.874  -1.977  1.00  0.00     0.084 A 
ATOM     21  C   UNL     1       0.958  -1.950  -1.336  1.00  0.00     0.142 A 
ATOM     22  C   UNL     1       2.292  -1.833  -1.739  1.00  0.00     0.050 A 
ATOM     23  C   UNL     1       2.778  -2.612  -2.794  1.00  0.00     0.024 A 
ATOM     24  C   UNL     1       0.616  -3.656  -3.023  1.00  0.00     0.050 A 
ATOM     25  C   UNL     1       1.937  -3.516  -3.433  1.00  0.00     0.043 A 
ATOM     26  Cl  UNL     1       2.526  -4.460  -4.746  1.00  0.00    -0.084 Cl
BRANCH  21  27
ATOM     27  O   UNL     1       0.395  -1.236  -0.304  1.00  0.00    -0.495 OA
ATOM     28  C   UNL     1       0.947   0.055  -0.066  1.00  0.00     0.278 C 
ENDBRANCH  21  27
ENDBRANCH  18  20
ENDBRANCH   9  18
ENDBRANCH   5   8
ENDBRANCH   3   4
ENDBRANCH   2   3
ENDBRANCH   1   2
BRANCH   1  29
ATOM     29  C   UNL     1     -10.202  -2.094  -7.220  1.00  0.00     0.002 C 
BRANCH  29  30
ATOM     30  C   UNL     1     -10.253  -3.457  -7.926  1.00  0.00     0.021 C 
BRANCH  30  31
ATOM     31  C   UNL     1     -11.535  -4.224  -7.651  1.00  0.00     0.116 C 
BRANCH  31  32
ATOM     32  N   UNL     1     -12.701  -3.553  -8.223  1.00  0.00    -0.352 N 
ATOM     33  C   UNL     1     -14.025  -3.918  -8.150  1.00  0.00     0.251 C 
ATOM     34  H   UNL     1     -12.514  -2.728  -8.728  1.00  0.00     0.163 HD
ATOM     35  O   UNL     1     -14.849  -3.477  -8.949  1.00  0.00    -0.269 OA
BRANCH  33  36
ATOM     36  C   UNL     1     -14.448  -4.840  -7.088  1.00  0.00     0.039 A 
ATOM     37  C   UNL     1     -15.390  -5.845  -7.326  1.00  0.00     0.014 A 
ATOM     38  C   UNL     1     -13.871  -4.683  -5.830  1.00  0.00     0.014 A 
ATOM     39  C   UNL     1     -15.700  -6.729  -6.297  1.00  0.00     0.010 A 
ATOM     40  C   UNL     1     -14.047  -5.648  -4.878  1.00  0.00     0.010 A 
ATOM     41  C   UNL     1     -15.015  -6.625  -5.078  1.00  0.00    -0.014 A 
BRANCH  41  42
ATOM     42  C   UNL     1     -15.213  -7.595  -4.012  1.00  0.00     0.031 A 
ATOM     43  C   UNL     1     -14.882  -8.994  -4.387  1.00  0.00     0.074 A 
ATOM     44  C   UNL     1     -15.417  -7.215  -2.732  1.00  0.00     0.049 A 
ATOM     45  N   UNL     1     -15.679 -10.007  -4.445  1.00  0.00    -0.248 NA
ATOM     46  C   UNL     1     -13.521  -9.273  -4.880  1.00  0.00     0.031 C 
ATOM     47  C   UNL     1     -15.427  -5.851  -2.183  1.00  0.00     0.029 A 
ATOM     48  N   UNL     1     -15.522  -7.982  -1.615  1.00  0.00    -0.354 N 
ATOM     49  C   UNL     1     -14.883 -11.095  -4.789  1.00  0.00     0.074 A 
ATOM     50  C   UNL     1     -13.620 -10.557  -5.225  1.00  0.00     0.031 C 
ATOM     51  C   UNL     1     -15.278  -5.900  -0.841  1.00  0.00     0.029 A 
ATOM     52  C   UNL     1     -15.348  -7.287  -0.422  1.00  0.00     0.049 A 
ATOM     53  H   UNL     1     -15.705  -8.948  -1.647  1.00  0.00     0.167 HD
ATOM     54  C   UNL     1     -15.221 -12.364  -4.432  1.00  0.00     0.031 A 
ATOM     55  C   UNL     1     -15.238  -7.824   0.817  1.00  0.00     0.031 A 
ATOM     56  C   UNL     1     -16.597 -12.455  -4.018  1.00  0.00     0.049 A 
ATOM     57  C   UNL     1     -15.787  -9.195   0.744  1.00  0.00     0.074 A 
ATOM     58  C   UNL     1     -17.814 -12.216  -4.624  1.00  0.00     0.029 A 
ATOM     59  N   UNL     1     -16.834 -12.438  -2.664  1.00  0.00    -0.354 N 
ATOM     60  N   UNL     1     -17.041  -9.456   0.517  1.00  0.00    -0.248 NA
ATOM     61  C   UNL     1     -14.865 -10.290   0.499  1.00  0.00     0.031 C 
ATOM     62  C   UNL     1     -18.617 -11.612  -3.612  1.00  0.00     0.029 A 
ATOM     63  C   UNL     1     -17.879 -11.582  -2.426  1.00  0.00     0.049 A 
ATOM     64  H   UNL     1     -16.341 -12.951  -1.984  1.00  0.00     0.167 HD
ATOM     65  C   UNL     1     -17.022 -10.567  -0.313  1.00  0.00     0.074 A 
ATOM     66  C   UNL     1     -15.670 -11.107  -0.186  1.00  0.00     0.031 C 
ATOM     67  C   UNL     1     -18.008 -10.767  -1.236  1.00  0.00     0.031 A 
BRANCH  54  68
ATOM     68  C   UNL     1     -14.201 -13.410  -4.059  1.00  0.00    -0.014 A 
ATOM     69  C   UNL     1     -14.623 -14.729  -3.826  1.00  0.00     0.009 A 
ATOM     70  C   UNL     1     -12.884 -13.089  -3.670  1.00  0.00     0.009 A 
ATOM     71  C   UNL     1     -13.781 -15.664  -3.208  1.00  0.00     0.001 A 
ATOM     72  C   UNL     1     -12.027 -14.029  -3.093  1.00  0.00     0.001 A 
ATOM     73  C   UNL     1     -12.484 -15.313  -2.843  1.00  0.00     0.000 A 
ENDBRANCH  54  68
BRANCH  55  74
ATOM     74  C   UNL     1     -14.453  -7.365   1.983  1.00  0.00    -0.014 A 
ATOM     75  C   UNL     1     -14.712  -7.888   3.261  1.00  0.00     0.009 A 
ATOM     76  C   UNL     1     -13.254  -6.654   1.797  1.00  0.00     0.009 A 
ATOM     77  C   UNL     1     -13.778  -7.758   4.297  1.00  0.00     0.001 A 
ATOM     78  C   UNL     1     -12.322  -6.522   2.833  1.00  0.00     0.001 A 
ATOM     79  C   UNL     1     -12.575  -7.092   4.077  1.00  0.00     0.000 A 
ENDBRANCH  55  74
BRANCH  67  80
ATOM     80  C   UNL     1     -19.238  -9.891  -1.151  1.00  0.00    -0.014 A 
ATOM     81  C   UNL     1     -19.211  -8.495  -1.327  1.00  0.00     0.009 A 
ATOM     82  C   UNL     1     -20.488 -10.518  -1.038  1.00  0.00     0.009 A 
ATOM     83  C   UNL     1     -20.397  -7.752  -1.369  1.00  0.00     0.001 A 
ATOM     84  C   UNL     1     -21.672  -9.780  -1.101  1.00  0.00     0.001 A 
ATOM     85  C   UNL     1     -21.627  -8.397  -1.264  1.00  0.00     0.000 A 
ENDBRANCH  67  80
ENDBRANCH  41  42
ENDBRANCH  33  36
ENDBRANCH  31  32
ENDBRANCH  30  31
ENDBRANCH  29  30
ENDBRANCH   1  29
TORSDOF 16
