REMARK SMILES Cc1ccc(NC(=O)NC2(C(=O)NCCCCCCNC(=O)c3ccc(-c4c5nc(c(-c6ccccc6)c6ccc([nH]6)c(-c6ccccc6)c6nc(c(-c7ccccc7)c7ccc4[nH]7)C=C6)C=C5)cc3)CC2)c(C)n1
REMARK SMILES IDX 16 1 15 2 14 3 13 4 11 5 12 6 10 8 71 9 72 10 9 11 6 12 7 13
REMARK SMILES IDX 8 15 5 17 1 18 2 19 3 20 75 21 4 22 73 23 74 24 17 25 18 26
REMARK SMILES IDX 19 27 20 28 21 29 22 31 23 32 24 33 70 34 25 35 69 36 26 37
REMARK SMILES IDX 27 38 28 39 63 40 29 41 68 42 62 43 64 44 30 45 67 46 61 47
REMARK SMILES IDX 60 48 31 50 53 51 38 52 52 53 39 54 42 55 51 56 65 57 40 58
REMARK SMILES IDX 41 59 50 61 66 62 43 63 32 64 33 65 37 66 34 67 36 68 35 69
REMARK SMILES IDX 54 70 55 71 59 72 56 73 58 74 57 75 44 76 45 77 49 78 46 79
REMARK SMILES IDX 48 80 47 81
REMARK H PARENT 13 7 6 14 9 16 20 30 64 49 42 60
REMARK Flexibility Score: inf
ROOT
ATOM      1  C   UNL     1      -0.966   1.111   4.189  1.00  0.00     0.002 C 
ENDROOT
BRANCH   1   2
ATOM      2  C   UNL     1      -0.168   0.922   2.889  1.00  0.00     0.021 C 
BRANCH   2   3
ATOM      3  C   UNL     1       1.236   1.573   2.838  1.00  0.00     0.116 C 
BRANCH   3   4
ATOM      4  N   UNL     1       2.142   0.899   1.893  1.00  0.00    -0.354 N 
ATOM      5  C   UNL     1       3.134   1.547   1.167  1.00  0.00     0.245 C 
ATOM      6  O   UNL     1       3.640   2.611   1.543  1.00  0.00    -0.272 OA
ATOM      7  H   UNL     1       2.038  -0.072   1.768  1.00  0.00     0.163 HD
BRANCH   5   8
ATOM      8  C   UNL     1       3.574   0.911  -0.190  1.00  0.00     0.120 C 
ATOM      9  C   UNL     1       4.258   1.930  -1.121  1.00  0.00     0.041 C 
ATOM     10  C   UNL     1       3.149   1.145  -1.669  1.00  0.00     0.041 C 
BRANCH   8  11
ATOM     11  N   UNL     1       3.892  -0.451  -0.075  1.00  0.00    -0.323 N 
ATOM     12  N   UNL     1       1.669  -1.327  -0.182  1.00  0.00    -0.306 N 
ATOM     13  C   UNL     1       3.006  -1.442  -0.096  1.00  0.00     0.320 C 
ATOM     14  H   UNL     1       1.347  -2.254  -0.102  1.00  0.00     0.171 HD
ATOM     15  O   UNL     1       3.445  -2.596  -0.004  1.00  0.00    -0.248 OA
ATOM     16  H   UNL     1       4.841  -0.691   0.029  1.00  0.00     0.166 HD
BRANCH  12  17
ATOM     17  C   UNL     1       0.462  -0.551  -0.330  1.00  0.00     0.064 A 
ATOM     18  C   UNL     1      -3.630   0.780  -0.690  1.00  0.00     0.067 C 
ATOM     19  C   UNL     1      -2.260   0.213  -0.581  1.00  0.00     0.038 A 
ATOM     20  C   UNL     1      -1.976  -1.107  -0.404  1.00  0.00     0.025 A 
ATOM     21  N   UNL     1      -1.283   1.113  -0.625  1.00  0.00    -0.256 NA
ATOM     22  C   UNL     1      -0.633  -1.468  -0.296  1.00  0.00     0.030 A 
ATOM     23  C   UNL     1       0.043   0.798  -0.471  1.00  0.00     0.061 A 
ATOM     24  C   UNL     1       0.643   2.165  -0.465  1.00  0.00     0.069 C 
ENDBRANCH  12  17
ENDBRANCH   8  11
ENDBRANCH   5   8
ENDBRANCH   3   4
ENDBRANCH   2   3
ENDBRANCH   1   2
BRANCH   1  25
ATOM     25  C   UNL     1      -1.379   2.540   4.553  1.00  0.00     0.002 C 
BRANCH  25  26
ATOM     26  C   UNL     1      -2.471   3.195   3.695  1.00  0.00     0.021 C 
BRANCH  26  27
ATOM     27  C   UNL     1      -3.835   2.497   3.646  1.00  0.00     0.116 C 
BRANCH  27  28
ATOM     28  N   UNL     1      -4.423   2.273   4.960  1.00  0.00    -0.352 N 
ATOM     29  C   UNL     1      -5.594   2.727   5.519  1.00  0.00     0.251 C 
ATOM     30  H   UNL     1      -3.888   1.696   5.552  1.00  0.00     0.163 HD
ATOM     31  O   UNL     1      -5.814   2.526   6.713  1.00  0.00    -0.269 OA
BRANCH  29  32
ATOM     32  C   UNL     1      -6.595   3.469   4.720  1.00  0.00     0.039 A 
ATOM     33  C   UNL     1      -7.194   4.605   5.277  1.00  0.00     0.014 A 
ATOM     34  C   UNL     1      -6.982   3.034   3.450  1.00  0.00     0.014 A 
ATOM     35  C   UNL     1      -8.111   5.351   4.530  1.00  0.00     0.010 A 
ATOM     36  C   UNL     1      -7.852   3.812   2.683  1.00  0.00     0.010 A 
ATOM     37  C   UNL     1      -8.412   4.987   3.207  1.00  0.00    -0.014 A 
BRANCH  37  38
ATOM     38  C   UNL     1      -9.257   5.853   2.342  1.00  0.00     0.031 A 
ATOM     39  C   UNL     1     -10.579   5.364   1.817  1.00  0.00     0.074 A 
ATOM     40  C   UNL     1      -8.792   7.061   1.966  1.00  0.00     0.049 A 
ATOM     41  N   UNL     1     -11.407   5.953   0.991  1.00  0.00    -0.248 NA
ATOM     42  C   UNL     1     -11.018   4.033   2.262  1.00  0.00     0.031 C 
ATOM     43  C   UNL     1      -7.513   7.641   2.380  1.00  0.00     0.029 A 
ATOM     44  N   UNL     1      -9.336   8.014   1.140  1.00  0.00    -0.354 N 
ATOM     45  C   UNL     1     -12.458   5.063   0.808  1.00  0.00     0.074 A 
ATOM     46  C   UNL     1     -12.141   3.876   1.574  1.00  0.00     0.031 C 
ATOM     47  C   UNL     1      -7.381   8.857   1.827  1.00  0.00     0.029 A 
ATOM     48  C   UNL     1      -8.538   9.122   0.979  1.00  0.00     0.049 A 
ATOM     49  H   UNL     1     -10.213   7.914   0.705  1.00  0.00     0.167 HD
ATOM     50  C   UNL     1     -13.590   5.225   0.081  1.00  0.00     0.031 A 
ATOM     51  C   UNL     1      -8.707  10.222   0.220  1.00  0.00     0.031 A 
ATOM     52  C   UNL     1     -13.902   6.404  -0.685  1.00  0.00     0.049 A 
ATOM     53  C   UNL     1      -9.947  10.352  -0.619  1.00  0.00     0.074 A 
ATOM     54  C   UNL     1     -15.048   6.682  -1.410  1.00  0.00     0.029 A 
ATOM     55  N   UNL     1     -13.059   7.495  -0.835  1.00  0.00    -0.354 N 
ATOM     56  N   UNL     1     -10.964   9.533  -0.722  1.00  0.00    -0.248 NA
ATOM     57  C   UNL     1     -10.061  11.562  -1.447  1.00  0.00     0.031 C 
ATOM     58  C   UNL     1     -14.871   7.911  -2.053  1.00  0.00     0.029 A 
ATOM     59  C   UNL     1     -13.643   8.429  -1.675  1.00  0.00     0.049 A 
ATOM     60  H   UNL     1     -12.178   7.591  -0.408  1.00  0.00     0.167 HD
ATOM     61  C   UNL     1     -11.848  10.135  -1.607  1.00  0.00     0.074 A 
ATOM     62  C   UNL     1     -11.258  11.400  -1.995  1.00  0.00     0.031 C 
ATOM     63  C   UNL     1     -13.041   9.680  -2.061  1.00  0.00     0.031 A 
BRANCH  50  64
ATOM     64  C   UNL     1     -14.575   4.087   0.064  1.00  0.00    -0.014 A 
ATOM     65  C   UNL     1     -15.318   3.748   1.207  1.00  0.00     0.009 A 
ATOM     66  C   UNL     1     -14.800   3.374  -1.124  1.00  0.00     0.009 A 
ATOM     67  C   UNL     1     -16.236   2.696   1.169  1.00  0.00     0.001 A 
ATOM     68  C   UNL     1     -15.741   2.343  -1.167  1.00  0.00     0.001 A 
ATOM     69  C   UNL     1     -16.450   1.998  -0.018  1.00  0.00     0.000 A 
ENDBRANCH  50  64
BRANCH  51  70
ATOM     70  C   UNL     1      -7.669  11.288   0.211  1.00  0.00    -0.014 A 
ATOM     71  C   UNL     1      -7.934  12.546   0.773  1.00  0.00     0.009 A 
ATOM     72  C   UNL     1      -6.410  11.056  -0.367  1.00  0.00     0.009 A 
ATOM     73  C   UNL     1      -6.970  13.556   0.735  1.00  0.00     0.001 A 
ATOM     74  C   UNL     1      -5.437  12.057  -0.375  1.00  0.00     0.001 A 
ATOM     75  C   UNL     1      -5.721  13.310   0.166  1.00  0.00     0.000 A 
ENDBRANCH  51  70
BRANCH  63  76
ATOM     76  C   UNL     1     -13.797  10.561  -3.016  1.00  0.00    -0.014 A 
ATOM     77  C   UNL     1     -13.364  10.738  -4.340  1.00  0.00     0.009 A 
ATOM     78  C   UNL     1     -14.985  11.183  -2.601  1.00  0.00     0.009 A 
ATOM     79  C   UNL     1     -14.091  11.543  -5.219  1.00  0.00     0.001 A 
ATOM     80  C   UNL     1     -15.726  11.961  -3.490  1.00  0.00     0.001 A 
ATOM     81  C   UNL     1     -15.275  12.148  -4.796  1.00  0.00     0.000 A 
ENDBRANCH  63  76
ENDBRANCH  37  38
ENDBRANCH  29  32
ENDBRANCH  27  28
ENDBRANCH  26  27
ENDBRANCH  25  26
ENDBRANCH   1  25
TORSDOF 15
