REMARK SMILES Cc1c(NCc2ccc(-c3ccc(Cl)cc3)o2)cccc1C(=O)NCCCCCCNC(=O)c1ccc(-c2c3nc(c(-c4ccccc4)c4ccc([nH]4)c(-c4ccccc4)c4nc(c(-c5ccccc5)c5ccc2[nH]5)C=C4)C=C3)cc1
REMARK SMILES IDX 26 1 25 2 24 3 22 4 23 5 21 7 1 8 2 9 3 10 18 11 20 12 19 13
REMARK SMILES IDX 4 14 5 16 6 17 7 18 17 19 8 20 9 21 10 22 11 23 16 24 12 25
REMARK SMILES IDX 15 26 13 27 14 28 27 29 28 30 29 31 30 32 31 33 32 34 33 36
REMARK SMILES IDX 34 37 35 38 81 39 36 40 80 41 37 42 38 43 39 44 74 45 40 46
REMARK SMILES IDX 79 47 73 48 75 49 41 50 78 51 72 52 71 53 42 55 64 56 49 57
REMARK SMILES IDX 63 58 50 59 53 60 62 61 76 62 51 63 52 64 61 66 77 67 54 68
REMARK SMILES IDX 43 69 44 70 48 71 45 72 47 73 46 74 65 75 66 76 70 77 67 78
REMARK SMILES IDX 69 79 68 80 55 81 56 82 60 83 57 84 59 85 58 86
REMARK H PARENT 24 6 4 15 31 35 75 54 53 65
REMARK Flexibility Score: inf
ROOT
ATOM      1  C   UNL     1       4.284   1.769  -0.637  1.00  0.00     0.021 C 
ENDROOT
BRANCH   1   2
ATOM      2  C   UNL     1       3.203   1.983   0.437  1.00  0.00     0.116 C 
BRANCH   2   3
ATOM      3  N   UNL     1       2.064   2.666  -0.144  1.00  0.00    -0.352 N 
ATOM      4  C   UNL     1       0.792   2.285  -0.489  1.00  0.00     0.251 C 
ATOM      5  O   UNL     1       0.099   3.149  -1.034  1.00  0.00    -0.269 OA
ATOM      6  H   UNL     1       2.243   3.615  -0.332  1.00  0.00     0.163 HD
BRANCH   4   7
ATOM      7  C   UNL     1       0.156   0.967  -0.170  1.00  0.00     0.044 A 
ATOM      8  C   UNL     1       2.021  -0.560  -1.005  1.00  0.00     0.047 C 
ATOM      9  C   UNL     1       0.707  -0.328  -0.312  1.00  0.00    -0.015 A 
ATOM     10  C   UNL     1      -0.038  -1.471   0.103  1.00  0.00     0.038 A 
ATOM     11  C   UNL     1      -1.386  -1.304   0.445  1.00  0.00     0.026 A 
ATOM     12  C   UNL     1      -1.197   1.079   0.203  1.00  0.00     0.014 A 
ATOM     13  C   UNL     1      -1.971  -0.044   0.474  1.00  0.00     0.003 A 
BRANCH  10  14
ATOM     14  N   UNL     1       0.558  -2.721   0.115  1.00  0.00    -0.378 N 
ATOM     15  H   UNL     1       1.519  -2.752   0.328  1.00  0.00     0.161 HD
BRANCH  14  16
ATOM     16  C   UNL     1      -0.095  -3.994  -0.158  1.00  0.00     0.188 C 
BRANCH  16  17
ATOM     17  C   UNL     1       0.284  -4.580  -1.477  1.00  0.00     0.123 A 
ATOM     18  C   UNL     1       0.768  -4.037  -2.650  1.00  0.00     0.048 A 
ATOM     19  O   UNL     1       0.148  -5.932  -1.616  1.00  0.00    -0.459 OA
ATOM     20  C   UNL     1       0.994  -5.115  -3.532  1.00  0.00     0.051 A 
ATOM     21  C   UNL     1       0.582  -6.251  -2.870  1.00  0.00     0.134 A 
BRANCH  21  22
ATOM     22  C   UNL     1       0.518  -7.653  -3.240  1.00  0.00     0.017 A 
ATOM     23  C   UNL     1       1.595  -8.261  -3.900  1.00  0.00     0.013 A 
ATOM     24  C   UNL     1      -0.639  -8.402  -2.990  1.00  0.00     0.013 A 
ATOM     25  C   UNL     1       1.514  -9.595  -4.308  1.00  0.00     0.021 A 
ATOM     26  C   UNL     1      -0.727  -9.732  -3.410  1.00  0.00     0.021 A 
ATOM     27  C   UNL     1       0.350 -10.322  -4.068  1.00  0.00     0.041 A 
ATOM     28  Cl  UNL     1       0.239 -11.956  -4.595  1.00  0.00    -0.084 Cl
ENDBRANCH  21  22
ENDBRANCH  16  17
ENDBRANCH  14  16
ENDBRANCH  10  14
ENDBRANCH   4   7
ENDBRANCH   2   3
ENDBRANCH   1   2
BRANCH   1  29
ATOM     29  C   UNL     1       5.358   2.862  -0.720  1.00  0.00     0.002 C 
BRANCH  29  30
ATOM     30  C   UNL     1       6.259   3.028   0.513  1.00  0.00     0.002 C 
BRANCH  30  31
ATOM     31  C   UNL     1       6.828   1.738   1.107  1.00  0.00     0.021 C 
BRANCH  31  32
ATOM     32  C   UNL     1       7.843   1.030   0.216  1.00  0.00     0.116 C 
BRANCH  32  33
ATOM     33  N   UNL     1       9.228   1.376   0.514  1.00  0.00    -0.352 N 
ATOM     34  C   UNL     1      10.382   1.059  -0.172  1.00  0.00     0.251 C 
ATOM     35  H   UNL     1       9.359   1.915   1.327  1.00  0.00     0.163 HD
ATOM     36  O   UNL     1      11.474   1.419   0.266  1.00  0.00    -0.269 OA
BRANCH  34  37
ATOM     37  C   UNL     1      10.303   0.397  -1.495  1.00  0.00     0.039 A 
ATOM     38  C   UNL     1      11.098   0.904  -2.530  1.00  0.00     0.014 A 
ATOM     39  C   UNL     1       9.352  -0.584  -1.764  1.00  0.00     0.014 A 
ATOM     40  C   UNL     1      10.776   0.606  -3.852  1.00  0.00     0.010 A 
ATOM     41  C   UNL     1       8.977  -0.818  -3.074  1.00  0.00     0.010 A 
ATOM     42  C   UNL     1       9.646  -0.168  -4.114  1.00  0.00    -0.014 A 
BRANCH  42  43
ATOM     43  C   UNL     1       9.024  -0.243  -5.430  1.00  0.00     0.031 A 
ATOM     44  C   UNL     1       9.212  -1.421  -6.293  1.00  0.00     0.074 A 
ATOM     45  C   UNL     1       8.246   0.776  -5.854  1.00  0.00     0.049 A 
ATOM     46  N   UNL     1       9.095  -1.397  -7.578  1.00  0.00    -0.248 NA
ATOM     47  C   UNL     1       9.604  -2.723  -5.769  1.00  0.00     0.031 C 
ATOM     48  C   UNL     1       7.358   0.806  -7.013  1.00  0.00     0.029 A 
ATOM     49  N   UNL     1       8.307   2.102  -5.430  1.00  0.00    -0.354 N 
ATOM     50  C   UNL     1       9.125  -2.696  -8.019  1.00  0.00     0.074 A 
ATOM     51  C   UNL     1       9.514  -3.479  -6.867  1.00  0.00     0.031 C 
ATOM     52  C   UNL     1       7.161   2.085  -7.370  1.00  0.00     0.029 A 
ATOM     53  C   UNL     1       8.036   2.907  -6.551  1.00  0.00     0.049 A 
ATOM     54  H   UNL     1       8.504   2.416  -4.517  1.00  0.00     0.167 HD
ATOM     55  C   UNL     1       8.701  -2.989  -9.280  1.00  0.00     0.031 A 
ATOM     56  C   UNL     1       8.984   3.765  -7.029  1.00  0.00     0.031 A 
ATOM     57  C   UNL     1       8.344  -1.796 -10.044  1.00  0.00     0.049 A 
ATOM     58  C   UNL     1       9.449   3.470  -8.442  1.00  0.00     0.074 A 
ATOM     59  C   UNL     1       7.148  -1.199 -10.409  1.00  0.00     0.029 A 
ATOM     60  N   UNL     1       9.334  -0.868 -10.322  1.00  0.00    -0.354 N 
ATOM     61  N   UNL     1       9.079   2.436  -9.145  1.00  0.00    -0.248 NA
ATOM     62  C   UNL     1      10.466   4.271  -9.128  1.00  0.00     0.031 C 
ATOM     63  C   UNL     1       7.436   0.101 -10.915  1.00  0.00     0.029 A 
ATOM     64  C   UNL     1       8.804   0.285 -10.865  1.00  0.00     0.049 A 
ATOM     65  H   UNL     1      10.293  -1.013 -10.154  1.00  0.00     0.167 HD
ATOM     66  C   UNL     1       9.807   2.392 -10.303  1.00  0.00     0.074 A 
ATOM     67  C   UNL     1      10.660   3.563 -10.253  1.00  0.00     0.031 C 
ATOM     68  C   UNL     1       9.702   1.374 -11.203  1.00  0.00     0.031 A 
BRANCH  55  69
ATOM     69  C   UNL     1       8.396  -4.392  -9.739  1.00  0.00    -0.014 A 
ATOM     70  C   UNL     1       7.398  -4.605 -10.707  1.00  0.00     0.009 A 
ATOM     71  C   UNL     1       9.023  -5.542  -9.233  1.00  0.00     0.009 A 
ATOM     72  C   UNL     1       6.981  -5.892 -11.072  1.00  0.00     0.001 A 
ATOM     73  C   UNL     1       8.582  -6.832  -9.559  1.00  0.00     0.001 A 
ATOM     74  C   UNL     1       7.551  -7.006 -10.471  1.00  0.00     0.000 A 
ENDBRANCH  55  69
BRANCH  56  75
ATOM     75  C   UNL     1       9.860   4.330  -5.962  1.00  0.00    -0.014 A 
ATOM     76  C   UNL     1       9.271   5.128  -4.959  1.00  0.00     0.009 A 
ATOM     77  C   UNL     1      11.147   3.820  -5.741  1.00  0.00     0.009 A 
ATOM     78  C   UNL     1       9.902   5.307  -3.725  1.00  0.00     0.001 A 
ATOM     79  C   UNL     1      11.784   4.021  -4.511  1.00  0.00     0.001 A 
ATOM     80  C   UNL     1      11.147   4.731  -3.494  1.00  0.00     0.000 A 
ENDBRANCH  56  75
BRANCH  68  81
ATOM     81  C   UNL     1      10.482   1.316 -12.482  1.00  0.00    -0.014 A 
ATOM     82  C   UNL     1      10.635   2.430 -13.318  1.00  0.00     0.009 A 
ATOM     83  C   UNL     1      10.986   0.085 -12.947  1.00  0.00     0.009 A 
ATOM     84  C   UNL     1      11.310   2.328 -14.541  1.00  0.00     0.001 A 
ATOM     85  C   UNL     1      11.641  -0.025 -14.176  1.00  0.00     0.001 A 
ATOM     86  C   UNL     1      11.812   1.101 -14.969  1.00  0.00     0.000 A 
ENDBRANCH  68  81
ENDBRANCH  42  43
ENDBRANCH  34  37
ENDBRANCH  32  33
ENDBRANCH  31  32
ENDBRANCH  30  31
ENDBRANCH  29  30
ENDBRANCH   1  29
TORSDOF 17
