REMARK SMILES O=C(CCc1nc(-c2ccccc2)c(-c2ccccc2)o1)NCCCCCCNC(=O)c1ccc(-c2c3nc(c(-c4ccccc4)c4ccc([nH]4)c(-c4ccccc4)c4nc(c(-c5ccccc5)c5ccc2[nH]5)C=C4)C=C3)cc1
REMARK SMILES IDX 25 1 24 2 23 3 22 4 1 5 2 6 3 8 4 9 5 10 6 11 21 12 7 13
REMARK SMILES IDX 14 14 8 15 9 16 13 17 10 18 12 19 11 20 15 21 16 22 20 23
REMARK SMILES IDX 17 24 19 25 18 26 26 27 27 28 28 29 29 30 30 31 31 33 32 34
REMARK SMILES IDX 33 35 79 36 34 37 78 38 35 39 36 40 37 41 72 42 38 43 77 44
REMARK SMILES IDX 71 45 73 46 39 47 76 48 70 49 69 50 40 52 62 53 47 54 61 55
REMARK SMILES IDX 48 56 51 57 60 58 74 59 49 60 50 61 59 63 75 64 52 65 41 66
REMARK SMILES IDX 42 67 46 68 43 69 45 70 44 71 63 72 64 73 68 74 65 75 67 76
REMARK SMILES IDX 66 77 53 78 54 79 58 80 55 81 57 82 56 83
REMARK H PARENT 22 7 29 32 73 51 51 62
REMARK Flexibility Score: inf
ROOT
ATOM      1  C   UNL     1       3.778   1.304  -3.676  1.00  0.00     0.002 C 
ENDROOT
BRANCH   1   2
ATOM      2  C   UNL     1       2.308   1.375  -3.244  1.00  0.00     0.021 C 
BRANCH   2   3
ATOM      3  C   UNL     1       1.858   0.210  -2.361  1.00  0.00     0.116 C 
BRANCH   3   4
ATOM      4  N   UNL     1       2.660   0.140  -1.159  1.00  0.00    -0.356 N 
ATOM      5  O   UNL     1       0.945  -0.223   0.319  1.00  0.00    -0.275 OA
ATOM      6  C   UNL     1       2.136  -0.044   0.093  1.00  0.00     0.220 C 
ATOM      7  H   UNL     1       3.637   0.229  -1.246  1.00  0.00     0.163 HD
BRANCH   6   8
ATOM      8  C   UNL     1       3.163   0.041   1.202  1.00  0.00     0.110 C 
BRANCH   8   9
ATOM      9  C   UNL     1       4.024  -1.210   1.312  1.00  0.00     0.107 C 
BRANCH   9  10
ATOM     10  C   UNL     1       5.042  -1.379   0.234  1.00  0.00     0.196 A 
ATOM     11  N   UNL     1       5.442  -2.503  -0.323  1.00  0.00    -0.213 NA
ATOM     12  O   UNL     1       5.646  -0.250  -0.269  1.00  0.00    -0.440 OA
ATOM     13  C   UNL     1       6.399  -2.105  -1.223  1.00  0.00     0.117 A 
ATOM     14  C   UNL     1       6.510  -0.726  -1.230  1.00  0.00     0.162 A 
BRANCH  13  15
ATOM     15  C   UNL     1       7.126  -3.006  -2.088  1.00  0.00     0.004 A 
ATOM     16  C   UNL     1       8.526  -2.957  -2.150  1.00  0.00     0.010 A 
ATOM     17  C   UNL     1       6.427  -3.857  -2.950  1.00  0.00     0.010 A 
ATOM     18  C   UNL     1       9.215  -3.711  -3.099  1.00  0.00     0.001 A 
ATOM     19  C   UNL     1       7.119  -4.611  -3.900  1.00  0.00     0.001 A 
ATOM     20  C   UNL     1       8.510  -4.528  -3.981  1.00  0.00     0.000 A 
ENDBRANCH  13  15
BRANCH  14  21
ATOM     21  C   UNL     1       7.235   0.255  -2.034  1.00  0.00     0.020 A 
ATOM     22  C   UNL     1       7.708   1.452  -1.488  1.00  0.00     0.012 A 
ATOM     23  C   UNL     1       7.482   0.007  -3.396  1.00  0.00     0.012 A 
ATOM     24  C   UNL     1       8.402   2.371  -2.286  1.00  0.00     0.001 A 
ATOM     25  C   UNL     1       8.153   0.930  -4.199  1.00  0.00     0.001 A 
ATOM     26  C   UNL     1       8.617   2.114  -3.640  1.00  0.00     0.000 A 
ENDBRANCH  14  21
ENDBRANCH   9  10
ENDBRANCH   8   9
ENDBRANCH   6   8
ENDBRANCH   3   4
ENDBRANCH   2   3
ENDBRANCH   1   2
BRANCH   1  27
ATOM     27  C   UNL     1       4.141   0.057  -4.484  1.00  0.00     0.002 C 
BRANCH  27  28
ATOM     28  C   UNL     1       3.461  -0.052  -5.844  1.00  0.00     0.021 C 
BRANCH  28  29
ATOM     29  C   UNL     1       3.717   1.137  -6.763  1.00  0.00     0.116 C 
BRANCH  29  30
ATOM     30  N   UNL     1       5.136   1.368  -7.014  1.00  0.00    -0.352 N 
ATOM     31  C   UNL     1       5.791   1.527  -8.210  1.00  0.00     0.251 C 
ATOM     32  H   UNL     1       5.704   1.417  -6.212  1.00  0.00     0.163 HD
ATOM     33  O   UNL     1       7.018   1.554  -8.254  1.00  0.00    -0.269 OA
BRANCH  31  34
ATOM     34  C   UNL     1       4.999   1.640  -9.452  1.00  0.00     0.039 A 
ATOM     35  C   UNL     1       5.353   0.872 -10.563  1.00  0.00     0.014 A 
ATOM     36  C   UNL     1       3.877   2.472  -9.495  1.00  0.00     0.014 A 
ATOM     37  C   UNL     1       4.529   0.877 -11.692  1.00  0.00     0.010 A 
ATOM     38  C   UNL     1       3.014   2.406 -10.581  1.00  0.00     0.010 A 
ATOM     39  C   UNL     1       3.330   1.608 -11.691  1.00  0.00    -0.014 A 
BRANCH  39  40
ATOM     40  C   UNL     1       2.382   1.555 -12.831  1.00  0.00     0.031 A 
ATOM     41  C   UNL     1       2.057   2.808 -13.597  1.00  0.00     0.074 A 
ATOM     42  C   UNL     1       1.744   0.403 -13.117  1.00  0.00     0.049 A 
ATOM     43  N   UNL     1       1.184   2.987 -14.556  1.00  0.00    -0.248 NA
ATOM     44  C   UNL     1       2.784   4.029 -13.211  1.00  0.00     0.031 C 
ATOM     45  C   UNL     1       1.930  -0.870 -12.417  1.00  0.00     0.029 A 
ATOM     46  N   UNL     1       0.795   0.121 -14.069  1.00  0.00    -0.354 N 
ATOM     47  C   UNL     1       1.238   4.340 -14.865  1.00  0.00     0.074 A 
ATOM     48  C   UNL     1       2.191   4.945 -13.961  1.00  0.00     0.031 C 
ATOM     49  C   UNL     1       1.142  -1.801 -12.980  1.00  0.00     0.029 A 
ATOM     50  C   UNL     1       0.365  -1.184 -14.049  1.00  0.00     0.049 A 
ATOM     51  H   UNL     1       0.455   0.791 -14.705  1.00  0.00     0.167 HD
ATOM     52  C   UNL     1       0.569   5.017 -15.828  1.00  0.00     0.031 A 
ATOM     53  C   UNL     1      -0.557  -1.811 -14.802  1.00  0.00     0.031 A 
ATOM     54  C   UNL     1      -0.362   4.412 -16.742  1.00  0.00     0.049 A 
ATOM     55  C   UNL     1      -1.282  -1.038 -15.869  1.00  0.00     0.074 A 
ATOM     56  C   UNL     1      -1.036   4.997 -17.799  1.00  0.00     0.029 A 
ATOM     57  N   UNL     1      -0.749   3.082 -16.705  1.00  0.00    -0.354 N 
ATOM     58  N   UNL     1      -1.163   0.224 -16.200  1.00  0.00    -0.248 NA
ATOM     59  C   UNL     1      -2.263  -1.782 -16.673  1.00  0.00     0.031 C 
ATOM     60  C   UNL     1      -1.869   4.031 -18.373  1.00  0.00     0.029 A 
ATOM     61  C   UNL     1      -1.671   2.832 -17.707  1.00  0.00     0.049 A 
ATOM     62  H   UNL     1      -0.418   2.413 -16.062  1.00  0.00     0.167 HD
ATOM     63  C   UNL     1      -2.029   0.419 -17.268  1.00  0.00     0.074 A 
ATOM     64  C   UNL     1      -2.655  -0.859 -17.538  1.00  0.00     0.031 C 
ATOM     65  C   UNL     1      -2.283   1.554 -17.963  1.00  0.00     0.031 A 
BRANCH  52  66
ATOM     66  C   UNL     1       0.821   6.495 -15.938  1.00  0.00    -0.014 A 
ATOM     67  C   UNL     1       2.051   6.993 -16.397  1.00  0.00     0.009 A 
ATOM     68  C   UNL     1      -0.197   7.403 -15.607  1.00  0.00     0.009 A 
ATOM     69  C   UNL     1       2.270   8.370 -16.485  1.00  0.00     0.001 A 
ATOM     70  C   UNL     1       0.014   8.778 -15.725  1.00  0.00     0.001 A 
ATOM     71  C   UNL     1       1.249   9.260 -16.153  1.00  0.00     0.000 A 
ENDBRANCH  52  66
BRANCH  53  72
ATOM     72  C   UNL     1      -0.838  -3.256 -14.591  1.00  0.00    -0.014 A 
ATOM     73  C   UNL     1      -0.439  -4.204 -15.546  1.00  0.00     0.009 A 
ATOM     74  C   UNL     1      -1.515  -3.694 -13.442  1.00  0.00     0.009 A 
ATOM     75  C   UNL     1      -0.736  -5.557 -15.369  1.00  0.00     0.001 A 
ATOM     76  C   UNL     1      -1.786  -5.051 -13.254  1.00  0.00     0.001 A 
ATOM     77  C   UNL     1      -1.405  -5.980 -14.222  1.00  0.00     0.000 A 
ENDBRANCH  53  72
BRANCH  65  78
ATOM     78  C   UNL     1      -3.250   1.456 -19.108  1.00  0.00    -0.014 A 
ATOM     79  C   UNL     1      -4.628   1.307 -18.888  1.00  0.00     0.009 A 
ATOM     80  C   UNL     1      -2.777   1.558 -20.425  1.00  0.00     0.009 A 
ATOM     81  C   UNL     1      -5.509   1.229 -19.968  1.00  0.00     0.001 A 
ATOM     82  C   UNL     1      -3.663   1.509 -21.502  1.00  0.00     0.001 A 
ATOM     83  C   UNL     1      -5.027   1.335 -21.273  1.00  0.00     0.000 A 
ENDBRANCH  65  78
ENDBRANCH  39  40
ENDBRANCH  31  34
ENDBRANCH  29  30
ENDBRANCH  28  29
ENDBRANCH  27  28
ENDBRANCH   1  27
TORSDOF 17
