REMARK SMILES Cc1cnn(-c2ccccc2OCC(=O)NCCCCCCNC(=O)c2ccc(-c3c4nc(c(-c5ccccc5)c5ccc([nH]5)c(-c5ccccc5)c5nc(c(-c6ccccc6)c6ccc3[nH]6)C=C5)C=C4)cc2)c1
REMARK SMILES IDX 19 1 18 2 17 3 16 4 14 5 15 6 13 8 12 9 11 10 6 11 7 12 8 13
REMARK SMILES IDX 10 14 9 15 5 16 1 17 2 18 3 19 74 20 4 21 20 22 21 23 22 24
REMARK SMILES IDX 23 25 24 26 25 28 26 29 27 30 73 31 28 32 72 33 29 34 30 35
REMARK SMILES IDX 31 36 66 37 32 38 71 39 65 40 67 41 33 42 70 43 64 44 63 45
REMARK SMILES IDX 34 47 56 48 41 49 55 50 42 51 45 52 54 53 68 54 43 55 44 56
REMARK SMILES IDX 53 58 69 59 46 60 35 61 36 62 40 63 37 64 39 65 38 66 57 67
REMARK SMILES IDX 58 68 62 69 59 70 61 71 60 72 47 73 48 74 52 75 49 76 51 77
REMARK SMILES IDX 50 78
REMARK H PARENT 16 7 23 27 67 46 45 57
REMARK Flexibility Score: inf
ROOT
ATOM      1  C   UNL     1      -1.907   2.296   5.711  1.00  0.00     0.002 C 
ENDROOT
BRANCH   1   2
ATOM      2  C   UNL     1      -2.873   1.210   5.223  1.00  0.00     0.021 C 
BRANCH   2   3
ATOM      3  C   UNL     1      -3.116   1.142   3.719  1.00  0.00     0.116 C 
BRANCH   3   4
ATOM      4  N   UNL     1      -1.907   1.083   2.930  1.00  0.00    -0.353 N 
ATOM      5  C   UNL     1      -1.721   0.357   1.790  1.00  0.00     0.257 C 
ATOM      6  O   UNL     1      -1.002   0.844   0.914  1.00  0.00    -0.271 OA
ATOM      7  H   UNL     1      -1.143   1.618   3.246  1.00  0.00     0.163 HD
BRANCH   5   8
ATOM      8  C   UNL     1      -2.413  -1.001   1.609  1.00  0.00     0.329 C 
BRANCH   8   9
ATOM      9  O   UNL     1      -2.816  -1.693   2.770  1.00  0.00    -0.482 OA
BRANCH   9  10
ATOM     10  C   UNL     1      -2.011  -2.445   3.567  1.00  0.00     0.145 A 
ATOM     11  C   UNL     1      -0.693  -2.894   3.433  1.00  0.00     0.107 A 
ATOM     12  C   UNL     1      -0.127  -3.761   4.391  1.00  0.00     0.032 A 
ATOM     13  C   UNL     1      -0.860  -4.162   5.506  1.00  0.00     0.003 A 
ATOM     14  C   UNL     1      -2.732  -2.886   4.694  1.00  0.00     0.049 A 
ATOM     15  C   UNL     1      -2.169  -3.727   5.656  1.00  0.00     0.004 A 
BRANCH  11  16
ATOM     16  N   UNL     1       0.130  -2.583   2.341  1.00  0.00    -0.237 N 
ATOM     17  C   UNL     1       1.784  -0.377  -0.041  1.00  0.00     0.048 C 
ATOM     18  C   UNL     1       1.240  -1.465   0.802  1.00  0.00    -0.013 A 
ATOM     19  C   UNL     1       1.058  -2.822   0.458  1.00  0.00     0.139 A 
ATOM     20  C   UNL     1       0.751  -1.387   2.090  1.00  0.00     0.118 A 
ATOM     21  N   UNL     1       0.457  -3.521   1.424  1.00  0.00    -0.176 NA
ENDBRANCH  11  16
ENDBRANCH   9  10
ENDBRANCH   8   9
ENDBRANCH   5   8
ENDBRANCH   3   4
ENDBRANCH   2   3
ENDBRANCH   1   2
BRANCH   1  22
ATOM     22  C   UNL     1      -2.076   3.713   5.143  1.00  0.00     0.002 C 
BRANCH  22  23
ATOM     23  C   UNL     1      -3.474   4.339   5.187  1.00  0.00     0.021 C 
BRANCH  23  24
ATOM     24  C   UNL     1      -4.058   4.497   6.579  1.00  0.00     0.116 C 
BRANCH  24  25
ATOM     25  N   UNL     1      -3.339   5.471   7.397  1.00  0.00    -0.352 N 
ATOM     26  C   UNL     1      -3.572   5.799   8.722  1.00  0.00     0.251 C 
ATOM     27  H   UNL     1      -2.603   5.952   6.953  1.00  0.00     0.163 HD
ATOM     28  O   UNL     1      -3.198   6.858   9.193  1.00  0.00    -0.269 OA
BRANCH  26  29
ATOM     29  C   UNL     1      -4.283   4.817   9.559  1.00  0.00     0.039 A 
ATOM     30  C   UNL     1      -5.273   5.201  10.467  1.00  0.00     0.014 A 
ATOM     31  C   UNL     1      -3.957   3.477   9.380  1.00  0.00     0.014 A 
ATOM     32  C   UNL     1      -5.986   4.209  11.138  1.00  0.00     0.010 A 
ATOM     33  C   UNL     1      -4.775   2.510   9.893  1.00  0.00     0.010 A 
ATOM     34  C   UNL     1      -5.738   2.862  10.831  1.00  0.00    -0.014 A 
BRANCH  34  35
ATOM     35  C   UNL     1      -6.530   1.791  11.419  1.00  0.00     0.031 A 
ATOM     36  C   UNL     1      -7.996   1.881  11.183  1.00  0.00     0.074 A 
ATOM     37  C   UNL     1      -5.962   0.670  11.915  1.00  0.00     0.049 A 
ATOM     38  N   UNL     1      -8.927   2.028  12.065  1.00  0.00    -0.248 NA
ATOM     39  C   UNL     1      -8.481   1.917   9.793  1.00  0.00     0.031 C 
ATOM     40  C   UNL     1      -4.545   0.280  11.900  1.00  0.00     0.029 A 
ATOM     41  N   UNL     1      -6.566  -0.444  12.402  1.00  0.00    -0.354 N 
ATOM     42  C   UNL     1     -10.132   1.986  11.368  1.00  0.00     0.074 A 
ATOM     43  C   UNL     1      -9.792   2.087   9.971  1.00  0.00     0.031 C 
ATOM     44  C   UNL     1      -4.444  -1.054  12.086  1.00  0.00     0.029 A 
ATOM     45  C   UNL     1      -5.759  -1.575  12.408  1.00  0.00     0.049 A 
ATOM     46  H   UNL     1      -7.496  -0.450  12.724  1.00  0.00     0.167 HD
ATOM     47  C   UNL     1     -11.295   1.627  11.981  1.00  0.00     0.031 A 
ATOM     48  C   UNL     1      -6.161  -2.854  12.607  1.00  0.00     0.031 A 
ATOM     49  C   UNL     1     -11.169   1.647  13.417  1.00  0.00     0.049 A 
ATOM     50  C   UNL     1      -7.489  -2.800  13.265  1.00  0.00     0.074 A 
ATOM     51  C   UNL     1     -10.809   2.606  14.344  1.00  0.00     0.029 A 
ATOM     52  N   UNL     1     -11.021   0.438  14.056  1.00  0.00    -0.354 N 
ATOM     53  N   UNL     1      -7.669  -2.347  14.473  1.00  0.00    -0.248 NA
ATOM     54  C   UNL     1      -8.669  -2.790  12.413  1.00  0.00     0.031 C 
ATOM     55  C   UNL     1      -9.974   1.914  15.271  1.00  0.00     0.029 A 
ATOM     56  C   UNL     1      -9.954   0.566  14.907  1.00  0.00     0.049 A 
ATOM     57  H   UNL     1     -11.576  -0.366  13.928  1.00  0.00     0.167 HD
ATOM     58  C   UNL     1      -8.829  -1.589  14.396  1.00  0.00     0.074 A 
ATOM     59  C   UNL     1      -9.452  -1.977  13.129  1.00  0.00     0.031 C 
ATOM     60  C   UNL     1      -9.029  -0.505  15.205  1.00  0.00     0.031 A 
BRANCH  47  61
ATOM     61  C   UNL     1     -12.402   0.862  11.296  1.00  0.00    -0.014 A 
ATOM     62  C   UNL     1     -13.572   0.574  12.024  1.00  0.00     0.009 A 
ATOM     63  C   UNL     1     -12.226   0.170  10.084  1.00  0.00     0.009 A 
ATOM     64  C   UNL     1     -14.467  -0.417  11.602  1.00  0.00     0.001 A 
ATOM     65  C   UNL     1     -13.140  -0.788   9.637  1.00  0.00     0.001 A 
ATOM     66  C   UNL     1     -14.245  -1.104  10.413  1.00  0.00     0.000 A 
ENDBRANCH  47  61
BRANCH  48  67
ATOM     67  C   UNL     1      -5.609  -4.094  12.014  1.00  0.00    -0.014 A 
ATOM     68  C   UNL     1      -5.952  -5.353  12.530  1.00  0.00     0.009 A 
ATOM     69  C   UNL     1      -4.946  -4.059  10.772  1.00  0.00     0.009 A 
ATOM     70  C   UNL     1      -5.677  -6.527  11.814  1.00  0.00     0.001 A 
ATOM     71  C   UNL     1      -4.666  -5.230  10.059  1.00  0.00     0.001 A 
ATOM     72  C   UNL     1      -5.047  -6.464  10.573  1.00  0.00     0.000 A 
ENDBRANCH  48  67
BRANCH  60  73
ATOM     73  C   UNL     1      -8.059  -0.255  16.336  1.00  0.00    -0.014 A 
ATOM     74  C   UNL     1      -6.677  -0.075  16.143  1.00  0.00     0.009 A 
ATOM     75  C   UNL     1      -8.582  -0.020  17.616  1.00  0.00     0.009 A 
ATOM     76  C   UNL     1      -5.845   0.297  17.206  1.00  0.00     0.001 A 
ATOM     77  C   UNL     1      -7.756   0.374  18.672  1.00  0.00     0.001 A 
ATOM     78  C   UNL     1      -6.387   0.526  18.468  1.00  0.00     0.000 A 
ENDBRANCH  60  73
ENDBRANCH  34  35
ENDBRANCH  26  29
ENDBRANCH  24  25
ENDBRANCH  23  24
ENDBRANCH  22  23
ENDBRANCH   1  22
TORSDOF 16
