REMARK SMILES C[NH2+][C@@]1(C(=O)NCCCCCCNC(=O)c2ccc(-c3c4nc(c(-c5ccccc5)c5ccc([nH]5)c(-c5ccccc5)c5nc(c(-c6ccccc6)c6ccc3[nH]6)C=C5)C=C4)cc2)CCC[C@H](Oc2cccc(OC)c2)C1
REMARK SMILES IDX 9 1 8 2 7 3 6 4 4 5 5 6 3 8 64 9 77 10 65 11 67 12 66 13
REMARK SMILES IDX 2 14 1 15 68 18 69 19 70 20 76 21 71 22 73 23 72 24 74 25
REMARK SMILES IDX 75 26 10 27 11 28 12 29 13 30 14 31 15 33 16 34 17 35 63 36
REMARK SMILES IDX 18 37 62 38 19 39 20 40 21 41 56 42 22 43 61 44 55 45 57 46
REMARK SMILES IDX 23 47 60 48 54 49 53 50 24 52 46 53 31 54 45 55 32 56 35 57
REMARK SMILES IDX 44 58 58 59 33 60 34 61 43 63 59 64 36 65 25 66 26 67 30 68
REMARK SMILES IDX 27 69 29 70 28 71 47 72 48 73 52 74 49 75 51 76 50 77 37 78
REMARK SMILES IDX 38 79 42 80 39 81 41 82 40 83
REMARK H PARENT 6 7 2 16 2 17 13 32 57 51 35 62
REMARK Flexibility Score: inf
ROOT
ATOM      1  C   UNL     1      -5.902  -0.563  -1.270  1.00  0.00     0.002 C 
ENDROOT
BRANCH   1   2
ATOM      2  C   UNL     1      -4.782  -0.201  -0.298  1.00  0.00     0.021 C 
BRANCH   2   3
ATOM      3  C   UNL     1      -3.617  -1.185  -0.123  1.00  0.00     0.116 C 
BRANCH   3   4
ATOM      4  N   UNL     1      -2.366  -0.597  -0.619  1.00  0.00    -0.351 N 
ATOM      5  C   UNL     1      -1.473   0.288  -0.080  1.00  0.00     0.281 C 
ATOM      6  O   UNL     1      -1.051   1.122  -0.897  1.00  0.00    -0.268 OA
ATOM      7  H   UNL     1      -2.120  -0.902  -1.522  1.00  0.00     0.163 HD
BRANCH   5   8
ATOM      8  C   UNL     1      -0.887   0.232   1.399  1.00  0.00     0.178 C 
ATOM      9  C   UNL     1      -1.361  -0.947   2.268  1.00  0.00     0.079 C 
ATOM     10  C   UNL     1      -1.155   1.574   2.129  1.00  0.00     0.124 C 
ATOM     11  C   UNL     1      -2.448  -0.613   3.292  1.00  0.00     0.011 C 
ATOM     12  C   UNL     1      -2.637   1.837   2.408  1.00  0.00     0.180 C 
ATOM     13  C   UNL     1      -3.325   0.604   3.013  1.00  0.00     0.046 C 
BRANCH   8  14
ATOM     14  N   UNL     1       0.624   0.180   1.381  1.00  0.00    -0.336 N 
ATOM     15  C   UNL     1       1.293  -0.179   0.145  1.00  0.00     0.331 C 
ATOM     16  H   UNL     1       0.960   1.106   1.646  1.00  0.00     0.346 HD
ATOM     17  H   UNL     1       0.854  -0.583   2.018  1.00  0.00     0.346 HD
ENDBRANCH   8  14
BRANCH  12  18
ATOM     18  O   UNL     1      -3.201   2.255   1.158  1.00  0.00    -0.490 OA
BRANCH  18  19
ATOM     19  C   UNL     1      -4.448   2.796   1.056  1.00  0.00     0.123 A 
ATOM     20  C   UNL     1      -5.413   2.826   2.057  1.00  0.00     0.047 A 
ATOM     21  C   UNL     1      -4.777   3.235  -0.238  1.00  0.00     0.092 A 
ATOM     22  C   UNL     1      -6.715   3.232   1.753  1.00  0.00     0.008 A 
ATOM     23  C   UNL     1      -6.081   3.614  -0.548  1.00  0.00     0.122 A 
ATOM     24  C   UNL     1      -7.046   3.622   0.455  1.00  0.00     0.046 A 
BRANCH  23  25
ATOM     25  O   UNL     1      -6.502   4.018  -1.784  1.00  0.00    -0.497 OA
ATOM     26  C   UNL     1      -6.009   3.231  -2.866  1.00  0.00     0.278 C 
ENDBRANCH  23  25
ENDBRANCH  18  19
ENDBRANCH  12  18
ENDBRANCH   5   8
ENDBRANCH   3   4
ENDBRANCH   2   3
ENDBRANCH   1   2
BRANCH   1  27
ATOM     27  C   UNL     1      -6.897  -1.624  -0.810  1.00  0.00     0.002 C 
BRANCH  27  28
ATOM     28  C   UNL     1      -7.722  -1.331   0.449  1.00  0.00     0.021 C 
BRANCH  28  29
ATOM     29  C   UNL     1      -8.613  -0.082   0.506  1.00  0.00     0.116 C 
BRANCH  29  30
ATOM     30  N   UNL     1      -9.292   0.294  -0.720  1.00  0.00    -0.352 N 
ATOM     31  C   UNL     1     -10.483   0.975  -0.857  1.00  0.00     0.251 C 
ATOM     32  H   UNL     1      -8.847   0.031  -1.558  1.00  0.00     0.163 HD
ATOM     33  O   UNL     1     -10.906   1.286  -1.968  1.00  0.00    -0.269 OA
BRANCH  31  34
ATOM     34  C   UNL     1     -11.290   1.288   0.342  1.00  0.00     0.039 A 
ATOM     35  C   UNL     1     -12.566   0.729   0.455  1.00  0.00     0.014 A 
ATOM     36  C   UNL     1     -10.786   2.096   1.364  1.00  0.00     0.014 A 
ATOM     37  C   UNL     1     -13.300   0.905   1.632  1.00  0.00     0.010 A 
ATOM     38  C   UNL     1     -11.506   2.245   2.553  1.00  0.00     0.010 A 
ATOM     39  C   UNL     1     -12.757   1.628   2.709  1.00  0.00    -0.014 A 
BRANCH  39  40
ATOM     40  C   UNL     1     -13.451   1.663   4.024  1.00  0.00     0.031 A 
ATOM     41  C   UNL     1     -14.049   2.933   4.560  1.00  0.00     0.074 A 
ATOM     42  C   UNL     1     -13.491   0.543   4.774  1.00  0.00     0.049 A 
ATOM     43  N   UNL     1     -14.688   3.129   5.688  1.00  0.00    -0.248 NA
ATOM     44  C   UNL     1     -13.897   4.140   3.735  1.00  0.00     0.031 C 
ATOM     45  C   UNL     1     -12.906  -0.746   4.399  1.00  0.00     0.029 A 
ATOM     46  N   UNL     1     -14.044   0.311   6.009  1.00  0.00    -0.354 N 
ATOM     47  C   UNL     1     -15.011   4.480   5.710  1.00  0.00     0.074 A 
ATOM     48  C   UNL     1     -14.461   5.062   4.504  1.00  0.00     0.031 C 
ATOM     49  C   UNL     1     -13.154  -1.639   5.371  1.00  0.00     0.029 A 
ATOM     50  C   UNL     1     -13.890  -0.982   6.447  1.00  0.00     0.049 A 
ATOM     51  H   UNL     1     -14.508   1.005   6.531  1.00  0.00     0.167 HD
ATOM     52  C   UNL     1     -15.714   5.171   6.641  1.00  0.00     0.031 A 
ATOM     53  C   UNL     1     -14.296  -1.579   7.584  1.00  0.00     0.031 A 
ATOM     54  C   UNL     1     -16.262   4.601   7.845  1.00  0.00     0.049 A 
ATOM     55  C   UNL     1     -15.069  -0.790   8.602  1.00  0.00     0.074 A 
ATOM     56  C   UNL     1     -17.035   5.216   8.816  1.00  0.00     0.029 A 
ATOM     57  N   UNL     1     -16.090   3.286   8.247  1.00  0.00    -0.354 N 
ATOM     58  N   UNL     1     -15.436   0.467   8.567  1.00  0.00    -0.248 NA
ATOM     59  C   UNL     1     -15.495  -1.509   9.812  1.00  0.00     0.031 C 
ATOM     60  C   UNL     1     -17.294   4.284   9.827  1.00  0.00     0.029 A 
ATOM     61  C   UNL     1     -16.722   3.077   9.462  1.00  0.00     0.049 A 
ATOM     62  H   UNL     1     -15.592   2.602   7.744  1.00  0.00     0.167 HD
ATOM     63  C   UNL     1     -16.158   0.683   9.733  1.00  0.00     0.074 A 
ATOM     64  C   UNL     1     -16.189  -0.576  10.449  1.00  0.00     0.031 C 
ATOM     65  C   UNL     1     -16.746   1.823  10.169  1.00  0.00     0.031 A 
BRANCH  52  66
ATOM     66  C   UNL     1     -15.930   6.637   6.392  1.00  0.00    -0.014 A 
ATOM     67  C   UNL     1     -16.818   7.079   5.398  1.00  0.00     0.009 A 
ATOM     68  C   UNL     1     -15.273   7.589   7.188  1.00  0.00     0.009 A 
ATOM     69  C   UNL     1     -17.015   8.444   5.181  1.00  0.00     0.001 A 
ATOM     70  C   UNL     1     -15.491   8.953   6.985  1.00  0.00     0.001 A 
ATOM     71  C   UNL     1     -16.354   9.379   5.976  1.00  0.00     0.000 A 
ENDBRANCH  52  66
BRANCH  53  72
ATOM     72  C   UNL     1     -14.005  -3.017   7.812  1.00  0.00    -0.014 A 
ATOM     73  C   UNL     1     -15.031  -3.970   7.731  1.00  0.00     0.009 A 
ATOM     74  C   UNL     1     -12.703  -3.443   8.117  1.00  0.00     0.009 A 
ATOM     75  C   UNL     1     -14.765  -5.318   7.977  1.00  0.00     0.001 A 
ATOM     76  C   UNL     1     -12.436  -4.795   8.338  1.00  0.00     0.001 A 
ATOM     77  C   UNL     1     -13.468  -5.730   8.277  1.00  0.00     0.000 A 
ENDBRANCH  53  72
BRANCH  65  78
ATOM     78  C   UNL     1     -17.496   1.756  11.469  1.00  0.00    -0.014 A 
ATOM     79  C   UNL     1     -16.821   1.682  12.696  1.00  0.00     0.009 A 
ATOM     80  C   UNL     1     -18.899   1.802  11.465  1.00  0.00     0.009 A 
ATOM     81  C   UNL     1     -17.537   1.626  13.894  1.00  0.00     0.001 A 
ATOM     82  C   UNL     1     -19.612   1.770  12.665  1.00  0.00     0.001 A 
ATOM     83  C   UNL     1     -18.931   1.674  13.877  1.00  0.00     0.000 A 
ENDBRANCH  65  78
ENDBRANCH  39  40
ENDBRANCH  31  34
ENDBRANCH  29  30
ENDBRANCH  28  29
ENDBRANCH  27  28
ENDBRANCH   1  27
TORSDOF 17
