REMARK SMILES O=C(NCCCCCCNC(=O)[C@@H]1Cc2ccccc2CN1C(=O)COc1ccccc1)c1ccc(-c2c3nc(c(-c4ccccc4)c4ccc([nH]4)c(-c4ccccc4)c4nc(c(-c5ccccc5)c5ccc2[nH]5)C=C4)C=C3)cc1
REMARK SMILES IDX 7 1 6 2 5 3 4 4 3 5 1 6 2 7 33 9 34 10 80 11 35 12 79 13
REMARK SMILES IDX 36 14 37 15 38 16 73 17 39 18 78 19 72 20 74 21 40 22 77 23
REMARK SMILES IDX 71 24 70 25 41 27 63 28 48 29 62 30 49 31 52 32 61 33 75 34
REMARK SMILES IDX 50 35 51 36 60 38 76 39 53 40 42 41 43 42 47 43 44 44 46 45
REMARK SMILES IDX 45 46 64 47 65 48 69 49 66 50 68 51 67 52 54 53 55 54 59 55
REMARK SMILES IDX 56 56 58 57 57 58 8 59 9 60 10 61 11 62 12 64 13 65 14 66
REMARK SMILES IDX 22 67 15 68 21 69 16 70 20 71 17 72 19 73 18 74 23 75 24 76
REMARK SMILES IDX 25 77 26 78 27 79 28 80 32 81 29 82 31 83 30 84
REMARK H PARENT 3 8 74 26 52 37 10 63
REMARK Flexibility Score: inf
ROOT
ATOM      1  C   UNL     1       9.652  -7.357   3.381  1.00  0.00     0.002 C 
ENDROOT
BRANCH   1   2
ATOM      2  C   UNL     1       8.674  -8.527   3.527  1.00  0.00     0.002 C 
BRANCH   2   3
ATOM      3  C   UNL     1       7.501  -8.488   2.548  1.00  0.00     0.021 C 
BRANCH   3   4
ATOM      4  C   UNL     1       7.925  -8.467   1.084  1.00  0.00     0.116 C 
BRANCH   4   5
ATOM      5  N   UNL     1       8.630  -9.685   0.719  1.00  0.00    -0.352 N 
ATOM      6  O   UNL     1       8.832 -11.737  -0.203  1.00  0.00    -0.269 OA
ATOM      7  C   UNL     1       8.270 -10.643  -0.190  1.00  0.00     0.251 C 
ATOM      8  H   UNL     1       9.482  -9.842   1.188  1.00  0.00     0.163 HD
BRANCH   7   9
ATOM      9  C   UNL     1       7.192 -10.355  -1.153  1.00  0.00     0.039 A 
ATOM     10  C   UNL     1       7.173  -9.140  -1.848  1.00  0.00     0.014 A 
ATOM     11  C   UNL     1       6.205 -11.316  -1.377  1.00  0.00     0.014 A 
ATOM     12  C   UNL     1       6.108  -8.842  -2.689  1.00  0.00     0.010 A 
ATOM     13  C   UNL     1       5.178 -11.045  -2.279  1.00  0.00     0.010 A 
ATOM     14  C   UNL     1       5.114  -9.801  -2.929  1.00  0.00    -0.014 A 
BRANCH  14  15
ATOM     15  C   UNL     1       4.044  -9.532  -3.917  1.00  0.00     0.031 A 
ATOM     16  C   UNL     1       2.609  -9.454  -3.492  1.00  0.00     0.074 A 
ATOM     17  C   UNL     1       4.378  -9.412  -5.215  1.00  0.00     0.049 A 
ATOM     18  N   UNL     1       1.537  -9.328  -4.233  1.00  0.00    -0.248 NA
ATOM     19  C   UNL     1       2.340  -9.539  -2.049  1.00  0.00     0.031 C 
ATOM     20  C   UNL     1       5.743  -9.471  -5.744  1.00  0.00     0.029 A 
ATOM     21  N   UNL     1       3.596  -9.233  -6.326  1.00  0.00    -0.354 N 
ATOM     22  C   UNL     1       0.465  -9.348  -3.351  1.00  0.00     0.074 A 
ATOM     23  C   UNL     1       1.015  -9.520  -2.023  1.00  0.00     0.031 C 
ATOM     24  C   UNL     1       5.702  -9.328  -7.076  1.00  0.00     0.029 A 
ATOM     25  C   UNL     1       4.310  -9.236  -7.498  1.00  0.00     0.049 A 
ATOM     26  H   UNL     1       2.619  -9.115  -6.287  1.00  0.00     0.167 HD
ATOM     27  C   UNL     1      -0.857  -9.238  -3.627  1.00  0.00     0.031 A 
ATOM     28  C   UNL     1       3.893  -9.213  -8.777  1.00  0.00     0.031 A 
ATOM     29  C   UNL     1      -1.392  -9.089  -4.956  1.00  0.00     0.049 A 
ATOM     30  C   UNL     1       2.423  -9.147  -9.066  1.00  0.00     0.074 A 
ATOM     31  C   UNL     1      -2.711  -8.928  -5.341  1.00  0.00     0.029 A 
ATOM     32  N   UNL     1      -0.634  -9.101  -6.119  1.00  0.00    -0.354 N 
ATOM     33  N   UNL     1       1.421  -9.118  -8.221  1.00  0.00    -0.248 NA
ATOM     34  C   UNL     1       2.026  -9.104 -10.478  1.00  0.00     0.031 C 
ATOM     35  C   UNL     1      -2.759  -8.913  -6.739  1.00  0.00     0.029 A 
ATOM     36  C   UNL     1      -1.462  -8.988  -7.223  1.00  0.00     0.049 A 
ATOM     37  H   UNL     1       0.346  -9.179  -6.154  1.00  0.00     0.167 HD
ATOM     38  C   UNL     1       0.274  -9.027  -8.997  1.00  0.00     0.074 A 
ATOM     39  C   UNL     1       0.706  -9.001 -10.380  1.00  0.00     0.031 C 
ATOM     40  C   UNL     1      -1.019  -8.963  -8.595  1.00  0.00     0.031 A 
BRANCH  27  41
ATOM     41  C   UNL     1      -1.815  -9.333  -2.470  1.00  0.00    -0.014 A 
ATOM     42  C   UNL     1      -1.885  -8.334  -1.486  1.00  0.00     0.009 A 
ATOM     43  C   UNL     1      -2.669 -10.443  -2.369  1.00  0.00     0.009 A 
ATOM     44  C   UNL     1      -2.751  -8.472  -0.398  1.00  0.00     0.001 A 
ATOM     45  C   UNL     1      -3.558 -10.561  -1.299  1.00  0.00     0.001 A 
ATOM     46  C   UNL     1      -3.588  -9.583  -0.307  1.00  0.00     0.000 A 
ENDBRANCH  27  41
BRANCH  28  47
ATOM     47  C   UNL     1       4.901  -9.282  -9.866  1.00  0.00    -0.014 A 
ATOM     48  C   UNL     1       5.190  -8.154 -10.647  1.00  0.00     0.009 A 
ATOM     49  C   UNL     1       5.627 -10.465 -10.084  1.00  0.00     0.009 A 
ATOM     50  C   UNL     1       6.181  -8.213 -11.629  1.00  0.00     0.001 A 
ATOM     51  C   UNL     1       6.637 -10.511 -11.045  1.00  0.00     0.001 A 
ATOM     52  C   UNL     1       6.910  -9.386 -11.821  1.00  0.00     0.000 A 
ENDBRANCH  28  47
BRANCH  40  53
ATOM     53  C   UNL     1      -2.069  -8.810  -9.659  1.00  0.00    -0.014 A 
ATOM     54  C   UNL     1      -2.433  -9.879 -10.491  1.00  0.00     0.009 A 
ATOM     55  C   UNL     1      -2.760  -7.592  -9.773  1.00  0.00     0.009 A 
ATOM     56  C   UNL     1      -3.460  -9.726 -11.425  1.00  0.00     0.001 A 
ATOM     57  C   UNL     1      -3.805  -7.452 -10.686  1.00  0.00     0.001 A 
ATOM     58  C   UNL     1      -4.151  -8.518 -11.515  1.00  0.00     0.000 A 
ENDBRANCH  40  53
ENDBRANCH  14  15
ENDBRANCH   7   9
ENDBRANCH   4   5
ENDBRANCH   3   4
ENDBRANCH   2   3
ENDBRANCH   1   2
BRANCH   1  59
ATOM     59  C   UNL     1       9.002  -5.974   3.513  1.00  0.00     0.021 C 
BRANCH  59  60
ATOM     60  C   UNL     1       8.361  -5.737   4.885  1.00  0.00     0.116 C 
BRANCH  60  61
ATOM     61  N   UNL     1       9.403  -5.666   5.891  1.00  0.00    -0.354 N 
ATOM     62  C   UNL     1       9.999  -4.561   6.428  1.00  0.00     0.243 C 
ATOM     63  H   UNL     1       9.724  -6.532   6.233  1.00  0.00     0.163 HD
ATOM     64  O   UNL     1      11.091  -4.710   6.978  1.00  0.00    -0.273 OA
BRANCH  62  65
ATOM     65  C   UNL     1       9.279  -3.201   6.351  1.00  0.00     0.179 C 
ATOM     66  C   UNL     1       9.509  -2.635   4.931  1.00  0.00     0.071 C 
ATOM     67  N   UNL     1       9.749  -2.255   7.406  1.00  0.00    -0.323 N 
ATOM     68  C   UNL     1       8.883  -1.276   4.827  1.00  0.00    -0.040 A 
ATOM     69  C   UNL     1      10.012  -0.864   7.018  1.00  0.00     0.156 C 
ATOM     70  C   UNL     1       8.104  -0.886   3.735  1.00  0.00     0.004 A 
ATOM     71  C   UNL     1       9.113  -0.398   5.895  1.00  0.00    -0.025 A 
ATOM     72  C   UNL     1       7.534   0.384   3.715  1.00  0.00     0.000 A 
ATOM     73  C   UNL     1       8.542   0.876   5.864  1.00  0.00     0.006 A 
ATOM     74  C   UNL     1       7.749   1.262   4.779  1.00  0.00     0.000 A 
BRANCH  67  75
ATOM     75  C   UNL     1       9.816  -2.540   8.765  1.00  0.00     0.261 C 
ATOM     76  O   UNL     1      10.370  -1.763   9.553  1.00  0.00    -0.271 OA
BRANCH  75  77
ATOM     77  C   UNL     1       9.155  -3.812   9.320  1.00  0.00     0.329 C 
BRANCH  77  78
ATOM     78  O   UNL     1       7.846  -4.125   8.857  1.00  0.00    -0.484 OA
BRANCH  78  79
ATOM     79  C   UNL     1       6.840  -3.410   9.451  1.00  0.00     0.120 A 
ATOM     80  C   UNL     1       5.711  -4.134   9.833  1.00  0.00     0.046 A 
ATOM     81  C   UNL     1       6.852  -2.023   9.608  1.00  0.00     0.046 A 
ATOM     82  C   UNL     1       4.612  -3.480  10.395  1.00  0.00     0.004 A 
ATOM     83  C   UNL     1       5.753  -1.369  10.166  1.00  0.00     0.004 A 
ATOM     84  C   UNL     1       4.634  -2.096  10.561  1.00  0.00     0.000 A 
ENDBRANCH  78  79
ENDBRANCH  77  78
ENDBRANCH  75  77
ENDBRANCH  67  75
ENDBRANCH  62  65
ENDBRANCH  60  61
ENDBRANCH  59  60
ENDBRANCH   1  59
TORSDOF 17
