REMARK SMILES C[C@@H](C(=O)NCCCCCCNC(=O)c1ccc(-c2c3nc(c(-c4ccccc4)c4ccc([nH]4)c(-c4ccccc4)c4nc(c(-c5ccccc5)c5ccc2[nH]5)C=C4)C=C3)cc1)c1ccc2c3cc(Cl)ccc3n(C(=O)c3ccc(Cl)cc3)c2c1
REMARK SMILES IDX 8 1 7 2 6 3 5 4 3 5 4 6 2 8 1 9 63 10 64 11 85 12 65 13
REMARK SMILES IDX 84 14 66 15 74 16 67 17 73 18 68 19 72 20 69 21 71 22 70 23
REMARK SMILES IDX 75 24 76 25 77 26 78 27 83 28 79 29 82 30 80 31 81 32 9 33
REMARK SMILES IDX 10 34 11 35 12 36 13 37 14 39 15 40 16 41 62 42 17 43 61 44
REMARK SMILES IDX 18 45 19 46 20 47 55 48 21 49 60 50 54 51 56 52 22 53 59 54
REMARK SMILES IDX 53 55 52 56 23 58 45 59 30 60 44 61 31 62 34 63 43 64 57 65
REMARK SMILES IDX 32 66 33 67 42 69 58 70 35 71 24 72 25 73 29 74 26 75 28 76
REMARK SMILES IDX 27 77 46 78 47 79 51 80 48 81 50 82 49 83 36 84 37 85 41 86
REMARK SMILES IDX 38 87 40 88 39 89
REMARK H PARENT 5 7 12 38 56 57 34 68
REMARK Flexibility Score: inf
ROOT
ATOM      1  C   UNL     1       5.049  -2.037   2.010  1.00  0.00     0.002 C 
ENDROOT
BRANCH   1   2
ATOM      2  C   UNL     1       4.344  -1.126   0.996  1.00  0.00     0.021 C 
BRANCH   2   3
ATOM      3  C   UNL     1       3.483  -1.883  -0.021  1.00  0.00     0.116 C 
BRANCH   3   4
ATOM      4  N   UNL     1       2.350  -2.478   0.654  1.00  0.00    -0.356 N 
ATOM      5  C   UNL     1       1.119  -1.922   0.861  1.00  0.00     0.227 C 
ATOM      6  O   UNL     1       0.502  -2.288   1.862  1.00  0.00    -0.274 OA
ATOM      7  H   UNL     1       2.482  -3.389   1.005  1.00  0.00     0.163 HD
BRANCH   5   8
ATOM      8  C   UNL     1       0.575  -0.902  -0.160  1.00  0.00     0.105 C 
ATOM      9  C   UNL     1       1.103   0.489   0.211  1.00  0.00     0.023 C 
BRANCH   8  10
ATOM     10  C   UNL     1      -0.952  -0.952  -0.318  1.00  0.00    -0.034 A 
ATOM     11  C   UNL     1      -1.704   0.187  -0.618  1.00  0.00     0.005 A 
ATOM     12  C   UNL     1      -1.627  -2.181  -0.197  1.00  0.00     0.032 A 
ATOM     13  C   UNL     1      -3.094   0.126  -0.756  1.00  0.00     0.011 A 
ATOM     14  C   UNL     1      -3.038  -2.226  -0.221  1.00  0.00     0.057 A 
ATOM     15  C   UNL     1      -3.769  -1.090  -0.539  1.00  0.00     0.008 A 
ATOM     16  N   UNL     1      -3.936  -3.281   0.040  1.00  0.00    -0.276 N 
ATOM     17  C   UNL     1      -5.140  -1.449  -0.537  1.00  0.00     0.009 A 
ATOM     18  C   UNL     1      -5.240  -2.768  -0.070  1.00  0.00     0.057 A 
ATOM     19  C   UNL     1      -6.305  -0.705  -0.821  1.00  0.00     0.031 A 
ATOM     20  C   UNL     1      -6.506  -3.295   0.262  1.00  0.00     0.029 A 
ATOM     21  C   UNL     1      -7.551  -1.262  -0.562  1.00  0.00     0.041 A 
ATOM     22  C   UNL     1      -7.652  -2.528  -0.001  1.00  0.00     0.023 A 
ATOM     23  Cl  UNL     1      -8.970  -0.347  -0.894  1.00  0.00    -0.084 Cl
BRANCH  16  24
ATOM     24  C   UNL     1      -3.514  -4.587   0.422  1.00  0.00     0.262 C 
ATOM     25  O   UNL     1      -2.375  -4.676   0.887  1.00  0.00    -0.268 OA
BRANCH  24  26
ATOM     26  C   UNL     1      -4.218  -5.895   0.308  1.00  0.00     0.040 A 
ATOM     27  C   UNL     1      -3.693  -6.965   1.066  1.00  0.00     0.015 A 
ATOM     28  C   UNL     1      -5.233  -6.165  -0.613  1.00  0.00     0.015 A 
ATOM     29  C   UNL     1      -4.170  -8.268   0.914  1.00  0.00     0.021 A 
ATOM     30  C   UNL     1      -5.737  -7.470  -0.740  1.00  0.00     0.021 A 
ATOM     31  C   UNL     1      -5.197  -8.515   0.013  1.00  0.00     0.041 A 
ATOM     32  Cl  UNL     1      -5.774 -10.120  -0.199  1.00  0.00    -0.084 Cl
ENDBRANCH  24  26
ENDBRANCH  16  24
ENDBRANCH   8  10
ENDBRANCH   5   8
ENDBRANCH   3   4
ENDBRANCH   2   3
ENDBRANCH   1   2
BRANCH   1  33
ATOM     33  C   UNL     1       6.003  -3.062   1.391  1.00  0.00     0.002 C 
BRANCH  33  34
ATOM     34  C   UNL     1       7.050  -2.465   0.450  1.00  0.00     0.021 C 
BRANCH  34  35
ATOM     35  C   UNL     1       7.942  -1.416   1.102  1.00  0.00     0.116 C 
BRANCH  35  36
ATOM     36  N   UNL     1       8.799  -1.994   2.125  1.00  0.00    -0.352 N 
ATOM     37  C   UNL     1      10.167  -1.910   2.242  1.00  0.00     0.251 C 
ATOM     38  H   UNL     1       8.340  -2.513   2.825  1.00  0.00     0.163 HD
ATOM     39  O   UNL     1      10.778  -2.605   3.034  1.00  0.00    -0.269 OA
BRANCH  37  40
ATOM     40  C   UNL     1      10.887  -0.963   1.366  1.00  0.00     0.039 A 
ATOM     41  C   UNL     1      11.983  -1.412   0.627  1.00  0.00     0.014 A 
ATOM     42  C   UNL     1      10.443   0.357   1.255  1.00  0.00     0.014 A 
ATOM     43  C   UNL     1      12.603  -0.547  -0.277  1.00  0.00     0.010 A 
ATOM     44  C   UNL     1      11.012   1.191   0.303  1.00  0.00     0.010 A 
ATOM     45  C   UNL     1      12.101   0.750  -0.467  1.00  0.00    -0.014 A 
BRANCH  45  46
ATOM     46  C   UNL     1      12.701   1.692  -1.441  1.00  0.00     0.031 A 
ATOM     47  C   UNL     1      13.310   2.973  -0.947  1.00  0.00     0.074 A 
ATOM     48  C   UNL     1      12.592   1.460  -2.762  1.00  0.00     0.049 A 
ATOM     49  N   UNL     1      13.721   4.012  -1.626  1.00  0.00    -0.248 NA
ATOM     50  C   UNL     1      13.434   3.117   0.513  1.00  0.00     0.031 C 
ATOM     51  C   UNL     1      11.997   0.269  -3.369  1.00  0.00     0.029 A 
ATOM     52  N   UNL     1      12.953   2.237  -3.835  1.00  0.00    -0.354 N 
ATOM     53  C   UNL     1      14.114   4.946  -0.677  1.00  0.00     0.074 A 
ATOM     54  C   UNL     1      13.852   4.369   0.623  1.00  0.00     0.031 C 
ATOM     55  C   UNL     1      12.035   0.393  -4.706  1.00  0.00     0.029 A 
ATOM     56  C   UNL     1      12.611   1.691  -5.047  1.00  0.00     0.049 A 
ATOM     57  H   UNL     1      13.414   3.102  -3.743  1.00  0.00     0.167 HD
ATOM     58  C   UNL     1      14.656   6.172  -0.870  1.00  0.00     0.031 A 
ATOM     59  C   UNL     1      12.722   2.189  -6.293  1.00  0.00     0.031 A 
ATOM     60  C   UNL     1      14.925   6.736  -2.165  1.00  0.00     0.049 A 
ATOM     61  C   UNL     1      13.320   3.554  -6.490  1.00  0.00     0.074 A 
ATOM     62  C   UNL     1      15.531   7.941  -2.471  1.00  0.00     0.029 A 
ATOM     63  N   UNL     1      14.599   6.132  -3.370  1.00  0.00    -0.354 N 
ATOM     64  N   UNL     1      13.743   4.406  -5.587  1.00  0.00    -0.248 NA
ATOM     65  C   UNL     1      13.463   4.025  -7.875  1.00  0.00     0.031 C 
ATOM     66  C   UNL     1      15.522   8.091  -3.861  1.00  0.00     0.029 A 
ATOM     67  C   UNL     1      14.968   6.951  -4.422  1.00  0.00     0.049 A 
ATOM     68  H   UNL     1      14.169   5.251  -3.463  1.00  0.00     0.167 HD
ATOM     69  C   UNL     1      14.233   5.497  -6.294  1.00  0.00     0.074 A 
ATOM     70  C   UNL     1      14.054   5.200  -7.700  1.00  0.00     0.031 C 
ATOM     71  C   UNL     1      14.789   6.637  -5.817  1.00  0.00     0.031 A 
BRANCH  58  72
ATOM     72  C   UNL     1      14.959   6.989   0.356  1.00  0.00    -0.014 A 
ATOM     73  C   UNL     1      15.965   6.610   1.260  1.00  0.00     0.009 A 
ATOM     74  C   UNL     1      14.222   8.155   0.613  1.00  0.00     0.009 A 
ATOM     75  C   UNL     1      16.183   7.347   2.426  1.00  0.00     0.001 A 
ATOM     76  C   UNL     1      14.467   8.911   1.761  1.00  0.00     0.001 A 
ATOM     77  C   UNL     1      15.436   8.498   2.674  1.00  0.00     0.000 A 
ENDBRANCH  58  72
BRANCH  59  78
ATOM     78  C   UNL     1      12.258   1.378  -7.448  1.00  0.00    -0.014 A 
ATOM     79  C   UNL     1      13.184   0.770  -8.308  1.00  0.00     0.009 A 
ATOM     80  C   UNL     1      10.887   1.173  -7.671  1.00  0.00     0.009 A 
ATOM     81  C   UNL     1      12.746  -0.019  -9.375  1.00  0.00     0.001 A 
ATOM     82  C   UNL     1      10.453   0.362  -8.722  1.00  0.00     0.001 A 
ATOM     83  C   UNL     1      11.383  -0.229  -9.576  1.00  0.00     0.000 A 
ENDBRANCH  59  78
BRANCH  71  84
ATOM     84  C   UNL     1      15.295   7.638  -6.817  1.00  0.00    -0.014 A 
ATOM     85  C   UNL     1      14.417   8.455  -7.545  1.00  0.00     0.009 A 
ATOM     86  C   UNL     1      16.680   7.826  -6.962  1.00  0.00     0.009 A 
ATOM     87  C   UNL     1      14.918   9.432  -8.408  1.00  0.00     0.001 A 
ATOM     88  C   UNL     1      17.176   8.820  -7.804  1.00  0.00     0.001 A 
ATOM     89  C   UNL     1      16.296   9.620  -8.530  1.00  0.00     0.000 A 
ENDBRANCH  71  84
ENDBRANCH  45  46
ENDBRANCH  37  40
ENDBRANCH  35  36
ENDBRANCH  34  35
ENDBRANCH  33  34
ENDBRANCH   1  33
TORSDOF 16
