REMARK SMILES C[C@@](O)(c1cccc(O)c1)[C@@H](F)C(=O)NCCCCCCNC(=O)c1ccc(-c2c3nc(c(-c4ccccc4)c4ccc([nH]4)c(-c4ccccc4)c4nc(c(-c5ccccc5)c5ccc2[nH]5)C=C4)C=C3)cc1
REMARK SMILES IDX 18 1 17 2 16 3 15 4 13 5 14 6 11 8 12 9 2 10 1 11 3 12 4 14
REMARK SMILES IDX 5 15 10 16 6 17 8 18 7 19 9 20 19 22 20 23 21 24 22 25 23 26
REMARK SMILES IDX 24 28 25 29 26 30 72 31 27 32 71 33 28 34 29 35 30 36 65 37
REMARK SMILES IDX 31 38 70 39 64 40 66 41 32 42 69 43 63 44 62 45 33 47 55 48
REMARK SMILES IDX 40 49 54 50 41 51 44 52 53 53 67 54 42 55 43 56 52 58 68 59
REMARK SMILES IDX 45 60 34 61 35 62 39 63 36 64 38 65 37 66 56 67 57 68 61 69
REMARK SMILES IDX 58 70 60 71 59 72 46 73 47 74 51 75 48 76 50 77 49 78
REMARK H PARENT 15 7 3 13 9 21 22 27 66 46 44 57
REMARK Flexibility Score: inf
ROOT
ATOM      1  C   UNL     1       5.046   1.124   1.097  1.00  0.00     0.002 C 
ENDROOT
BRANCH   1   2
ATOM      2  C   UNL     1       3.556   0.887   0.848  1.00  0.00     0.021 C 
BRANCH   2   3
ATOM      3  C   UNL     1       3.003   1.597  -0.390  1.00  0.00     0.116 C 
BRANCH   3   4
ATOM      4  N   UNL     1       3.274   0.816  -1.583  1.00  0.00    -0.353 N 
ATOM      5  C   UNL     1       2.413   0.131  -2.390  1.00  0.00     0.257 C 
ATOM      6  O   UNL     1       2.906  -0.682  -3.180  1.00  0.00    -0.272 OA
ATOM      7  H   UNL     1       4.221   0.773  -1.850  1.00  0.00     0.163 HD
BRANCH   5   8
ATOM      8  C   UNL     1       0.894   0.300  -2.301  1.00  0.00     0.291 C 
ATOM      9  F   UNL     1       0.520   1.504  -1.777  1.00  0.00    -0.233 F 
BRANCH   8  10
ATOM     10  C   UNL     1       0.194  -0.869  -1.539  1.00  0.00     0.127 C 
ATOM     11  C   UNL     1       0.790  -1.024  -0.131  1.00  0.00     0.051 C 
BRANCH  10  12
ATOM     12  O   UNL     1       0.408  -2.118  -2.222  1.00  0.00    -0.382 OA
ATOM     13  H   UNL     1      -0.033  -2.832  -1.736  1.00  0.00     0.212 HD
ENDBRANCH  10  12
BRANCH  10  14
ATOM     14  C   UNL     1      -1.338  -0.707  -1.512  1.00  0.00    -0.010 A 
ATOM     15  C   UNL     1      -2.040  -0.273  -2.655  1.00  0.00     0.007 A 
ATOM     16  C   UNL     1      -2.111  -1.041  -0.383  1.00  0.00     0.053 A 
ATOM     17  C   UNL     1      -3.434  -0.140  -2.654  1.00  0.00     0.004 A 
ATOM     18  C   UNL     1      -3.500  -0.918  -0.393  1.00  0.00     0.115 A 
ATOM     19  C   UNL     1      -4.170  -0.462  -1.518  1.00  0.00     0.046 A 
BRANCH  18  20
ATOM     20  O   UNL     1      -4.172  -1.269   0.742  1.00  0.00    -0.508 OA
ATOM     21  H   UNL     1      -5.106  -1.200   0.773  1.00  0.00     0.293 HD
ENDBRANCH  18  20
ENDBRANCH  10  14
ENDBRANCH   8  10
ENDBRANCH   5   8
ENDBRANCH   3   4
ENDBRANCH   2   3
ENDBRANCH   1   2
BRANCH   1  22
ATOM     22  C   UNL     1       5.409   2.550   1.516  1.00  0.00     0.002 C 
BRANCH  22  23
ATOM     23  C   UNL     1       4.612   3.107   2.700  1.00  0.00     0.021 C 
BRANCH  23  24
ATOM     24  C   UNL     1       4.596   2.222   3.943  1.00  0.00     0.116 C 
BRANCH  24  25
ATOM     25  N   UNL     1       5.931   1.994   4.472  1.00  0.00    -0.352 N 
ATOM     26  C   UNL     1       6.441   2.299   5.705  1.00  0.00     0.251 C 
ATOM     27  H   UNL     1       6.560   1.558   3.853  1.00  0.00     0.163 HD
ATOM     28  O   UNL     1       7.652   2.220   5.911  1.00  0.00    -0.269 OA
BRANCH  26  29
ATOM     29  C   UNL     1       5.541   2.739   6.790  1.00  0.00     0.039 A 
ATOM     30  C   UNL     1       5.910   3.839   7.568  1.00  0.00     0.014 A 
ATOM     31  C   UNL     1       4.349   2.057   7.055  1.00  0.00     0.014 A 
ATOM     32  C   UNL     1       5.061   4.285   8.581  1.00  0.00     0.010 A 
ATOM     33  C   UNL     1       3.472   2.545   8.020  1.00  0.00     0.010 A 
ATOM     34  C   UNL     1       3.823   3.657   8.799  1.00  0.00    -0.014 A 
BRANCH  34  35
ATOM     35  C   UNL     1       2.892   4.152   9.842  1.00  0.00     0.031 A 
ATOM     36  C   UNL     1       2.571   3.303  11.040  1.00  0.00     0.074 A 
ATOM     37  C   UNL     1       2.300   5.352   9.688  1.00  0.00     0.049 A 
ATOM     38  N   UNL     1       1.784   3.568  12.053  1.00  0.00    -0.248 NA
ATOM     39  C   UNL     1       3.197   1.972  11.098  1.00  0.00     0.031 C 
ATOM     40  C   UNL     1       2.496   6.255   8.552  1.00  0.00     0.029 A 
ATOM     41  N   UNL     1       1.414   6.019  10.495  1.00  0.00    -0.354 N 
ATOM     42  C   UNL     1       1.805   2.433  12.854  1.00  0.00     0.074 A 
ATOM     43  C   UNL     1       2.644   1.461  12.187  1.00  0.00     0.031 C 
ATOM     44  C   UNL     1       1.787   7.376   8.756  1.00  0.00     0.029 A 
ATOM     45  C   UNL     1       1.059   7.256  10.015  1.00  0.00     0.049 A 
ATOM     46  H   UNL     1       1.066   5.648  11.337  1.00  0.00     0.167 HD
ATOM     47  C   UNL     1       1.196   2.223  14.046  1.00  0.00     0.031 A 
ATOM     48  C   UNL     1       0.245   8.193  10.535  1.00  0.00     0.031 A 
ATOM     49  C   UNL     1       0.371   3.194  14.714  1.00  0.00     0.049 A 
ATOM     50  C   UNL     1      -0.427   7.933  11.853  1.00  0.00     0.074 A 
ATOM     51  C   UNL     1      -0.231   3.106  15.957  1.00  0.00     0.029 A 
ATOM     52  N   UNL     1       0.025   4.429  14.189  1.00  0.00    -0.354 N 
ATOM     53  N   UNL     1      -0.331   6.888  12.639  1.00  0.00    -0.248 NA
ATOM     54  C   UNL     1      -1.312   8.992  12.360  1.00  0.00     0.031 C 
ATOM     55  C   UNL     1      -0.986   4.266  16.161  1.00  0.00     0.029 A 
ATOM     56  C   UNL     1      -0.808   5.100  15.068  1.00  0.00     0.049 A 
ATOM     57  H   UNL     1       0.326   4.778  13.319  1.00  0.00     0.167 HD
ATOM     58  C   UNL     1      -1.120   7.174  13.746  1.00  0.00     0.074 A 
ATOM     59  C   UNL     1      -1.674   8.496  13.535  1.00  0.00     0.031 C 
ATOM     60  C   UNL     1      -1.360   6.411  14.840  1.00  0.00     0.031 A 
BRANCH  47  61
ATOM     61  C   UNL     1       1.389   0.878  14.690  1.00  0.00    -0.014 A 
ATOM     62  C   UNL     1       2.633   0.490  15.215  1.00  0.00     0.009 A 
ATOM     63  C   UNL     1       0.307  -0.010  14.787  1.00  0.00     0.009 A 
ATOM     64  C   UNL     1       2.799  -0.777  15.780  1.00  0.00     0.001 A 
ATOM     65  C   UNL     1       0.468  -1.264  15.379  1.00  0.00     0.001 A 
ATOM     66  C   UNL     1       1.716  -1.651  15.864  1.00  0.00     0.000 A 
ENDBRANCH  47  61
BRANCH  48  67
ATOM     67  C   UNL     1       0.052   9.485   9.828  1.00  0.00    -0.014 A 
ATOM     68  C   UNL     1       0.618  10.662  10.342  1.00  0.00     0.009 A 
ATOM     69  C   UNL     1      -0.692   9.551   8.640  1.00  0.00     0.009 A 
ATOM     70  C   UNL     1       0.424  11.883   9.694  1.00  0.00     0.001 A 
ATOM     71  C   UNL     1      -0.862  10.770   7.979  1.00  0.00     0.001 A 
ATOM     72  C   UNL     1      -0.311  11.935   8.511  1.00  0.00     0.000 A 
ENDBRANCH  48  67
BRANCH  60  73
ATOM     73  C   UNL     1      -2.239   7.005  15.905  1.00  0.00    -0.014 A 
ATOM     74  C   UNL     1      -3.621   7.156  15.710  1.00  0.00     0.009 A 
ATOM     75  C   UNL     1      -1.677   7.399  17.130  1.00  0.00     0.009 A 
ATOM     76  C   UNL     1      -4.415   7.727  16.706  1.00  0.00     0.001 A 
ATOM     77  C   UNL     1      -2.478   7.941  18.135  1.00  0.00     0.001 A 
ATOM     78  C   UNL     1      -3.844   8.115  17.918  1.00  0.00     0.000 A 
ENDBRANCH  60  73
ENDBRANCH  34  35
ENDBRANCH  26  29
ENDBRANCH  24  25
ENDBRANCH  23  24
ENDBRANCH  22  23
ENDBRANCH   1  22
TORSDOF 17
