REMARK SMILES CC(C)(O)C[C@]1(C(=O)NCCCCCCNC(=O)c2ccc(-c3c4nc(c(-c5ccccc5)c5ccc([nH]5)c(-c5ccccc5)c5nc(c(-c6ccccc6)c6ccc3[nH]6)C=C5)C=C4)cc2)CCc2ccccc2C1
REMARK SMILES IDX 12 1 11 2 10 3 9 4 7 5 8 6 6 8 67 9 75 10 68 11 74 12 69 13
REMARK SMILES IDX 73 14 70 15 72 16 71 17 5 18 2 19 1 20 3 21 4 22 13 24 14 25
REMARK SMILES IDX 15 26 16 27 17 28 18 30 19 31 20 32 66 33 21 34 65 35 22 36
REMARK SMILES IDX 23 37 24 38 59 39 25 40 64 41 58 42 60 43 26 44 63 45 57 46
REMARK SMILES IDX 56 47 27 49 49 50 34 51 48 52 35 53 38 54 47 55 61 56 36 57
REMARK SMILES IDX 37 58 46 60 62 61 39 62 28 63 29 64 33 65 30 66 32 67 31 68
REMARK SMILES IDX 50 69 51 70 55 71 52 72 54 73 53 74 40 75 41 76 45 77 42 78
REMARK SMILES IDX 44 79 43 80
REMARK H PARENT 9 7 4 23 16 29 60 48 38 59
REMARK Flexibility Score: inf
ROOT
ATOM      1  C   UNL     1       1.581   1.806  -7.732  1.00  0.00     0.002 C 
ENDROOT
BRANCH   1   2
ATOM      2  C   UNL     1       1.226   1.760  -6.245  1.00  0.00     0.021 C 
BRANCH   2   3
ATOM      3  C   UNL     1       0.493   0.483  -5.837  1.00  0.00     0.116 C 
BRANCH   3   4
ATOM      4  N   UNL     1       1.341  -0.371  -5.043  1.00  0.00    -0.356 N 
ATOM      5  C   UNL     1       1.364  -0.835  -3.779  1.00  0.00     0.226 C 
ATOM      6  O   UNL     1       2.302  -1.632  -3.615  1.00  0.00    -0.274 OA
ATOM      7  H   UNL     1       2.108  -0.703  -5.563  1.00  0.00     0.163 HD
BRANCH   5   8
ATOM      8  C   UNL     1       0.397  -0.478  -2.590  1.00  0.00     0.056 C 
ATOM      9  C   UNL     1       0.612   0.937  -2.036  1.00  0.00     0.022 C 
ATOM     10  C   UNL     1      -1.088  -0.705  -2.973  1.00  0.00     0.052 C 
ATOM     11  C   UNL     1       0.022   2.085  -2.836  1.00  0.00     0.037 C 
ATOM     12  C   UNL     1      -1.875   0.508  -3.434  1.00  0.00    -0.044 A 
ATOM     13  C   UNL     1      -1.369   1.816  -3.339  1.00  0.00    -0.045 A 
ATOM     14  C   UNL     1      -3.132   0.306  -4.031  1.00  0.00     0.004 A 
ATOM     15  C   UNL     1      -2.116   2.888  -3.857  1.00  0.00     0.004 A 
ATOM     16  C   UNL     1      -3.858   1.377  -4.554  1.00  0.00     0.000 A 
ATOM     17  C   UNL     1      -3.350   2.669  -4.467  1.00  0.00     0.000 A 
BRANCH   8  18
ATOM     18  C   UNL     1       0.822  -1.539  -1.470  1.00  0.00     0.052 C 
BRANCH  18  19
ATOM     19  C   UNL     1       0.420  -1.454   0.026  1.00  0.00     0.060 C 
ATOM     20  C   UNL     1       1.219  -0.412   0.827  1.00  0.00     0.042 C 
ATOM     21  C   UNL     1       0.696  -2.831   0.662  1.00  0.00     0.042 C 
BRANCH  19  22
ATOM     22  O   UNL     1      -0.967  -1.179   0.154  1.00  0.00    -0.390 OA
ATOM     23  H   UNL     1      -1.202  -1.129   1.094  1.00  0.00     0.211 HD
ENDBRANCH  19  22
ENDBRANCH  18  19
ENDBRANCH   8  18
ENDBRANCH   5   8
ENDBRANCH   3   4
ENDBRANCH   2   3
ENDBRANCH   1   2
BRANCH   1  24
ATOM     24  C   UNL     1       0.377   1.771  -8.681  1.00  0.00     0.002 C 
BRANCH  24  25
ATOM     25  C   UNL     1      -0.696   2.832  -8.423  1.00  0.00     0.021 C 
BRANCH  25  26
ATOM     26  C   UNL     1      -0.187   4.271  -8.410  1.00  0.00     0.116 C 
BRANCH  26  27
ATOM     27  N   UNL     1       0.507   4.615  -9.640  1.00  0.00    -0.352 N 
ATOM     28  C   UNL     1       0.230   5.580 -10.572  1.00  0.00     0.251 C 
ATOM     29  H   UNL     1       1.302   4.067  -9.834  1.00  0.00     0.163 HD
ATOM     30  O   UNL     1       0.807   5.573 -11.654  1.00  0.00    -0.269 OA
BRANCH  28  31
ATOM     31  C   UNL     1      -0.768   6.630 -10.281  1.00  0.00     0.039 A 
ATOM     32  C   UNL     1      -1.672   6.992 -11.283  1.00  0.00     0.014 A 
ATOM     33  C   UNL     1      -0.785   7.288  -9.048  1.00  0.00     0.014 A 
ATOM     34  C   UNL     1      -2.626   7.979 -11.032  1.00  0.00     0.010 A 
ATOM     35  C   UNL     1      -1.776   8.227  -8.776  1.00  0.00     0.010 A 
ATOM     36  C   UNL     1      -2.701   8.586  -9.768  1.00  0.00    -0.014 A 
BRANCH  36  37
ATOM     37  C   UNL     1      -3.744   9.597  -9.469  1.00  0.00     0.031 A 
ATOM     38  C   UNL     1      -3.362  11.024  -9.195  1.00  0.00     0.074 A 
ATOM     39  C   UNL     1      -5.033   9.215  -9.393  1.00  0.00     0.049 A 
ATOM     40  N   UNL     1      -4.129  12.037  -8.878  1.00  0.00    -0.248 NA
ATOM     41  C   UNL     1      -1.929  11.353  -9.263  1.00  0.00     0.031 C 
ATOM     42  C   UNL     1      -5.527   7.852  -9.602  1.00  0.00     0.029 A 
ATOM     43  N   UNL     1      -6.163   9.941  -9.115  1.00  0.00    -0.354 N 
ATOM     44  C   UNL     1      -3.273  13.115  -8.695  1.00  0.00     0.074 A 
ATOM     45  C   UNL     1      -1.926  12.626  -8.892  1.00  0.00     0.031 C 
ATOM     46  C   UNL     1      -6.863   7.846  -9.470  1.00  0.00     0.029 A 
ATOM     47  C   UNL     1      -7.314   9.192  -9.133  1.00  0.00     0.049 A 
ATOM     48  H   UNL     1      -6.151  10.905  -8.920  1.00  0.00     0.167 HD
ATOM     49  C   UNL     1      -3.581  14.402  -8.406  1.00  0.00     0.031 A 
ATOM     50  C   UNL     1      -8.591   9.549  -8.902  1.00  0.00     0.031 A 
ATOM     51  C   UNL     1      -4.921  14.892  -8.219  1.00  0.00     0.049 A 
ATOM     52  C   UNL     1      -8.906  10.981  -8.575  1.00  0.00     0.074 A 
ATOM     53  C   UNL     1      -5.340  16.189  -7.979  1.00  0.00     0.029 A 
ATOM     54  N   UNL     1      -6.060  14.103  -8.251  1.00  0.00    -0.354 N 
ATOM     55  N   UNL     1      -8.091  12.002  -8.471  1.00  0.00    -0.248 NA
ATOM     56  C   UNL     1     -10.320  11.310  -8.346  1.00  0.00     0.031 C 
ATOM     57  C   UNL     1      -6.730  16.177  -7.820  1.00  0.00     0.029 A 
ATOM     58  C   UNL     1      -7.180  14.881  -8.011  1.00  0.00     0.049 A 
ATOM     59  H   UNL     1      -6.071  13.133  -8.419  1.00  0.00     0.167 HD
ATOM     60  C   UNL     1      -8.894  13.099  -8.187  1.00  0.00     0.074 A 
ATOM     61  C   UNL     1     -10.261  12.620  -8.153  1.00  0.00     0.031 C 
ATOM     62  C   UNL     1      -8.532  14.387  -7.976  1.00  0.00     0.031 A 
BRANCH  49  63
ATOM     63  C   UNL     1      -2.441  15.371  -8.266  1.00  0.00    -0.014 A 
ATOM     64  C   UNL     1      -1.701  15.789  -9.384  1.00  0.00     0.009 A 
ATOM     65  C   UNL     1      -2.123  15.900  -7.006  1.00  0.00     0.009 A 
ATOM     66  C   UNL     1      -0.643  16.688  -9.237  1.00  0.00     0.001 A 
ATOM     67  C   UNL     1      -1.081  16.820  -6.866  1.00  0.00     0.001 A 
ATOM     68  C   UNL     1      -0.337  17.206  -7.979  1.00  0.00     0.000 A 
ENDBRANCH  49  63
BRANCH  50  69
ATOM     69  C   UNL     1      -9.673   8.535  -8.991  1.00  0.00    -0.014 A 
ATOM     70  C   UNL     1     -10.578   8.555 -10.062  1.00  0.00     0.009 A 
ATOM     71  C   UNL     1      -9.805   7.544  -8.006  1.00  0.00     0.009 A 
ATOM     72  C   UNL     1     -11.609   7.616 -10.134  1.00  0.00     0.001 A 
ATOM     73  C   UNL     1     -10.821   6.590  -8.095  1.00  0.00     0.001 A 
ATOM     74  C   UNL     1     -11.727   6.632  -9.153  1.00  0.00     0.000 A 
ENDBRANCH  50  69
BRANCH  62  75
ATOM     75  C   UNL     1      -9.635  15.373  -7.715  1.00  0.00    -0.014 A 
ATOM     76  C   UNL     1     -10.318  15.392  -6.489  1.00  0.00     0.009 A 
ATOM     77  C   UNL     1      -9.971  16.316  -8.698  1.00  0.00     0.009 A 
ATOM     78  C   UNL     1     -11.339  16.318  -6.266  1.00  0.00     0.001 A 
ATOM     79  C   UNL     1     -10.974  17.257  -8.462  1.00  0.00     0.001 A 
ATOM     80  C   UNL     1     -11.663  17.251  -7.250  1.00  0.00     0.000 A 
ENDBRANCH  62  75
ENDBRANCH  36  37
ENDBRANCH  28  31
ENDBRANCH  26  27
ENDBRANCH  25  26
ENDBRANCH  24  25
ENDBRANCH   1  24
TORSDOF 16
