REMARK SMILES O=C(NCCCCCCNC(=O)c1ccccc1-c1ccc(/C=C2/SC(=S)N(Cc3ccccc3)C2=O)o1)c1ccc(-c2c3nc(c(-c4ccccc4)c4ccc([nH]4)c(-c4ccccc4)c4nc(c(-c5ccccc5)c5ccc2[nH]5)C=C4)C=C3)cc1
REMARK SMILES IDX 7 1 6 2 5 3 4 4 3 5 1 6 2 7 39 9 40 10 86 11 41 12 85 13
REMARK SMILES IDX 42 14 43 15 44 16 79 17 45 18 84 19 78 20 80 21 46 22 83 23
REMARK SMILES IDX 77 24 76 25 47 27 69 28 54 29 68 30 55 31 58 32 67 33 81 34
REMARK SMILES IDX 56 35 57 36 66 38 82 39 59 40 48 41 49 42 53 43 50 44 52 45
REMARK SMILES IDX 51 46 70 47 71 48 75 49 72 50 74 51 73 52 60 53 61 54 65 55
REMARK SMILES IDX 62 56 64 57 63 58 8 59 9 60 10 61 11 62 12 64 13 65 14 66
REMARK SMILES IDX 18 67 15 68 17 69 16 70 19 71 20 72 38 73 21 74 22 75 23 76
REMARK SMILES IDX 24 77 25 78 36 79 26 80 28 81 37 82 27 83 29 84 30 85 31 86
REMARK SMILES IDX 35 87 32 88 34 89 33 90
REMARK H PARENT 3 8 80 26 58 37 10 63
REMARK Flexibility Score: inf
ROOT
ATOM      1  C   UNL     1       4.513   4.404  -0.094  1.00  0.00     0.002 C 
ENDROOT
BRANCH   1   2
ATOM      2  C   UNL     1       4.113   3.617  -1.347  1.00  0.00     0.002 C 
BRANCH   2   3
ATOM      3  C   UNL     1       4.634   2.184  -1.425  1.00  0.00     0.021 C 
BRANCH   3   4
ATOM      4  C   UNL     1       4.300   1.296  -0.237  1.00  0.00     0.116 C 
BRANCH   4   5
ATOM      5  N   UNL     1       2.875   1.069  -0.075  1.00  0.00    -0.352 N 
ATOM      6  O   UNL     1       0.959  -0.113   0.050  1.00  0.00    -0.269 OA
ATOM      7  C   UNL     1       2.186  -0.114   0.038  1.00  0.00     0.251 C 
ATOM      8  H   UNL     1       2.321   1.883  -0.040  1.00  0.00     0.163 HD
BRANCH   7   9
ATOM      9  C   UNL     1       2.920  -1.397   0.117  1.00  0.00     0.039 A 
ATOM     10  C   UNL     1       4.056  -1.529   0.920  1.00  0.00     0.014 A 
ATOM     11  C   UNL     1       2.452  -2.494  -0.614  1.00  0.00     0.014 A 
ATOM     12  C   UNL     1       4.801  -2.702   0.879  1.00  0.00     0.010 A 
ATOM     13  C   UNL     1       3.149  -3.705  -0.578  1.00  0.00     0.010 A 
ATOM     14  C   UNL     1       4.344  -3.812   0.150  1.00  0.00    -0.014 A 
BRANCH  14  15
ATOM     15  C   UNL     1       5.085  -5.095   0.238  1.00  0.00     0.031 A 
ATOM     16  C   UNL     1       5.739  -5.709  -0.968  1.00  0.00     0.074 A 
ATOM     17  C   UNL     1       5.178  -5.701   1.438  1.00  0.00     0.049 A 
ATOM     18  N   UNL     1       6.434  -6.817  -1.050  1.00  0.00    -0.248 NA
ATOM     19  C   UNL     1       5.592  -4.997  -2.247  1.00  0.00     0.031 C 
ATOM     20  C   UNL     1       4.579  -5.205   2.681  1.00  0.00     0.029 A 
ATOM     21  N   UNL     1       5.822  -6.851   1.817  1.00  0.00    -0.354 N 
ATOM     22  C   UNL     1       6.789  -6.946  -2.387  1.00  0.00     0.074 A 
ATOM     23  C   UNL     1       6.215  -5.815  -3.085  1.00  0.00     0.031 C 
ATOM     24  C   UNL     1       4.926  -6.016   3.691  1.00  0.00     0.029 A 
ATOM     25  C   UNL     1       5.708  -7.124   3.158  1.00  0.00     0.049 A 
ATOM     26  H   UNL     1       6.317  -7.424   1.189  1.00  0.00     0.167 HD
ATOM     27  C   UNL     1       7.529  -7.916  -2.976  1.00  0.00     0.031 A 
ATOM     28  C   UNL     1       6.161  -8.163   3.882  1.00  0.00     0.031 A 
ATOM     29  C   UNL     1       8.093  -9.044  -2.278  1.00  0.00     0.049 A 
ATOM     30  C   UNL     1       6.940  -9.244   3.195  1.00  0.00     0.074 A 
ATOM     31  C   UNL     1       8.883 -10.064  -2.783  1.00  0.00     0.029 A 
ATOM     32  N   UNL     1       7.919  -9.307  -0.928  1.00  0.00    -0.354 N 
ATOM     33  N   UNL     1       7.300  -9.329   1.938  1.00  0.00    -0.248 NA
ATOM     34  C   UNL     1       7.376 -10.372   4.028  1.00  0.00     0.031 C 
ATOM     35  C   UNL     1       9.139 -10.972  -1.751  1.00  0.00     0.029 A 
ATOM     36  C   UNL     1       8.563 -10.486  -0.588  1.00  0.00     0.049 A 
ATOM     37  H   UNL     1       7.414  -8.739  -0.302  1.00  0.00     0.167 HD
ATOM     38  C   UNL     1       8.021 -10.509   1.831  1.00  0.00     0.074 A 
ATOM     39  C   UNL     1       8.066 -11.094   3.156  1.00  0.00     0.031 C 
ATOM     40  C   UNL     1       8.593 -11.060   0.733  1.00  0.00     0.031 A 
BRANCH  27  41
ATOM     41  C   UNL     1       7.750  -7.821  -4.462  1.00  0.00    -0.014 A 
ATOM     42  C   UNL     1       8.594  -6.846  -5.016  1.00  0.00     0.009 A 
ATOM     43  C   UNL     1       7.142  -8.756  -5.316  1.00  0.00     0.009 A 
ATOM     44  C   UNL     1       8.798  -6.789  -6.397  1.00  0.00     0.001 A 
ATOM     45  C   UNL     1       7.371  -8.714  -6.693  1.00  0.00     0.001 A 
ATOM     46  C   UNL     1       8.191  -7.725  -7.234  1.00  0.00     0.000 A 
ENDBRANCH  27  41
BRANCH  28  47
ATOM     47  C   UNL     1       5.870  -8.232   5.338  1.00  0.00    -0.014 A 
ATOM     48  C   UNL     1       6.896  -8.082   6.281  1.00  0.00     0.009 A 
ATOM     49  C   UNL     1       4.556  -8.438   5.789  1.00  0.00     0.009 A 
ATOM     50  C   UNL     1       6.615  -8.157   7.647  1.00  0.00     0.001 A 
ATOM     51  C   UNL     1       4.274  -8.479   7.155  1.00  0.00     0.001 A 
ATOM     52  C   UNL     1       5.305  -8.349   8.083  1.00  0.00     0.000 A 
ENDBRANCH  28  47
BRANCH  40  53
ATOM     53  C   UNL     1       9.345 -12.346   0.930  1.00  0.00    -0.014 A 
ATOM     54  C   UNL     1       8.675 -13.552   1.184  1.00  0.00     0.009 A 
ATOM     55  C   UNL     1      10.746 -12.351   0.836  1.00  0.00     0.009 A 
ATOM     56  C   UNL     1       9.396 -14.732   1.376  1.00  0.00     0.001 A 
ATOM     57  C   UNL     1      11.462 -13.537   0.998  1.00  0.00     0.001 A 
ATOM     58  C   UNL     1      10.787 -14.725   1.279  1.00  0.00     0.000 A 
ENDBRANCH  40  53
ENDBRANCH  14  15
ENDBRANCH   7   9
ENDBRANCH   4   5
ENDBRANCH   3   4
ENDBRANCH   2   3
ENDBRANCH   1   2
BRANCH   1  59
ATOM     59  C   UNL     1       6.012   4.450   0.235  1.00  0.00     0.021 C 
BRANCH  59  60
ATOM     60  C   UNL     1       6.912   4.939  -0.894  1.00  0.00     0.116 C 
BRANCH  60  61
ATOM     61  N   UNL     1       6.639   6.305  -1.298  1.00  0.00    -0.352 N 
ATOM     62  C   UNL     1       7.510   7.234  -1.812  1.00  0.00     0.252 C 
ATOM     63  H   UNL     1       5.708   6.606  -1.189  1.00  0.00     0.163 HD
ATOM     64  O   UNL     1       7.108   8.352  -2.123  1.00  0.00    -0.269 OA
BRANCH  62  65
ATOM     65  C   UNL     1       8.949   6.918  -1.952  1.00  0.00     0.050 A 
ATOM     66  C   UNL     1       9.836   7.694  -1.192  1.00  0.00     0.014 A 
ATOM     67  C   UNL     1       9.433   5.922  -2.818  1.00  0.00     0.030 A 
ATOM     68  C   UNL     1      11.208   7.452  -1.258  1.00  0.00     0.001 A 
ATOM     69  C   UNL     1      10.815   5.682  -2.861  1.00  0.00     0.013 A 
ATOM     70  C   UNL     1      11.695   6.442  -2.086  1.00  0.00     0.001 A 
BRANCH  67  71
ATOM     71  C   UNL     1       8.550   5.159  -3.680  1.00  0.00     0.135 A 
ATOM     72  C   UNL     1       7.599   5.505  -4.610  1.00  0.00     0.051 A 
ATOM     73  O   UNL     1       8.558   3.808  -3.493  1.00  0.00    -0.457 OA
ATOM     74  C   UNL     1       6.974   4.299  -4.991  1.00  0.00     0.051 A 
ATOM     75  C   UNL     1       7.583   3.261  -4.291  1.00  0.00     0.128 A 
BRANCH  75  76
ATOM     76  C   UNL     1       7.243   1.882  -4.299  1.00  0.00     0.068 C 
ATOM     77  C   UNL     1       7.329   1.148  -5.413  1.00  0.00     0.084 C 
ATOM     78  S   UNL     1       6.533  -0.357  -5.654  1.00  0.00    -0.054 SA
ATOM     79  C   UNL     1       7.977   1.564  -6.676  1.00  0.00     0.266 C 
ATOM     80  C   UNL     1       6.612  -0.183  -7.414  1.00  0.00     0.148 C 
ATOM     81  N   UNL     1       7.408   0.894  -7.737  1.00  0.00    -0.288 N 
ATOM     82  O   UNL     1       8.919   2.345  -6.736  1.00  0.00    -0.268 OA
ATOM     83  S   UNL     1       5.811  -1.225  -8.438  1.00  0.00    -0.052 S 
BRANCH  81  84
ATOM     84  C   UNL     1       7.758   1.330  -9.087  1.00  0.00     0.163 C 
BRANCH  84  85
ATOM     85  C   UNL     1       6.938   2.520  -9.552  1.00  0.00    -0.028 A 
ATOM     86  C   UNL     1       6.084   2.404 -10.657  1.00  0.00     0.005 A 
ATOM     87  C   UNL     1       7.054   3.776  -8.930  1.00  0.00     0.005 A 
ATOM     88  C   UNL     1       5.373   3.513 -11.126  1.00  0.00     0.000 A 
ATOM     89  C   UNL     1       6.328   4.877  -9.386  1.00  0.00     0.000 A 
ATOM     90  C   UNL     1       5.492   4.746 -10.489  1.00  0.00     0.000 A 
ENDBRANCH  84  85
ENDBRANCH  81  84
ENDBRANCH  75  76
ENDBRANCH  67  71
ENDBRANCH  62  65
ENDBRANCH  60  61
ENDBRANCH  59  60
ENDBRANCH   1  59
TORSDOF 17
