REMARK SMILES O=C(N[C@H](CCBr)C(=O)NCCCCCCNC(=O)c1ccc(-c2c3nc(c(-c4ccccc4)c4ccc([nH]4)c(-c4ccccc4)c4nc(c(-c5ccccc5)c5ccc2[nH]5)C=C4)C=C3)cc1)OCc1ccccc1
REMARK SMILES IDX 12 1 11 2 10 3 8 4 9 5 4 7 3 8 1 9 2 10 68 12 69 13 70 14
REMARK SMILES IDX 71 15 75 16 72 17 74 18 73 19 5 20 6 21 7 22 13 23 14 24
REMARK SMILES IDX 15 25 16 26 17 27 18 28 19 30 20 31 21 32 67 33 22 34 66 35
REMARK SMILES IDX 23 36 24 37 25 38 60 39 26 40 65 41 59 42 61 43 27 44 64 45
REMARK SMILES IDX 58 46 57 47 28 49 50 50 35 51 49 52 36 53 39 54 48 55 62 56
REMARK SMILES IDX 37 57 38 58 47 60 63 61 40 62 29 63 30 64 34 65 31 66 33 67
REMARK SMILES IDX 32 68 51 69 52 70 56 71 53 72 55 73 54 74 41 75 42 76 46 77
REMARK SMILES IDX 43 78 45 79 44 80
REMARK H PARENT 10 6 3 11 17 29 61 48 39 59
REMARK Flexibility Score: inf
ROOT
ATOM      1  C   UNL     1       2.808   0.482   5.146  1.00  0.00     0.021 C 
ENDROOT
BRANCH   1   2
ATOM      2  C   UNL     1       3.865   1.257   4.353  1.00  0.00     0.116 C 
BRANCH   2   3
ATOM      3  N   UNL     1       4.799   0.333   3.754  1.00  0.00    -0.354 N 
ATOM      4  C   UNL     1       4.608  -0.296   2.559  1.00  0.00     0.242 C 
ATOM      5  O   UNL     1       4.711  -1.525   2.532  1.00  0.00    -0.273 OA
ATOM      6  H   UNL     1       5.633   0.144   4.242  1.00  0.00     0.163 HD
BRANCH   4   7
ATOM      7  C   UNL     1       4.199   0.503   1.305  1.00  0.00     0.175 C 
BRANCH   7   8
ATOM      8  N   UNL     1       4.772   1.838   1.223  1.00  0.00    -0.310 N 
ATOM      9  O   UNL     1       5.750   3.674   0.467  1.00  0.00    -0.225 OA
ATOM     10  C   UNL     1       5.329   2.550   0.198  1.00  0.00     0.408 C 
ATOM     11  H   UNL     1       4.754   2.327   2.077  1.00  0.00     0.167 HD
BRANCH  10  12
ATOM     12  O   UNL     1       5.407   2.102  -1.081  1.00  0.00    -0.445 OA
BRANCH  12  13
ATOM     13  C   UNL     1       5.284   0.786  -1.677  1.00  0.00     0.270 C 
BRANCH  13  14
ATOM     14  C   UNL     1       6.290  -0.218  -1.165  1.00  0.00    -0.011 A 
ATOM     15  C   UNL     1       5.890  -1.541  -0.900  1.00  0.00     0.007 A 
ATOM     16  C   UNL     1       7.594   0.173  -0.842  1.00  0.00     0.007 A 
ATOM     17  C   UNL     1       6.726  -2.400  -0.188  1.00  0.00     0.000 A 
ATOM     18  C   UNL     1       8.440  -0.702  -0.161  1.00  0.00     0.000 A 
ATOM     19  C   UNL     1       7.995  -1.974   0.195  1.00  0.00     0.000 A 
ENDBRANCH  13  14
ENDBRANCH  12  13
ENDBRANCH  10  12
ENDBRANCH   7   8
BRANCH   7  20
ATOM     20  C   UNL     1       2.762   0.414   0.772  1.00  0.00     0.047 C 
BRANCH  20  21
ATOM     21  C   UNL     1       1.659  -0.042   1.702  1.00  0.00     0.083 C 
ATOM     22  Br  UNL     1       0.674   1.474   2.420  1.00  0.00    -0.093 Br
ENDBRANCH  20  21
ENDBRANCH   7  20
ENDBRANCH   4   7
ENDBRANCH   2   3
ENDBRANCH   1   2
BRANCH   1  23
ATOM     23  C   UNL     1       3.339  -0.256   6.379  1.00  0.00     0.002 C 
BRANCH  23  24
ATOM     24  C   UNL     1       4.027   0.638   7.409  1.00  0.00     0.002 C 
BRANCH  24  25
ATOM     25  C   UNL     1       3.225   1.878   7.804  1.00  0.00     0.021 C 
BRANCH  25  26
ATOM     26  C   UNL     1       1.798   1.587   8.250  1.00  0.00     0.116 C 
BRANCH  26  27
ATOM     27  N   UNL     1       1.762   0.763   9.445  1.00  0.00    -0.352 N 
ATOM     28  C   UNL     1       1.192   1.049  10.660  1.00  0.00     0.251 C 
ATOM     29  H   UNL     1       2.204  -0.114   9.375  1.00  0.00     0.163 HD
ATOM     30  O   UNL     1       1.427   0.358  11.642  1.00  0.00    -0.269 OA
BRANCH  28  31
ATOM     31  C   UNL     1       0.302   2.222  10.768  1.00  0.00     0.039 A 
ATOM     32  C   UNL     1       0.500   3.126  11.812  1.00  0.00     0.014 A 
ATOM     33  C   UNL     1      -0.706   2.435   9.822  1.00  0.00     0.014 A 
ATOM     34  C   UNL     1      -0.289   4.274  11.881  1.00  0.00     0.010 A 
ATOM     35  C   UNL     1      -1.433   3.619   9.845  1.00  0.00     0.010 A 
ATOM     36  C   UNL     1      -1.241   4.543  10.883  1.00  0.00    -0.014 A 
BRANCH  36  37
ATOM     37  C   UNL     1      -2.056   5.782  10.920  1.00  0.00     0.031 A 
ATOM     38  C   UNL     1      -3.548   5.696  11.082  1.00  0.00     0.074 A 
ATOM     39  C   UNL     1      -1.458   6.978  10.762  1.00  0.00     0.049 A 
ATOM     40  N   UNL     1      -4.432   6.661  11.108  1.00  0.00    -0.248 NA
ATOM     41  C   UNL     1      -4.128   4.348  11.209  1.00  0.00     0.031 C 
ATOM     42  C   UNL     1      -0.023   7.190  10.560  1.00  0.00     0.029 A 
ATOM     43  N   UNL     1      -1.986   8.244  10.747  1.00  0.00    -0.354 N 
ATOM     44  C   UNL     1      -5.667   6.037  11.240  1.00  0.00     0.074 A 
ATOM     45  C   UNL     1      -5.425   4.612  11.231  1.00  0.00     0.031 C 
ATOM     46  C   UNL     1       0.218   8.508  10.475  1.00  0.00     0.029 A 
ATOM     47  C   UNL     1      -1.046   9.230  10.570  1.00  0.00     0.049 A 
ATOM     48  H   UNL     1      -2.948   8.429  10.852  1.00  0.00     0.167 HD
ATOM     49  C   UNL     1      -6.890   6.601  11.378  1.00  0.00     0.031 A 
ATOM     50  C   UNL     1      -1.188  10.567  10.488  1.00  0.00     0.031 A 
ATOM     51  C   UNL     1      -7.127   8.019  11.389  1.00  0.00     0.049 A 
ATOM     52  C   UNL     1      -2.561  11.166  10.615  1.00  0.00     0.074 A 
ATOM     53  C   UNL     1      -8.322   8.691  11.573  1.00  0.00     0.029 A 
ATOM     54  N   UNL     1      -6.149   8.984  11.200  1.00  0.00    -0.354 N 
ATOM     55  N   UNL     1      -3.710  10.566  10.812  1.00  0.00    -0.248 NA
ATOM     56  C   UNL     1      -2.654  12.630  10.520  1.00  0.00     0.031 C 
ATOM     57  C   UNL     1      -8.078  10.061  11.434  1.00  0.00     0.029 A 
ATOM     58  C   UNL     1      -6.719  10.245  11.234  1.00  0.00     0.049 A 
ATOM     59  H   UNL     1      -5.192   8.800  11.063  1.00  0.00     0.167 HD
ATOM     60  C   UNL     1      -4.657  11.579  10.896  1.00  0.00     0.074 A 
ATOM     61  C   UNL     1      -3.944  12.831  10.746  1.00  0.00     0.031 C 
ATOM     62  C   UNL     1      -5.996  11.482  11.083  1.00  0.00     0.031 A 
BRANCH  49  63
ATOM     63  C   UNL     1      -8.068   5.675  11.515  1.00  0.00    -0.014 A 
ATOM     64  C   UNL     1      -8.247   4.885  12.662  1.00  0.00     0.009 A 
ATOM     65  C   UNL     1      -9.032   5.617  10.496  1.00  0.00     0.009 A 
ATOM     66  C   UNL     1      -9.345   4.028  12.768  1.00  0.00     0.001 A 
ATOM     67  C   UNL     1     -10.146   4.785  10.620  1.00  0.00     0.001 A 
ATOM     68  C   UNL     1     -10.296   3.983  11.750  1.00  0.00     0.000 A 
ENDBRANCH  49  63
BRANCH  50  69
ATOM     69  C   UNL     1       0.004  11.433  10.285  1.00  0.00    -0.014 A 
ATOM     70  C   UNL     1       0.447  12.289  11.305  1.00  0.00     0.009 A 
ATOM     71  C   UNL     1       0.700  11.415   9.066  1.00  0.00     0.009 A 
ATOM     72  C   UNL     1       1.541  13.132  11.098  1.00  0.00     0.001 A 
ATOM     73  C   UNL     1       1.815  12.234   8.874  1.00  0.00     0.001 A 
ATOM     74  C   UNL     1       2.227  13.100   9.885  1.00  0.00     0.000 A 
ENDBRANCH  50  69
BRANCH  62  75
ATOM     75  C   UNL     1      -6.774  12.765  11.178  1.00  0.00    -0.014 A 
ATOM     76  C   UNL     1      -6.980  13.583  10.056  1.00  0.00     0.009 A 
ATOM     77  C   UNL     1      -7.345  13.138  12.405  1.00  0.00     0.009 A 
ATOM     78  C   UNL     1      -7.712  14.767  10.171  1.00  0.00     0.001 A 
ATOM     79  C   UNL     1      -8.105  14.303  12.509  1.00  0.00     0.001 A 
ATOM     80  C   UNL     1      -8.279  15.122  11.395  1.00  0.00     0.000 A 
ENDBRANCH  62  75
ENDBRANCH  36  37
ENDBRANCH  28  31
ENDBRANCH  26  27
ENDBRANCH  25  26
ENDBRANCH  24  25
ENDBRANCH  23  24
ENDBRANCH   1  23
TORSDOF 19
