REMARK SMILES CS(=O)(=O)c1ccc(/C=C(/C(=O)NCCCCCCNC(=O)c2ccc(-c3c4nc(c(-c5ccccc5)c5ccc([nH]5)c(-c5ccccc5)c5nc(c(-c6ccccc6)c6ccc3[nH]6)C=C5)C=C4)cc2)c2ccccc2)cc1
REMARK SMILES IDX 16 1 15 2 14 3 13 4 11 5 12 6 10 8 9 9 8 10 5 11 6 12 78 13
REMARK SMILES IDX 7 14 77 15 2 16 1 17 3 18 4 19 71 20 72 21 76 22 73 23 75 24
REMARK SMILES IDX 74 25 17 26 18 27 19 28 20 29 21 30 22 32 23 33 24 34 70 35
REMARK SMILES IDX 25 36 69 37 26 38 27 39 28 40 63 41 29 42 68 43 62 44 64 45
REMARK SMILES IDX 30 46 67 47 61 48 60 49 31 51 53 52 38 53 52 54 39 55 42 56
REMARK SMILES IDX 51 57 65 58 40 59 41 60 50 62 66 63 43 64 32 65 33 66 37 67
REMARK SMILES IDX 34 68 36 69 35 70 54 71 55 72 59 73 56 74 58 75 57 76 44 77
REMARK SMILES IDX 45 78 49 79 46 80 48 81 47 82
REMARK H PARENT 13 7 20 31 64 50 42 61
REMARK Flexibility Score: inf
ROOT
ATOM      1  C   UNL     1       1.128  10.580   4.868  1.00  0.00     0.002 C 
ENDROOT
BRANCH   1   2
ATOM      2  C   UNL     1       1.055   9.326   3.980  1.00  0.00     0.021 C 
BRANCH   2   3
ATOM      3  C   UNL     1       2.339   8.490   3.989  1.00  0.00     0.116 C 
BRANCH   3   4
ATOM      4  N   UNL     1       2.482   7.825   5.269  1.00  0.00    -0.352 N 
ATOM      5  C   UNL     1       2.287   6.555   5.709  1.00  0.00     0.251 C 
ATOM      6  O   UNL     1       2.432   6.379   6.922  1.00  0.00    -0.269 OA
ATOM      7  H   UNL     1       2.791   8.431   5.980  1.00  0.00     0.163 HD
BRANCH   5   8
ATOM      8  C   UNL     1       2.005   5.383   4.796  1.00  0.00     0.047 C 
ATOM      9  C   UNL     1       1.248   5.499   3.681  1.00  0.00     0.022 C 
BRANCH   9  10
ATOM     10  C   UNL     1       0.972   4.491   2.634  1.00  0.00    -0.025 A 
ATOM     11  C   UNL     1       0.549   2.667   0.537  1.00  0.00     0.067 A 
ATOM     12  C   UNL     1       0.356   2.264   1.859  1.00  0.00     0.021 A 
ATOM     13  C   UNL     1       0.918   3.982   0.249  1.00  0.00     0.021 A 
ATOM     14  C   UNL     1       0.554   3.180   2.899  1.00  0.00     0.009 A 
ATOM     15  C   UNL     1       1.124   4.887   1.295  1.00  0.00     0.009 A 
BRANCH  11  16
ATOM     16  S   UNL     1       0.329   1.520  -0.802  1.00  0.00     0.175 S 
ATOM     17  C   UNL     1       1.117   0.018  -0.288  1.00  0.00     0.163 C 
ATOM     18  O   UNL     1       1.083   2.027  -1.930  1.00  0.00    -0.224 OA
ATOM     19  O   UNL     1      -1.100   1.274  -0.905  1.00  0.00    -0.224 OA
ENDBRANCH  11  16
ENDBRANCH   9  10
BRANCH   8  20
ATOM     20  C   UNL     1       2.457   4.051   5.271  1.00  0.00    -0.013 A 
ATOM     21  C   UNL     1       1.824   3.487   6.392  1.00  0.00     0.009 A 
ATOM     22  C   UNL     1       3.446   3.315   4.609  1.00  0.00     0.009 A 
ATOM     23  C   UNL     1       2.156   2.207   6.833  1.00  0.00     0.001 A 
ATOM     24  C   UNL     1       3.772   2.027   5.048  1.00  0.00     0.001 A 
ATOM     25  C   UNL     1       3.125   1.474   6.154  1.00  0.00     0.000 A 
ENDBRANCH   8  20
ENDBRANCH   5   8
ENDBRANCH   3   4
ENDBRANCH   2   3
ENDBRANCH   1   2
BRANCH   1  26
ATOM     26  C   UNL     1       2.184  11.613   4.455  1.00  0.00     0.002 C 
BRANCH  26  27
ATOM     27  C   UNL     1       2.092  12.091   3.003  1.00  0.00     0.021 C 
BRANCH  27  28
ATOM     28  C   UNL     1       0.771  12.763   2.639  1.00  0.00     0.116 C 
BRANCH  28  29
ATOM     29  N   UNL     1       0.594  14.029   3.330  1.00  0.00    -0.352 N 
ATOM     30  C   UNL     1       0.285  15.263   2.812  1.00  0.00     0.251 C 
ATOM     31  H   UNL     1       0.712  13.998   4.307  1.00  0.00     0.163 HD
ATOM     32  O   UNL     1       0.360  16.266   3.514  1.00  0.00    -0.269 OA
BRANCH  30  33
ATOM     33  C   UNL     1      -0.122  15.386   1.397  1.00  0.00     0.039 A 
ATOM     34  C   UNL     1       0.445  16.397   0.616  1.00  0.00     0.014 A 
ATOM     35  C   UNL     1      -1.072  14.521   0.846  1.00  0.00     0.014 A 
ATOM     36  C   UNL     1       0.099  16.508  -0.733  1.00  0.00     0.010 A 
ATOM     37  C   UNL     1      -1.372  14.595  -0.512  1.00  0.00     0.010 A 
ATOM     38  C   UNL     1      -0.793  15.592  -1.312  1.00  0.00    -0.014 A 
BRANCH  38  39
ATOM     39  C   UNL     1      -1.138  15.663  -2.753  1.00  0.00     0.031 A 
ATOM     40  C   UNL     1      -2.538  16.007  -3.179  1.00  0.00     0.074 A 
ATOM     41  C   UNL     1      -0.208  15.355  -3.678  1.00  0.00     0.049 A 
ATOM     42  N   UNL     1      -3.046  16.054  -4.385  1.00  0.00    -0.248 NA
ATOM     43  C   UNL     1      -3.498  16.317  -2.109  1.00  0.00     0.031 C 
ATOM     44  C   UNL     1       1.176  14.972  -3.395  1.00  0.00     0.029 A 
ATOM     45  N   UNL     1      -0.294  15.309  -5.047  1.00  0.00    -0.354 N 
ATOM     46  C   UNL     1      -4.386  16.377  -4.217  1.00  0.00     0.074 A 
ATOM     47  C   UNL     1      -4.622  16.476  -2.793  1.00  0.00     0.031 C 
ATOM     48  C   UNL     1       1.815  14.750  -4.555  1.00  0.00     0.029 A 
ATOM     49  C   UNL     1       0.879  14.941  -5.659  1.00  0.00     0.049 A 
ATOM     50  H   UNL     1      -1.118  15.519  -5.543  1.00  0.00     0.167 HD
ATOM     51  C   UNL     1      -5.332  16.589  -5.162  1.00  0.00     0.031 A 
ATOM     52  C   UNL     1       1.169  14.772  -6.963  1.00  0.00     0.031 A 
ATOM     53  C   UNL     1      -5.098  16.507  -6.578  1.00  0.00     0.049 A 
ATOM     54  C   UNL     1       0.101  15.011  -7.992  1.00  0.00     0.074 A 
ATOM     55  C   UNL     1      -5.979  16.761  -7.615  1.00  0.00     0.029 A 
ATOM     56  N   UNL     1      -3.892  16.144  -7.157  1.00  0.00    -0.354 N 
ATOM     57  N   UNL     1      -1.147  15.374  -7.818  1.00  0.00    -0.248 NA
ATOM     58  C   UNL     1       0.485  14.824  -9.398  1.00  0.00     0.031 C 
ATOM     59  C   UNL     1      -5.316  16.513  -8.822  1.00  0.00     0.029 A 
ATOM     60  C   UNL     1      -4.011  16.148  -8.536  1.00  0.00     0.049 A 
ATOM     61  H   UNL     1      -3.072  15.917  -6.660  1.00  0.00     0.167 HD
ATOM     62  C   UNL     1      -1.689  15.484  -9.092  1.00  0.00     0.074 A 
ATOM     63  C   UNL     1      -0.632  15.161 -10.028  1.00  0.00     0.031 C 
ATOM     64  C   UNL     1      -2.950  15.824  -9.453  1.00  0.00     0.031 A 
BRANCH  51  65
ATOM     65  C   UNL     1      -6.718  16.925  -4.686  1.00  0.00    -0.014 A 
ATOM     66  C   UNL     1      -7.006  18.176  -4.118  1.00  0.00     0.009 A 
ATOM     67  C   UNL     1      -7.753  15.990  -4.834  1.00  0.00     0.009 A 
ATOM     68  C   UNL     1      -8.297  18.469  -3.673  1.00  0.00     0.001 A 
ATOM     69  C   UNL     1      -9.049  16.296  -4.412  1.00  0.00     0.001 A 
ATOM     70  C   UNL     1      -9.317  17.531  -3.824  1.00  0.00     0.000 A 
ENDBRANCH  51  65
BRANCH  52  71
ATOM     71  C   UNL     1       2.539  14.373  -7.373  1.00  0.00    -0.014 A 
ATOM     72  C   UNL     1       3.394  15.302  -7.985  1.00  0.00     0.009 A 
ATOM     73  C   UNL     1       2.998  13.065  -7.155  1.00  0.00     0.009 A 
ATOM     74  C   UNL     1       4.674  14.923  -8.392  1.00  0.00     0.001 A 
ATOM     75  C   UNL     1       4.288  12.696  -7.542  1.00  0.00     0.001 A 
ATOM     76  C   UNL     1       5.122  13.622  -8.167  1.00  0.00     0.000 A 
ENDBRANCH  52  71
BRANCH  64  77
ATOM     77  C   UNL     1      -3.245  15.894 -10.923  1.00  0.00    -0.014 A 
ATOM     78  C   UNL     1      -3.394  14.728 -11.690  1.00  0.00     0.009 A 
ATOM     79  C   UNL     1      -3.415  17.143 -11.539  1.00  0.00     0.009 A 
ATOM     80  C   UNL     1      -3.679  14.815 -13.054  1.00  0.00     0.001 A 
ATOM     81  C   UNL     1      -3.724  17.226 -12.897  1.00  0.00     0.001 A 
ATOM     82  C   UNL     1      -3.847  16.063 -13.655  1.00  0.00     0.000 A 
ENDBRANCH  64  77
ENDBRANCH  38  39
ENDBRANCH  30  33
ENDBRANCH  28  29
ENDBRANCH  27  28
ENDBRANCH  26  27
ENDBRANCH   1  26
TORSDOF 16
