REMARK SMILES C[C@H](c1ccc(C(=O)NCCCCCCNC(=O)c2ccc(-c3c4nc(c(-c5ccccc5)c5ccc([nH]5)c(-c5ccccc5)c5nc(c(-c6ccccc6)c6ccc3[nH]6)C=C5)C=C4)cc2)o1)[NH+]1Cc2ccccc2C1
REMARK SMILES IDX 12 1 11 2 10 3 9 4 7 5 8 6 6 8 3 9 4 10 67 11 5 12 2 13 1 14
REMARK SMILES IDX 68 15 69 16 76 17 70 19 75 20 71 21 74 22 72 23 73 24 13 25
REMARK SMILES IDX 14 26 15 27 16 28 17 29 18 31 19 32 20 33 66 34 21 35 65 36
REMARK SMILES IDX 22 37 23 38 24 39 59 40 25 41 64 42 58 43 60 44 26 45 63 46
REMARK SMILES IDX 57 47 56 48 27 50 49 51 34 52 48 53 35 54 38 55 47 56 61 57
REMARK SMILES IDX 36 58 37 59 46 61 62 62 39 63 28 64 29 65 33 66 30 67 32 68
REMARK SMILES IDX 31 69 50 70 51 71 55 72 52 73 54 74 53 75 40 76 41 77 45 78
REMARK SMILES IDX 42 79 44 80 43 81
REMARK H PARENT 9 7 68 18 16 30 60 49 38 60
REMARK Flexibility Score: inf
ROOT
ATOM      1  C   UNL     1       3.925   4.643   4.552  1.00  0.00     0.002 C 
ENDROOT
BRANCH   1   2
ATOM      2  C   UNL     1       3.045   3.436   4.199  1.00  0.00     0.021 C 
BRANCH   2   3
ATOM      3  C   UNL     1       1.924   3.758   3.213  1.00  0.00     0.116 C 
BRANCH   3   4
ATOM      4  N   UNL     1       2.425   3.824   1.862  1.00  0.00    -0.349 N 
ATOM      5  C   UNL     1       2.318   2.937   0.819  1.00  0.00     0.287 C 
ATOM      6  O   UNL     1       2.776   3.332  -0.256  1.00  0.00    -0.266 OA
ATOM      7  H   UNL     1       2.929   4.644   1.652  1.00  0.00     0.163 HD
BRANCH   5   8
ATOM      8  C   UNL     1       1.709   1.627   0.981  1.00  0.00     0.191 A 
ATOM      9  C   UNL     1       0.916  -0.260   0.106  1.00  0.00     0.162 A 
ATOM     10  C   UNL     1       0.909  -0.435   1.472  1.00  0.00     0.053 A 
ATOM     11  O   UNL     1       1.355   0.998  -0.182  1.00  0.00    -0.450 OA
ATOM     12  C   UNL     1       1.430   0.767   2.031  1.00  0.00     0.057 A 
BRANCH   9  13
ATOM     13  C   UNL     1       0.728  -1.122  -1.108  1.00  0.00     0.248 C 
ATOM     14  C   UNL     1       2.134  -1.647  -1.475  1.00  0.00     0.084 C 
BRANCH  13  15
ATOM     15  N   UNL     1      -0.323  -2.143  -1.092  1.00  0.00    -0.319 N 
ATOM     16  C   UNL     1      -1.553  -1.934  -0.307  1.00  0.00     0.300 C 
ATOM     17  C   UNL     1       0.046  -3.559  -1.017  1.00  0.00     0.300 C 
ATOM     18  H   UNL     1      -0.550  -1.927  -2.063  1.00  0.00     0.349 HD
ATOM     19  C   UNL     1      -1.667  -3.165   0.549  1.00  0.00     0.015 A 
ATOM     20  C   UNL     1      -0.696  -4.086   0.162  1.00  0.00     0.015 A 
ATOM     21  C   UNL     1      -2.551  -3.467   1.569  1.00  0.00     0.010 A 
ATOM     22  C   UNL     1      -0.534  -5.300   0.805  1.00  0.00     0.010 A 
ATOM     23  C   UNL     1      -2.409  -4.697   2.224  1.00  0.00     0.001 A 
ATOM     24  C   UNL     1      -1.397  -5.599   1.856  1.00  0.00     0.001 A 
ENDBRANCH  13  15
ENDBRANCH   9  13
ENDBRANCH   5   8
ENDBRANCH   3   4
ENDBRANCH   2   3
ENDBRANCH   1   2
BRANCH   1  25
ATOM     25  C   UNL     1       3.185   5.834   5.176  1.00  0.00     0.002 C 
BRANCH  25  26
ATOM     26  C   UNL     1       2.278   5.492   6.362  1.00  0.00     0.021 C 
BRANCH  26  27
ATOM     27  C   UNL     1       2.999   4.871   7.554  1.00  0.00     0.116 C 
BRANCH  27  28
ATOM     28  N   UNL     1       3.924   5.806   8.170  1.00  0.00    -0.352 N 
ATOM     29  C   UNL     1       4.041   6.175   9.485  1.00  0.00     0.251 C 
ATOM     30  H   UNL     1       4.558   6.239   7.554  1.00  0.00     0.163 HD
ATOM     31  O   UNL     1       4.737   7.136   9.794  1.00  0.00    -0.269 OA
BRANCH  29  32
ATOM     32  C   UNL     1       3.328   5.419  10.539  1.00  0.00     0.039 A 
ATOM     33  C   UNL     1       2.716   6.128  11.575  1.00  0.00     0.014 A 
ATOM     34  C   UNL     1       3.318   4.020  10.543  1.00  0.00     0.014 A 
ATOM     35  C   UNL     1       2.074   5.438  12.605  1.00  0.00     0.010 A 
ATOM     36  C   UNL     1       2.629   3.334  11.541  1.00  0.00     0.010 A 
ATOM     37  C   UNL     1       2.021   4.036  12.592  1.00  0.00    -0.014 A 
BRANCH  37  38
ATOM     38  C   UNL     1       1.379   3.289  13.700  1.00  0.00     0.031 A 
ATOM     39  C   UNL     1       2.219   2.458  14.631  1.00  0.00     0.074 A 
ATOM     40  C   UNL     1       0.041   3.324  13.848  1.00  0.00     0.049 A 
ATOM     41  N   UNL     1       1.844   1.709  15.636  1.00  0.00    -0.248 NA
ATOM     42  C   UNL     1       3.670   2.451  14.384  1.00  0.00     0.031 C 
ATOM     43  C   UNL     1      -0.888   4.063  12.992  1.00  0.00     0.029 A 
ATOM     44  N   UNL     1      -0.768   2.719  14.775  1.00  0.00    -0.354 N 
ATOM     45  C   UNL     1       3.006   1.125  16.125  1.00  0.00     0.074 A 
ATOM     46  C   UNL     1       4.093   1.574  15.283  1.00  0.00     0.031 C 
ATOM     47  C   UNL     1      -2.139   3.887  13.449  1.00  0.00     0.029 A 
ATOM     48  C   UNL     1      -2.100   3.005  14.612  1.00  0.00     0.049 A 
ATOM     49  H   UNL     1      -0.425   2.135  15.490  1.00  0.00     0.167 HD
ATOM     50  C   UNL     1       3.159   0.302  17.189  1.00  0.00     0.031 A 
ATOM     51  C   UNL     1      -3.171   2.606  15.323  1.00  0.00     0.031 A 
ATOM     52  C   UNL     1       2.085  -0.127  18.043  1.00  0.00     0.049 A 
ATOM     53  C   UNL     1      -2.972   1.717  16.518  1.00  0.00     0.074 A 
ATOM     54  C   UNL     1       2.146  -0.920  19.176  1.00  0.00     0.029 A 
ATOM     55  N   UNL     1       0.754   0.211  17.861  1.00  0.00    -0.354 N 
ATOM     56  N   UNL     1      -1.860   1.215  16.998  1.00  0.00    -0.248 NA
ATOM     57  C   UNL     1      -4.176   1.354  17.279  1.00  0.00     0.031 C 
ATOM     58  C   UNL     1       0.844  -1.086  19.663  1.00  0.00     0.029 A 
ATOM     59  C   UNL     1      -0.019  -0.363  18.855  1.00  0.00     0.049 A 
ATOM     60  H   UNL     1       0.409   0.776  17.132  1.00  0.00     0.167 HD
ATOM     61  C   UNL     1      -2.226   0.503  18.132  1.00  0.00     0.074 A 
ATOM     62  C   UNL     1      -3.660   0.646  18.274  1.00  0.00     0.031 C 
ATOM     63  C   UNL     1      -1.443  -0.205  18.982  1.00  0.00     0.031 A 
BRANCH  50  64
ATOM     64  C   UNL     1       4.548  -0.191  17.481  1.00  0.00    -0.014 A 
ATOM     65  C   UNL     1       5.526   0.667  18.009  1.00  0.00     0.009 A 
ATOM     66  C   UNL     1       4.879  -1.533  17.241  1.00  0.00     0.009 A 
ATOM     67  C   UNL     1       6.819   0.200  18.255  1.00  0.00     0.001 A 
ATOM     68  C   UNL     1       6.165  -2.004  17.511  1.00  0.00     0.001 A 
ATOM     69  C   UNL     1       7.136  -1.135  18.008  1.00  0.00     0.000 A 
ENDBRANCH  50  64
BRANCH  51  70
ATOM     70  C   UNL     1      -4.527   3.077  14.948  1.00  0.00    -0.014 A 
ATOM     71  C   UNL     1      -5.177   4.052  15.720  1.00  0.00     0.009 A 
ATOM     72  C   UNL     1      -5.177   2.556  13.819  1.00  0.00     0.009 A 
ATOM     73  C   UNL     1      -6.462   4.479  15.382  1.00  0.00     0.001 A 
ATOM     74  C   UNL     1      -6.454   3.003  13.471  1.00  0.00     0.001 A 
ATOM     75  C   UNL     1      -7.098   3.958  14.256  1.00  0.00     0.000 A 
ENDBRANCH  51  70
BRANCH  63  76
ATOM     76  C   UNL     1      -2.119  -0.844  20.160  1.00  0.00    -0.014 A 
ATOM     77  C   UNL     1      -2.903  -1.997  20.012  1.00  0.00     0.009 A 
ATOM     78  C   UNL     1      -1.940  -0.298  21.441  1.00  0.00     0.009 A 
ATOM     79  C   UNL     1      -3.522  -2.575  21.122  1.00  0.00     0.001 A 
ATOM     80  C   UNL     1      -2.541  -0.892  22.552  1.00  0.00     0.001 A 
ATOM     81  C   UNL     1      -3.338  -2.024  22.390  1.00  0.00     0.000 A 
ENDBRANCH  63  76
ENDBRANCH  37  38
ENDBRANCH  29  32
ENDBRANCH  27  28
ENDBRANCH  26  27
ENDBRANCH  25  26
ENDBRANCH   1  25
TORSDOF 15
