REMARK SMILES CCc1ccc2[nH]c(C(=O)c3cc(C)ccn3)c(CC(=O)NCCCCCCNC(=O)c3ccc(-c4c5nc(c(-c6ccccc6)c6ccc([nH]6)c(-c6ccccc6)c6nc(c(-c7ccccc7)c7ccc4[nH]7)C=C6)C=C5)cc3)c2c1
REMARK SMILES IDX 25 1 24 2 23 3 22 4 20 5 21 6 19 8 18 9 3 10 4 11 81 12 5 13
REMARK SMILES IDX 80 14 6 15 7 16 8 17 2 19 1 20 9 21 10 22 11 23 12 24 17 25
REMARK SMILES IDX 13 26 16 27 14 28 15 29 26 30 27 31 28 32 29 33 30 34 31 36
REMARK SMILES IDX 32 37 33 38 79 39 34 40 78 41 35 42 36 43 37 44 72 45 38 46
REMARK SMILES IDX 77 47 71 48 73 49 39 50 76 51 70 52 69 53 40 55 62 56 47 57
REMARK SMILES IDX 61 58 48 59 51 60 60 61 74 62 49 63 50 64 59 66 75 67 52 68
REMARK SMILES IDX 41 69 42 70 46 71 43 72 45 73 44 74 63 75 64 76 68 77 65 78
REMARK SMILES IDX 67 79 66 80 53 81 54 82 58 83 55 84 57 85 56 86
REMARK H PARENT 22 7 7 18 29 35 73 54 51 65
REMARK Flexibility Score: inf
ROOT
ATOM      1  C   UNL     1       4.671   7.066   2.540  1.00  0.00     0.002 C 
ENDROOT
BRANCH   1   2
ATOM      2  C   UNL     1       3.596   6.251   1.808  1.00  0.00     0.021 C 
BRANCH   2   3
ATOM      3  C   UNL     1       2.288   6.108   2.585  1.00  0.00     0.116 C 
BRANCH   3   4
ATOM      4  N   UNL     1       1.573   7.361   2.678  1.00  0.00    -0.356 N 
ATOM      5  C   UNL     1       0.405   7.749   2.089  1.00  0.00     0.224 C 
ATOM      6  O   UNL     1      -0.082   8.817   2.474  1.00  0.00    -0.275 OA
ATOM      7  H   UNL     1       1.993   8.039   3.256  1.00  0.00     0.163 HD
BRANCH   5   8
ATOM      8  C   UNL     1      -0.345   6.841   1.121  1.00  0.00     0.138 C 
BRANCH   8   9
ATOM      9  C   UNL     1       0.448   6.342  -0.060  1.00  0.00    -0.002 A 
ATOM     10  C   UNL     1       0.939   2.520  -0.198  1.00  0.00    -0.048 A 
ATOM     11  C   UNL     1       1.761   2.542  -1.328  1.00  0.00     0.006 A 
ATOM     12  C   UNL     1       0.426   3.738   0.290  1.00  0.00     0.014 A 
ATOM     13  C   UNL     1       2.083   3.740  -1.981  1.00  0.00     0.027 A 
ATOM     14  C   UNL     1       0.746   4.963  -0.338  1.00  0.00     0.004 A 
ATOM     15  C   UNL     1       1.562   4.928  -1.460  1.00  0.00     0.046 A 
ATOM     16  N   UNL     1       1.721   6.224  -1.880  1.00  0.00    -0.352 N 
ATOM     17  C   UNL     1       0.990   7.098  -1.101  1.00  0.00     0.093 A 
ATOM     18  H   UNL     1       2.285   6.497  -2.640  1.00  0.00     0.167 HD
BRANCH  10  19
ATOM     19  C   UNL     1       0.582   1.258   0.557  1.00  0.00     0.032 C 
ATOM     20  C   UNL     1       1.060  -0.062  -0.033  1.00  0.00     0.009 C 
ENDBRANCH  10  19
BRANCH  17  21
ATOM     21  C   UNL     1       0.866   8.531  -1.349  1.00  0.00     0.227 C 
ATOM     22  O   UNL     1       0.223   9.292  -0.628  1.00  0.00    -0.285 OA
BRANCH  21  23
ATOM     23  C   UNL     1       1.494   9.098  -2.571  1.00  0.00     0.113 A 
ATOM     24  C   UNL     1       1.030   8.710  -3.825  1.00  0.00     0.036 A 
ATOM     25  N   UNL     1       2.528   9.954  -2.377  1.00  0.00    -0.253 NA
ATOM     26  C   UNL     1       1.665   9.227  -4.955  1.00  0.00    -0.047 A 
ATOM     27  C   UNL     1       3.098  10.468  -3.485  1.00  0.00     0.112 A 
ATOM     28  C   UNL     1       1.238   8.830  -6.336  1.00  0.00     0.044 C 
ATOM     29  C   UNL     1       2.713  10.133  -4.775  1.00  0.00     0.023 A 
ENDBRANCH  21  23
ENDBRANCH  17  21
ENDBRANCH   8   9
ENDBRANCH   5   8
ENDBRANCH   3   4
ENDBRANCH   2   3
ENDBRANCH   1   2
BRANCH   1  30
ATOM     30  C   UNL     1       5.054   6.548   3.931  1.00  0.00     0.002 C 
BRANCH  30  31
ATOM     31  C   UNL     1       5.505   5.085   3.981  1.00  0.00     0.021 C 
BRANCH  31  32
ATOM     32  C   UNL     1       6.742   4.771   3.145  1.00  0.00     0.116 C 
BRANCH  32  33
ATOM     33  N   UNL     1       7.920   5.482   3.619  1.00  0.00    -0.352 N 
ATOM     34  C   UNL     1       9.145   4.994   3.996  1.00  0.00     0.251 C 
ATOM     35  H   UNL     1       7.823   6.460   3.678  1.00  0.00     0.163 HD
ATOM     36  O   UNL     1       9.958   5.728   4.553  1.00  0.00    -0.269 OA
BRANCH  34  37
ATOM     37  C   UNL     1       9.487   3.577   3.751  1.00  0.00     0.039 A 
ATOM     38  C   UNL     1      10.108   2.848   4.769  1.00  0.00     0.014 A 
ATOM     39  C   UNL     1       9.212   2.972   2.522  1.00  0.00     0.014 A 
ATOM     40  C   UNL     1      10.388   1.493   4.578  1.00  0.00     0.010 A 
ATOM     41  C   UNL     1       9.431   1.607   2.357  1.00  0.00     0.010 A 
ATOM     42  C   UNL     1      10.017   0.852   3.385  1.00  0.00    -0.014 A 
BRANCH  42  43
ATOM     43  C   UNL     1      10.205  -0.610   3.208  1.00  0.00     0.031 A 
ATOM     44  C   UNL     1      11.142  -1.137   2.158  1.00  0.00     0.074 A 
ATOM     45  C   UNL     1       9.476  -1.465   3.952  1.00  0.00     0.049 A 
ATOM     46  N   UNL     1      11.386  -2.379   1.819  1.00  0.00    -0.248 NA
ATOM     47  C   UNL     1      11.886  -0.142   1.370  1.00  0.00     0.031 C 
ATOM     48  C   UNL     1       8.505  -1.080   4.978  1.00  0.00     0.029 A 
ATOM     49  N   UNL     1       9.434  -2.837   3.952  1.00  0.00    -0.354 N 
ATOM     50  C   UNL     1      12.299  -2.313   0.775  1.00  0.00     0.074 A 
ATOM     51  C   UNL     1      12.531  -0.911   0.504  1.00  0.00     0.031 C 
ATOM     52  C   UNL     1       7.981  -2.189   5.525  1.00  0.00     0.029 A 
ATOM     53  C   UNL     1       8.545  -3.359   4.861  1.00  0.00     0.049 A 
ATOM     54  H   UNL     1       9.987  -3.393   3.358  1.00  0.00     0.167 HD
ATOM     55  C   UNL     1      12.902  -3.328   0.111  1.00  0.00     0.031 A 
ATOM     56  C   UNL     1       8.212  -4.636   5.124  1.00  0.00     0.031 A 
ATOM     57  C   UNL     1      12.675  -4.723   0.383  1.00  0.00     0.049 A 
ATOM     58  C   UNL     1       8.877  -5.743   4.355  1.00  0.00     0.074 A 
ATOM     59  C   UNL     1      13.281  -5.824  -0.199  1.00  0.00     0.029 A 
ATOM     60  N   UNL     1      11.768  -5.210   1.310  1.00  0.00    -0.354 N 
ATOM     61  N   UNL     1       9.788  -5.664   3.416  1.00  0.00    -0.248 NA
ATOM     62  C   UNL     1       8.473  -7.116   4.690  1.00  0.00     0.031 C 
ATOM     63  C   UNL     1      12.700  -6.978   0.337  1.00  0.00     0.029 A 
ATOM     64  C   UNL     1      11.775  -6.595   1.295  1.00  0.00     0.049 A 
ATOM     65  H   UNL     1      11.201  -4.654   1.893  1.00  0.00     0.167 HD
ATOM     66  C   UNL     1      10.085  -6.975   3.067  1.00  0.00     0.074 A 
ATOM     67  C   UNL     1       9.271  -7.828   3.907  1.00  0.00     0.031 C 
ATOM     68  C   UNL     1      10.955  -7.431   2.133  1.00  0.00     0.031 A 
BRANCH  55  69
ATOM     69  C   UNL     1      13.864  -2.966  -0.987  1.00  0.00    -0.014 A 
ATOM     70  C   UNL     1      15.110  -2.386  -0.701  1.00  0.00     0.009 A 
ATOM     71  C   UNL     1      13.538  -3.249  -2.323  1.00  0.00     0.009 A 
ATOM     72  C   UNL     1      15.996  -2.066  -1.733  1.00  0.00     0.001 A 
ATOM     73  C   UNL     1      14.437  -2.956  -3.350  1.00  0.00     0.001 A 
ATOM     74  C   UNL     1      15.661  -2.356  -3.055  1.00  0.00     0.000 A 
ENDBRANCH  55  69
BRANCH  56  75
ATOM     75  C   UNL     1       7.199  -4.942   6.168  1.00  0.00    -0.014 A 
ATOM     76  C   UNL     1       7.580  -5.552   7.373  1.00  0.00     0.009 A 
ATOM     77  C   UNL     1       5.845  -4.636   5.961  1.00  0.00     0.009 A 
ATOM     78  C   UNL     1       6.622  -5.874   8.337  1.00  0.00     0.001 A 
ATOM     79  C   UNL     1       4.893  -4.931   6.939  1.00  0.00     0.001 A 
ATOM     80  C   UNL     1       5.281  -5.560   8.121  1.00  0.00     0.000 A 
ENDBRANCH  56  75
BRANCH  68  81
ATOM     81  C   UNL     1      11.092  -8.922   1.993  1.00  0.00    -0.014 A 
ATOM     82  C   UNL     1      10.074  -9.697   1.416  1.00  0.00     0.009 A 
ATOM     83  C   UNL     1      12.272  -9.554   2.415  1.00  0.00     0.009 A 
ATOM     84  C   UNL     1      10.222 -11.080   1.296  1.00  0.00     0.001 A 
ATOM     85  C   UNL     1      12.430 -10.932   2.267  1.00  0.00     0.001 A 
ATOM     86  C   UNL     1      11.401 -11.695   1.717  1.00  0.00     0.000 A 
ENDBRANCH  68  81
ENDBRANCH  42  43
ENDBRANCH  34  37
ENDBRANCH  32  33
ENDBRANCH  31  32
ENDBRANCH  30  31
ENDBRANCH   1  30
TORSDOF 17
