REMARK SMILES COc1ccc(OC)c(N2C(=O)c3ccc(C(=O)NCCCCCCNC(=O)c4ccc(-c5c6nc(c(-c7ccccc7)c7ccc([nH]7)c(-c7ccccc7)c7nc(c(-c8ccccc8)c8ccc5[nH]8)C=C7)C=C6)cc4)cc3C2=O)c1
REMARK SMILES IDX 22 1 21 2 20 3 19 4 17 5 18 6 16 8 10 9 11 10 79 11 12 12
REMARK SMILES IDX 13 13 78 14 80 15 14 16 77 17 15 18 9 19 3 20 4 21 81 22
REMARK SMILES IDX 5 23 6 24 2 25 1 26 7 27 8 28 23 29 24 30 25 31 26 32 27 33
REMARK SMILES IDX 28 35 29 36 30 37 76 38 31 39 75 40 32 41 33 42 34 43 69 44
REMARK SMILES IDX 35 45 74 46 68 47 70 48 36 49 73 50 67 51 66 52 37 54 59 55
REMARK SMILES IDX 44 56 58 57 45 58 48 59 57 60 71 61 46 62 47 63 56 65 72 66
REMARK SMILES IDX 49 67 38 68 39 69 43 70 40 71 42 72 41 73 60 74 61 75 65 76
REMARK SMILES IDX 62 77 64 78 63 79 50 80 51 81 55 82 52 83 54 84 53 85
REMARK H PARENT 19 7 26 34 70 53 48 64
REMARK Flexibility Score: inf
ROOT
ATOM      1  C   UNL     1      11.496   2.548  -7.735  1.00  0.00     0.002 C 
ENDROOT
BRANCH   1   2
ATOM      2  C   UNL     1      10.113   2.477  -7.077  1.00  0.00     0.021 C 
BRANCH   2   3
ATOM      3  C   UNL     1       9.547   1.078  -6.835  1.00  0.00     0.116 C 
BRANCH   3   4
ATOM      4  N   UNL     1      10.380   0.288  -5.951  1.00  0.00    -0.352 N 
ATOM      5  C   UNL     1      10.129  -0.413  -4.804  1.00  0.00     0.251 C 
ATOM      6  O   UNL     1      11.094  -0.900  -4.215  1.00  0.00    -0.269 OA
ATOM      7  H   UNL     1      11.322   0.247  -6.234  1.00  0.00     0.163 HD
BRANCH   5   8
ATOM      8  C   UNL     1       8.774  -0.608  -4.219  1.00  0.00     0.040 A 
ATOM      9  N   UNL     1       4.235  -1.174  -3.619  1.00  0.00    -0.238 N 
ATOM     10  C   UNL     1       5.015  -1.306  -2.492  1.00  0.00     0.266 C 
ATOM     11  C   UNL     1       5.014  -0.876  -4.716  1.00  0.00     0.266 C 
ATOM     12  O   UNL     1       4.731  -1.565  -1.335  1.00  0.00    -0.268 OA
ATOM     13  C   UNL     1       6.392  -1.099  -2.904  1.00  0.00     0.053 A 
ATOM     14  C   UNL     1       6.407  -0.895  -4.265  1.00  0.00     0.054 A 
ATOM     15  O   UNL     1       4.740  -0.475  -5.833  1.00  0.00    -0.268 OA
ATOM     16  C   UNL     1       7.537  -1.071  -2.141  1.00  0.00     0.015 A 
ATOM     17  C   UNL     1       7.587  -0.679  -4.963  1.00  0.00     0.028 A 
ATOM     18  C   UNL     1       8.732  -0.811  -2.812  1.00  0.00     0.015 A 
BRANCH   9  19
ATOM     19  C   UNL     1       2.815  -1.251  -3.581  1.00  0.00     0.098 A 
ATOM     20  C   UNL     1       0.772  -0.954  -2.255  1.00  0.00     0.121 A 
ATOM     21  C   UNL     1       0.029  -1.521  -3.288  1.00  0.00     0.050 A 
ATOM     22  C   UNL     1       2.149  -0.809  -2.419  1.00  0.00     0.077 A 
ATOM     23  C   UNL     1       0.657  -1.939  -4.467  1.00  0.00     0.052 A 
ATOM     24  C   UNL     1       2.045  -1.805  -4.616  1.00  0.00     0.143 A 
BRANCH  20  25
ATOM     25  O   UNL     1       0.069  -0.618  -1.131  1.00  0.00    -0.497 OA
ATOM     26  C   UNL     1       0.769   0.109  -0.123  1.00  0.00     0.278 C 
ENDBRANCH  20  25
BRANCH  24  27
ATOM     27  O   UNL     1       2.656  -2.450  -5.660  1.00  0.00    -0.495 OA
ATOM     28  C   UNL     1       2.491  -1.755  -6.897  1.00  0.00     0.278 C 
ENDBRANCH  24  27
ENDBRANCH   9  19
ENDBRANCH   5   8
ENDBRANCH   3   4
ENDBRANCH   2   3
ENDBRANCH   1   2
BRANCH   1  29
ATOM     29  C   UNL     1      11.649   1.829  -9.078  1.00  0.00     0.002 C 
BRANCH  29  30
ATOM     30  C   UNL     1      10.608   2.171 -10.145  1.00  0.00     0.021 C 
BRANCH  30  31
ATOM     31  C   UNL     1      10.478   3.652 -10.485  1.00  0.00     0.116 C 
BRANCH  31  32
ATOM     32  N   UNL     1      11.675   4.196 -11.104  1.00  0.00    -0.352 N 
ATOM     33  C   UNL     1      11.809   4.897 -12.278  1.00  0.00     0.251 C 
ATOM     34  H   UNL     1      12.512   4.040 -10.609  1.00  0.00     0.163 HD
ATOM     35  O   UNL     1      12.925   5.148 -12.723  1.00  0.00    -0.269 OA
BRANCH  33  36
ATOM     36  C   UNL     1      10.608   5.330 -13.027  1.00  0.00     0.039 A 
ATOM     37  C   UNL     1      10.571   5.137 -14.411  1.00  0.00     0.014 A 
ATOM     38  C   UNL     1       9.528   5.932 -12.376  1.00  0.00     0.014 A 
ATOM     39  C   UNL     1       9.427   5.488 -15.132  1.00  0.00     0.010 A 
ATOM     40  C   UNL     1       8.363   6.220 -13.084  1.00  0.00     0.010 A 
ATOM     41  C   UNL     1       8.301   6.002 -14.469  1.00  0.00    -0.014 A 
BRANCH  41  42
ATOM     42  C   UNL     1       7.048   6.309 -15.205  1.00  0.00     0.031 A 
ATOM     43  C   UNL     1       6.546   7.723 -15.295  1.00  0.00     0.074 A 
ATOM     44  C   UNL     1       6.323   5.304 -15.735  1.00  0.00     0.049 A 
ATOM     45  N   UNL     1       5.443   8.176 -15.837  1.00  0.00    -0.248 NA
ATOM     46  C   UNL     1       7.380   8.763 -14.671  1.00  0.00     0.031 C 
ATOM     47  C   UNL     1       6.676   3.884 -15.681  1.00  0.00     0.029 A 
ATOM     48  N   UNL     1       5.130   5.325 -16.413  1.00  0.00    -0.354 N 
ATOM     49  C   UNL     1       5.444   9.545 -15.606  1.00  0.00     0.074 A 
ATOM     50  C   UNL     1       6.630   9.843 -14.833  1.00  0.00     0.031 C 
ATOM     51  C   UNL     1       5.730   3.173 -16.315  1.00  0.00     0.029 A 
ATOM     52  C   UNL     1       4.688   4.079 -16.786  1.00  0.00     0.049 A 
ATOM     53  H   UNL     1       4.638   6.154 -16.614  1.00  0.00     0.167 HD
ATOM     54  C   UNL     1       4.547  10.476 -16.013  1.00  0.00     0.031 A 
ATOM     55  C   UNL     1       3.564   3.704 -17.427  1.00  0.00     0.031 A 
ATOM     56  C   UNL     1       3.370  10.183 -16.787  1.00  0.00     0.049 A 
ATOM     57  C   UNL     1       2.579   4.753 -17.861  1.00  0.00     0.074 A 
ATOM     58  C   UNL     1       2.432  11.064 -17.298  1.00  0.00     0.029 A 
ATOM     59  N   UNL     1       2.966   8.909 -17.156  1.00  0.00    -0.354 N 
ATOM     60  N   UNL     1       2.631   6.052 -17.697  1.00  0.00    -0.248 NA
ATOM     61  C   UNL     1       1.386   4.283 -18.579  1.00  0.00     0.031 C 
ATOM     62  C   UNL     1       1.433  10.319 -17.933  1.00  0.00     0.029 A 
ATOM     63  C   UNL     1       1.778   8.978 -17.866  1.00  0.00     0.049 A 
ATOM     64  H   UNL     1       3.451   8.079 -16.945  1.00  0.00     0.167 HD
ATOM     65  C   UNL     1       1.492   6.557 -18.310  1.00  0.00     0.074 A 
ATOM     66  C   UNL     1       0.777   5.425 -18.865  1.00  0.00     0.031 C 
ATOM     67  C   UNL     1       1.075   7.843 -18.406  1.00  0.00     0.031 A 
BRANCH  54  68
ATOM     68  C   UNL     1       4.805  11.903 -15.615  1.00  0.00    -0.014 A 
ATOM     69  C   UNL     1       5.867  12.634 -16.172  1.00  0.00     0.009 A 
ATOM     70  C   UNL     1       3.961  12.534 -14.688  1.00  0.00     0.009 A 
ATOM     71  C   UNL     1       6.103  13.953 -15.778  1.00  0.00     0.001 A 
ATOM     72  C   UNL     1       4.181  13.862 -14.318  1.00  0.00     0.001 A 
ATOM     73  C   UNL     1       5.258  14.566 -14.854  1.00  0.00     0.000 A 
ENDBRANCH  54  68
BRANCH  55  74
ATOM     74  C   UNL     1       3.315   2.266 -17.704  1.00  0.00    -0.014 A 
ATOM     75  C   UNL     1       3.402   1.766 -19.012  1.00  0.00     0.009 A 
ATOM     76  C   UNL     1       2.993   1.384 -16.661  1.00  0.00     0.009 A 
ATOM     77  C   UNL     1       3.150   0.417 -19.273  1.00  0.00     0.001 A 
ATOM     78  C   UNL     1       2.769   0.030 -16.920  1.00  0.00     0.001 A 
ATOM     79  C   UNL     1       2.839  -0.450 -18.226  1.00  0.00     0.000 A 
ENDBRANCH  55  74
BRANCH  67  80
ATOM     80  C   UNL     1      -0.199   8.098 -19.161  1.00  0.00    -0.014 A 
ATOM     81  C   UNL     1      -1.447   7.757 -18.619  1.00  0.00     0.009 A 
ATOM     82  C   UNL     1      -0.149   8.726 -20.415  1.00  0.00     0.009 A 
ATOM     83  C   UNL     1      -2.620   8.012 -19.333  1.00  0.00     0.001 A 
ATOM     84  C   UNL     1      -1.325   9.005 -21.114  1.00  0.00     0.001 A 
ATOM     85  C   UNL     1      -2.558   8.640 -20.576  1.00  0.00     0.000 A 
ENDBRANCH  67  80
ENDBRANCH  41  42
ENDBRANCH  33  36
ENDBRANCH  31  32
ENDBRANCH  30  31
ENDBRANCH  29  30
ENDBRANCH   1  29
TORSDOF 16
