REMARK SMILES O=C(NCCCCCCNC(=O)[C@@H]1C[NH2+]CCN1C(=O)N[C@@H]1CCOC1)c1ccc(-c2c3nc(c(-c4ccccc4)c4ccc([nH]4)c(-c4ccccc4)c4nc(c(-c5ccccc5)c5ccc2[nH]5)C=C4)C=C3)cc1
REMARK SMILES IDX 6 1 5 2 4 3 3 4 1 5 2 6 27 8 28 9 74 10 29 11 73 12 30 13
REMARK SMILES IDX 31 14 32 15 67 16 33 17 72 18 66 19 68 20 34 21 71 22 65 23
REMARK SMILES IDX 64 24 35 26 57 27 42 28 56 29 43 30 46 31 55 32 69 33 44 34
REMARK SMILES IDX 45 35 54 37 70 38 47 39 36 40 37 41 41 42 38 43 40 44 39 45
REMARK SMILES IDX 58 46 59 47 63 48 60 49 62 50 61 51 48 52 49 53 53 54 50 55
REMARK SMILES IDX 52 56 51 57 7 58 8 59 9 60 10 61 11 62 12 64 13 65 14 66
REMARK SMILES IDX 18 67 15 68 17 69 16 70 19 73 20 74 21 75 22 77 23 78 26 79
REMARK SMILES IDX 24 80 25 81
REMARK H PARENT 3 7 68 25 46 36 10 63 15 71 15 72 21 76
REMARK Flexibility Score: inf
ROOT
ATOM      1  C   UNL     1       4.447  -0.996  -3.724  1.00  0.00     0.002 C 
ENDROOT
BRANCH   1   2
ATOM      2  C   UNL     1       4.704  -1.368  -2.266  1.00  0.00     0.021 C 
BRANCH   2   3
ATOM      3  C   UNL     1       4.424  -0.251  -1.274  1.00  0.00     0.116 C 
BRANCH   3   4
ATOM      4  N   UNL     1       3.006  -0.007  -1.099  1.00  0.00    -0.352 N 
ATOM      5  O   UNL     1       1.061   0.055   0.052  1.00  0.00    -0.269 OA
ATOM      6  C   UNL     1       2.286  -0.015   0.069  1.00  0.00     0.251 C 
ATOM      7  H   UNL     1       2.497   0.188  -1.919  1.00  0.00     0.163 HD
BRANCH   6   8
ATOM      8  C   UNL     1       3.006  -0.145   1.354  1.00  0.00     0.039 A 
ATOM      9  C   UNL     1       4.144   0.625   1.611  1.00  0.00     0.014 A 
ATOM     10  C   UNL     1       2.556  -1.074   2.294  1.00  0.00     0.014 A 
ATOM     11  C   UNL     1       4.912   0.362   2.737  1.00  0.00     0.010 A 
ATOM     12  C   UNL     1       3.275  -1.262   3.478  1.00  0.00     0.010 A 
ATOM     13  C   UNL     1       4.473  -0.564   3.697  1.00  0.00    -0.014 A 
BRANCH  13  14
ATOM     14  C   UNL     1       5.239  -0.719   4.959  1.00  0.00     0.031 A 
ATOM     15  C   UNL     1       5.891  -2.021   5.329  1.00  0.00     0.074 A 
ATOM     16  C   UNL     1       5.358   0.352   5.769  1.00  0.00     0.049 A 
ATOM     17  N   UNL     1       6.601  -2.311   6.392  1.00  0.00    -0.248 NA
ATOM     18  C   UNL     1       5.724  -3.146   4.396  1.00  0.00     0.031 C 
ATOM     19  C   UNL     1       4.767   1.670   5.517  1.00  0.00     0.029 A 
ATOM     20  N   UNL     1       6.028   0.511   6.954  1.00  0.00    -0.354 N 
ATOM     21  C   UNL     1       6.952  -3.648   6.263  1.00  0.00     0.074 A 
ATOM     22  C   UNL     1       6.353  -4.124   5.034  1.00  0.00     0.031 C 
ATOM     23  C   UNL     1       5.143   2.514   6.487  1.00  0.00     0.029 A 
ATOM     24  C   UNL     1       5.935   1.782   7.467  1.00  0.00     0.049 A 
ATOM     25  H   UNL     1       6.526  -0.214   7.394  1.00  0.00     0.167 HD
ATOM     26  C   UNL     1       7.710  -4.408   7.092  1.00  0.00     0.031 A 
ATOM     27  C   UNL     1       6.412   2.301   8.612  1.00  0.00     0.031 A 
ATOM     28  C   UNL     1       8.293  -3.934   8.322  1.00  0.00     0.049 A 
ATOM     29  C   UNL     1       7.198   1.419   9.536  1.00  0.00     0.074 A 
ATOM     30  C   UNL     1       9.089  -4.623   9.221  1.00  0.00     0.029 A 
ATOM     31  N   UNL     1       8.136  -2.653   8.829  1.00  0.00    -0.354 N 
ATOM     32  N   UNL     1       7.547   0.166   9.383  1.00  0.00    -0.248 NA
ATOM     33  C   UNL     1       7.655   2.027  10.792  1.00  0.00     0.031 C 
ATOM     34  C   UNL     1       9.367  -3.776  10.299  1.00  0.00     0.029 A 
ATOM     35  C   UNL     1       8.799  -2.539  10.041  1.00  0.00     0.049 A 
ATOM     36  H   UNL     1       7.629  -1.930   8.393  1.00  0.00     0.167 HD
ATOM     37  C   UNL     1       8.284  -0.161  10.512  1.00  0.00     0.074 A 
ATOM     38  C   UNL     1       8.351   1.035  11.328  1.00  0.00     0.031 C 
ATOM     39  C   UNL     1       8.853  -1.345  10.844  1.00  0.00     0.031 A 
BRANCH  26  40
ATOM     40  C   UNL     1       7.932  -5.847   6.711  1.00  0.00    -0.014 A 
ATOM     41  C   UNL     1       8.757  -6.197   5.630  1.00  0.00     0.009 A 
ATOM     42  C   UNL     1       7.350  -6.871   7.476  1.00  0.00     0.009 A 
ATOM     43  C   UNL     1       8.967  -7.539   5.304  1.00  0.00     0.001 A 
ATOM     44  C   UNL     1       7.585  -8.212   7.166  1.00  0.00     0.001 A 
ATOM     45  C   UNL     1       8.386  -8.545   6.075  1.00  0.00     0.000 A 
ENDBRANCH  26  40
BRANCH  27  46
ATOM     46  C   UNL     1       6.137   3.720   8.955  1.00  0.00    -0.014 A 
ATOM     47  C   UNL     1       7.175   4.663   8.990  1.00  0.00     0.009 A 
ATOM     48  C   UNL     1       4.829   4.139   9.250  1.00  0.00     0.009 A 
ATOM     49  C   UNL     1       6.912   5.989   9.341  1.00  0.00     0.001 A 
ATOM     50  C   UNL     1       4.565   5.472   9.566  1.00  0.00     0.001 A 
ATOM     51  C   UNL     1       5.608   6.393   9.623  1.00  0.00     0.000 A 
ENDBRANCH  27  46
BRANCH  39  52
ATOM     52  C   UNL     1       9.629  -1.389  12.130  1.00  0.00    -0.014 A 
ATOM     53  C   UNL     1       8.984  -1.337  13.376  1.00  0.00     0.009 A 
ATOM     54  C   UNL     1      11.028  -1.501  12.092  1.00  0.00     0.009 A 
ATOM     55  C   UNL     1       9.728  -1.357  14.557  1.00  0.00     0.001 A 
ATOM     56  C   UNL     1      11.766  -1.554  13.275  1.00  0.00     0.001 A 
ATOM     57  C   UNL     1      11.117  -1.470  14.505  1.00  0.00     0.000 A 
ENDBRANCH  39  52
ENDBRANCH  13  14
ENDBRANCH   6   8
ENDBRANCH   3   4
ENDBRANCH   2   3
ENDBRANCH   1   2
BRANCH   1  58
ATOM     58  C   UNL     1       5.123   0.296  -4.189  1.00  0.00     0.002 C 
BRANCH  58  59
ATOM     59  C   UNL     1       6.592   0.435  -3.785  1.00  0.00     0.021 C 
BRANCH  59  60
ATOM     60  C   UNL     1       7.473  -0.706  -4.272  1.00  0.00     0.116 C 
BRANCH  60  61
ATOM     61  N   UNL     1       7.563  -0.828  -5.701  1.00  0.00    -0.354 N 
ATOM     62  C   UNL     1       8.254   0.161  -6.384  1.00  0.00     0.248 C 
ATOM     63  H   UNL     1       7.150  -1.585  -6.177  1.00  0.00     0.163 HD
ATOM     64  O   UNL     1       8.089   1.359  -6.172  1.00  0.00    -0.272 OA
BRANCH  62  65
ATOM     65  C   UNL     1       9.490  -0.377  -7.060  1.00  0.00     0.231 C 
ATOM     66  C   UNL     1      10.374   0.704  -7.710  1.00  0.00     0.296 C 
ATOM     67  N   UNL     1       9.561  -1.671  -7.746  1.00  0.00    -0.302 N 
ATOM     68  N   UNL     1      11.798   0.278  -7.770  1.00  0.00    -0.343 N 
ATOM     69  C   UNL     1      10.975  -2.124  -7.805  1.00  0.00     0.183 C 
ATOM     70  C   UNL     1      11.896  -1.041  -8.422  1.00  0.00     0.282 C 
ATOM     71  H   UNL     1      12.174   0.218  -6.824  1.00  0.00     0.346 HD
ATOM     72  H   UNL     1      12.331   0.961  -8.309  1.00  0.00     0.346 HD
BRANCH  67  73
ATOM     73  C   UNL     1       8.699  -2.341  -8.525  1.00  0.00     0.318 C 
ATOM     74  O   UNL     1       9.065  -3.392  -9.080  1.00  0.00    -0.249 OA
ATOM     75  N   UNL     1       7.432  -2.123  -8.797  1.00  0.00    -0.333 N 
ATOM     76  H   UNL     1       7.239  -2.881  -9.395  1.00  0.00     0.165 HD
BRANCH  75  77
ATOM     77  C   UNL     1       6.109  -1.449  -8.767  1.00  0.00     0.112 C 
ATOM     78  C   UNL     1       5.678  -1.315 -10.231  1.00  0.00     0.056 C 
ATOM     79  C   UNL     1       5.799  -0.027  -8.332  1.00  0.00     0.185 C 
ATOM     80  C   UNL     1       6.216   0.057 -10.594  1.00  0.00     0.162 C 
ATOM     81  O   UNL     1       6.147   0.850  -9.406  1.00  0.00    -0.379 OA
ENDBRANCH  75  77
ENDBRANCH  67  73
ENDBRANCH  62  65
ENDBRANCH  60  61
ENDBRANCH  59  60
ENDBRANCH  58  59
ENDBRANCH   1  58
TORSDOF 15
