REMARK SMILES COc1ccc(/C=N/NC(=O)c2cc(C)nc3ccccc23)c(C(=O)NCCCCCCNC(=O)c2ccc(-c3c4nc(c(-c5ccccc5)c5ccc([nH]5)c(-c5ccccc5)c5nc(c(-c6ccccc6)c6ccc3[nH]6)C=C5)C=C4)cc2)c1OC
REMARK SMILES IDX 29 1 28 2 27 3 26 4 24 5 25 6 23 8 3 9 4 10 84 11 5 12 6 13
REMARK SMILES IDX 2 14 1 15 85 16 86 17 7 18 8 19 9 20 10 21 11 23 12 24 13 25
REMARK SMILES IDX 22 26 14 27 17 28 21 29 15 30 16 31 18 32 20 33 19 34 30 35
REMARK SMILES IDX 31 36 32 37 33 38 34 39 35 41 36 42 37 43 83 44 38 45 82 46
REMARK SMILES IDX 39 47 40 48 41 49 76 50 42 51 81 52 75 53 77 54 43 55 80 56
REMARK SMILES IDX 74 57 73 58 44 60 66 61 51 62 65 63 52 64 55 65 64 66 78 67
REMARK SMILES IDX 53 68 54 69 63 71 79 72 56 73 45 74 46 75 50 76 47 77 49 78
REMARK SMILES IDX 48 79 67 80 68 81 72 82 69 83 71 84 70 85 57 86 58 87 62 88
REMARK SMILES IDX 59 89 61 90 60 91
REMARK H PARENT 26 7 9 22 33 40 77 59 55 70
REMARK Flexibility Score: inf
ROOT
ATOM      1  C   UNL     1       6.892   1.019  -0.094  1.00  0.00     0.002 C 
ENDROOT
BRANCH   1   2
ATOM      2  C   UNL     1       5.458   1.148  -0.391  1.00  0.00     0.021 C 
BRANCH   2   3
ATOM      3  C   UNL     1       4.901   1.641   0.917  1.00  0.00     0.116 C 
BRANCH   3   4
ATOM      4  N   UNL     1       5.069   2.729   1.767  1.00  0.00    -0.352 N 
ATOM      5  C   UNL     1       4.139   3.767   1.817  1.00  0.00     0.255 C 
ATOM      6  O   UNL     1       4.654   4.847   2.095  1.00  0.00    -0.269 OA
ATOM      7  H   UNL     1       5.864   2.767   2.347  1.00  0.00     0.163 HD
BRANCH   5   8
ATOM      8  C   UNL     1       2.654   3.640   1.363  1.00  0.00     0.094 A 
ATOM      9  C   UNL     1       0.784   2.307   0.276  1.00  0.00     0.161 A 
ATOM     10  C   UNL     1      -0.031   3.417   0.479  1.00  0.00     0.051 A 
ATOM     11  C   UNL     1       2.073   2.414   0.827  1.00  0.00     0.174 A 
ATOM     12  C   UNL     1       0.483   4.633   0.998  1.00  0.00     0.015 A 
ATOM     13  C   UNL     1       1.811   4.761   1.454  1.00  0.00     0.011 A 
BRANCH   9  14
ATOM     14  O   UNL     1       0.263   1.281  -0.492  1.00  0.00    -0.493 OA
ATOM     15  C   UNL     1       0.408  -0.116  -0.209  1.00  0.00     0.278 C 
ENDBRANCH   9  14
BRANCH  11  16
ATOM     16  O   UNL     1       2.653   1.266   1.304  1.00  0.00    -0.492 OA
ATOM     17  C   UNL     1       2.843   0.214   0.398  1.00  0.00     0.278 C 
ENDBRANCH  11  16
BRANCH  13  18
ATOM     18  C   UNL     1       2.189   6.033   2.160  1.00  0.00     0.142 C 
ATOM     19  N   UNL     1       1.361   7.018   2.318  1.00  0.00    -0.180 NA
BRANCH  19  20
ATOM     20  N   UNL     1       1.775   8.136   2.994  1.00  0.00    -0.243 N 
ATOM     21  C   UNL     1       2.928   8.532   3.579  1.00  0.00     0.272 C 
ATOM     22  H   UNL     1       1.063   8.811   3.074  1.00  0.00     0.194 HD
ATOM     23  O   UNL     1       2.401   9.683   3.860  1.00  0.00    -0.267 OA
BRANCH  21  24
ATOM     24  C   UNL     1       4.085   9.040   4.230  1.00  0.00     0.052 A 
ATOM     25  C   UNL     1       5.234   7.928   4.058  1.00  0.00     0.038 A 
ATOM     26  C   UNL     1       4.436  10.615   5.111  1.00  0.00     0.013 A 
ATOM     27  C   UNL     1       6.369   8.306   4.580  1.00  0.00     0.039 A 
ATOM     28  C   UNL     1       5.733  10.500   5.373  1.00  0.00     0.071 A 
ATOM     29  C   UNL     1       4.566  12.102   5.880  1.00  0.00     0.011 A 
ATOM     30  C   UNL     1       7.697   8.231   5.024  1.00  0.00     0.067 C 
ATOM     31  N   UNL     1       5.883   9.391   4.901  1.00  0.00    -0.253 NA
ATOM     32  C   UNL     1       6.893  10.971   5.972  1.00  0.00     0.029 A 
ATOM     33  C   UNL     1       5.765  12.703   6.671  1.00  0.00     0.001 A 
ATOM     34  C   UNL     1       6.908  11.990   6.814  1.00  0.00     0.002 A 
ENDBRANCH  21  24
ENDBRANCH  19  20
ENDBRANCH  13  18
ENDBRANCH   5   8
ENDBRANCH   3   4
ENDBRANCH   2   3
ENDBRANCH   1   2
BRANCH   1  35
ATOM     35  C   UNL     1       7.093  -0.097   0.936  1.00  0.00     0.002 C 
BRANCH  35  36
ATOM     36  C   UNL     1       6.567  -1.424   0.420  1.00  0.00     0.021 C 
BRANCH  36  37
ATOM     37  C   UNL     1       7.239  -1.753  -0.883  1.00  0.00     0.116 C 
BRANCH  37  38
ATOM     38  N   UNL     1       8.666  -1.938  -0.713  1.00  0.00    -0.352 N 
ATOM     39  C   UNL     1       9.369  -3.101  -0.912  1.00  0.00     0.251 C 
ATOM     40  H   UNL     1       9.183  -1.152  -0.425  1.00  0.00     0.163 HD
ATOM     41  O   UNL     1      10.564  -3.175  -0.659  1.00  0.00    -0.269 OA
BRANCH  39  42
ATOM     42  C   UNL     1       8.649  -4.254  -1.503  1.00  0.00     0.039 A 
ATOM     43  C   UNL     1       8.808  -5.553  -1.025  1.00  0.00     0.014 A 
ATOM     44  C   UNL     1       7.831  -4.023  -2.614  1.00  0.00     0.014 A 
ATOM     45  C   UNL     1       8.189  -6.606  -1.707  1.00  0.00     0.010 A 
ATOM     46  C   UNL     1       7.072  -5.041  -3.160  1.00  0.00     0.010 A 
ATOM     47  C   UNL     1       7.243  -6.349  -2.709  1.00  0.00    -0.014 A 
BRANCH  47  48
ATOM     48  C   UNL     1       6.429  -7.432  -3.304  1.00  0.00     0.031 A 
ATOM     49  C   UNL     1       6.531  -7.696  -4.764  1.00  0.00     0.074 A 
ATOM     50  C   UNL     1       5.561  -8.143  -2.553  1.00  0.00     0.049 A 
ATOM     51  N   UNL     1       5.868  -8.581  -5.454  1.00  0.00    -0.248 NA
ATOM     52  C   UNL     1       7.480  -6.889  -5.550  1.00  0.00     0.031 C 
ATOM     53  C   UNL     1       5.381  -7.971  -1.114  1.00  0.00     0.029 A 
ATOM     54  N   UNL     1       4.669  -9.143  -2.877  1.00  0.00    -0.354 N 
ATOM     55  C   UNL     1       6.328  -8.453  -6.747  1.00  0.00     0.074 A 
ATOM     56  C   UNL     1       7.294  -7.376  -6.767  1.00  0.00     0.031 C 
ATOM     57  C   UNL     1       4.459  -8.838  -0.676  1.00  0.00     0.029 A 
ATOM     58  C   UNL     1       3.954  -9.616  -1.799  1.00  0.00     0.049 A 
ATOM     59  H   UNL     1       4.553  -9.486  -3.792  1.00  0.00     0.167 HD
ATOM     60  C   UNL     1       5.964  -9.193  -7.811  1.00  0.00     0.031 A 
ATOM     61  C   UNL     1       2.995 -10.558  -1.694  1.00  0.00     0.031 A 
ATOM     62  C   UNL     1       4.976 -10.218  -7.776  1.00  0.00     0.049 A 
ATOM     63  C   UNL     1       2.528 -11.284  -2.916  1.00  0.00     0.074 A 
ATOM     64  C   UNL     1       4.567 -10.989  -8.844  1.00  0.00     0.029 A 
ATOM     65  N   UNL     1       4.242 -10.607  -6.672  1.00  0.00    -0.354 N 
ATOM     66  N   UNL     1       2.992 -11.153  -4.129  1.00  0.00    -0.248 NA
ATOM     67  C   UNL     1       1.428 -12.260  -2.791  1.00  0.00     0.031 C 
ATOM     68  C   UNL     1       3.559 -11.820  -8.409  1.00  0.00     0.029 A 
ATOM     69  C   UNL     1       3.359 -11.594  -7.062  1.00  0.00     0.049 A 
ATOM     70  H   UNL     1       4.333 -10.243  -5.762  1.00  0.00     0.167 HD
ATOM     71  C   UNL     1       2.272 -12.042  -4.902  1.00  0.00     0.074 A 
ATOM     72  C   UNL     1       1.337 -12.720  -4.032  1.00  0.00     0.031 C 
ATOM     73  C   UNL     1       2.415 -12.264  -6.224  1.00  0.00     0.031 A 
BRANCH  60  74
ATOM     74  C   UNL     1       6.591  -8.888  -9.127  1.00  0.00    -0.014 A 
ATOM     75  C   UNL     1       7.961  -9.055  -9.334  1.00  0.00     0.009 A 
ATOM     76  C   UNL     1       5.778  -8.458 -10.187  1.00  0.00     0.009 A 
ATOM     77  C   UNL     1       8.527  -8.622 -10.528  1.00  0.00     0.001 A 
ATOM     78  C   UNL     1       6.333  -8.152 -11.422  1.00  0.00     0.001 A 
ATOM     79  C   UNL     1       7.710  -8.234 -11.590  1.00  0.00     0.000 A 
ENDBRANCH  60  74
BRANCH  61  80
ATOM     80  C   UNL     1       2.353 -10.833  -0.388  1.00  0.00    -0.014 A 
ATOM     81  C   UNL     1       2.345 -12.121   0.159  1.00  0.00     0.009 A 
ATOM     82  C   UNL     1       1.647  -9.810   0.263  1.00  0.00     0.009 A 
ATOM     83  C   UNL     1       1.522 -12.403   1.248  1.00  0.00     0.001 A 
ATOM     84  C   UNL     1       0.932 -10.071   1.426  1.00  0.00     0.001 A 
ATOM     85  C   UNL     1       0.873 -11.370   1.919  1.00  0.00     0.000 A 
ENDBRANCH  61  80
BRANCH  73  86
ATOM     86  C   UNL     1       1.611 -13.349  -6.855  1.00  0.00    -0.014 A 
ATOM     87  C   UNL     1       0.220 -13.299  -6.955  1.00  0.00     0.009 A 
ATOM     88  C   UNL     1       2.304 -14.438  -7.410  1.00  0.00     0.009 A 
ATOM     89  C   UNL     1      -0.465 -14.403  -7.456  1.00  0.00     0.001 A 
ATOM     90  C   UNL     1       1.622 -15.474  -8.028  1.00  0.00     0.001 A 
ATOM     91  C   UNL     1       0.234 -15.456  -8.049  1.00  0.00     0.000 A 
ENDBRANCH  73  86
ENDBRANCH  47  48
ENDBRANCH  39  42
ENDBRANCH  37  38
ENDBRANCH  36  37
ENDBRANCH  35  36
ENDBRANCH   1  35
TORSDOF 18
