REMARK SMILES O=C(NCCCCCCNC(=O)[C@H]1CC2=c3ccccc3=N[C@H]2[C@H](c2ccccc2F)[NH2+]1)c1ccc(-c2c3nc(c(-c4ccccc4)c4ccc([nH]4)c(-c4ccccc4)c4nc(c(-c5ccccc5)c5ccc2[nH]5)C=C4)C=C3)cc1
REMARK SMILES IDX 6 1 5 2 4 3 3 4 1 5 2 6 33 8 34 9 80 10 35 11 79 12 36 13
REMARK SMILES IDX 37 14 38 15 73 16 39 17 78 18 72 19 74 20 40 21 77 22 71 23
REMARK SMILES IDX 70 24 41 26 63 27 48 28 62 29 49 30 52 31 61 32 75 33 50 34
REMARK SMILES IDX 51 35 60 37 76 38 53 39 42 40 43 41 47 42 44 43 46 44 45 45
REMARK SMILES IDX 64 46 65 47 69 48 66 49 68 50 67 51 54 52 55 53 59 54 56 55
REMARK SMILES IDX 58 56 57 57 7 58 8 59 9 60 10 61 11 62 12 64 13 65 14 66
REMARK SMILES IDX 32 67 15 68 24 69 16 72 23 73 17 74 21 75 22 76 18 77 20 78
REMARK SMILES IDX 19 79 25 80 26 81 30 82 27 83 29 84 31 85 28 86
REMARK H PARENT 3 7 74 25 52 36 10 63 32 70 32 71
REMARK Flexibility Score: inf
ROOT
ATOM      1  C   UNL     1       4.157   1.302  -3.653  1.00  0.00     0.002 C 
ENDROOT
BRANCH   1   2
ATOM      2  C   UNL     1       4.655   0.255  -2.655  1.00  0.00     0.021 C 
BRANCH   2   3
ATOM      3  C   UNL     1       4.396   0.579  -1.188  1.00  0.00     0.116 C 
BRANCH   3   4
ATOM      4  N   UNL     1       2.981   0.648  -0.869  1.00  0.00    -0.352 N 
ATOM      5  O   UNL     1       1.044   0.061   0.116  1.00  0.00    -0.269 OA
ATOM      6  C   UNL     1       2.266  -0.007   0.105  1.00  0.00     0.251 C 
ATOM      7  H   UNL     1       2.454   1.256  -1.436  1.00  0.00     0.163 HD
BRANCH   6   8
ATOM      8  C   UNL     1       2.966  -0.811   1.134  1.00  0.00     0.039 A 
ATOM      9  C   UNL     1       2.402  -2.027   1.531  1.00  0.00     0.014 A 
ATOM     10  C   UNL     1       4.146  -0.364   1.734  1.00  0.00     0.014 A 
ATOM     11  C   UNL     1       3.037  -2.801   2.504  1.00  0.00     0.010 A 
ATOM     12  C   UNL     1       4.829  -1.183   2.629  1.00  0.00     0.010 A 
ATOM     13  C   UNL     1       4.267  -2.396   3.049  1.00  0.00    -0.014 A 
BRANCH  13  14
ATOM     14  C   UNL     1       4.942  -3.208   4.095  1.00  0.00     0.031 A 
ATOM     15  C   UNL     1       5.164  -2.639   5.471  1.00  0.00     0.074 A 
ATOM     16  C   UNL     1       5.366  -4.454   3.809  1.00  0.00     0.049 A 
ATOM     17  N   UNL     1       5.714  -3.203   6.518  1.00  0.00    -0.248 NA
ATOM     18  C   UNL     1       4.735  -1.249   5.700  1.00  0.00     0.031 C 
ATOM     19  C   UNL     1       5.249  -5.105   2.503  1.00  0.00     0.029 A 
ATOM     20  N   UNL     1       5.966  -5.401   4.602  1.00  0.00    -0.354 N 
ATOM     21  C   UNL     1       5.695  -2.240   7.519  1.00  0.00     0.074 A 
ATOM     22  C   UNL     1       5.159  -1.032   6.935  1.00  0.00     0.031 C 
ATOM     23  C   UNL     1       5.713  -6.361   2.598  1.00  0.00     0.029 A 
ATOM     24  C   UNL     1       6.198  -6.591   3.956  1.00  0.00     0.049 A 
ATOM     25  H   UNL     1       6.207  -5.242   5.543  1.00  0.00     0.167 HD
ATOM     26  C   UNL     1       6.050  -2.359   8.820  1.00  0.00     0.031 A 
ATOM     27  C   UNL     1       6.729  -7.745   4.405  1.00  0.00     0.031 A 
ATOM     28  C   UNL     1       6.575  -3.565   9.403  1.00  0.00     0.049 A 
ATOM     29  C   UNL     1       7.135  -7.854   5.848  1.00  0.00     0.074 A 
ATOM     30  C   UNL     1       6.935  -3.796  10.719  1.00  0.00     0.029 A 
ATOM     31  N   UNL     1       6.813  -4.742   8.709  1.00  0.00    -0.354 N 
ATOM     32  N   UNL     1       7.058  -6.951   6.797  1.00  0.00    -0.248 NA
ATOM     33  C   UNL     1       7.682  -9.145   6.290  1.00  0.00     0.031 C 
ATOM     34  C   UNL     1       7.453  -5.090  10.807  1.00  0.00     0.029 A 
ATOM     35  C   UNL     1       7.340  -5.695   9.565  1.00  0.00     0.049 A 
ATOM     36  H   UNL     1       6.633  -4.880   7.751  1.00  0.00     0.167 HD
ATOM     37  C   UNL     1       7.535  -7.565   7.948  1.00  0.00     0.074 A 
ATOM     38  C   UNL     1       7.867  -8.929   7.586  1.00  0.00     0.031 C 
ATOM     39  C   UNL     1       7.689  -7.044   9.191  1.00  0.00     0.031 A 
BRANCH  26  40
ATOM     40  C   UNL     1       5.861  -1.159   9.710  1.00  0.00    -0.014 A 
ATOM     41  C   UNL     1       6.972  -0.535  10.299  1.00  0.00     0.009 A 
ATOM     42  C   UNL     1       4.576  -0.683  10.021  1.00  0.00     0.009 A 
ATOM     43  C   UNL     1       6.800   0.530  11.186  1.00  0.00     0.001 A 
ATOM     44  C   UNL     1       4.409   0.406  10.878  1.00  0.00     0.001 A 
ATOM     45  C   UNL     1       5.520   1.005  11.469  1.00  0.00     0.000 A 
ENDBRANCH  26  40
BRANCH  27  46
ATOM     46  C   UNL     1       6.851  -8.897   3.470  1.00  0.00    -0.014 A 
ATOM     47  C   UNL     1       7.739  -8.844   2.383  1.00  0.00     0.009 A 
ATOM     48  C   UNL     1       6.022 -10.020   3.610  1.00  0.00     0.009 A 
ATOM     49  C   UNL     1       7.768  -9.871   1.437  1.00  0.00     0.001 A 
ATOM     50  C   UNL     1       6.078 -11.062   2.681  1.00  0.00     0.001 A 
ATOM     51  C   UNL     1       6.939 -10.980   1.588  1.00  0.00     0.000 A 
ENDBRANCH  27  46
BRANCH  39  52
ATOM     52  C   UNL     1       8.254  -7.938  10.263  1.00  0.00    -0.014 A 
ATOM     53  C   UNL     1       7.464  -8.293  11.369  1.00  0.00     0.009 A 
ATOM     54  C   UNL     1       9.593  -8.356  10.227  1.00  0.00     0.009 A 
ATOM     55  C   UNL     1       8.005  -9.035  12.421  1.00  0.00     0.001 A 
ATOM     56  C   UNL     1      10.121  -9.132  11.262  1.00  0.00     0.001 A 
ATOM     57  C   UNL     1       9.331  -9.461  12.362  1.00  0.00     0.000 A 
ENDBRANCH  39  52
ENDBRANCH  13  14
ENDBRANCH   6   8
ENDBRANCH   3   4
ENDBRANCH   2   3
ENDBRANCH   1   2
BRANCH   1  58
ATOM     58  C   UNL     1       4.630   2.737  -3.401  1.00  0.00     0.002 C 
BRANCH  58  59
ATOM     59  C   UNL     1       6.142   2.910  -3.233  1.00  0.00     0.021 C 
BRANCH  59  60
ATOM     60  C   UNL     1       6.964   2.649  -4.496  1.00  0.00     0.116 C 
BRANCH  60  61
ATOM     61  N   UNL     1       6.890   3.780  -5.400  1.00  0.00    -0.351 N 
ATOM     62  C   UNL     1       7.812   4.488  -6.099  1.00  0.00     0.278 C 
ATOM     63  H   UNL     1       5.971   4.104  -5.536  1.00  0.00     0.163 HD
ATOM     64  O   UNL     1       7.436   5.615  -6.457  1.00  0.00    -0.268 OA
BRANCH  62  65
ATOM     65  C   UNL     1       9.236   4.020  -6.491  1.00  0.00     0.277 C 
ATOM     66  C   UNL     1      10.338   4.940  -5.876  1.00  0.00     0.109 C 
ATOM     67  N   UNL     1       9.460   2.541  -6.453  1.00  0.00    -0.327 N 
ATOM     68  C   UNL     1      10.895   4.274  -4.660  1.00  0.00    -0.024 C 
ATOM     69  C   UNL     1      10.868   2.188  -6.123  1.00  0.00     0.246 C 
ATOM     70  H   UNL     1       9.231   2.151  -7.367  1.00  0.00     0.347 HD
ATOM     71  H   UNL     1       8.864   2.155  -5.721  1.00  0.00     0.347 HD
ATOM     72  C   UNL     1      10.589   4.660  -3.428  1.00  0.00     0.002 A 
ATOM     73  C   UNL     1      11.215   2.808  -4.711  1.00  0.00     0.196 C 
ATOM     74  C   UNL     1      10.128   5.906  -2.914  1.00  0.00     0.010 A 
ATOM     75  C   UNL     1      10.173   3.357  -2.864  1.00  0.00     0.066 A 
ATOM     76  N   UNL     1      10.432   2.271  -3.546  1.00  0.00    -0.270 NA
ATOM     77  C   UNL     1       9.322   5.904  -1.845  1.00  0.00     0.001 A 
ATOM     78  C   UNL     1       9.313   3.447  -1.656  1.00  0.00     0.028 A 
ATOM     79  C   UNL     1       8.905   4.657  -1.228  1.00  0.00     0.002 A 
BRANCH  69  80
ATOM     80  C   UNL     1      11.880   2.626  -7.211  1.00  0.00     0.048 A 
ATOM     81  C   UNL     1      13.242   2.789  -6.892  1.00  0.00     0.013 A 
ATOM     82  C   UNL     1      11.488   3.027  -8.500  1.00  0.00     0.132 A 
ATOM     83  C   UNL     1      14.095   3.531  -7.716  1.00  0.00     0.001 A 
ATOM     84  C   UNL     1      12.324   3.794  -9.311  1.00  0.00     0.040 A 
ATOM     85  F   UNL     1      10.261   2.766  -8.973  1.00  0.00    -0.206 F 
ATOM     86  C   UNL     1      13.618   4.084  -8.899  1.00  0.00     0.003 A 
ENDBRANCH  69  80
ENDBRANCH  62  65
ENDBRANCH  60  61
ENDBRANCH  59  60
ENDBRANCH  58  59
ENDBRANCH   1  58
TORSDOF 14
