REMARK SMILES CC[C@@H]1CCCC[C@@H]1OCC[C@@H]1CCC[C@]1([NH2+]C)C(=O)NCCCCCCNC(=O)c1ccc(-c2c3nc(c(-c4ccccc4)c4ccc([nH]4)c(-c4ccccc4)c4nc(c(-c5ccccc5)c5ccc2[nH]5)C=C4)C=C3)cc1
REMARK SMILES IDX 23 1 22 2 21 3 19 4 20 5 16 7 12 8 13 9 14 10 15 11 11 12
REMARK SMILES IDX 10 13 9 14 8 15 3 16 4 17 5 18 7 19 6 20 2 21 1 22 17 23
REMARK SMILES IDX 18 24 24 27 25 28 26 29 27 30 28 31 29 32 30 34 31 35 32 36
REMARK SMILES IDX 78 37 33 38 77 39 34 40 35 41 36 42 71 43 37 44 76 45 70 46
REMARK SMILES IDX 72 47 38 48 75 49 69 50 68 51 39 53 61 54 46 55 60 56 47 57
REMARK SMILES IDX 50 58 59 59 73 60 48 61 49 62 58 64 74 65 51 66 40 67 41 68
REMARK SMILES IDX 45 69 42 70 44 71 43 72 62 73 63 74 67 75 64 76 66 77 65 78
REMARK SMILES IDX 52 79 53 80 57 81 54 82 56 83 55 84
REMARK H PARENT 21 6 17 25 17 26 28 33 72 52 50 63
REMARK Flexibility Score: inf
ROOT
ATOM      1  C   UNL     1      -3.195   1.304   1.141  1.00  0.00     0.021 C 
ENDROOT
BRANCH   1   2
ATOM      2  C   UNL     1      -1.819   1.855   0.766  1.00  0.00     0.116 C 
BRANCH   2   3
ATOM      3  N   UNL     1      -1.230   2.554   1.885  1.00  0.00    -0.351 N 
ATOM      4  C   UNL     1      -0.108   2.316   2.618  1.00  0.00     0.281 C 
ATOM      5  O   UNL     1       0.111   3.145   3.511  1.00  0.00    -0.268 OA
ATOM      6  H   UNL     1      -1.734   3.350   2.171  1.00  0.00     0.163 HD
BRANCH   4   7
ATOM      7  C   UNL     1       0.870   1.097   2.378  1.00  0.00     0.178 C 
ATOM      8  C   UNL     1       0.428  -0.268   3.013  1.00  0.00     0.063 C 
ATOM      9  C   UNL     1       0.585   0.037   4.516  1.00  0.00     0.011 C 
ATOM     10  C   UNL     1       1.877   0.835   4.622  1.00  0.00     0.008 C 
ATOM     11  C   UNL     1       2.166   1.352   3.213  1.00  0.00     0.079 C 
BRANCH   8  12
ATOM     12  C   UNL     1      -0.935  -0.946   2.768  1.00  0.00     0.039 C 
BRANCH  12  13
ATOM     13  C   UNL     1      -1.304  -1.540   1.397  1.00  0.00     0.161 C 
BRANCH  13  14
ATOM     14  O   UNL     1      -0.831  -2.851   1.095  1.00  0.00    -0.378 OA
BRANCH  14  15
ATOM     15  C   UNL     1       0.548  -2.957   0.749  1.00  0.00     0.121 C 
ATOM     16  C   UNL     1       0.805  -3.214  -0.766  1.00  0.00     0.018 C 
ATOM     17  C   UNL     1       0.467  -4.651  -1.204  1.00  0.00     0.006 C 
ATOM     18  C   UNL     1       1.082  -5.703  -0.296  1.00  0.00     0.000 C 
ATOM     19  C   UNL     1       1.097  -4.098   1.624  1.00  0.00     0.032 C 
ATOM     20  C   UNL     1       0.646  -5.478   1.142  1.00  0.00     0.003 C 
BRANCH  16  21
ATOM     21  C   UNL     1       0.090  -2.261  -1.749  1.00  0.00     0.003 C 
ATOM     22  C   UNL     1       0.583  -0.829  -1.716  1.00  0.00     0.004 C 
ENDBRANCH  16  21
ENDBRANCH  14  15
ENDBRANCH  13  14
ENDBRANCH  12  13
ENDBRANCH   8  12
BRANCH   7  23
ATOM     23  N   UNL     1       1.240   0.968   0.952  1.00  0.00    -0.336 N 
ATOM     24  C   UNL     1       1.844   2.161   0.361  1.00  0.00     0.331 C 
ATOM     25  H   UNL     1       0.395   0.746   0.425  1.00  0.00     0.346 HD
ATOM     26  H   UNL     1       1.949   0.236   0.907  1.00  0.00     0.346 HD
ENDBRANCH   7  23
ENDBRANCH   4   7
ENDBRANCH   2   3
ENDBRANCH   1   2
BRANCH   1  27
ATOM     27  C   UNL     1      -4.340   2.283   0.875  1.00  0.00     0.002 C 
BRANCH  27  28
ATOM     28  C   UNL     1      -4.709   2.431  -0.605  1.00  0.00     0.002 C 
BRANCH  28  29
ATOM     29  C   UNL     1      -5.131   1.139  -1.315  1.00  0.00     0.021 C 
BRANCH  29  30
ATOM     30  C   UNL     1      -6.242   0.347  -0.627  1.00  0.00     0.116 C 
BRANCH  30  31
ATOM     31  N   UNL     1      -7.457   1.129  -0.469  1.00  0.00    -0.352 N 
ATOM     32  C   UNL     1      -8.717   0.914  -0.968  1.00  0.00     0.251 C 
ATOM     33  H   UNL     1      -7.362   1.940   0.081  1.00  0.00     0.163 HD
ATOM     34  O   UNL     1      -9.566   1.796  -0.893  1.00  0.00    -0.269 OA
BRANCH  32  35
ATOM     35  C   UNL     1      -9.056  -0.374  -1.610  1.00  0.00     0.039 A 
ATOM     36  C   UNL     1      -9.787  -0.359  -2.802  1.00  0.00     0.014 A 
ATOM     37  C   UNL     1      -8.693  -1.591  -1.027  1.00  0.00     0.014 A 
ATOM     38  C   UNL     1     -10.102  -1.561  -3.439  1.00  0.00     0.010 A 
ATOM     39  C   UNL     1      -8.952  -2.786  -1.695  1.00  0.00     0.010 A 
ATOM     40  C   UNL     1      -9.661  -2.783  -2.906  1.00  0.00    -0.014 A 
BRANCH  40  41
ATOM     41  C   UNL     1      -9.923  -4.064  -3.609  1.00  0.00     0.031 A 
ATOM     42  C   UNL     1     -10.809  -5.108  -2.988  1.00  0.00     0.074 A 
ATOM     43  C   UNL     1      -9.313  -4.314  -4.784  1.00  0.00     0.049 A 
ATOM     44  N   UNL     1     -11.111  -6.303  -3.429  1.00  0.00    -0.248 NA
ATOM     45  C   UNL     1     -11.420  -4.773  -1.691  1.00  0.00     0.031 C 
ATOM     46  C   UNL     1      -8.401  -3.400  -5.477  1.00  0.00     0.029 A 
ATOM     47  N   UNL     1      -9.362  -5.416  -5.600  1.00  0.00    -0.354 N 
ATOM     48  C   UNL     1     -11.931  -6.867  -2.460  1.00  0.00     0.074 A 
ATOM     49  C   UNL     1     -12.044  -5.902  -1.387  1.00  0.00     0.031 C 
ATOM     50  C   UNL     1      -7.997  -3.970  -6.624  1.00  0.00     0.029 A 
ATOM     51  C   UNL     1      -8.587  -5.301  -6.728  1.00  0.00     0.049 A 
ATOM     52  H   UNL     1      -9.902  -6.214  -5.396  1.00  0.00     0.167 HD
ATOM     53  C   UNL     1     -12.548  -8.073  -2.467  1.00  0.00     0.031 A 
ATOM     54  C   UNL     1      -8.369  -6.170  -7.732  1.00  0.00     0.031 A 
ATOM     55  C   UNL     1     -12.442  -9.032  -3.535  1.00  0.00     0.049 A 
ATOM     56  C   UNL     1      -9.051  -7.509  -7.708  1.00  0.00     0.074 A 
ATOM     57  C   UNL     1     -13.074 -10.258  -3.659  1.00  0.00     0.029 A 
ATOM     58  N   UNL     1     -11.649  -8.876  -4.660  1.00  0.00    -0.354 N 
ATOM     59  N   UNL     1      -9.876  -8.000  -6.817  1.00  0.00    -0.248 NA
ATOM     60  C   UNL     1      -8.777  -8.410  -8.838  1.00  0.00     0.031 C 
ATOM     61  C   UNL     1     -12.624 -10.865  -4.836  1.00  0.00     0.029 A 
ATOM     62  C   UNL     1     -11.755  -9.993  -5.472  1.00  0.00     0.049 A 
ATOM     63  H   UNL     1     -11.092  -8.087  -4.854  1.00  0.00     0.167 HD
ATOM     64  C   UNL     1     -10.241  -9.254  -7.289  1.00  0.00     0.074 A 
ATOM     65  C   UNL     1      -9.560  -9.441  -8.553  1.00  0.00     0.031 C 
ATOM     66  C   UNL     1     -11.069 -10.168  -6.725  1.00  0.00     0.031 A 
BRANCH  53  67
ATOM     67  C   UNL     1     -13.389  -8.427  -1.272  1.00  0.00    -0.014 A 
ATOM     68  C   UNL     1     -14.611  -7.780  -1.024  1.00  0.00     0.009 A 
ATOM     69  C   UNL     1     -12.973  -9.446  -0.401  1.00  0.00     0.009 A 
ATOM     70  C   UNL     1     -15.379  -8.121   0.092  1.00  0.00     0.001 A 
ATOM     71  C   UNL     1     -13.756  -9.804   0.698  1.00  0.00     0.001 A 
ATOM     72  C   UNL     1     -14.953  -9.134   0.949  1.00  0.00     0.000 A 
ENDBRANCH  53  67
BRANCH  54  73
ATOM     73  C   UNL     1      -7.471  -5.797  -8.856  1.00  0.00    -0.014 A 
ATOM     74  C   UNL     1      -7.998  -5.537 -10.130  1.00  0.00     0.009 A 
ATOM     75  C   UNL     1      -6.085  -5.702  -8.662  1.00  0.00     0.009 A 
ATOM     76  C   UNL     1      -7.152  -5.214 -11.194  1.00  0.00     0.001 A 
ATOM     77  C   UNL     1      -5.244  -5.350  -9.721  1.00  0.00     0.001 A 
ATOM     78  C   UNL     1      -5.777  -5.116 -10.987  1.00  0.00     0.000 A 
ENDBRANCH  54  73
BRANCH  66  79
ATOM     79  C   UNL     1     -11.308 -11.440  -7.489  1.00  0.00    -0.014 A 
ATOM     80  C   UNL     1     -10.315 -12.427  -7.590  1.00  0.00     0.009 A 
ATOM     81  C   UNL     1     -12.559 -11.668  -8.084  1.00  0.00     0.009 A 
ATOM     82  C   UNL     1     -10.561 -13.604  -8.301  1.00  0.00     0.001 A 
ATOM     83  C   UNL     1     -12.811 -12.857  -8.769  1.00  0.00     0.001 A 
ATOM     84  C   UNL     1     -11.809 -13.819  -8.885  1.00  0.00     0.000 A 
ENDBRANCH  66  79
ENDBRANCH  40  41
ENDBRANCH  32  35
ENDBRANCH  30  31
ENDBRANCH  29  30
ENDBRANCH  28  29
ENDBRANCH  27  28
ENDBRANCH   1  27
TORSDOF 19
