REMARK SMILES Cc1c(NC(=O)[C@@H]2CC=CC[C@@H]2C(=O)NCCCCCCNC(=O)c2ccc(-c3c4nc(c(-c5ccccc5)c5ccc([nH]5)c(-c5ccccc5)c5nc(c(-c6ccccc6)c6ccc3[nH]6)C=C5)C=C4)cc2)cccc1C(=O)N1CCOCC1
REMARK SMILES IDX 18 1 17 2 16 3 15 4 13 5 14 6 12 8 7 9 8 10 9 11 11 12 10 13
REMARK SMILES IDX 5 14 4 15 6 17 3 18 1 19 2 20 76 21 73 22 75 23 74 24 77 25
REMARK SMILES IDX 78 26 79 27 80 28 84 29 81 30 83 31 82 32 19 33 20 34 21 35
REMARK SMILES IDX 22 36 23 37 24 39 25 40 26 41 72 42 27 43 71 44 28 45 29 46
REMARK SMILES IDX 30 47 65 48 31 49 70 50 64 51 66 52 32 53 69 54 63 55 62 56
REMARK SMILES IDX 33 58 55 59 40 60 54 61 41 62 44 63 53 64 67 65 42 66 43 67
REMARK SMILES IDX 52 69 68 70 45 71 34 72 35 73 39 74 36 75 38 76 37 77 56 78
REMARK SMILES IDX 57 79 61 80 58 81 60 82 59 83 46 84 47 85 51 86 48 87 50 88
REMARK SMILES IDX 49 89
REMARK H PARENT 15 7 4 16 22 38 66 57 44 68
REMARK Flexibility Score: inf
ROOT
ATOM      1  C   UNL     1      -6.095  -5.047   1.794  1.00  0.00     0.002 C 
ENDROOT
BRANCH   1   2
ATOM      2  C   UNL     1      -4.613  -4.660   1.761  1.00  0.00     0.021 C 
BRANCH   2   3
ATOM      3  C   UNL     1      -3.977  -4.628   0.370  1.00  0.00     0.116 C 
BRANCH   3   4
ATOM      4  N   UNL     1      -4.235  -3.382  -0.319  1.00  0.00    -0.356 N 
ATOM      5  C   UNL     1      -3.501  -2.437  -0.946  1.00  0.00     0.224 C 
ATOM      6  O   UNL     1      -4.199  -1.565  -1.491  1.00  0.00    -0.275 OA
ATOM      7  H   UNL     1      -5.195  -3.167  -0.336  1.00  0.00     0.163 HD
BRANCH   5   8
ATOM      8  C   UNL     1      -1.966  -2.364  -1.124  1.00  0.00     0.095 C 
ATOM      9  C   UNL     1      -0.980  -3.213  -0.286  1.00  0.00     0.095 C 
ATOM     10  C   UNL     1      -1.156  -2.889   1.207  1.00  0.00     0.041 C 
ATOM     11  C   UNL     1      -1.112  -1.405   1.453  1.00  0.00    -0.030 C 
ATOM     12  C   UNL     1      -1.535  -0.878  -0.960  1.00  0.00     0.041 C 
ATOM     13  C   UNL     1      -1.256  -0.501   0.472  1.00  0.00    -0.030 C 
BRANCH   9  14
ATOM     14  C   UNL     1      -0.993  -4.665  -0.748  1.00  0.00     0.228 C 
ATOM     15  N   UNL     1      -0.301  -5.671  -0.164  1.00  0.00    -0.326 N 
ATOM     16  H   UNL     1      -0.623  -6.552  -0.462  1.00  0.00     0.169 HD
ATOM     17  O   UNL     1      -1.698  -5.016  -1.704  1.00  0.00    -0.274 OA
BRANCH  15  18
ATOM     18  C   UNL     1       0.754  -5.790   0.756  1.00  0.00     0.044 A 
ATOM     19  C   UNL     1      -0.162  -8.088   1.260  1.00  0.00     0.047 C 
ATOM     20  C   UNL     1       0.933  -7.057   1.383  1.00  0.00    -0.015 A 
ATOM     21  C   UNL     1       2.086  -7.286   2.167  1.00  0.00     0.045 A 
ATOM     22  C   UNL     1       1.655  -4.757   1.012  1.00  0.00     0.026 A 
ATOM     23  C   UNL     1       2.961  -6.217   2.423  1.00  0.00     0.014 A 
ATOM     24  C   UNL     1       2.736  -4.959   1.868  1.00  0.00     0.003 A 
BRANCH  21  25
ATOM     25  C   UNL     1       2.354  -8.536   2.942  1.00  0.00     0.254 C 
ATOM     26  O   UNL     1       2.721  -8.392   4.109  1.00  0.00    -0.269 OA
ATOM     27  N   UNL     1       2.140  -9.799   2.401  1.00  0.00    -0.334 N 
ATOM     28  C   UNL     1       2.255 -10.199   0.993  1.00  0.00     0.148 C 
ATOM     29  C   UNL     1       2.033 -10.929   3.326  1.00  0.00     0.148 C 
ATOM     30  C   UNL     1       1.193 -11.251   0.614  1.00  0.00     0.181 C 
ATOM     31  C   UNL     1       0.898 -11.853   2.883  1.00  0.00     0.181 C 
ATOM     32  O   UNL     1       1.141 -12.337   1.554  1.00  0.00    -0.378 OA
ENDBRANCH  21  25
ENDBRANCH  15  18
ENDBRANCH   9  14
ENDBRANCH   5   8
ENDBRANCH   3   4
ENDBRANCH   2   3
ENDBRANCH   1   2
BRANCH   1  33
ATOM     33  C   UNL     1      -6.472  -6.372   1.113  1.00  0.00     0.002 C 
BRANCH  33  34
ATOM     34  C   UNL     1      -5.581  -7.576   1.427  1.00  0.00     0.021 C 
BRANCH  34  35
ATOM     35  C   UNL     1      -5.635  -8.026   2.878  1.00  0.00     0.116 C 
BRANCH  35  36
ATOM     36  N   UNL     1      -6.762  -8.887   3.199  1.00  0.00    -0.352 N 
ATOM     37  C   UNL     1      -7.204  -9.378   4.419  1.00  0.00     0.251 C 
ATOM     38  H   UNL     1      -7.299  -9.167   2.423  1.00  0.00     0.163 HD
ATOM     39  O   UNL     1      -8.127 -10.166   4.449  1.00  0.00    -0.269 OA
BRANCH  37  40
ATOM     40  C   UNL     1      -6.647  -8.840   5.691  1.00  0.00     0.039 A 
ATOM     41  C   UNL     1      -7.526  -8.675   6.775  1.00  0.00     0.014 A 
ATOM     42  C   UNL     1      -5.356  -8.337   5.774  1.00  0.00     0.014 A 
ATOM     43  C   UNL     1      -7.192  -7.806   7.813  1.00  0.00     0.010 A 
ATOM     44  C   UNL     1      -5.070  -7.388   6.728  1.00  0.00     0.010 A 
ATOM     45  C   UNL     1      -6.008  -7.086   7.720  1.00  0.00    -0.014 A 
BRANCH  45  46
ATOM     46  C   UNL     1      -5.644  -5.954   8.556  1.00  0.00     0.031 A 
ATOM     47  C   UNL     1      -4.541  -6.081   9.526  1.00  0.00     0.074 A 
ATOM     48  C   UNL     1      -6.151  -4.737   8.262  1.00  0.00     0.049 A 
ATOM     49  N   UNL     1      -4.268  -5.198  10.422  1.00  0.00    -0.248 NA
ATOM     50  C   UNL     1      -3.679  -7.257   9.598  1.00  0.00     0.031 C 
ATOM     51  C   UNL     1      -5.589  -3.433   8.599  1.00  0.00     0.029 A 
ATOM     52  N   UNL     1      -7.414  -4.447   7.755  1.00  0.00    -0.354 N 
ATOM     53  C   UNL     1      -3.047  -5.521  10.962  1.00  0.00     0.074 A 
ATOM     54  C   UNL     1      -2.776  -6.861  10.500  1.00  0.00     0.031 C 
ATOM     55  C   UNL     1      -6.554  -2.505   8.505  1.00  0.00     0.029 A 
ATOM     56  C   UNL     1      -7.808  -3.211   8.303  1.00  0.00     0.049 A 
ATOM     57  H   UNL     1      -7.935  -5.002   7.130  1.00  0.00     0.167 HD
ATOM     58  C   UNL     1      -2.352  -4.562  11.633  1.00  0.00     0.031 A 
ATOM     59  C   UNL     1      -8.880  -3.135   9.150  1.00  0.00     0.031 A 
ATOM     60  C   UNL     1      -3.124  -3.326  11.774  1.00  0.00     0.049 A 
ATOM     61  C   UNL     1      -8.556  -2.654  10.553  1.00  0.00     0.074 A 
ATOM     62  C   UNL     1      -3.075  -2.074  11.183  1.00  0.00     0.029 A 
ATOM     63  N   UNL     1      -4.322  -3.376  12.464  1.00  0.00    -0.354 N 
ATOM     64  N   UNL     1      -7.348  -2.450  11.001  1.00  0.00    -0.248 NA
ATOM     65  C   UNL     1      -9.566  -2.466  11.596  1.00  0.00     0.031 C 
ATOM     66  C   UNL     1      -4.251  -1.362  11.558  1.00  0.00     0.029 A 
ATOM     67  C   UNL     1      -4.999  -2.179  12.385  1.00  0.00     0.049 A 
ATOM     68  H   UNL     1      -4.650  -4.167  12.950  1.00  0.00     0.167 HD
ATOM     69  C   UNL     1      -7.393  -2.190  12.345  1.00  0.00     0.074 A 
ATOM     70  C   UNL     1      -8.806  -2.197  12.672  1.00  0.00     0.031 C 
ATOM     71  C   UNL     1      -6.261  -2.050  13.092  1.00  0.00     0.031 A 
BRANCH  58  72
ATOM     72  C   UNL     1      -0.892  -4.650  12.007  1.00  0.00    -0.014 A 
ATOM     73  C   UNL     1      -0.205  -3.475  12.365  1.00  0.00     0.009 A 
ATOM     74  C   UNL     1      -0.122  -5.824  11.992  1.00  0.00     0.009 A 
ATOM     75  C   UNL     1       1.173  -3.462  12.617  1.00  0.00     0.001 A 
ATOM     76  C   UNL     1       1.260  -5.819  12.225  1.00  0.00     0.001 A 
ATOM     77  C   UNL     1       1.911  -4.634  12.528  1.00  0.00     0.000 A 
ENDBRANCH  58  72
BRANCH  59  78
ATOM     78  C   UNL     1      -9.927  -4.150   8.837  1.00  0.00    -0.014 A 
ATOM     79  C   UNL     1     -10.642  -4.024   7.630  1.00  0.00     0.009 A 
ATOM     80  C   UNL     1      -9.914  -5.394   9.486  1.00  0.00     0.009 A 
ATOM     81  C   UNL     1     -11.219  -5.144   7.025  1.00  0.00     0.001 A 
ATOM     82  C   UNL     1     -10.505  -6.509   8.882  1.00  0.00     0.001 A 
ATOM     83  C   UNL     1     -11.121  -6.392   7.636  1.00  0.00     0.000 A 
ENDBRANCH  59  78
BRANCH  71  84
ATOM     84  C   UNL     1      -6.232  -1.832  14.580  1.00  0.00    -0.014 A 
ATOM     85  C   UNL     1      -7.111  -0.970  15.245  1.00  0.00     0.009 A 
ATOM     86  C   UNL     1      -5.202  -2.416  15.352  1.00  0.00     0.009 A 
ATOM     87  C   UNL     1      -6.993  -0.744  16.624  1.00  0.00     0.001 A 
ATOM     88  C   UNL     1      -5.068  -2.176  16.720  1.00  0.00     0.001 A 
ATOM     89  C   UNL     1      -5.973  -1.344  17.360  1.00  0.00     0.000 A 
ENDBRANCH  71  84
ENDBRANCH  45  46
ENDBRANCH  37  40
ENDBRANCH  35  36
ENDBRANCH  34  35
ENDBRANCH  33  34
ENDBRANCH   1  33
TORSDOF 16
