REMARK SMILES CC(C)(C)OC(=O)N1CCC[C@@]1(Cc1ccc(C(C)(C)C)cc1)C(=O)NCCCCCCNC(=O)c1ccc(-c2c3nc(c(-c4ccccc4)c4ccc([nH]4)c(-c4ccccc4)c4nc(c(-c5ccccc5)c5ccc2[nH]5)C=C4)C=C3)cc1
REMARK SMILES IDX 29 1 28 2 27 3 26 4 24 5 25 6 12 8 8 9 9 10 10 11 11 12 6 13
REMARK SMILES IDX 7 14 5 15 2 16 1 17 3 18 4 19 13 20 14 21 15 22 23 23 16 24
REMARK SMILES IDX 22 25 17 26 18 27 19 28 20 29 21 30 30 31 31 32 32 33 33 34
REMARK SMILES IDX 34 35 35 37 36 38 37 39 83 40 38 41 82 42 39 43 40 44 41 45
REMARK SMILES IDX 76 46 42 47 81 48 75 49 77 50 43 51 80 52 74 53 73 54 44 56
REMARK SMILES IDX 66 57 51 58 65 59 52 60 55 61 64 62 78 63 53 64 54 65 63 67
REMARK SMILES IDX 79 68 56 69 45 70 46 71 50 72 47 73 49 74 48 75 67 76 68 77
REMARK SMILES IDX 72 78 69 79 71 80 70 81 57 82 58 83 62 84 59 85 61 86 60 87
REMARK H PARENT 26 7 33 36 77 55 55 66
REMARK Flexibility Score: inf
ROOT
ATOM      1  C   UNL     1      -0.304  -5.490  10.015  1.00  0.00     0.002 C 
ENDROOT
BRANCH   1   2
ATOM      2  C   UNL     1       0.178  -5.902   8.617  1.00  0.00     0.021 C 
BRANCH   2   3
ATOM      3  C   UNL     1      -0.524  -5.191   7.461  1.00  0.00     0.116 C 
BRANCH   3   4
ATOM      4  N   UNL     1      -0.142  -3.797   7.350  1.00  0.00    -0.354 N 
ATOM      5  C   UNL     1       0.167  -3.012   6.275  1.00  0.00     0.246 C 
ATOM      6  O   UNL     1       0.430  -1.836   6.554  1.00  0.00    -0.272 OA
ATOM      7  H   UNL     1      -0.096  -3.326   8.213  1.00  0.00     0.163 HD
BRANCH   5   8
ATOM      8  C   UNL     1       0.217  -3.557   4.804  1.00  0.00     0.129 C 
ATOM      9  N   UNL     1       1.007  -2.597   3.961  1.00  0.00    -0.293 N 
ATOM     10  C   UNL     1       2.321  -3.102   3.631  1.00  0.00     0.124 C 
ATOM     11  C   UNL     1       2.129  -4.596   3.623  1.00  0.00     0.025 C 
ATOM     12  C   UNL     1       1.123  -4.826   4.746  1.00  0.00     0.041 C 
BRANCH   9  13
ATOM     13  C   UNL     1       0.504  -1.398   3.505  1.00  0.00     0.411 C 
ATOM     14  O   UNL     1      -0.477  -0.837   3.970  1.00  0.00    -0.224 OA
BRANCH  13  15
ATOM     15  O   UNL     1       1.139  -1.003   2.371  1.00  0.00    -0.444 OA
BRANCH  15  16
ATOM     16  C   UNL     1       0.615   0.075   1.553  1.00  0.00     0.106 C 
ATOM     17  C   UNL     1       1.309  -0.099   0.193  1.00  0.00     0.056 C 
ATOM     18  C   UNL     1       1.020   1.414   2.168  1.00  0.00     0.056 C 
ATOM     19  C   UNL     1      -0.901  -0.008   1.313  1.00  0.00     0.056 C 
ENDBRANCH  15  16
ENDBRANCH  13  15
ENDBRANCH   9  13
BRANCH   8  20
ATOM     20  C   UNL     1      -1.170  -3.780   4.119  1.00  0.00     0.074 C 
BRANCH  20  21
ATOM     21  C   UNL     1      -2.260  -4.554   4.814  1.00  0.00    -0.045 A 
ATOM     22  C   UNL     1      -2.495  -5.900   4.527  1.00  0.00     0.004 A 
ATOM     23  C   UNL     1      -3.111  -3.907   5.717  1.00  0.00     0.004 A 
ATOM     24  C   UNL     1      -3.514  -6.600   5.186  1.00  0.00     0.004 A 
ATOM     25  C   UNL     1      -4.125  -4.611   6.377  1.00  0.00     0.004 A 
ATOM     26  C   UNL     1      -4.324  -5.984   6.159  1.00  0.00    -0.043 A 
BRANCH  26  27
ATOM     27  C   UNL     1      -5.375  -6.792   6.943  1.00  0.00    -0.013 C 
ATOM     28  C   UNL     1      -6.644  -6.947   6.087  1.00  0.00     0.016 C 
ATOM     29  C   UNL     1      -4.847  -8.206   7.289  1.00  0.00     0.016 C 
ATOM     30  C   UNL     1      -5.788  -6.103   8.266  1.00  0.00     0.016 C 
ENDBRANCH  26  27
ENDBRANCH  20  21
ENDBRANCH   8  20
ENDBRANCH   5   8
ENDBRANCH   3   4
ENDBRANCH   2   3
ENDBRANCH   1   2
BRANCH   1  31
ATOM     31  C   UNL     1      -1.817  -5.576  10.260  1.00  0.00     0.002 C 
BRANCH  31  32
ATOM     32  C   UNL     1      -2.466  -6.897   9.853  1.00  0.00     0.021 C 
BRANCH  32  33
ATOM     33  C   UNL     1      -2.029  -8.110  10.657  1.00  0.00     0.116 C 
BRANCH  33  34
ATOM     34  N   UNL     1      -2.699  -8.156  11.948  1.00  0.00    -0.352 N 
ATOM     35  C   UNL     1      -3.736  -8.942  12.393  1.00  0.00     0.251 C 
ATOM     36  H   UNL     1      -2.353  -7.519  12.614  1.00  0.00     0.163 HD
ATOM     37  O   UNL     1      -4.327  -8.628  13.423  1.00  0.00    -0.269 OA
BRANCH  35  38
ATOM     38  C   UNL     1      -4.160 -10.161  11.658  1.00  0.00     0.039 A 
ATOM     39  C   UNL     1      -5.509 -10.539  11.685  1.00  0.00     0.014 A 
ATOM     40  C   UNL     1      -3.236 -10.981  11.010  1.00  0.00     0.014 A 
ATOM     41  C   UNL     1      -5.931 -11.703  11.030  1.00  0.00     0.010 A 
ATOM     42  C   UNL     1      -3.670 -12.080  10.274  1.00  0.00     0.010 A 
ATOM     43  C   UNL     1      -5.017 -12.471  10.294  1.00  0.00    -0.014 A 
BRANCH  43  44
ATOM     44  C   UNL     1      -5.399 -13.722   9.587  1.00  0.00     0.031 A 
ATOM     45  C   UNL     1      -4.724 -15.017   9.960  1.00  0.00     0.074 A 
ATOM     46  C   UNL     1      -6.259 -13.692   8.551  1.00  0.00     0.049 A 
ATOM     47  N   UNL     1      -4.721 -16.165   9.331  1.00  0.00    -0.248 NA
ATOM     48  C   UNL     1      -3.907 -15.001  11.184  1.00  0.00     0.031 C 
ATOM     49  C   UNL     1      -6.989 -12.515   8.081  1.00  0.00     0.029 A 
ATOM     50  N   UNL     1      -6.646 -14.690   7.690  1.00  0.00    -0.354 N 
ATOM     51  C   UNL     1      -3.864 -16.987  10.054  1.00  0.00     0.074 A 
ATOM     52  C   UNL     1      -3.337 -16.195  11.144  1.00  0.00     0.031 C 
ATOM     53  C   UNL     1      -7.749 -12.862   7.028  1.00  0.00     0.029 A 
ATOM     54  C   UNL     1      -7.513 -14.267   6.713  1.00  0.00     0.049 A 
ATOM     55  H   UNL     1      -6.331 -15.620   7.766  1.00  0.00     0.167 HD
ATOM     56  C   UNL     1      -3.550 -18.288   9.840  1.00  0.00     0.031 A 
ATOM     57  C   UNL     1      -8.041 -14.930   5.666  1.00  0.00     0.031 A 
ATOM     58  C   UNL     1      -4.104 -19.087   8.780  1.00  0.00     0.049 A 
ATOM     59  C   UNL     1      -7.670 -16.369   5.436  1.00  0.00     0.074 A 
ATOM     60  C   UNL     1      -3.888 -20.426   8.506  1.00  0.00     0.029 A 
ATOM     61  N   UNL     1      -4.995 -18.620   7.826  1.00  0.00    -0.354 N 
ATOM     62  N   UNL     1      -6.864 -17.135   6.130  1.00  0.00    -0.248 NA
ATOM     63  C   UNL     1      -8.283 -17.033   4.276  1.00  0.00     0.031 C 
ATOM     64  C   UNL     1      -4.620 -20.761   7.362  1.00  0.00     0.029 A 
ATOM     65  C   UNL     1      -5.331 -19.643   6.956  1.00  0.00     0.049 A 
ATOM     66  H   UNL     1      -5.337 -17.699   7.776  1.00  0.00     0.167 HD
ATOM     67  C   UNL     1      -6.902 -18.380   5.514  1.00  0.00     0.074 A 
ATOM     68  C   UNL     1      -7.810 -18.266   4.391  1.00  0.00     0.031 C 
ATOM     69  C   UNL     1      -6.247 -19.517   5.853  1.00  0.00     0.031 A 
BRANCH  56  70
ATOM     70  C   UNL     1      -2.548 -18.917  10.768  1.00  0.00    -0.014 A 
ATOM     71  C   UNL     1      -2.856 -19.173  12.114  1.00  0.00     0.009 A 
ATOM     72  C   UNL     1      -1.278 -19.269  10.285  1.00  0.00     0.009 A 
ATOM     73  C   UNL     1      -1.896 -19.719  12.969  1.00  0.00     0.001 A 
ATOM     74  C   UNL     1      -0.331 -19.847  11.134  1.00  0.00     0.001 A 
ATOM     75  C   UNL     1      -0.636 -20.058  12.477  1.00  0.00     0.000 A 
ENDBRANCH  56  70
BRANCH  57  76
ATOM     76  C   UNL     1      -8.993 -14.240   4.757  1.00  0.00    -0.014 A 
ATOM     77  C   UNL     1     -10.358 -14.565   4.791  1.00  0.00     0.009 A 
ATOM     78  C   UNL     1      -8.551 -13.254   3.862  1.00  0.00     0.009 A 
ATOM     79  C   UNL     1     -11.258 -13.929   3.933  1.00  0.00     0.001 A 
ATOM     80  C   UNL     1      -9.458 -12.601   3.024  1.00  0.00     0.001 A 
ATOM     81  C   UNL     1     -10.809 -12.944   3.055  1.00  0.00     0.000 A 
ENDBRANCH  57  76
BRANCH  69  82
ATOM     82  C   UNL     1      -6.532 -20.748   5.042  1.00  0.00    -0.014 A 
ATOM     83  C   UNL     1      -6.005 -20.913   3.752  1.00  0.00     0.009 A 
ATOM     84  C   UNL     1      -7.289 -21.786   5.608  1.00  0.00     0.009 A 
ATOM     85  C   UNL     1      -6.252 -22.087   3.037  1.00  0.00     0.001 A 
ATOM     86  C   UNL     1      -7.512 -22.968   4.901  1.00  0.00     0.001 A 
ATOM     87  C   UNL     1      -6.999 -23.114   3.613  1.00  0.00     0.000 A 
ENDBRANCH  69  82
ENDBRANCH  43  44
ENDBRANCH  35  38
ENDBRANCH  33  34
ENDBRANCH  32  33
ENDBRANCH  31  32
ENDBRANCH   1  31
TORSDOF 19
