REMARK SMILES COc1cccc(Cn2c(=O)c(=O)n(CC(=O)NCCCCCCNC(=O)c3ccc(-c4c5nc(c(-c6ccccc6)c6ccc([nH]6)c(-c6ccccc6)c6nc(c(-c7ccccc7)c7ccc4[nH]7)C=C6)C=C5)cc3)c3ccccc32)c1
REMARK SMILES IDX 20 1 19 2 18 3 16 4 17 5 15 7 14 8 9 9 10 10 81 11 11 12
REMARK SMILES IDX 12 13 76 14 80 15 13 16 77 17 79 18 78 19 8 20 7 21 3 22
REMARK SMILES IDX 4 23 82 24 5 25 6 26 2 27 1 28 21 29 22 30 23 31 24 32 25 33
REMARK SMILES IDX 26 34 27 36 28 37 29 38 75 39 30 40 74 41 31 42 32 43 33 44
REMARK SMILES IDX 68 45 34 46 73 47 67 48 69 49 35 50 72 51 66 52 65 53 36 55
REMARK SMILES IDX 58 56 43 57 57 58 44 59 47 60 56 61 70 62 45 63 46 64 55 66
REMARK SMILES IDX 71 67 48 68 37 69 38 70 42 71 39 72 41 73 40 74 59 75 60 76
REMARK SMILES IDX 64 77 61 78 63 79 62 80 49 81 50 82 54 83 51 84 53 85 52 86
REMARK H PARENT 18 6 25 35 69 54 47 65
REMARK Flexibility Score: inf
ROOT
ATOM      1  C   UNL     1       1.138  -1.530   7.373  1.00  0.00     0.021 C 
ENDROOT
BRANCH   1   2
ATOM      2  C   UNL     1       0.949  -0.152   6.740  1.00  0.00     0.116 C 
BRANCH   2   3
ATOM      3  N   UNL     1       1.424   0.885   7.630  1.00  0.00    -0.355 N 
ATOM      4  C   UNL     1       2.651   1.445   7.769  1.00  0.00     0.240 C 
ATOM      5  O   UNL     1       2.759   2.302   8.657  1.00  0.00    -0.273 OA
ATOM      6  H   UNL     1       0.740   1.245   8.239  1.00  0.00     0.163 HD
BRANCH   4   7
ATOM      7  C   UNL     1       3.805   1.264   6.774  1.00  0.00     0.226 C 
BRANCH   7   8
ATOM      8  N   UNL     1       4.207   0.025   6.123  1.00  0.00    -0.293 N 
ATOM      9  N   UNL     1       5.235  -2.099   4.580  1.00  0.00    -0.298 N 
ATOM     10  C   UNL     1       4.969  -0.884   3.982  1.00  0.00     0.317 A 
ATOM     11  C   UNL     1       5.553  -2.046   5.964  1.00  0.00     0.068 A 
ATOM     12  O   UNL     1       5.429  -0.498   2.908  1.00  0.00    -0.263 OA
ATOM     13  C   UNL     1       3.981  -0.030   4.754  1.00  0.00     0.317 A 
ATOM     14  C   UNL     1       5.079  -0.939   6.732  1.00  0.00     0.069 A 
ATOM     15  C   UNL     1       6.463  -2.949   6.531  1.00  0.00     0.028 A 
ATOM     16  O   UNL     1       3.121   0.604   4.144  1.00  0.00    -0.263 OA
ATOM     17  C   UNL     1       5.497  -0.808   8.062  1.00  0.00     0.028 A 
ATOM     18  C   UNL     1       6.925  -2.751   7.835  1.00  0.00     0.002 A 
ATOM     19  C   UNL     1       6.436  -1.693   8.599  1.00  0.00     0.002 A 
BRANCH   9  20
ATOM     20  C   UNL     1       5.284  -3.280   3.718  1.00  0.00     0.162 C 
BRANCH  20  21
ATOM     21  C   UNL     1       3.894  -3.479   3.091  1.00  0.00    -0.024 A 
ATOM     22  C   UNL     1       2.053  -2.407   1.913  1.00  0.00     0.119 A 
ATOM     23  C   UNL     1       1.156  -3.279   2.514  1.00  0.00     0.046 A 
ATOM     24  C   UNL     1       3.421  -2.565   2.122  1.00  0.00     0.052 A 
ATOM     25  C   UNL     1       1.623  -4.303   3.337  1.00  0.00     0.004 A 
ATOM     26  C   UNL     1       2.982  -4.383   3.655  1.00  0.00     0.006 A 
BRANCH  22  27
ATOM     27  O   UNL     1       1.523  -1.267   1.373  1.00  0.00    -0.497 OA
ATOM     28  C   UNL     1       1.848  -1.051   0.009  1.00  0.00     0.278 C 
ENDBRANCH  22  27
ENDBRANCH  20  21
ENDBRANCH   9  20
ENDBRANCH   7   8
ENDBRANCH   4   7
ENDBRANCH   2   3
ENDBRANCH   1   2
BRANCH   1  29
ATOM     29  C   UNL     1       0.046  -1.874   8.397  1.00  0.00     0.002 C 
BRANCH  29  30
ATOM     30  C   UNL     1      -1.306  -2.248   7.774  1.00  0.00     0.002 C 
BRANCH  30  31
ATOM     31  C   UNL     1      -1.309  -3.560   6.981  1.00  0.00     0.021 C 
BRANCH  31  32
ATOM     32  C   UNL     1      -0.982  -4.801   7.809  1.00  0.00     0.116 C 
BRANCH  32  33
ATOM     33  N   UNL     1      -1.961  -5.012   8.866  1.00  0.00    -0.352 N 
ATOM     34  C   UNL     1      -2.927  -5.979   8.978  1.00  0.00     0.251 C 
ATOM     35  H   UNL     1      -1.925  -4.365   9.607  1.00  0.00     0.163 HD
ATOM     36  O   UNL     1      -3.851  -5.843   9.774  1.00  0.00    -0.269 OA
BRANCH  34  37
ATOM     37  C   UNL     1      -2.848  -7.196   8.147  1.00  0.00     0.039 A 
ATOM     38  C   UNL     1      -4.005  -7.679   7.529  1.00  0.00     0.014 A 
ATOM     39  C   UNL     1      -1.640  -7.888   8.023  1.00  0.00     0.014 A 
ATOM     40  C   UNL     1      -3.940  -8.832   6.745  1.00  0.00     0.010 A 
ATOM     41  C   UNL     1      -1.563  -9.004   7.197  1.00  0.00     0.010 A 
ATOM     42  C   UNL     1      -2.713  -9.489   6.557  1.00  0.00    -0.014 A 
BRANCH  42  43
ATOM     43  C   UNL     1      -2.604 -10.696   5.705  1.00  0.00     0.031 A 
ATOM     44  C   UNL     1      -2.272 -12.025   6.322  1.00  0.00     0.074 A 
ATOM     45  C   UNL     1      -2.719 -10.579   4.369  1.00  0.00     0.049 A 
ATOM     46  N   UNL     1      -2.039 -13.171   5.736  1.00  0.00    -0.248 NA
ATOM     47  C   UNL     1      -2.163 -12.062   7.789  1.00  0.00     0.031 C 
ATOM     48  C   UNL     1      -3.012  -9.339   3.648  1.00  0.00     0.029 A 
ATOM     49  N   UNL     1      -2.589 -11.519   3.379  1.00  0.00    -0.354 N 
ATOM     50  C   UNL     1      -1.731 -14.059   6.758  1.00  0.00     0.074 A 
ATOM     51  C   UNL     1      -1.772 -13.311   7.997  1.00  0.00     0.031 C 
ATOM     52  C   UNL     1      -3.062  -9.600   2.332  1.00  0.00     0.029 A 
ATOM     53  C   UNL     1      -2.766 -11.012   2.116  1.00  0.00     0.049 A 
ATOM     54  H   UNL     1      -2.388 -12.466   3.558  1.00  0.00     0.167 HD
ATOM     55  C   UNL     1      -1.449 -15.381   6.675  1.00  0.00     0.031 A 
ATOM     56  C   UNL     1      -2.689 -11.617   0.916  1.00  0.00     0.031 A 
ATOM     57  C   UNL     1      -1.428 -16.128   5.447  1.00  0.00     0.049 A 
ATOM     58  C   UNL     1      -2.350 -13.078   0.848  1.00  0.00     0.074 A 
ATOM     59  C   UNL     1      -1.241 -17.488   5.266  1.00  0.00     0.029 A 
ATOM     60  N   UNL     1      -1.595 -15.575   4.188  1.00  0.00    -0.354 N 
ATOM     61  N   UNL     1      -2.124 -13.918   1.827  1.00  0.00    -0.248 NA
ATOM     62  C   UNL     1      -2.254 -13.670  -0.494  1.00  0.00     0.031 C 
ATOM     63  C   UNL     1      -1.248 -17.749   3.891  1.00  0.00     0.029 A 
ATOM     64  C   UNL     1      -1.479 -16.559   3.220  1.00  0.00     0.049 A 
ATOM     65  H   UNL     1      -1.770 -14.623   4.007  1.00  0.00     0.167 HD
ATOM     66  C   UNL     1      -1.873 -15.143   1.224  1.00  0.00     0.074 A 
ATOM     67  C   UNL     1      -1.986 -14.937  -0.207  1.00  0.00     0.031 C 
ATOM     68  C   UNL     1      -1.577 -16.331   1.802  1.00  0.00     0.031 A 
BRANCH  55  69
ATOM     69  C   UNL     1      -1.124 -16.095   7.956  1.00  0.00    -0.014 A 
ATOM     70  C   UNL     1      -2.116 -16.368   8.912  1.00  0.00     0.009 A 
ATOM     71  C   UNL     1       0.194 -16.508   8.207  1.00  0.00     0.009 A 
ATOM     72  C   UNL     1      -1.786 -17.003  10.111  1.00  0.00     0.001 A 
ATOM     73  C   UNL     1       0.516 -17.165   9.396  1.00  0.00     0.001 A 
ATOM     74  C   UNL     1      -0.472 -17.402  10.351  1.00  0.00     0.000 A 
ENDBRANCH  55  69
BRANCH  56  75
ATOM     75  C   UNL     1      -2.955 -10.838  -0.318  1.00  0.00    -0.014 A 
ATOM     76  C   UNL     1      -4.168 -11.003  -1.004  1.00  0.00     0.009 A 
ATOM     77  C   UNL     1      -2.017  -9.915  -0.803  1.00  0.00     0.009 A 
ATOM     78  C   UNL     1      -4.431 -10.265  -2.160  1.00  0.00     0.001 A 
ATOM     79  C   UNL     1      -2.292  -9.164  -1.948  1.00  0.00     0.001 A 
ATOM     80  C   UNL     1      -3.495  -9.343  -2.627  1.00  0.00     0.000 A 
ENDBRANCH  56  75
BRANCH  68  81
ATOM     81  C   UNL     1      -1.361 -17.500   0.886  1.00  0.00    -0.014 A 
ATOM     82  C   UNL     1      -0.167 -17.636   0.161  1.00  0.00     0.009 A 
ATOM     83  C   UNL     1      -2.345 -18.493   0.775  1.00  0.00     0.009 A 
ATOM     84  C   UNL     1       0.026 -18.735  -0.678  1.00  0.00     0.001 A 
ATOM     85  C   UNL     1      -2.140 -19.601  -0.048  1.00  0.00     0.001 A 
ATOM     86  C   UNL     1      -0.959 -19.718  -0.778  1.00  0.00     0.000 A 
ENDBRANCH  68  81
ENDBRANCH  42  43
ENDBRANCH  34  37
ENDBRANCH  32  33
ENDBRANCH  31  32
ENDBRANCH  30  31
ENDBRANCH  29  30
ENDBRANCH   1  29
TORSDOF 17
