REMARK SMILES N#Cc1cc2c(nc1N(CC(=O)NCCCCCCNC(=O)c1ccc(-c3c4nc(c(-c5ccccc5)c5ccc([nH]5)c(-c5ccccc5)c5nc(c(-c6ccccc6)c6ccc3[nH]6)C=C5)C=C4)cc1)CC(F)(F)F)CCC2
REMARK SMILES IDX 16 1 15 2 14 3 13 4 11 5 12 6 10 8 9 9 8 10 3 11 4 12 5 13
REMARK SMILES IDX 7 14 6 15 78 16 76 17 77 18 2 19 1 20 71 21 72 22 73 23
REMARK SMILES IDX 74 24 75 25 17 26 18 27 19 28 20 29 21 30 22 32 23 33 24 34
REMARK SMILES IDX 70 35 25 36 69 37 26 38 27 39 28 40 63 41 29 42 68 43 62 44
REMARK SMILES IDX 64 45 30 46 67 47 61 48 60 49 31 51 53 52 38 53 52 54 39 55
REMARK SMILES IDX 42 56 51 57 65 58 40 59 41 60 50 62 66 63 43 64 32 65 33 66
REMARK SMILES IDX 37 67 34 68 36 69 35 70 54 71 55 72 59 73 56 74 58 75 57 76
REMARK SMILES IDX 44 77 45 78 49 79 46 80 48 81 47 82
REMARK H PARENT 13 7 20 31 64 50 42 61
REMARK Flexibility Score: inf
ROOT
ATOM      1  C   UNL     1       3.838  -2.659   4.948  1.00  0.00     0.002 C 
ENDROOT
BRANCH   1   2
ATOM      2  C   UNL     1       4.199  -2.049   3.589  1.00  0.00     0.021 C 
BRANCH   2   3
ATOM      3  C   UNL     1       5.165  -2.907   2.777  1.00  0.00     0.116 C 
BRANCH   3   4
ATOM      4  N   UNL     1       4.523  -4.115   2.303  1.00  0.00    -0.355 N 
ATOM      5  C   UNL     1       4.095  -4.409   1.041  1.00  0.00     0.239 C 
ATOM      6  O   UNL     1       3.466  -5.454   0.860  1.00  0.00    -0.273 OA
ATOM      7  H   UNL     1       4.375  -4.816   2.979  1.00  0.00     0.163 HD
BRANCH   5   8
ATOM      8  C   UNL     1       4.401  -3.456  -0.122  1.00  0.00     0.218 C 
BRANCH   8   9
ATOM      9  N   UNL     1       3.556  -2.231  -0.112  1.00  0.00    -0.337 N 
BRANCH   9  10
ATOM     10  C   UNL     1       4.194  -1.000  -0.175  1.00  0.00     0.147 A 
ATOM     11  C   UNL     1       3.588   0.274  -0.278  1.00  0.00     0.095 A 
ATOM     12  C   UNL     1       4.364   1.452  -0.185  1.00  0.00     0.029 A 
ATOM     13  C   UNL     1       5.726   1.340  -0.064  1.00  0.00    -0.025 A 
ATOM     14  N   UNL     1       5.556  -1.057  -0.096  1.00  0.00    -0.234 NA
ATOM     15  C   UNL     1       6.272   0.078  -0.053  1.00  0.00     0.046 A 
ATOM     16  C   UNL     1       6.772   2.389   0.094  1.00  0.00     0.038 C 
ATOM     17  C   UNL     1       7.769   0.137   0.072  1.00  0.00     0.057 C 
ATOM     18  C   UNL     1       8.034   1.604  -0.298  1.00  0.00     0.011 C 
BRANCH  11  19
ATOM     19  C   UNL     1       2.195   0.488  -0.525  1.00  0.00     0.103 C 
ATOM     20  N   UNL     1       1.073   0.677  -0.744  1.00  0.00    -0.192 NA
ENDBRANCH  11  19
ENDBRANCH   9  10
BRANCH   9  21
ATOM     21  C   UNL     1       2.086  -2.478  -0.158  1.00  0.00     0.234 C 
BRANCH  21  22
ATOM     22  C   UNL     1       1.293  -2.227   1.140  1.00  0.00     0.405 C 
ATOM     23  F   UNL     1       1.587  -1.034   1.707  1.00  0.00    -0.169 F 
ATOM     24  F   UNL     1      -0.038  -2.239   0.896  1.00  0.00    -0.169 F 
ATOM     25  F   UNL     1       1.533  -3.181   2.068  1.00  0.00    -0.169 F 
ENDBRANCH  21  22
ENDBRANCH   9  21
ENDBRANCH   8   9
ENDBRANCH   5   8
ENDBRANCH   3   4
ENDBRANCH   2   3
ENDBRANCH   1   2
BRANCH   1  26
ATOM     26  C   UNL     1       5.026  -2.794   5.905  1.00  0.00     0.002 C 
BRANCH  26  27
ATOM     27  C   UNL     1       5.790  -1.492   6.150  1.00  0.00     0.021 C 
BRANCH  27  28
ATOM     28  C   UNL     1       4.920  -0.361   6.686  1.00  0.00     0.116 C 
BRANCH  28  29
ATOM     29  N   UNL     1       4.399  -0.669   8.009  1.00  0.00    -0.352 N 
ATOM     30  C   UNL     1       4.627  -0.019   9.194  1.00  0.00     0.251 C 
ATOM     31  H   UNL     1       3.802  -1.450   8.059  1.00  0.00     0.163 HD
ATOM     32  O   UNL     1       4.321  -0.534  10.263  1.00  0.00    -0.269 OA
BRANCH  30  33
ATOM     33  C   UNL     1       5.264   1.312   9.168  1.00  0.00     0.039 A 
ATOM     34  C   UNL     1       6.325   1.574  10.036  1.00  0.00     0.014 A 
ATOM     35  C   UNL     1       4.819   2.289   8.273  1.00  0.00     0.014 A 
ATOM     36  C   UNL     1       6.974   2.807   9.971  1.00  0.00     0.010 A 
ATOM     37  C   UNL     1       5.518   3.484   8.154  1.00  0.00     0.010 A 
ATOM     38  C   UNL     1       6.594   3.759   9.010  1.00  0.00    -0.014 A 
BRANCH  38  39
ATOM     39  C   UNL     1       7.297   5.060   8.907  1.00  0.00     0.031 A 
ATOM     40  C   UNL     1       6.562   6.335   9.213  1.00  0.00     0.074 A 
ATOM     41  C   UNL     1       8.585   5.096   8.514  1.00  0.00     0.049 A 
ATOM     42  N   UNL     1       6.999   7.568   9.166  1.00  0.00    -0.248 NA
ATOM     43  C   UNL     1       5.148   6.214   9.607  1.00  0.00     0.031 C 
ATOM     44  C   UNL     1       9.397   3.927   8.169  1.00  0.00     0.029 A 
ATOM     45  N   UNL     1       9.439   6.156   8.345  1.00  0.00    -0.354 N 
ATOM     46  C   UNL     1       5.917   8.363   9.521  1.00  0.00     0.074 A 
ATOM     47  C   UNL     1       4.787   7.484   9.719  1.00  0.00     0.031 C 
ATOM     48  C   UNL     1      10.643   4.331   7.872  1.00  0.00     0.029 A 
ATOM     49  C   UNL     1      10.705   5.787   7.960  1.00  0.00     0.049 A 
ATOM     50  H   UNL     1       9.170   7.093   8.486  1.00  0.00     0.167 HD
ATOM     51  C   UNL     1       5.875   9.704   9.695  1.00  0.00     0.031 A 
ATOM     52  C   UNL     1      11.795   6.537   7.706  1.00  0.00     0.031 A 
ATOM     53  C   UNL     1       7.001  10.577   9.504  1.00  0.00     0.049 A 
ATOM     54  C   UNL     1      11.708   8.031   7.857  1.00  0.00     0.074 A 
ATOM     55  C   UNL     1       7.068  11.946   9.692  1.00  0.00     0.029 A 
ATOM     56  N   UNL     1       8.256  10.167   9.082  1.00  0.00    -0.354 N 
ATOM     57  N   UNL     1      10.692   8.762   8.248  1.00  0.00    -0.248 NA
ATOM     58  C   UNL     1      12.918   8.802   7.540  1.00  0.00     0.031 C 
ATOM     59  C   UNL     1       8.344  12.374   9.320  1.00  0.00     0.029 A 
ATOM     60  C   UNL     1       9.095  11.262   8.970  1.00  0.00     0.049 A 
ATOM     61  H   UNL     1       8.513   9.236   8.890  1.00  0.00     0.167 HD
ATOM     62  C   UNL     1      11.147  10.075   8.247  1.00  0.00     0.074 A 
ATOM     63  C   UNL     1      12.535  10.037   7.836  1.00  0.00     0.031 C 
ATOM     64  C   UNL     1      10.473  11.209   8.557  1.00  0.00     0.031 A 
BRANCH  51  65
ATOM     65  C   UNL     1       4.569  10.315  10.120  1.00  0.00    -0.014 A 
ATOM     66  C   UNL     1       4.056  10.105  11.410  1.00  0.00     0.009 A 
ATOM     67  C   UNL     1       3.877  11.168   9.245  1.00  0.00     0.009 A 
ATOM     68  C   UNL     1       2.866  10.719  11.808  1.00  0.00     0.001 A 
ATOM     69  C   UNL     1       2.704  11.804   9.656  1.00  0.00     0.001 A 
ATOM     70  C   UNL     1       2.197  11.575  10.934  1.00  0.00     0.000 A 
ENDBRANCH  51  65
BRANCH  52  71
ATOM     71  C   UNL     1      13.068   5.882   7.302  1.00  0.00    -0.014 A 
ATOM     72  C   UNL     1      14.175   5.884   8.165  1.00  0.00     0.009 A 
ATOM     73  C   UNL     1      13.181   5.239   6.059  1.00  0.00     0.009 A 
ATOM     74  C   UNL     1      15.372   5.271   7.785  1.00  0.00     0.001 A 
ATOM     75  C   UNL     1      14.369   4.600   5.695  1.00  0.00     0.001 A 
ATOM     76  C   UNL     1      15.465   4.624   6.554  1.00  0.00     0.000 A 
ENDBRANCH  52  71
BRANCH  64  77
ATOM     77  C   UNL     1      11.224  12.510   8.482  1.00  0.00    -0.014 A 
ATOM     78  C   UNL     1      11.586  13.069   7.247  1.00  0.00     0.009 A 
ATOM     79  C   UNL     1      11.494  13.227   9.659  1.00  0.00     0.009 A 
ATOM     80  C   UNL     1      12.223  14.311   7.194  1.00  0.00     0.001 A 
ATOM     81  C   UNL     1      12.100  14.482   9.601  1.00  0.00     0.001 A 
ATOM     82  C   UNL     1      12.470  15.020   8.370  1.00  0.00     0.000 A 
ENDBRANCH  64  77
ENDBRANCH  38  39
ENDBRANCH  30  33
ENDBRANCH  28  29
ENDBRANCH  27  28
ENDBRANCH  26  27
ENDBRANCH   1  26
TORSDOF 18
