REMARK SMILES C[C@H]1CCCCN1c1nc2nc(CC(=O)NCCCCCCNC(=O)c3ccc(-c4c5nc(c(-c6ccccc6)c6ccc([nH]6)c(-c6ccccc6)c6nc(c(-c7ccccc7)c7ccc4[nH]7)C=C6)C=C5)cc3)cc(O)n2n1
REMARK SMILES IDX 19 1 18 2 17 3 16 4 14 5 15 6 13 8 12 9 8 10 9 11 78 12
REMARK SMILES IDX 10 13 77 14 11 15 75 16 74 17 7 18 1 19 2 20 3 21 4 22 6 23
REMARK SMILES IDX 5 24 76 25 20 27 21 28 22 29 23 30 24 31 25 33 26 34 27 35
REMARK SMILES IDX 73 36 28 37 72 38 29 39 30 40 31 41 66 42 32 43 71 44 65 45
REMARK SMILES IDX 67 46 33 47 70 48 64 49 63 50 34 52 56 53 41 54 55 55 42 56
REMARK SMILES IDX 45 57 54 58 68 59 43 60 44 61 53 63 69 64 46 65 35 66 36 67
REMARK SMILES IDX 40 68 37 69 39 70 38 71 57 72 58 73 62 74 59 75 61 76 60 77
REMARK SMILES IDX 47 78 48 79 52 80 49 81 51 82 50 83
REMARK H PARENT 16 7 76 26 23 32 67 51 45 62
REMARK Flexibility Score: inf
ROOT
ATOM      1  C   UNL     1      -0.431  -8.700  -1.619  1.00  0.00     0.002 C 
ENDROOT
BRANCH   1   2
ATOM      2  C   UNL     1       0.771  -7.778  -1.856  1.00  0.00     0.021 C 
BRANCH   2   3
ATOM      3  C   UNL     1       1.609  -8.170  -3.073  1.00  0.00     0.116 C 
BRANCH   3   4
ATOM      4  N   UNL     1       0.902  -7.907  -4.308  1.00  0.00    -0.356 N 
ATOM      5  C   UNL     1       1.092  -6.920  -5.230  1.00  0.00     0.226 C 
ATOM      6  O   UNL     1       0.350  -6.890  -6.213  1.00  0.00    -0.275 OA
ATOM      7  H   UNL     1       0.173  -8.536  -4.514  1.00  0.00     0.163 HD
BRANCH   5   8
ATOM      8  C   UNL     1       2.264  -5.980  -5.099  1.00  0.00     0.156 C 
BRANCH   8   9
ATOM      9  C   UNL     1       2.259  -5.107  -3.864  1.00  0.00     0.059 A 
ATOM     10  C   UNL     1       0.976  -2.198  -0.936  1.00  0.00     0.247 A 
ATOM     11  N   UNL     1       0.389  -2.716  -2.053  1.00  0.00    -0.173 NA
ATOM     12  N   UNL     1       2.134  -2.761  -0.603  1.00  0.00    -0.123 NA
ATOM     13  C   UNL     1       1.273  -3.573  -2.509  1.00  0.00     0.257 A 
ATOM     14  N   UNL     1       2.345  -3.626  -1.616  1.00  0.00    -0.161 N 
ATOM     15  N   UNL     1       1.237  -4.336  -3.641  1.00  0.00    -0.215 NA
ATOM     16  C   UNL     1       3.436  -4.479  -1.845  1.00  0.00     0.217 A 
ATOM     17  C   UNL     1       3.465  -5.207  -2.971  1.00  0.00     0.092 A 
BRANCH  10  18
ATOM     18  N   UNL     1       0.358  -1.187  -0.294  1.00  0.00    -0.337 N 
ATOM     19  C   UNL     1       2.524   0.120  -0.079  1.00  0.00     0.031 C 
ATOM     20  C   UNL     1       1.048  -0.034   0.299  1.00  0.00     0.082 C 
ATOM     21  C   UNL     1       0.304   1.242  -0.150  1.00  0.00     0.025 C 
ATOM     22  C   UNL     1      -1.182   1.183   0.197  1.00  0.00     0.004 C 
ATOM     23  C   UNL     1      -1.059  -1.328   0.025  1.00  0.00     0.120 C 
ATOM     24  C   UNL     1      -1.826  -0.074  -0.379  1.00  0.00     0.022 C 
ENDBRANCH  10  18
BRANCH  16  25
ATOM     25  O   UNL     1       4.451  -4.546  -0.904  1.00  0.00    -0.493 OA
ATOM     26  H   UNL     1       5.184  -5.111  -1.045  1.00  0.00     0.295 HD
ENDBRANCH  16  25
ENDBRANCH   8   9
ENDBRANCH   5   8
ENDBRANCH   3   4
ENDBRANCH   2   3
ENDBRANCH   1   2
BRANCH   1  27
ATOM     27  C   UNL     1      -0.099 -10.197  -1.517  1.00  0.00     0.002 C 
BRANCH  27  28
ATOM     28  C   UNL     1       0.958 -10.573  -0.468  1.00  0.00     0.021 C 
BRANCH  28  29
ATOM     29  C   UNL     1       0.475 -10.361   0.957  1.00  0.00     0.116 C 
BRANCH  29  30
ATOM     30  N   UNL     1      -0.598 -11.288   1.303  1.00  0.00    -0.352 N 
ATOM     31  C   UNL     1      -1.199 -11.489   2.525  1.00  0.00     0.251 C 
ATOM     32  H   UNL     1      -0.936 -11.844   0.564  1.00  0.00     0.163 HD
ATOM     33  O   UNL     1      -1.821 -12.513   2.758  1.00  0.00    -0.269 OA
BRANCH  31  34
ATOM     34  C   UNL     1      -1.108 -10.429   3.543  1.00  0.00     0.039 A 
ATOM     35  C   UNL     1      -0.995 -10.750   4.901  1.00  0.00     0.014 A 
ATOM     36  C   UNL     1      -1.199  -9.102   3.126  1.00  0.00     0.014 A 
ATOM     37  C   UNL     1      -0.945  -9.720   5.834  1.00  0.00     0.010 A 
ATOM     38  C   UNL     1      -1.026  -8.088   4.026  1.00  0.00     0.010 A 
ATOM     39  C   UNL     1      -0.970  -8.396   5.381  1.00  0.00    -0.014 A 
BRANCH  39  40
ATOM     40  C   UNL     1      -0.867  -7.278   6.301  1.00  0.00     0.031 A 
ATOM     41  C   UNL     1       0.469  -7.116   6.934  1.00  0.00     0.074 A 
ATOM     42  C   UNL     1      -1.816  -6.318   6.323  1.00  0.00     0.049 A 
ATOM     43  N   UNL     1       0.758  -7.133   8.192  1.00  0.00    -0.248 NA
ATOM     44  C   UNL     1       1.649  -7.035   6.052  1.00  0.00     0.031 C 
ATOM     45  C   UNL     1      -3.010  -6.202   5.475  1.00  0.00     0.029 A 
ATOM     46  N   UNL     1      -1.831  -5.149   7.011  1.00  0.00    -0.354 N 
ATOM     47  C   UNL     1       2.127  -6.895   8.274  1.00  0.00     0.074 A 
ATOM     48  C   UNL     1       2.647  -7.013   6.935  1.00  0.00     0.031 C 
ATOM     49  C   UNL     1      -3.472  -4.931   5.520  1.00  0.00     0.029 A 
ATOM     50  C   UNL     1      -2.704  -4.192   6.505  1.00  0.00     0.049 A 
ATOM     51  H   UNL     1      -1.269  -4.992   7.804  1.00  0.00     0.167 HD
ATOM     52  C   UNL     1       2.708  -6.384   9.393  1.00  0.00     0.031 A 
ATOM     53  C   UNL     1      -2.732  -2.875   6.837  1.00  0.00     0.031 A 
ATOM     54  C   UNL     1       1.832  -6.440  10.530  1.00  0.00     0.049 A 
ATOM     55  C   UNL     1      -1.992  -2.742   8.117  1.00  0.00     0.074 A 
ATOM     56  C   UNL     1       1.211  -7.464  11.216  1.00  0.00     0.029 A 
ATOM     57  N   UNL     1       1.139  -5.294  10.845  1.00  0.00    -0.354 N 
ATOM     58  N   UNL     1      -2.405  -3.257   9.240  1.00  0.00    -0.248 NA
ATOM     59  C   UNL     1      -0.567  -2.452   8.046  1.00  0.00     0.031 C 
ATOM     60  C   UNL     1      -0.099  -6.973  11.488  1.00  0.00     0.029 A 
ATOM     61  C   UNL     1      -0.172  -5.656  11.028  1.00  0.00     0.049 A 
ATOM     62  H   UNL     1       1.512  -4.387  10.924  1.00  0.00     0.167 HD
ATOM     63  C   UNL     1      -1.258  -3.751   9.844  1.00  0.00     0.074 A 
ATOM     64  C   UNL     1      -0.147  -3.152   9.104  1.00  0.00     0.031 C 
ATOM     65  C   UNL     1      -1.304  -4.826  10.684  1.00  0.00     0.031 A 
BRANCH  52  66
ATOM     66  C   UNL     1       3.921  -5.499   9.360  1.00  0.00    -0.014 A 
ATOM     67  C   UNL     1       4.596  -5.205  10.555  1.00  0.00     0.009 A 
ATOM     68  C   UNL     1       4.268  -4.740   8.225  1.00  0.00     0.009 A 
ATOM     69  C   UNL     1       5.556  -4.186  10.611  1.00  0.00     0.001 A 
ATOM     70  C   UNL     1       5.253  -3.752   8.267  1.00  0.00     0.001 A 
ATOM     71  C   UNL     1       5.884  -3.462   9.468  1.00  0.00     0.000 A 
ENDBRANCH  52  66
BRANCH  53  72
ATOM     72  C   UNL     1      -3.080  -1.699   6.001  1.00  0.00    -0.014 A 
ATOM     73  C   UNL     1      -3.252  -0.433   6.588  1.00  0.00     0.009 A 
ATOM     74  C   UNL     1      -2.979  -1.752   4.599  1.00  0.00     0.009 A 
ATOM     75  C   UNL     1      -3.269   0.734   5.808  1.00  0.00     0.001 A 
ATOM     76  C   UNL     1      -3.006  -0.588   3.820  1.00  0.00     0.001 A 
ATOM     77  C   UNL     1      -3.130   0.657   4.426  1.00  0.00     0.000 A 
ENDBRANCH  53  72
BRANCH  65  78
ATOM     78  C   UNL     1      -2.655  -5.375  11.077  1.00  0.00    -0.014 A 
ATOM     79  C   UNL     1      -3.510  -6.018  10.162  1.00  0.00     0.009 A 
ATOM     80  C   UNL     1      -2.957  -5.460  12.443  1.00  0.00     0.009 A 
ATOM     81  C   UNL     1      -4.628  -6.733  10.608  1.00  0.00     0.001 A 
ATOM     82  C   UNL     1      -4.062  -6.189  12.888  1.00  0.00     0.001 A 
ATOM     83  C   UNL     1      -4.895  -6.829  11.972  1.00  0.00     0.000 A 
ENDBRANCH  65  78
ENDBRANCH  39  40
ENDBRANCH  31  34
ENDBRANCH  29  30
ENDBRANCH  28  29
ENDBRANCH  27  28
ENDBRANCH   1  27
TORSDOF 16
