REMARK SMILES O=C(CNc1nc(-c2ccccc2)c(-c2ccccc2)s1)NCCCCCCNC(=O)c1ccc(-c2c3nc(c(-c4ccccc4)c4ccc([nH]4)c(-c4ccccc4)c4nc(c(-c5ccccc5)c5ccc2[nH]5)C=C4)C=C3)cc1
REMARK SMILES IDX 25 1 24 2 23 3 22 4 1 5 2 6 3 8 4 9 5 11 6 12 21 13 7 14
REMARK SMILES IDX 14 15 8 16 9 17 13 18 10 19 12 20 11 21 15 22 16 23 20 24
REMARK SMILES IDX 17 25 19 26 18 27 26 28 27 29 28 30 29 31 30 32 31 34 32 35
REMARK SMILES IDX 33 36 79 37 34 38 78 39 35 40 36 41 37 42 72 43 38 44 77 45
REMARK SMILES IDX 71 46 73 47 39 48 76 49 70 50 69 51 40 53 62 54 47 55 61 56
REMARK SMILES IDX 48 57 51 58 60 59 74 60 49 61 50 62 59 64 75 65 52 66 41 67
REMARK SMILES IDX 42 68 46 69 43 70 45 71 44 72 63 73 64 74 68 75 65 76 67 77
REMARK SMILES IDX 66 78 53 79 54 80 58 81 55 82 57 83 56 84
REMARK H PARENT 22 7 4 10 29 33 73 52 51 63
REMARK Flexibility Score: inf
ROOT
ATOM      1  C   UNL     1       4.235  -2.128   2.942  1.00  0.00     0.002 C 
ENDROOT
BRANCH   1   2
ATOM      2  C   UNL     1       2.735  -2.076   2.620  1.00  0.00     0.021 C 
BRANCH   2   3
ATOM      3  C   UNL     1       2.207  -0.694   2.236  1.00  0.00     0.116 C 
BRANCH   3   4
ATOM      4  N   UNL     1       2.857  -0.179   1.052  1.00  0.00    -0.355 N 
ATOM      5  O   UNL     1       1.034  -0.238  -0.352  1.00  0.00    -0.273 OA
ATOM      6  C   UNL     1       2.216   0.022  -0.157  1.00  0.00     0.239 C 
ATOM      7  H   UNL     1       3.815   0.043   1.110  1.00  0.00     0.163 HD
BRANCH   6   8
ATOM      8  C   UNL     1       3.149   0.567  -1.253  1.00  0.00     0.215 C 
BRANCH   8   9
ATOM      9  N   UNL     1       4.120   1.476  -0.655  1.00  0.00    -0.352 N 
ATOM     10  H   UNL     1       3.812   2.137   0.007  1.00  0.00     0.163 HD
BRANCH   9  11
ATOM     11  C   UNL     1       5.423   1.439  -0.981  1.00  0.00     0.184 A 
ATOM     12  N   UNL     1       5.937   0.825  -2.019  1.00  0.00    -0.220 NA
ATOM     13  S   UNL     1       6.561   2.217   0.047  1.00  0.00    -0.096 S 
ATOM     14  C   UNL     1       7.318   0.947  -2.008  1.00  0.00     0.091 A 
ATOM     15  C   UNL     1       7.848   1.629  -0.923  1.00  0.00     0.064 A 
BRANCH  14  16
ATOM     16  C   UNL     1       8.129   0.404  -3.087  1.00  0.00     0.002 A 
ATOM     17  C   UNL     1       9.098  -0.576  -2.838  1.00  0.00     0.010 A 
ATOM     18  C   UNL     1       7.983   0.915  -4.382  1.00  0.00     0.010 A 
ATOM     19  C   UNL     1       9.932  -1.016  -3.868  1.00  0.00     0.001 A 
ATOM     20  C   UNL     1       8.823   0.478  -5.408  1.00  0.00     0.001 A 
ATOM     21  C   UNL     1       9.800  -0.483  -5.149  1.00  0.00     0.000 A 
ENDBRANCH  14  16
BRANCH  15  22
ATOM     22  C   UNL     1       9.231   1.921  -0.550  1.00  0.00    -0.006 A 
ATOM     23  C   UNL     1       9.766   1.411   0.643  1.00  0.00     0.009 A 
ATOM     24  C   UNL     1      10.056   2.671  -1.399  1.00  0.00     0.009 A 
ATOM     25  C   UNL     1      11.100   1.647   0.978  1.00  0.00     0.001 A 
ATOM     26  C   UNL     1      11.390   2.905  -1.061  1.00  0.00     0.001 A 
ATOM     27  C   UNL     1      11.911   2.393   0.126  1.00  0.00     0.000 A 
ENDBRANCH  15  22
ENDBRANCH   9  11
ENDBRANCH   8   9
ENDBRANCH   6   8
ENDBRANCH   3   4
ENDBRANCH   2   3
ENDBRANCH   1   2
BRANCH   1  28
ATOM     28  C   UNL     1       4.702  -1.220   4.084  1.00  0.00     0.002 C 
BRANCH  28  29
ATOM     29  C   UNL     1       4.015  -1.448   5.432  1.00  0.00     0.021 C 
BRANCH  29  30
ATOM     30  C   UNL     1       4.143  -2.859   6.000  1.00  0.00     0.116 C 
BRANCH  30  31
ATOM     31  N   UNL     1       5.519  -3.220   6.305  1.00  0.00    -0.352 N 
ATOM     32  C   UNL     1       6.048  -3.761   7.449  1.00  0.00     0.251 C 
ATOM     33  H   UNL     1       6.166  -3.051   5.583  1.00  0.00     0.163 HD
ATOM     34  O   UNL     1       7.271  -3.859   7.572  1.00  0.00    -0.269 OA
BRANCH  32  35
ATOM     35  C   UNL     1       5.168  -4.206   8.551  1.00  0.00     0.039 A 
ATOM     36  C   UNL     1       5.527  -3.896   9.867  1.00  0.00     0.014 A 
ATOM     37  C   UNL     1       4.006  -4.942   8.301  1.00  0.00     0.014 A 
ATOM     38  C   UNL     1       4.692  -4.271  10.923  1.00  0.00     0.010 A 
ATOM     39  C   UNL     1       3.141  -5.255   9.348  1.00  0.00     0.010 A 
ATOM     40  C   UNL     1       3.476  -4.926  10.671  1.00  0.00    -0.014 A 
BRANCH  40  41
ATOM     41  C   UNL     1       2.547  -5.274  11.777  1.00  0.00     0.031 A 
ATOM     42  C   UNL     1       2.247  -6.715  12.093  1.00  0.00     0.074 A 
ATOM     43  C   UNL     1       1.929  -4.295  12.465  1.00  0.00     0.049 A 
ATOM     44  N   UNL     1       1.428  -7.212  12.986  1.00  0.00    -0.248 NA
ATOM     45  C   UNL     1       2.942  -7.730  11.285  1.00  0.00     0.031 C 
ATOM     46  C   UNL     1       2.101  -2.858  12.238  1.00  0.00     0.029 A 
ATOM     47  N   UNL     1       1.023  -4.361  13.495  1.00  0.00    -0.354 N 
ATOM     48  C   UNL     1       1.501  -8.591  12.839  1.00  0.00     0.074 A 
ATOM     49  C   UNL     1       2.403  -8.852  11.739  1.00  0.00     0.031 C 
ATOM     50  C   UNL     1       1.346  -2.181  13.118  1.00  0.00     0.029 A 
ATOM     51  C   UNL     1       0.610  -3.131  13.946  1.00  0.00     0.049 A 
ATOM     52  H   UNL     1       0.701  -5.210  13.875  1.00  0.00     0.167 HD
ATOM     53  C   UNL     1       0.890  -9.557  13.567  1.00  0.00     0.031 A 
ATOM     54  C   UNL     1      -0.268  -2.803  14.913  1.00  0.00     0.031 A 
ATOM     55  C   UNL     1      -0.004  -9.304  14.665  1.00  0.00     0.049 A 
ATOM     56  C   UNL     1      -0.946  -3.894  15.694  1.00  0.00     0.074 A 
ATOM     57  C   UNL     1      -0.640 -10.218  15.489  1.00  0.00     0.029 A 
ATOM     58  N   UNL     1      -0.389  -8.044  15.094  1.00  0.00    -0.354 N 
ATOM     59  N   UNL     1      -0.819  -5.193  15.581  1.00  0.00    -0.248 NA
ATOM     60  C   UNL     1      -1.879  -3.469  16.748  1.00  0.00     0.031 C 
ATOM     61  C   UNL     1      -1.445  -9.510  16.388  1.00  0.00     0.029 A 
ATOM     62  C   UNL     1      -1.267  -8.155  16.160  1.00  0.00     0.049 A 
ATOM     63  H   UNL     1      -0.083  -7.195  14.700  1.00  0.00     0.167 HD
ATOM     64  C   UNL     1      -1.629  -5.740  16.568  1.00  0.00     0.074 A 
ATOM     65  C   UNL     1      -2.231  -4.631  17.279  1.00  0.00     0.031 C 
ATOM     66  C   UNL     1      -1.855  -7.044  16.860  1.00  0.00     0.031 A 
BRANCH  53  67
ATOM     67  C   UNL     1       1.171 -10.986  13.190  1.00  0.00    -0.014 A 
ATOM     68  C   UNL     1       2.429 -11.564  13.427  1.00  0.00     0.009 A 
ATOM     69  C   UNL     1       0.159 -11.774  12.621  1.00  0.00     0.009 A 
ATOM     70  C   UNL     1       2.678 -12.890  13.066  1.00  0.00     0.001 A 
ATOM     71  C   UNL     1       0.402 -13.108  12.289  1.00  0.00     0.001 A 
ATOM     72  C   UNL     1       1.664 -13.662  12.502  1.00  0.00     0.000 A 
ENDBRANCH  53  67
BRANCH  54  73
ATOM     73  C   UNL     1      -0.548  -1.375  15.213  1.00  0.00    -0.014 A 
ATOM     74  C   UNL     1      -0.104  -0.799  16.414  1.00  0.00     0.009 A 
ATOM     75  C   UNL     1      -1.278  -0.585  14.312  1.00  0.00     0.009 A 
ATOM     76  C   UNL     1      -0.413   0.528  16.720  1.00  0.00     0.001 A 
ATOM     77  C   UNL     1      -1.560   0.751  14.607  1.00  0.00     0.001 A 
ATOM     78  C   UNL     1      -1.137   1.303  15.815  1.00  0.00     0.000 A 
ENDBRANCH  54  73
BRANCH  66  79
ATOM     79  C   UNL     1      -2.756  -7.340  18.026  1.00  0.00    -0.014 A 
ATOM     80  C   UNL     1      -4.141  -7.129  17.951  1.00  0.00     0.009 A 
ATOM     81  C   UNL     1      -2.210  -7.867  19.207  1.00  0.00     0.009 A 
ATOM     82  C   UNL     1      -4.957  -7.405  19.051  1.00  0.00     0.001 A 
ATOM     83  C   UNL     1      -3.031  -8.170  20.293  1.00  0.00     0.001 A 
ATOM     84  C   UNL     1      -4.402  -7.929  20.218  1.00  0.00     0.000 A 
ENDBRANCH  66  79
ENDBRANCH  40  41
ENDBRANCH  32  35
ENDBRANCH  30  31
ENDBRANCH  29  30
ENDBRANCH  28  29
ENDBRANCH   1  28
TORSDOF 17
