REMARK SMILES O=C(NCCCCCCNC(=O)c1cc(Cl)c2c(c1)[C@H]1C=CC[C@H]1[C@H](c1ccc(S(=O)(=O)N3CCOCC3)cc1)N2)c1ccc(-c2c3nc(c(-c4ccccc4)c4ccc([nH]4)c(-c4ccccc4)c4nc(c(-c5ccccc5)c5ccc2[nH]5)C=C4)C=C3)cc1
REMARK SMILES IDX 7 1 6 2 5 3 4 4 3 5 1 6 2 7 42 9 43 10 89 11 44 12 88 13
REMARK SMILES IDX 45 14 46 15 47 16 82 17 48 18 87 19 81 20 83 21 49 22 86 23
REMARK SMILES IDX 80 24 79 25 50 27 72 28 57 29 71 30 58 31 61 32 70 33 84 34
REMARK SMILES IDX 59 35 60 36 69 38 85 39 62 40 51 41 52 42 56 43 53 44 55 45
REMARK SMILES IDX 54 46 73 47 74 48 78 49 75 50 77 51 76 52 63 53 64 54 68 55
REMARK SMILES IDX 65 56 67 57 66 58 8 59 9 60 10 61 11 62 12 64 13 65 14 66
REMARK SMILES IDX 19 67 15 68 18 69 16 70 17 71 20 72 41 73 21 74 24 75 25 76
REMARK SMILES IDX 22 78 23 79 26 80 27 81 40 82 28 83 39 84 29 85 30 86 31 87
REMARK SMILES IDX 32 88 33 89 34 90 38 91 35 92 37 93 36 94
REMARK H PARENT 3 8 83 26 61 37 10 63 41 77
REMARK Flexibility Score: inf
ROOT
ATOM      1  C   UNL     1       4.603   2.749  -3.280  1.00  0.00     0.002 C 
ENDROOT
BRANCH   1   2
ATOM      2  C   UNL     1       4.121   1.311  -3.492  1.00  0.00     0.002 C 
BRANCH   2   3
ATOM      3  C   UNL     1       4.632   0.297  -2.465  1.00  0.00     0.021 C 
BRANCH   3   4
ATOM      4  C   UNL     1       4.326   0.650  -1.013  1.00  0.00     0.116 C 
BRANCH   4   5
ATOM      5  N   UNL     1       2.896   0.749  -0.772  1.00  0.00    -0.352 N 
ATOM      6  O   UNL     1       0.897   0.102   0.047  1.00  0.00    -0.269 OA
ATOM      7  C   UNL     1       2.120   0.059   0.121  1.00  0.00     0.251 C 
ATOM      8  H   UNL     1       2.418   1.404  -1.331  1.00  0.00     0.163 HD
BRANCH   7   9
ATOM      9  C   UNL     1       2.764  -0.740   1.182  1.00  0.00     0.039 A 
ATOM     10  C   UNL     1       3.776  -0.183   1.970  1.00  0.00     0.014 A 
ATOM     11  C   UNL     1       2.312  -2.041   1.422  1.00  0.00     0.014 A 
ATOM     12  C   UNL     1       4.391  -0.957   2.949  1.00  0.00     0.010 A 
ATOM     13  C   UNL     1       2.897  -2.800   2.437  1.00  0.00     0.010 A 
ATOM     14  C   UNL     1       3.949  -2.267   3.197  1.00  0.00    -0.014 A 
BRANCH  14  15
ATOM     15  C   UNL     1       4.548  -3.026   4.317  1.00  0.00     0.031 A 
ATOM     16  C   UNL     1       5.484  -4.169   4.070  1.00  0.00     0.074 A 
ATOM     17  C   UNL     1       4.260  -2.645   5.575  1.00  0.00     0.049 A 
ATOM     18  N   UNL     1       6.191  -4.845   4.939  1.00  0.00    -0.248 NA
ATOM     19  C   UNL     1       5.649  -4.614   2.679  1.00  0.00     0.031 C 
ATOM     20  C   UNL     1       3.342  -1.562   5.934  1.00  0.00     0.029 A 
ATOM     21  N   UNL     1       4.726  -3.105   6.780  1.00  0.00    -0.354 N 
ATOM     22  C   UNL     1       6.886  -5.794   4.203  1.00  0.00     0.074 A 
ATOM     23  C   UNL     1       6.494  -5.628   2.820  1.00  0.00     0.031 C 
ATOM     24  C   UNL     1       3.346  -1.411   7.266  1.00  0.00     0.029 A 
ATOM     25  C   UNL     1       4.243  -2.401   7.855  1.00  0.00     0.049 A 
ATOM     26  H   UNL     1       5.345  -3.865   6.865  1.00  0.00     0.167 HD
ATOM     27  C   UNL     1       7.777  -6.711   4.644  1.00  0.00     0.031 A 
ATOM     28  C   UNL     1       4.498  -2.527   9.171  1.00  0.00     0.031 A 
ATOM     29  C   UNL     1       8.162  -6.872   6.020  1.00  0.00     0.049 A 
ATOM     30  C   UNL     1       5.473  -3.564   9.639  1.00  0.00     0.074 A 
ATOM     31  C   UNL     1       9.110  -7.730   6.549  1.00  0.00     0.029 A 
ATOM     32  N   UNL     1       7.611  -6.176   7.083  1.00  0.00    -0.354 N 
ATOM     33  N   UNL     1       6.183  -4.400   8.922  1.00  0.00    -0.248 NA
ATOM     34  C   UNL     1       5.687  -3.676  11.088  1.00  0.00     0.031 C 
ATOM     35  C   UNL     1       9.095  -7.591   7.939  1.00  0.00     0.029 A 
ATOM     36  C   UNL     1       8.172  -6.612   8.271  1.00  0.00     0.049 A 
ATOM     37  H   UNL     1       6.923  -5.475   7.006  1.00  0.00     0.167 HD
ATOM     38  C   UNL     1       6.935  -5.133   9.829  1.00  0.00     0.074 A 
ATOM     39  C   UNL     1       6.601  -4.638  11.149  1.00  0.00     0.031 C 
ATOM     40  C   UNL     1       7.824  -6.122   9.580  1.00  0.00     0.031 A 
BRANCH  27  41
ATOM     41  C   UNL     1       8.404  -7.625   3.633  1.00  0.00    -0.014 A 
ATOM     42  C   UNL     1       9.416  -7.166   2.775  1.00  0.00     0.009 A 
ATOM     43  C   UNL     1       8.044  -8.981   3.601  1.00  0.00     0.009 A 
ATOM     44  C   UNL     1      10.045  -8.048   1.894  1.00  0.00     0.001 A 
ATOM     45  C   UNL     1       8.689  -9.863   2.733  1.00  0.00     0.001 A 
ATOM     46  C   UNL     1       9.686  -9.396   1.879  1.00  0.00     0.000 A 
ENDBRANCH  27  41
BRANCH  28  47
ATOM     47  C   UNL     1       3.825  -1.601  10.113  1.00  0.00    -0.014 A 
ATOM     48  C   UNL     1       4.512  -0.490  10.624  1.00  0.00     0.009 A 
ATOM     49  C   UNL     1       2.462  -1.758  10.410  1.00  0.00     0.009 A 
ATOM     50  C   UNL     1       3.841   0.453  11.405  1.00  0.00     0.001 A 
ATOM     51  C   UNL     1       1.791  -0.805  11.177  1.00  0.00     0.001 A 
ATOM     52  C   UNL     1       2.480   0.301  11.672  1.00  0.00     0.000 A 
ENDBRANCH  28  47
BRANCH  40  53
ATOM     53  C   UNL     1       8.514  -6.763  10.748  1.00  0.00    -0.014 A 
ATOM     54  C   UNL     1       7.867  -7.751  11.504  1.00  0.00     0.009 A 
ATOM     55  C   UNL     1       9.866  -6.481  10.999  1.00  0.00     0.009 A 
ATOM     56  C   UNL     1       8.567  -8.451  12.489  1.00  0.00     0.001 A 
ATOM     57  C   UNL     1      10.566  -7.195  11.972  1.00  0.00     0.001 A 
ATOM     58  C   UNL     1       9.916  -8.181  12.714  1.00  0.00     0.000 A 
ENDBRANCH  40  53
ENDBRANCH  14  15
ENDBRANCH   7   9
ENDBRANCH   4   5
ENDBRANCH   3   4
ENDBRANCH   2   3
ENDBRANCH   1   2
BRANCH   1  59
ATOM     59  C   UNL     1       6.123   2.925  -3.238  1.00  0.00     0.021 C 
BRANCH  59  60
ATOM     60  C   UNL     1       6.862   2.378  -4.455  1.00  0.00     0.116 C 
BRANCH  60  61
ATOM     61  N   UNL     1       6.462   3.045  -5.684  1.00  0.00    -0.352 N 
ATOM     62  C   UNL     1       7.260   3.603  -6.649  1.00  0.00     0.251 C 
ATOM     63  H   UNL     1       5.492   3.103  -5.844  1.00  0.00     0.163 HD
ATOM     64  O   UNL     1       6.788   4.274  -7.558  1.00  0.00    -0.269 OA
BRANCH  62  65
ATOM     65  C   UNL     1       8.715   3.401  -6.557  1.00  0.00     0.041 A 
ATOM     66  C   UNL     1       9.241   2.111  -6.519  1.00  0.00     0.036 A 
ATOM     67  C   UNL     1       9.548   4.516  -6.482  1.00  0.00     0.020 A 
ATOM     68  C   UNL     1      10.604   1.946  -6.305  1.00  0.00     0.065 A 
ATOM     69  C   UNL     1      10.929   4.349  -6.288  1.00  0.00    -0.015 A 
ATOM     70  Cl  UNL     1      11.217   0.331  -6.181  1.00  0.00    -0.082 Cl
ATOM     71  C   UNL     1      11.460   3.055  -6.148  1.00  0.00     0.057 A 
ATOM     72  C   UNL     1      11.823   5.561  -6.276  1.00  0.00     0.049 C 
ATOM     73  N   UNL     1      12.818   2.875  -5.925  1.00  0.00    -0.376 N 
ATOM     74  C   UNL     1      11.685   6.447  -5.065  1.00  0.00    -0.023 C 
ATOM     75  C   UNL     1      13.338   5.253  -6.272  1.00  0.00     0.031 C 
ATOM     76  C   UNL     1      13.622   3.983  -5.439  1.00  0.00     0.114 C 
ATOM     77  H   UNL     1      13.235   1.999  -6.094  1.00  0.00     0.161 HD
ATOM     78  C   UNL     1      12.862   6.990  -4.731  1.00  0.00    -0.030 C 
ATOM     79  C   UNL     1      13.947   6.526  -5.652  1.00  0.00     0.034 C 
BRANCH  76  80
ATOM     80  C   UNL     1      15.086   3.570  -5.477  1.00  0.00    -0.025 A 
ATOM     81  C   UNL     1      15.634   2.848  -6.553  1.00  0.00     0.007 A 
ATOM     82  C   UNL     1      15.922   3.920  -4.407  1.00  0.00     0.007 A 
ATOM     83  C   UNL     1      16.995   2.529  -6.581  1.00  0.00     0.022 A 
ATOM     84  C   UNL     1      17.273   3.585  -4.425  1.00  0.00     0.022 A 
ATOM     85  C   UNL     1      17.816   2.927  -5.526  1.00  0.00     0.082 A 
BRANCH  85  86
ATOM     86  S   UNL     1      19.573   2.656  -5.624  1.00  0.00     0.243 S 
ATOM     87  O   UNL     1      19.880   1.583  -4.704  1.00  0.00    -0.207 OA
ATOM     88  O   UNL     1      19.904   2.574  -7.031  1.00  0.00    -0.207 OA
BRANCH  86  89
ATOM     89  N   UNL     1      20.238   4.081  -5.045  1.00  0.00    -0.193 NA
ATOM     90  C   UNL     1      20.697   4.241  -3.650  1.00  0.00     0.131 C 
ATOM     91  C   UNL     1      20.238   5.317  -5.849  1.00  0.00     0.131 C 
ATOM     92  C   UNL     1      20.094   5.490  -2.985  1.00  0.00     0.177 C 
ATOM     93  C   UNL     1      19.533   6.435  -5.079  1.00  0.00     0.177 C 
ATOM     94  O   UNL     1      20.169   6.658  -3.812  1.00  0.00    -0.379 OA
ENDBRANCH  86  89
ENDBRANCH  85  86
ENDBRANCH  76  80
ENDBRANCH  62  65
ENDBRANCH  60  61
ENDBRANCH  59  60
ENDBRANCH   1  59
TORSDOF 16
