REMARK SMILES C#CCN(CC(=O)NCCCCCCNC(=O)c1ccc(-c2c3nc(c(-c4ccccc4)c4ccc([nH]4)c(-c4ccccc4)c4nc(c(-c5ccccc5)c5ccc2[nH]5)C=C4)C=C3)cc1)C(=O)NCCc1ccco1
REMARK SMILES IDX 10 1 9 2 8 3 6 4 7 5 5 7 4 8 3 9 2 10 1 11 66 12 67 13 68 14
REMARK SMILES IDX 69 16 70 17 71 18 72 19 75 20 73 21 74 22 11 23 12 24 13 25
REMARK SMILES IDX 14 26 15 27 16 28 17 30 18 31 19 32 65 33 20 34 64 35 21 36
REMARK SMILES IDX 22 37 23 38 58 39 24 40 63 41 57 42 59 43 25 44 62 45 56 46
REMARK SMILES IDX 55 47 26 49 48 50 33 51 47 52 34 53 37 54 46 55 60 56 35 57
REMARK SMILES IDX 36 58 45 60 61 61 38 62 27 63 28 64 32 65 29 66 31 67 30 68
REMARK SMILES IDX 49 69 50 70 54 71 51 72 53 73 52 74 39 75 40 76 44 77 41 78
REMARK SMILES IDX 43 79 42 80
REMARK H PARENT 8 6 68 15 15 29 59 48 37 59
REMARK Flexibility Score: inf
ROOT
ATOM      1  C   UNL     1      -5.008  -0.138  -1.714  1.00  0.00     0.021 C 
ENDROOT
BRANCH   1   2
ATOM      2  C   UNL     1      -5.095   0.066  -0.203  1.00  0.00     0.116 C 
BRANCH   2   3
ATOM      3  N   UNL     1      -5.373  -1.157   0.513  1.00  0.00    -0.355 N 
ATOM      4  C   UNL     1      -4.572  -1.866   1.357  1.00  0.00     0.239 C 
ATOM      5  O   UNL     1      -5.122  -2.694   2.090  1.00  0.00    -0.273 OA
ATOM      6  H   UNL     1      -6.272  -1.533   0.370  1.00  0.00     0.163 HD
BRANCH   4   7
ATOM      7  C   UNL     1      -3.074  -1.556   1.509  1.00  0.00     0.222 C 
BRANCH   7   8
ATOM      8  N   UNL     1      -2.340  -1.414   0.255  1.00  0.00    -0.304 N 
BRANCH   8   9
ATOM      9  C   UNL     1      -1.784  -0.089  -0.023  1.00  0.00     0.211 C 
BRANCH   9  10
ATOM     10  C   UNL     1      -0.264  -0.089  -0.023  1.00  0.00    -0.085 C 
ATOM     11  C   UNL     1       1.040  -0.089  -0.023  1.00  0.00     0.006 C 
ENDBRANCH   9  10
ENDBRANCH   8   9
BRANCH   8  12
ATOM     12  C   UNL     1      -2.076  -2.389  -0.663  1.00  0.00     0.318 C 
ATOM     13  O   UNL     1      -1.543  -2.124  -1.747  1.00  0.00    -0.249 OA
ATOM     14  N   UNL     1      -2.363  -3.688  -0.494  1.00  0.00    -0.337 N 
ATOM     15  H   UNL     1      -2.014  -4.218  -1.247  1.00  0.00     0.165 HD
BRANCH  14  16
ATOM     16  C   UNL     1      -3.036  -4.554   0.471  1.00  0.00     0.125 C 
BRANCH  16  17
ATOM     17  C   UNL     1      -4.430  -4.965  -0.015  1.00  0.00     0.096 C 
BRANCH  17  18
ATOM     18  C   UNL     1      -4.357  -6.072  -1.007  1.00  0.00     0.105 A 
ATOM     19  C   UNL     1      -4.083  -6.129  -2.357  1.00  0.00     0.045 A 
ATOM     20  O   UNL     1      -4.586  -7.326  -0.524  1.00  0.00    -0.469 OA
ATOM     21  C   UNL     1      -4.142  -7.497  -2.717  1.00  0.00     0.042 A 
ATOM     22  C   UNL     1      -4.458  -8.183  -1.568  1.00  0.00     0.195 A 
ENDBRANCH  17  18
ENDBRANCH  16  17
ENDBRANCH  14  16
ENDBRANCH   8  12
ENDBRANCH   7   8
ENDBRANCH   4   7
ENDBRANCH   2   3
ENDBRANCH   1   2
BRANCH   1  23
ATOM     23  C   UNL     1      -6.354  -0.438  -2.382  1.00  0.00     0.002 C 
BRANCH  23  24
ATOM     24  C   UNL     1      -7.479   0.551  -2.054  1.00  0.00     0.002 C 
BRANCH  24  25
ATOM     25  C   UNL     1      -7.137   2.024  -2.293  1.00  0.00     0.021 C 
BRANCH  25  26
ATOM     26  C   UNL     1      -6.807   2.364  -3.741  1.00  0.00     0.116 C 
BRANCH  26  27
ATOM     27  N   UNL     1      -7.952   2.166  -4.615  1.00  0.00    -0.352 N 
ATOM     28  C   UNL     1      -8.571   3.060  -5.449  1.00  0.00     0.251 C 
ATOM     29  H   UNL     1      -8.338   1.260  -4.606  1.00  0.00     0.163 HD
ATOM     30  O   UNL     1      -9.663   2.790  -5.946  1.00  0.00    -0.269 OA
BRANCH  28  31
ATOM     31  C   UNL     1      -7.931   4.359  -5.739  1.00  0.00     0.039 A 
ATOM     32  C   UNL     1      -8.712   5.517  -5.733  1.00  0.00     0.014 A 
ATOM     33  C   UNL     1      -6.565   4.433  -6.028  1.00  0.00     0.014 A 
ATOM     34  C   UNL     1      -8.113   6.756  -5.964  1.00  0.00     0.010 A 
ATOM     35  C   UNL     1      -5.956   5.675  -6.180  1.00  0.00     0.010 A 
ATOM     36  C   UNL     1      -6.724   6.848  -6.158  1.00  0.00    -0.014 A 
BRANCH  36  37
ATOM     37  C   UNL     1      -6.059   8.161  -6.355  1.00  0.00     0.031 A 
ATOM     38  C   UNL     1      -5.361   8.465  -7.653  1.00  0.00     0.074 A 
ATOM     39  C   UNL     1      -6.036   9.057  -5.348  1.00  0.00     0.049 A 
ATOM     40  N   UNL     1      -4.666   9.523  -7.988  1.00  0.00    -0.248 NA
ATOM     41  C   UNL     1      -5.433   7.437  -8.704  1.00  0.00     0.031 C 
ATOM     42  C   UNL     1      -6.651   8.873  -4.032  1.00  0.00     0.029 A 
ATOM     43  N   UNL     1      -5.465  10.303  -5.275  1.00  0.00    -0.354 N 
ATOM     44  C   UNL     1      -4.212   9.282  -9.279  1.00  0.00     0.074 A 
ATOM     45  C   UNL     1      -4.661   7.958  -9.647  1.00  0.00     0.031 C 
ATOM     46  C   UNL     1      -6.446   9.975  -3.292  1.00  0.00     0.029 A 
ATOM     47  C   UNL     1      -5.648  10.923  -4.062  1.00  0.00     0.049 A 
ATOM     48  H   UNL     1      -4.972  10.714  -6.021  1.00  0.00     0.167 HD
ATOM     49  C   UNL     1      -3.504  10.099 -10.095  1.00  0.00     0.031 A 
ATOM     50  C   UNL     1      -5.212  12.117  -3.616  1.00  0.00     0.031 A 
ATOM     51  C   UNL     1      -3.063  11.419  -9.733  1.00  0.00     0.049 A 
ATOM     52  C   UNL     1      -4.394  12.987  -4.532  1.00  0.00     0.074 A 
ATOM     53  C   UNL     1      -2.373  12.338 -10.504  1.00  0.00     0.029 A 
ATOM     54  N   UNL     1      -3.269  12.008  -8.496  1.00  0.00    -0.354 N 
ATOM     55  N   UNL     1      -4.024  12.767  -5.771  1.00  0.00    -0.248 NA
ATOM     56  C   UNL     1      -3.943  14.277  -3.990  1.00  0.00     0.031 C 
ATOM     57  C   UNL     1      -2.114  13.462  -9.716  1.00  0.00     0.029 A 
ATOM     58  C   UNL     1      -2.701  13.270  -8.476  1.00  0.00     0.049 A 
ATOM     59  H   UNL     1      -3.749  11.591  -7.744  1.00  0.00     0.167 HD
ATOM     60  C   UNL     1      -3.332  13.905  -6.166  1.00  0.00     0.074 A 
ATOM     61  C   UNL     1      -3.348  14.818  -5.043  1.00  0.00     0.031 C 
ATOM     62  C   UNL     1      -2.736  14.171  -7.354  1.00  0.00     0.031 A 
BRANCH  49  63
ATOM     63  C   UNL     1      -3.162   9.587 -11.467  1.00  0.00    -0.014 A 
ATOM     64  C   UNL     1      -4.152   9.425 -12.449  1.00  0.00     0.009 A 
ATOM     65  C   UNL     1      -1.825   9.319 -11.800  1.00  0.00     0.009 A 
ATOM     66  C   UNL     1      -3.814   8.977 -13.728  1.00  0.00     0.001 A 
ATOM     67  C   UNL     1      -1.486   8.900 -13.089  1.00  0.00     0.001 A 
ATOM     68  C   UNL     1      -2.481   8.722 -14.048  1.00  0.00     0.000 A 
ENDBRANCH  49  63
BRANCH  50  69
ATOM     69  C   UNL     1      -5.531  12.569  -2.236  1.00  0.00    -0.014 A 
ATOM     70  C   UNL     1      -6.374  13.671  -2.021  1.00  0.00     0.009 A 
ATOM     71  C   UNL     1      -4.961  11.928  -1.124  1.00  0.00     0.009 A 
ATOM     72  C   UNL     1      -6.605  14.147  -0.728  1.00  0.00     0.001 A 
ATOM     73  C   UNL     1      -5.222  12.384   0.170  1.00  0.00     0.001 A 
ATOM     74  C   UNL     1      -6.031  13.502   0.366  1.00  0.00     0.000 A 
ENDBRANCH  50  69
BRANCH  62  75
ATOM     75  C   UNL     1      -2.100  15.523  -7.520  1.00  0.00    -0.014 A 
ATOM     76  C   UNL     1      -0.917  15.866  -6.848  1.00  0.00     0.009 A 
ATOM     77  C   UNL     1      -2.676  16.453  -8.400  1.00  0.00     0.009 A 
ATOM     78  C   UNL     1      -0.344  17.126  -7.026  1.00  0.00     0.001 A 
ATOM     79  C   UNL     1      -2.082  17.700  -8.602  1.00  0.00     0.001 A 
ATOM     80  C   UNL     1      -0.923  18.039  -7.908  1.00  0.00     0.000 A 
ENDBRANCH  62  75
ENDBRANCH  36  37
ENDBRANCH  28  31
ENDBRANCH  26  27
ENDBRANCH  25  26
ENDBRANCH  24  25
ENDBRANCH  23  24
ENDBRANCH   1  23
TORSDOF 20
