REMARK SMILES CCc1ccc(S(=O)(=O)c2nnn(-c3ccc(C(=O)NCCCCCCNC(=O)c4ccc(-c5c6nc(c(-c7ccccc7)c7ccc([nH]7)c(-c7ccccc7)c7nc(c(-c8ccccc8)c8ccc5[nH]8)C=C7)C=C6)cc4)cc3)c2C)cc1
REMARK SMILES IDX 22 1 21 2 20 3 18 4 19 5 17 7 14 8 15 9 79 10 16 11 78 12
REMARK SMILES IDX 13 13 10 14 11 15 80 16 12 17 81 18 7 19 8 20 9 21 6 22 3 23
REMARK SMILES IDX 4 24 83 25 5 26 82 27 2 28 1 29 23 30 24 31 25 32 26 33
REMARK SMILES IDX 27 34 28 35 29 37 30 38 31 39 77 40 32 41 76 42 33 43 34 44
REMARK SMILES IDX 35 45 70 46 36 47 75 48 69 49 71 50 37 51 74 52 68 53 67 54
REMARK SMILES IDX 38 56 60 57 45 58 59 59 46 60 49 61 58 62 72 63 47 64 48 65
REMARK SMILES IDX 57 67 73 68 50 69 39 70 40 71 44 72 41 73 43 74 42 75 61 76
REMARK SMILES IDX 62 77 66 78 63 79 65 80 64 81 51 82 52 83 56 84 53 85 55 86
REMARK SMILES IDX 54 87
REMARK H PARENT 20 6 27 36 71 55 49 66
REMARK Flexibility Score: inf
ROOT
ATOM      1  C   UNL     1      -0.213  -5.967  11.658  1.00  0.00     0.021 C 
ENDROOT
BRANCH   1   2
ATOM      2  C   UNL     1      -0.157  -4.686  10.821  1.00  0.00     0.116 C 
BRANCH   2   3
ATOM      3  N   UNL     1       1.046  -3.936  11.132  1.00  0.00    -0.352 N 
ATOM      4  C   UNL     1       2.248  -3.784  10.489  1.00  0.00     0.251 C 
ATOM      5  O   UNL     1       3.090  -3.059  11.020  1.00  0.00    -0.269 OA
ATOM      6  H   UNL     1       0.988  -3.435  11.978  1.00  0.00     0.163 HD
BRANCH   4   7
ATOM      7  C   UNL     1       2.547  -4.385   9.159  1.00  0.00     0.039 A 
ATOM      8  C   UNL     1       3.008  -5.212   6.529  1.00  0.00     0.067 A 
ATOM      9  C   UNL     1       3.777  -4.177   7.059  1.00  0.00     0.029 A 
ATOM     10  C   UNL     1       2.103  -5.910   7.331  1.00  0.00     0.029 A 
ATOM     11  C   UNL     1       3.514  -3.743   8.362  1.00  0.00     0.016 A 
ATOM     12  C   UNL     1       1.927  -5.531   8.660  1.00  0.00     0.016 A 
BRANCH   8  13
ATOM     13  N   UNL     1       3.123  -5.559   5.171  1.00  0.00    -0.216 N 
ATOM     14  C   UNL     1       2.764  -6.210   3.133  1.00  0.00     0.205 A 
ATOM     15  N   UNL     1       4.115  -6.158   3.345  1.00  0.00    -0.117 NA
ATOM     16  C   UNL     1       2.101  -5.745   4.258  1.00  0.00     0.081 A 
ATOM     17  N   UNL     1       4.321  -5.672   4.562  1.00  0.00    -0.061 NA
ATOM     18  C   UNL     1       0.697  -5.311   4.477  1.00  0.00     0.070 C 
BRANCH  14  19
ATOM     19  S   UNL     1       2.087  -6.537   1.576  1.00  0.00     0.227 S 
ATOM     20  O   UNL     1       0.851  -7.226   1.859  1.00  0.00    -0.217 OA
ATOM     21  O   UNL     1       3.158  -7.140   0.794  1.00  0.00    -0.217 OA
BRANCH  19  22
ATOM     22  C   UNL     1       1.694  -4.967   0.856  1.00  0.00     0.073 A 
ATOM     23  C   UNL     1       0.898  -2.510  -0.246  1.00  0.00    -0.048 A 
ATOM     24  C   UNL     1       0.531  -3.725  -0.853  1.00  0.00     0.005 A 
ATOM     25  C   UNL     1       1.682  -2.552   0.913  1.00  0.00     0.005 A 
ATOM     26  C   UNL     1       0.917  -4.950  -0.303  1.00  0.00     0.021 A 
ATOM     27  C   UNL     1       2.091  -3.769   1.454  1.00  0.00     0.021 A 
BRANCH  23  28
ATOM     28  C   UNL     1       0.436  -1.218  -0.881  1.00  0.00     0.032 C 
ATOM     29  C   UNL     1       0.836   0.071  -0.170  1.00  0.00     0.009 C 
ENDBRANCH  23  28
ENDBRANCH  19  22
ENDBRANCH  14  19
ENDBRANCH   8  13
ENDBRANCH   4   7
ENDBRANCH   2   3
ENDBRANCH   1   2
BRANCH   1  30
ATOM     30  C   UNL     1      -0.731  -5.736  13.084  1.00  0.00     0.002 C 
BRANCH  30  31
ATOM     31  C   UNL     1      -2.138  -5.123  13.180  1.00  0.00     0.002 C 
BRANCH  31  32
ATOM     32  C   UNL     1      -3.235  -5.829  12.369  1.00  0.00     0.021 C 
BRANCH  32  33
ATOM     33  C   UNL     1      -3.594  -7.204  12.909  1.00  0.00     0.116 C 
BRANCH  33  34
ATOM     34  N   UNL     1      -4.261  -7.120  14.207  1.00  0.00    -0.352 N 
ATOM     35  C   UNL     1      -4.661  -8.150  15.030  1.00  0.00     0.251 C 
ATOM     36  H   UNL     1      -4.447  -6.211  14.536  1.00  0.00     0.163 HD
ATOM     37  O   UNL     1      -5.531  -7.983  15.876  1.00  0.00    -0.269 OA
BRANCH  35  38
ATOM     38  C   UNL     1      -4.010  -9.461  14.883  1.00  0.00     0.039 A 
ATOM     39  C   UNL     1      -4.745 -10.646  14.949  1.00  0.00     0.014 A 
ATOM     40  C   UNL     1      -2.634  -9.481  14.660  1.00  0.00     0.014 A 
ATOM     41  C   UNL     1      -4.091 -11.851  14.711  1.00  0.00     0.010 A 
ATOM     42  C   UNL     1      -2.019 -10.649  14.288  1.00  0.00     0.010 A 
ATOM     43  C   UNL     1      -2.730 -11.840  14.360  1.00  0.00    -0.014 A 
BRANCH  43  44
ATOM     44  C   UNL     1      -2.062 -13.060  13.932  1.00  0.00     0.031 A 
ATOM     45  C   UNL     1      -2.711 -13.733  12.780  1.00  0.00     0.074 A 
ATOM     46  C   UNL     1      -0.854 -13.452  14.388  1.00  0.00     0.049 A 
ATOM     47  N   UNL     1      -3.400 -14.822  12.812  1.00  0.00    -0.248 NA
ATOM     48  C   UNL     1      -2.729 -13.051  11.476  1.00  0.00     0.031 C 
ATOM     49  C   UNL     1       0.059 -12.741  15.290  1.00  0.00     0.029 A 
ATOM     50  N   UNL     1      -0.132 -14.552  14.043  1.00  0.00    -0.354 N 
ATOM     51  C   UNL     1      -3.756 -15.089  11.496  1.00  0.00     0.074 A 
ATOM     52  C   UNL     1      -3.487 -13.882  10.755  1.00  0.00     0.031 C 
ATOM     53  C   UNL     1       1.287 -13.305  15.230  1.00  0.00     0.029 A 
ATOM     54  C   UNL     1       1.203 -14.513  14.428  1.00  0.00     0.049 A 
ATOM     55  H   UNL     1      -0.523 -15.314  13.558  1.00  0.00     0.167 HD
ATOM     56  C   UNL     1      -3.987 -16.366  11.082  1.00  0.00     0.031 A 
ATOM     57  C   UNL     1       2.169 -15.404  14.093  1.00  0.00     0.031 A 
ATOM     58  C   UNL     1      -4.101 -17.270  12.200  1.00  0.00     0.049 A 
ATOM     59  C   UNL     1       1.490 -16.656  13.689  1.00  0.00     0.074 A 
ATOM     60  C   UNL     1      -4.925 -17.360  13.305  1.00  0.00     0.029 A 
ATOM     61  N   UNL     1      -2.990 -18.027  12.494  1.00  0.00    -0.354 N 
ATOM     62  N   UNL     1       0.832 -17.409  14.521  1.00  0.00    -0.248 NA
ATOM     63  C   UNL     1       1.157 -16.835  12.286  1.00  0.00     0.031 C 
ATOM     64  C   UNL     1      -4.063 -17.754  14.373  1.00  0.00     0.029 A 
ATOM     65  C   UNL     1      -2.787 -17.968  13.848  1.00  0.00     0.049 A 
ATOM     66  H   UNL     1      -2.439 -18.523  11.847  1.00  0.00     0.167 HD
ATOM     67  C   UNL     1      -0.303 -17.789  13.820  1.00  0.00     0.074 A 
ATOM     68  C   UNL     1       0.007 -17.505  12.418  1.00  0.00     0.031 C 
ATOM     69  C   UNL     1      -1.482 -18.021  14.469  1.00  0.00     0.031 A 
BRANCH  56  70
ATOM     70  C   UNL     1      -3.662 -16.872   9.698  1.00  0.00    -0.014 A 
ATOM     71  C   UNL     1      -3.984 -18.204   9.381  1.00  0.00     0.009 A 
ATOM     72  C   UNL     1      -2.799 -16.201   8.812  1.00  0.00     0.009 A 
ATOM     73  C   UNL     1      -3.405 -18.852   8.284  1.00  0.00     0.001 A 
ATOM     74  C   UNL     1      -2.252 -16.832   7.692  1.00  0.00     0.001 A 
ATOM     75  C   UNL     1      -2.531 -18.168   7.446  1.00  0.00     0.000 A 
ENDBRANCH  56  70
BRANCH  57  76
ATOM     76  C   UNL     1       3.614 -15.197  13.860  1.00  0.00    -0.014 A 
ATOM     77  C   UNL     1       4.495 -16.291  13.818  1.00  0.00     0.009 A 
ATOM     78  C   UNL     1       4.081 -13.962  13.376  1.00  0.00     0.009 A 
ATOM     79  C   UNL     1       5.773 -16.168  13.257  1.00  0.00     0.001 A 
ATOM     80  C   UNL     1       5.359 -13.839  12.818  1.00  0.00     0.001 A 
ATOM     81  C   UNL     1       6.197 -14.947  12.740  1.00  0.00     0.000 A 
ENDBRANCH  57  76
BRANCH  69  82
ATOM     82  C   UNL     1      -1.451 -18.112  15.977  1.00  0.00    -0.014 A 
ATOM     83  C   UNL     1      -1.002 -17.073  16.814  1.00  0.00     0.009 A 
ATOM     84  C   UNL     1      -2.012 -19.248  16.578  1.00  0.00     0.009 A 
ATOM     85  C   UNL     1      -1.074 -17.192  18.207  1.00  0.00     0.001 A 
ATOM     86  C   UNL     1      -2.106 -19.357  17.966  1.00  0.00     0.001 A 
ATOM     87  C   UNL     1      -1.628 -18.334  18.782  1.00  0.00     0.000 A 
ENDBRANCH  69  82
ENDBRANCH  43  44
ENDBRANCH  35  38
ENDBRANCH  33  34
ENDBRANCH  32  33
ENDBRANCH  31  32
ENDBRANCH  30  31
ENDBRANCH   1  30
TORSDOF 17
