REMARK SMILES CC[C@@](C)(NC(=O)Nc1c(C)cccc1Cl)C(=O)NCCCCCCNC(=O)c1ccc(-c2c3nc(c(-c4ccccc4)c4ccc([nH]4)c(-c4ccccc4)c4nc(c(-c5ccccc5)c5ccc2[nH]5)C=C4)C=C3)cc1
REMARK SMILES IDX 22 1 21 2 20 3 19 4 17 5 18 6 3 8 4 9 2 10 1 11 5 12 6 13
REMARK SMILES IDX 7 15 8 16 9 18 10 19 15 20 11 21 12 22 14 23 16 24 13 25
REMARK SMILES IDX 23 26 24 27 25 28 26 29 27 30 28 32 29 33 30 34 76 35 31 36
REMARK SMILES IDX 75 37 32 38 33 39 34 40 69 41 35 42 74 43 68 44 70 45 36 46
REMARK SMILES IDX 73 47 67 48 66 49 37 51 59 52 44 53 58 54 45 55 48 56 57 57
REMARK SMILES IDX 71 58 46 59 47 60 56 62 72 63 49 64 38 65 39 66 43 67 40 68
REMARK SMILES IDX 42 69 41 70 60 71 61 72 65 73 62 74 64 75 63 76 50 77 51 78
REMARK SMILES IDX 55 79 52 80 54 81 53 82
REMARK H PARENT 19 7 5 14 8 17 26 31 70 50 48 61
REMARK Flexibility Score: inf
ROOT
ATOM      1  C   UNL     1       3.951  -6.348   1.055  1.00  0.00     0.002 C 
ENDROOT
BRANCH   1   2
ATOM      2  C   UNL     1       2.438  -6.520   0.860  1.00  0.00     0.021 C 
BRANCH   2   3
ATOM      3  C   UNL     1       1.425  -5.581   1.538  1.00  0.00     0.116 C 
BRANCH   3   4
ATOM      4  N   UNL     1       1.801  -4.193   1.739  1.00  0.00    -0.354 N 
ATOM      5  C   UNL     1       1.243  -2.981   1.353  1.00  0.00     0.245 C 
ATOM      6  O   UNL     1       1.316  -2.026   2.133  1.00  0.00    -0.272 OA
ATOM      7  H   UNL     1       2.629  -4.089   2.260  1.00  0.00     0.163 HD
BRANCH   5   8
ATOM      8  C   UNL     1       0.405  -2.871   0.070  1.00  0.00     0.117 C 
ATOM      9  C   UNL     1      -1.016  -3.252   0.569  1.00  0.00     0.045 C 
BRANCH   8  10
ATOM     10  C   UNL     1       0.254  -1.534  -0.716  1.00  0.00     0.035 C 
ATOM     11  C   UNL     1       0.496  -0.215  -0.016  1.00  0.00     0.007 C 
ENDBRANCH   8  10
BRANCH   8  12
ATOM     12  N   UNL     1       0.987  -3.825  -0.874  1.00  0.00    -0.324 N 
ATOM     13  C   UNL     1       2.264  -3.957  -1.319  1.00  0.00     0.320 C 
ATOM     14  H   UNL     1       0.350  -4.477  -1.247  1.00  0.00     0.166 HD
ATOM     15  O   UNL     1       2.416  -4.689  -2.303  1.00  0.00    -0.248 OA
ATOM     16  N   UNL     1       3.378  -3.610  -0.591  1.00  0.00    -0.306 N 
ATOM     17  H   UNL     1       3.840  -4.375  -0.179  1.00  0.00     0.171 HD
BRANCH  16  18
ATOM     18  C   UNL     1       3.998  -2.335  -0.316  1.00  0.00     0.064 A 
ATOM     19  C   UNL     1       4.254  -1.807   0.986  1.00  0.00    -0.026 A 
ATOM     20  C   UNL     1       4.773  -1.755  -1.346  1.00  0.00     0.064 A 
ATOM     21  C   UNL     1       4.266  -2.539   2.307  1.00  0.00     0.046 C 
ATOM     22  C   UNL     1       4.839  -0.531   1.131  1.00  0.00     0.005 A 
ATOM     23  C   UNL     1       5.539  -0.596  -1.140  1.00  0.00     0.023 A 
ATOM     24  Cl  UNL     1       4.996  -2.556  -2.868  1.00  0.00    -0.082 Cl
ATOM     25  C   UNL     1       5.504   0.062   0.078  1.00  0.00     0.002 A 
ENDBRANCH  16  18
ENDBRANCH   8  12
ENDBRANCH   5   8
ENDBRANCH   3   4
ENDBRANCH   2   3
ENDBRANCH   1   2
BRANCH   1  26
ATOM     26  C   UNL     1       4.528  -6.297   2.467  1.00  0.00     0.002 C 
BRANCH  26  27
ATOM     27  C   UNL     1       4.104  -7.401   3.412  1.00  0.00     0.021 C 
BRANCH  27  28
ATOM     28  C   UNL     1       4.389  -8.804   2.915  1.00  0.00     0.116 C 
BRANCH  28  29
ATOM     29  N   UNL     1       5.801  -9.149   2.934  1.00  0.00    -0.352 N 
ATOM     30  C   UNL     1       6.383 -10.291   3.433  1.00  0.00     0.251 C 
ATOM     31  H   UNL     1       6.415  -8.486   2.543  1.00  0.00     0.163 HD
ATOM     32  O   UNL     1       7.607 -10.399   3.498  1.00  0.00    -0.269 OA
BRANCH  30  33
ATOM     33  C   UNL     1       5.516 -11.381   3.932  1.00  0.00     0.039 A 
ATOM     34  C   UNL     1       5.789 -11.953   5.176  1.00  0.00     0.014 A 
ATOM     35  C   UNL     1       4.403 -11.796   3.196  1.00  0.00     0.014 A 
ATOM     36  C   UNL     1       4.909 -12.899   5.707  1.00  0.00     0.010 A 
ATOM     37  C   UNL     1       3.477 -12.658   3.770  1.00  0.00     0.010 A 
ATOM     38  C   UNL     1       3.729 -13.235   5.023  1.00  0.00    -0.014 A 
BRANCH  38  39
ATOM     39  C   UNL     1       2.770 -14.226   5.574  1.00  0.00     0.031 A 
ATOM     40  C   UNL     1       2.504 -15.502   4.819  1.00  0.00     0.074 A 
ATOM     41  C   UNL     1       2.111 -13.969   6.721  1.00  0.00     0.049 A 
ATOM     42  N   UNL     1       1.663 -16.466   5.095  1.00  0.00    -0.248 NA
ATOM     43  C   UNL     1       3.265 -15.711   3.574  1.00  0.00     0.031 C 
ATOM     44  C   UNL     1       2.250 -12.756   7.530  1.00  0.00     0.029 A 
ATOM     45  N   UNL     1       1.184 -14.717   7.404  1.00  0.00    -0.354 N 
ATOM     46  C   UNL     1       1.790 -17.385   4.061  1.00  0.00     0.074 A 
ATOM     47  C   UNL     1       2.735 -16.835   3.116  1.00  0.00     0.031 C 
ATOM     48  C   UNL     1       1.460 -12.856   8.612  1.00  0.00     0.029 A 
ATOM     49  C   UNL     1       0.727 -14.116   8.553  1.00  0.00     0.049 A 
ATOM     50  H   UNL     1       0.875 -15.600   7.099  1.00  0.00     0.167 HD
ATOM     51  C   UNL     1       1.202 -18.596   3.922  1.00  0.00     0.031 A 
ATOM     52  C   UNL     1      -0.185 -14.533   9.453  1.00  0.00     0.031 A 
ATOM     53  C   UNL     1       0.270 -19.152   4.865  1.00  0.00     0.049 A 
ATOM     54  C   UNL     1      -0.847 -15.872   9.258  1.00  0.00     0.074 A 
ATOM     55  C   UNL     1      -0.363 -20.381   4.826  1.00  0.00     0.029 A 
ATOM     56  N   UNL     1      -0.154 -18.516   6.020  1.00  0.00    -0.354 N 
ATOM     57  N   UNL     1      -0.674 -16.750   8.300  1.00  0.00    -0.248 NA
ATOM     58  C   UNL     1      -1.818 -16.284  10.282  1.00  0.00     0.031 C 
ATOM     59  C   UNL     1      -1.207 -20.471   5.937  1.00  0.00     0.029 A 
ATOM     60  C   UNL     1      -1.049 -19.325   6.699  1.00  0.00     0.049 A 
ATOM     61  H   UNL     1       0.137 -17.623   6.314  1.00  0.00     0.167 HD
ATOM     62  C   UNL     1      -1.481 -17.832   8.628  1.00  0.00     0.074 A 
ATOM     63  C   UNL     1      -2.130 -17.507   9.880  1.00  0.00     0.031 C 
ATOM     64  C   UNL     1      -1.669 -18.993   7.954  1.00  0.00     0.031 A 
BRANCH  51  65
ATOM     65  C   UNL     1       1.563 -19.409   2.711  1.00  0.00    -0.014 A 
ATOM     66  C   UNL     1       2.840 -19.977   2.577  1.00  0.00     0.009 A 
ATOM     67  C   UNL     1       0.603 -19.655   1.717  1.00  0.00     0.009 A 
ATOM     68  C   UNL     1       3.158 -20.751   1.459  1.00  0.00     0.001 A 
ATOM     69  C   UNL     1       0.914 -20.455   0.616  1.00  0.00     0.001 A 
ATOM     70  C   UNL     1       2.192 -20.996   0.484  1.00  0.00     0.000 A 
ENDBRANCH  51  65
BRANCH  52  71
ATOM     71  C   UNL     1      -0.537 -13.685  10.624  1.00  0.00    -0.014 A 
ATOM     72  C   UNL     1      -0.222 -14.095  11.929  1.00  0.00     0.009 A 
ATOM     73  C   UNL     1      -1.238 -12.482  10.446  1.00  0.00     0.009 A 
ATOM     74  C   UNL     1      -0.645 -13.347  13.031  1.00  0.00     0.001 A 
ATOM     75  C   UNL     1      -1.627 -11.716  11.547  1.00  0.00     0.001 A 
ATOM     76  C   UNL     1      -1.345 -12.157  12.839  1.00  0.00     0.000 A 
ENDBRANCH  52  71
BRANCH  64  77
ATOM     77  C   UNL     1      -2.561 -20.024   8.588  1.00  0.00    -0.014 A 
ATOM     78  C   UNL     1      -3.949 -19.843   8.677  1.00  0.00     0.009 A 
ATOM     79  C   UNL     1      -1.998 -21.217   9.070  1.00  0.00     0.009 A 
ATOM     80  C   UNL     1      -4.750 -20.819   9.273  1.00  0.00     0.001 A 
ATOM     81  C   UNL     1      -2.805 -22.205   9.634  1.00  0.00     0.001 A 
ATOM     82  C   UNL     1      -4.179 -22.000   9.745  1.00  0.00     0.000 A 
ENDBRANCH  64  77
ENDBRANCH  38  39
ENDBRANCH  30  33
ENDBRANCH  28  29
ENDBRANCH  27  28
ENDBRANCH  26  27
ENDBRANCH   1  26
TORSDOF 16
