REMARK SMILES O=C(Cc1ccccc1Nc1c(F)cccc1C(F)(F)F)NCCCCCCNC(=O)c1ccc(-c2c3nc(c(-c4ccccc4)c4ccc([nH]4)c(-c4ccccc4)c4nc(c(-c5ccccc5)c5ccc2[nH]5)C=C4)C=C3)cc1
REMARK SMILES IDX 24 1 23 2 22 3 1 4 2 5 3 7 4 8 5 9 9 10 6 11 8 12 7 13 10 14
REMARK SMILES IDX 11 16 12 17 17 18 13 19 14 20 16 21 15 22 18 23 19 24 20 25
REMARK SMILES IDX 21 26 25 27 26 28 27 29 28 30 29 31 30 32 31 34 32 35 33 36
REMARK SMILES IDX 79 37 34 38 78 39 35 40 36 41 37 42 72 43 38 44 77 45 71 46
REMARK SMILES IDX 73 47 39 48 76 49 70 50 69 51 40 53 62 54 47 55 61 56 48 57
REMARK SMILES IDX 51 58 60 59 74 60 49 61 50 62 59 64 75 65 52 66 41 67 42 68
REMARK SMILES IDX 46 69 43 70 45 71 44 72 63 73 64 74 68 75 65 76 67 77 66 78
REMARK SMILES IDX 53 79 54 80 58 81 55 82 57 83 56 84
REMARK H PARENT 22 6 10 15 29 33 73 52 51 63
REMARK Flexibility Score: inf
ROOT
ATOM      1  C   UNL     1       2.647  -1.563  -3.193  1.00  0.00     0.021 C 
ENDROOT
BRANCH   1   2
ATOM      2  C   UNL     1       2.072  -1.632  -1.781  1.00  0.00     0.116 C 
BRANCH   2   3
ATOM      3  N   UNL     1       2.736  -0.709  -0.886  1.00  0.00    -0.356 N 
ATOM      4  O   UNL     1       0.827   0.166   0.047  1.00  0.00    -0.275 OA
ATOM      5  C   UNL     1       2.051   0.105  -0.010  1.00  0.00     0.224 C 
ATOM      6  H   UNL     1       3.719  -0.661  -0.904  1.00  0.00     0.163 HD
BRANCH   5   7
ATOM      7  C   UNL     1       2.953   0.929   0.891  1.00  0.00     0.137 C 
BRANCH   7   8
ATOM      8  C   UNL     1       3.603   0.191   2.052  1.00  0.00    -0.015 A 
ATOM      9  C   UNL     1       3.476  -1.206   2.199  1.00  0.00     0.006 A 
ATOM     10  C   UNL     1       4.378   0.907   2.997  1.00  0.00     0.042 A 
ATOM     11  C   UNL     1       4.105  -1.886   3.240  1.00  0.00     0.000 A 
ATOM     12  C   UNL     1       4.971   0.202   4.057  1.00  0.00     0.026 A 
ATOM     13  C   UNL     1       4.847  -1.181   4.175  1.00  0.00     0.002 A 
BRANCH  10  14
ATOM     14  N   UNL     1       4.594   2.296   2.839  1.00  0.00    -0.352 N 
ATOM     15  H   UNL     1       3.987   2.737   2.202  1.00  0.00     0.167 HD
BRANCH  14  16
ATOM     16  C   UNL     1       5.537   3.154   3.447  1.00  0.00     0.087 A 
ATOM     17  C   UNL     1       5.037   4.321   4.062  1.00  0.00     0.147 A 
ATOM     18  C   UNL     1       6.915   2.892   3.550  1.00  0.00     0.082 A 
ATOM     19  F   UNL     1       3.731   4.611   3.945  1.00  0.00    -0.205 F 
ATOM     20  C   UNL     1       5.841   5.180   4.804  1.00  0.00     0.041 A 
ATOM     21  C   UNL     1       7.719   3.758   4.330  1.00  0.00     0.015 A 
ATOM     22  C   UNL     1       7.188   4.886   4.956  1.00  0.00     0.004 A 
BRANCH  18  23
ATOM     23  C   UNL     1       7.614   1.754   2.841  1.00  0.00     0.418 C 
ATOM     24  F   UNL     1       8.866   2.118   2.420  1.00  0.00    -0.166 F 
ATOM     25  F   UNL     1       7.822   0.679   3.652  1.00  0.00    -0.166 F 
ATOM     26  F   UNL     1       6.999   1.290   1.721  1.00  0.00    -0.166 F 
ENDBRANCH  18  23
ENDBRANCH  14  16
ENDBRANCH  10  14
ENDBRANCH   7   8
ENDBRANCH   5   7
ENDBRANCH   2   3
ENDBRANCH   1   2
BRANCH   1  27
ATOM     27  C   UNL     1       4.149  -1.860  -3.291  1.00  0.00     0.002 C 
BRANCH  27  28
ATOM     28  C   UNL     1       4.586  -3.232  -2.770  1.00  0.00     0.002 C 
BRANCH  28  29
ATOM     29  C   UNL     1       3.907  -4.429  -3.437  1.00  0.00     0.021 C 
BRANCH  29  30
ATOM     30  C   UNL     1       4.046  -4.485  -4.955  1.00  0.00     0.116 C 
BRANCH  30  31
ATOM     31  N   UNL     1       5.424  -4.651  -5.390  1.00  0.00    -0.352 N 
ATOM     32  C   UNL     1       5.933  -5.518  -6.326  1.00  0.00     0.251 C 
ATOM     33  H   UNL     1       6.081  -4.061  -4.955  1.00  0.00     0.163 HD
ATOM     34  O   UNL     1       7.145  -5.632  -6.479  1.00  0.00    -0.269 OA
BRANCH  32  35
ATOM     35  C   UNL     1       5.008  -6.342  -7.133  1.00  0.00     0.039 A 
ATOM     36  C   UNL     1       5.249  -7.713  -7.254  1.00  0.00     0.014 A 
ATOM     37  C   UNL     1       3.896  -5.765  -7.752  1.00  0.00     0.014 A 
ATOM     38  C   UNL     1       4.336  -8.519  -7.939  1.00  0.00     0.010 A 
ATOM     39  C   UNL     1       2.953  -6.578  -8.374  1.00  0.00     0.010 A 
ATOM     40  C   UNL     1       3.163  -7.963  -8.474  1.00  0.00    -0.014 A 
BRANCH  40  41
ATOM     41  C   UNL     1       2.139  -8.802  -9.149  1.00  0.00     0.031 A 
ATOM     42  C   UNL     1       1.835  -8.584 -10.607  1.00  0.00     0.074 A 
ATOM     43  C   UNL     1       1.425  -9.697  -8.437  1.00  0.00     0.049 A 
ATOM     44  N   UNL     1       0.898  -9.124 -11.345  1.00  0.00    -0.248 NA
ATOM     45  C   UNL     1       2.677  -7.611 -11.323  1.00  0.00     0.031 C 
ATOM     46  C   UNL     1       1.600  -9.986  -7.012  1.00  0.00     0.029 A 
ATOM     47  N   UNL     1       0.392 -10.519  -8.817  1.00  0.00    -0.354 N 
ATOM     48  C   UNL     1       1.020  -8.536 -12.598  1.00  0.00     0.074 A 
ATOM     49  C   UNL     1       2.096  -7.574 -12.513  1.00  0.00     0.031 C 
ATOM     50  C   UNL     1       0.716 -10.928  -6.642  1.00  0.00     0.029 A 
ATOM     51  C   UNL     1      -0.117 -11.276  -7.788  1.00  0.00     0.049 A 
ATOM     52  H   UNL     1       0.049 -10.562  -9.738  1.00  0.00     0.167 HD
ATOM     53  C   UNL     1       0.307  -8.784 -13.722  1.00  0.00     0.031 A 
ATOM     54  C   UNL     1      -1.151 -12.140  -7.767  1.00  0.00     0.031 A 
ATOM     55  C   UNL     1      -0.742  -9.762 -13.816  1.00  0.00     0.049 A 
ATOM     56  C   UNL     1      -1.931 -12.387  -9.030  1.00  0.00     0.074 A 
ATOM     57  C   UNL     1      -1.473 -10.133 -14.931  1.00  0.00     0.029 A 
ATOM     58  N   UNL     1      -1.208 -10.524 -12.758  1.00  0.00    -0.354 N 
ATOM     59  N   UNL     1      -1.756 -11.873 -10.224  1.00  0.00    -0.248 NA
ATOM     60  C   UNL     1      -3.047 -13.341  -8.945  1.00  0.00     0.031 C 
ATOM     61  C   UNL     1      -2.417 -11.085 -14.537  1.00  0.00     0.029 A 
ATOM     62  C   UNL     1      -2.234 -11.348 -13.189  1.00  0.00     0.049 A 
ATOM     63  H   UNL     1      -0.862 -10.486 -11.837  1.00  0.00     0.167 HD
ATOM     64  C   UNL     1      -2.711 -12.472 -11.036  1.00  0.00     0.074 A 
ATOM     65  C   UNL     1      -3.456 -13.392 -10.204  1.00  0.00     0.031 C 
ATOM     66  C   UNL     1      -2.949 -12.276 -12.355  1.00  0.00     0.031 A 
BRANCH  53  67
ATOM     67  C   UNL     1       0.632  -7.982 -14.950  1.00  0.00    -0.014 A 
ATOM     68  C   UNL     1       1.816  -8.202 -15.671  1.00  0.00     0.009 A 
ATOM     69  C   UNL     1      -0.295  -7.045 -15.433  1.00  0.00     0.009 A 
ATOM     70  C   UNL     1       2.075  -7.482 -16.839  1.00  0.00     0.001 A 
ATOM     71  C   UNL     1      -0.045  -6.346 -16.615  1.00  0.00     0.001 A 
ATOM     72  C   UNL     1       1.141  -6.561 -17.314  1.00  0.00     0.000 A 
ENDBRANCH  53  67
BRANCH  54  73
ATOM     73  C   UNL     1      -1.524 -12.843  -6.510  1.00  0.00    -0.014 A 
ATOM     74  C   UNL     1      -1.346 -14.230  -6.389  1.00  0.00     0.009 A 
ATOM     75  C   UNL     1      -2.103 -12.140  -5.442  1.00  0.00     0.009 A 
ATOM     76  C   UNL     1      -1.778 -14.904  -5.245  1.00  0.00     0.001 A 
ATOM     77  C   UNL     1      -2.505 -12.811  -4.285  1.00  0.00     0.001 A 
ATOM     78  C   UNL     1      -2.356 -14.194  -4.194  1.00  0.00     0.000 A 
ENDBRANCH  54  73
BRANCH  66  79
ATOM     79  C   UNL     1      -4.015 -13.115 -13.000  1.00  0.00    -0.014 A 
ATOM     80  C   UNL     1      -5.377 -12.883 -12.758  1.00  0.00     0.009 A 
ATOM     81  C   UNL     1      -3.645 -14.117 -13.913  1.00  0.00     0.009 A 
ATOM     82  C   UNL     1      -6.347 -13.657 -13.398  1.00  0.00     0.001 A 
ATOM     83  C   UNL     1      -4.618 -14.868 -14.572  1.00  0.00     0.001 A 
ATOM     84  C   UNL     1      -5.968 -14.643 -14.308  1.00  0.00     0.000 A 
ENDBRANCH  66  79
ENDBRANCH  40  41
ENDBRANCH  32  35
ENDBRANCH  30  31
ENDBRANCH  29  30
ENDBRANCH  28  29
ENDBRANCH  27  28
ENDBRANCH   1  27
TORSDOF 17
