REMARK SMILES Cc1nc(N2CCN(c3ccccc3)CC2)nc(OCC(=O)NCCCCCCNC(=O)c2ccc(-c3c4nc(c(-c5ccccc5)c5ccc([nH]5)c(-c5ccccc5)c5nc(c(-c6ccccc6)c6ccc3[nH]6)C=C5)C=C4)cc2)c1C
REMARK SMILES IDX 25 1 24 2 23 3 21 4 22 5 20 7 19 8 18 9 1 10 2 11 3 12 81 13
REMARK SMILES IDX 4 14 82 15 17 16 5 17 6 18 16 19 7 20 15 21 8 22 9 23 10 24
REMARK SMILES IDX 14 25 11 26 13 27 12 28 26 29 27 30 28 31 29 32 30 33 31 34
REMARK SMILES IDX 32 36 33 37 34 38 80 39 35 40 79 41 36 42 37 43 38 44 73 45
REMARK SMILES IDX 39 46 78 47 72 48 74 49 40 50 77 51 71 52 70 53 41 55 63 56
REMARK SMILES IDX 48 57 62 58 49 59 52 60 61 61 75 62 50 63 51 64 60 66 76 67
REMARK SMILES IDX 53 68 42 69 43 70 47 71 44 72 46 73 45 74 64 75 65 76 69 77
REMARK SMILES IDX 66 78 68 79 67 80 54 81 55 82 59 83 56 84 58 85 57 86
REMARK H PARENT 23 6 30 35 74 54 52 65
REMARK Flexibility Score: inf
ROOT
ATOM      1  C   UNL     1      -3.433   3.578  -3.245  1.00  0.00     0.021 C 
ENDROOT
BRANCH   1   2
ATOM      2  C   UNL     1      -2.413   4.705  -3.396  1.00  0.00     0.116 C 
BRANCH   2   3
ATOM      3  N   UNL     1      -1.674   4.947  -2.175  1.00  0.00    -0.353 N 
ATOM      4  C   UNL     1      -0.333   4.852  -1.959  1.00  0.00     0.258 C 
ATOM      5  O   UNL     1       0.115   5.254  -0.883  1.00  0.00    -0.271 OA
ATOM      6  H   UNL     1      -2.213   5.216  -1.397  1.00  0.00     0.163 HD
BRANCH   4   7
ATOM      7  C   UNL     1       0.592   4.321  -3.058  1.00  0.00     0.331 C 
BRANCH   7   8
ATOM      8  O   UNL     1       0.329   3.092  -3.680  1.00  0.00    -0.467 OA
BRANCH   8   9
ATOM      9  C   UNL     1       0.297   1.886  -3.072  1.00  0.00     0.221 A 
ATOM     10  C   UNL     1       0.722  -0.416  -0.131  1.00  0.00     0.067 C 
ATOM     11  C   UNL     1       0.394   0.176  -1.474  1.00  0.00     0.050 A 
ATOM     12  N   UNL     1      -0.174  -0.690  -2.339  1.00  0.00    -0.218 NA
ATOM     13  C   UNL     1       0.667   1.512  -1.790  1.00  0.00     0.033 A 
ATOM     14  C   UNL     1      -0.427  -0.257  -3.571  1.00  0.00     0.229 A 
ATOM     15  C   UNL     1       1.254   2.401  -0.743  1.00  0.00     0.052 C 
ATOM     16  N   UNL     1      -0.188   0.995  -3.959  1.00  0.00    -0.177 NA
BRANCH  14  17
ATOM     17  N   UNL     1      -1.043  -1.083  -4.472  1.00  0.00    -0.337 N 
ATOM     18  C   UNL     1      -1.979  -2.088  -3.979  1.00  0.00     0.141 C 
ATOM     19  C   UNL     1      -0.285  -1.450  -5.670  1.00  0.00     0.141 C 
ATOM     20  C   UNL     1      -2.983  -2.423  -5.105  1.00  0.00     0.138 C 
ATOM     21  C   UNL     1      -1.239  -1.891  -6.807  1.00  0.00     0.138 C 
ATOM     22  N   UNL     1      -2.253  -2.843  -6.310  1.00  0.00    -0.368 N 
BRANCH  22  23
ATOM     23  C   UNL     1      -2.801  -3.773  -7.168  1.00  0.00     0.037 A 
ATOM     24  C   UNL     1      -4.164  -3.794  -7.487  1.00  0.00     0.026 A 
ATOM     25  C   UNL     1      -1.991  -4.784  -7.701  1.00  0.00     0.026 A 
ATOM     26  C   UNL     1      -4.705  -4.804  -8.289  1.00  0.00     0.002 A 
ATOM     27  C   UNL     1      -2.526  -5.807  -8.487  1.00  0.00     0.002 A 
ATOM     28  C   UNL     1      -3.887  -5.819  -8.778  1.00  0.00     0.000 A 
ENDBRANCH  22  23
ENDBRANCH  14  17
ENDBRANCH   8   9
ENDBRANCH   7   8
ENDBRANCH   4   7
ENDBRANCH   2   3
ENDBRANCH   1   2
BRANCH   1  29
ATOM     29  C   UNL     1      -4.492   3.795  -2.155  1.00  0.00     0.002 C 
BRANCH  29  30
ATOM     30  C   UNL     1      -5.263   5.117  -2.218  1.00  0.00     0.002 C 
BRANCH  30  31
ATOM     31  C   UNL     1      -5.929   5.430  -3.558  1.00  0.00     0.021 C 
BRANCH  31  32
ATOM     32  C   UNL     1      -6.909   4.372  -4.049  1.00  0.00     0.116 C 
BRANCH  32  33
ATOM     33  N   UNL     1      -8.071   4.249  -3.184  1.00  0.00    -0.352 N 
ATOM     34  C   UNL     1      -9.404   4.376  -3.494  1.00  0.00     0.251 C 
ATOM     35  H   UNL     1      -7.875   4.045  -2.241  1.00  0.00     0.163 HD
ATOM     36  O   UNL     1     -10.247   4.412  -2.607  1.00  0.00    -0.269 OA
BRANCH  34  37
ATOM     37  C   UNL     1      -9.819   4.496  -4.909  1.00  0.00     0.039 A 
ATOM     38  C   UNL     1     -10.746   5.479  -5.260  1.00  0.00     0.014 A 
ATOM     39  C   UNL     1      -9.294   3.643  -5.884  1.00  0.00     0.014 A 
ATOM     40  C   UNL     1     -11.102   5.647  -6.600  1.00  0.00     0.010 A 
ATOM     41  C   UNL     1      -9.591   3.860  -7.226  1.00  0.00     0.010 A 
ATOM     42  C   UNL     1     -10.502   4.859  -7.596  1.00  0.00    -0.014 A 
BRANCH  42  43
ATOM     43  C   UNL     1     -10.831   5.056  -9.030  1.00  0.00     0.031 A 
ATOM     44  C   UNL     1     -11.531   3.970  -9.798  1.00  0.00     0.074 A 
ATOM     45  C   UNL     1     -10.467   6.196  -9.650  1.00  0.00     0.049 A 
ATOM     46  N   UNL     1     -11.870   3.941 -11.062  1.00  0.00    -0.248 NA
ATOM     47  C   UNL     1     -11.881   2.748  -9.054  1.00  0.00     0.031 C 
ATOM     48  C   UNL     1      -9.768   7.317  -9.020  1.00  0.00     0.029 A 
ATOM     49  N   UNL     1     -10.640   6.600 -10.950  1.00  0.00    -0.354 N 
ATOM     50  C   UNL     1     -12.468   2.704 -11.262  1.00  0.00     0.074 A 
ATOM     51  C   UNL     1     -12.394   1.987 -10.009  1.00  0.00     0.031 C 
ATOM     52  C   UNL     1      -9.607   8.297  -9.924  1.00  0.00     0.029 A 
ATOM     53  C   UNL     1     -10.149   7.857 -11.207  1.00  0.00     0.049 A 
ATOM     54  H   UNL     1     -11.076   6.042 -11.635  1.00  0.00     0.167 HD
ATOM     55  C   UNL     1     -13.052   2.217 -12.382  1.00  0.00     0.031 A 
ATOM     56  C   UNL     1     -10.134   8.576 -12.346  1.00  0.00     0.031 A 
ATOM     57  C   UNL     1     -13.128   2.930 -13.628  1.00  0.00     0.049 A 
ATOM     58  C   UNL     1     -10.742   7.991 -13.591  1.00  0.00     0.074 A 
ATOM     59  C   UNL     1     -13.727   2.533 -14.811  1.00  0.00     0.029 A 
ATOM     60  N   UNL     1     -12.589   4.187 -13.854  1.00  0.00    -0.354 N 
ATOM     61  N   UNL     1     -11.345   6.838 -13.752  1.00  0.00    -0.248 NA
ATOM     62  C   UNL     1     -10.671   8.809 -14.810  1.00  0.00     0.031 C 
ATOM     63  C   UNL     1     -13.500   3.525 -15.769  1.00  0.00     0.029 A 
ATOM     64  C   UNL     1     -12.817   4.568 -15.165  1.00  0.00     0.049 A 
ATOM     65  H   UNL     1     -12.114   4.728 -13.182  1.00  0.00     0.167 HD
ATOM     66  C   UNL     1     -11.747   6.802 -15.081  1.00  0.00     0.074 A 
ATOM     67  C   UNL     1     -11.336   8.057 -15.677  1.00  0.00     0.031 C 
ATOM     68  C   UNL     1     -12.399   5.818 -15.746  1.00  0.00     0.031 A 
BRANCH  55  69
ATOM     69  C   UNL     1     -13.661   0.844 -12.310  1.00  0.00    -0.014 A 
ATOM     70  C   UNL     1     -14.831   0.610 -11.570  1.00  0.00     0.009 A 
ATOM     71  C   UNL     1     -13.096  -0.214 -13.039  1.00  0.00     0.009 A 
ATOM     72  C   UNL     1     -15.407  -0.661 -11.539  1.00  0.00     0.001 A 
ATOM     73  C   UNL     1     -13.691  -1.477 -13.030  1.00  0.00     0.001 A 
ATOM     74  C   UNL     1     -14.841  -1.701 -12.275  1.00  0.00     0.000 A 
ENDBRANCH  55  69
BRANCH  56  75
ATOM     75  C   UNL     1      -9.546   9.941 -12.353  1.00  0.00    -0.014 A 
ATOM     76  C   UNL     1     -10.370  11.068 -12.494  1.00  0.00     0.009 A 
ATOM     77  C   UNL     1      -8.162  10.128 -12.205  1.00  0.00     0.009 A 
ATOM     78  C   UNL     1      -9.820  12.352 -12.503  1.00  0.00     0.001 A 
ATOM     79  C   UNL     1      -7.618  11.415 -12.184  1.00  0.00     0.001 A 
ATOM     80  C   UNL     1      -8.446  12.525 -12.340  1.00  0.00     0.000 A 
ENDBRANCH  56  75
BRANCH  68  81
ATOM     81  C   UNL     1     -12.729   6.056 -17.193  1.00  0.00    -0.014 A 
ATOM     82  C   UNL     1     -11.730   6.042 -18.178  1.00  0.00     0.009 A 
ATOM     83  C   UNL     1     -14.068   6.220 -17.584  1.00  0.00     0.009 A 
ATOM     84  C   UNL     1     -12.063   6.211 -19.524  1.00  0.00     0.001 A 
ATOM     85  C   UNL     1     -14.401   6.356 -18.932  1.00  0.00     0.001 A 
ATOM     86  C   UNL     1     -13.398   6.359 -19.900  1.00  0.00     0.000 A 
ENDBRANCH  68  81
ENDBRANCH  42  43
ENDBRANCH  34  37
ENDBRANCH  32  33
ENDBRANCH  31  32
ENDBRANCH  30  31
ENDBRANCH  29  30
ENDBRANCH   1  29
TORSDOF 17
