REMARK SMILES O=C(C[C@@H](c1cccc([N+](=O)[O-])c1)N1Cc2ccccc2C1=O)NCCCCCCNC(=O)c1ccc(-c2c3nc(c(-c4ccccc4)c4ccc([nH]4)c(-c4ccccc4)c4nc(c(-c5ccccc5)c5ccc2[nH]5)C=C4)C=C3)cc1
REMARK SMILES IDX 27 1 26 2 25 3 24 4 1 5 2 6 3 8 4 9 5 10 6 11 13 12 7 13
REMARK SMILES IDX 9 14 8 15 10 16 11 17 12 18 14 19 15 20 22 21 16 22 21 23
REMARK SMILES IDX 23 24 17 25 20 26 18 27 19 28 28 29 29 30 30 31 31 32 32 33
REMARK SMILES IDX 33 35 34 36 35 37 81 38 36 39 80 40 37 41 38 42 39 43 74 44
REMARK SMILES IDX 40 45 79 46 73 47 75 48 41 49 78 50 72 51 71 52 42 54 64 55
REMARK SMILES IDX 49 56 63 57 50 58 53 59 62 60 76 61 51 62 52 63 61 65 77 66
REMARK SMILES IDX 54 67 43 68 44 69 48 70 45 71 47 72 46 73 65 74 66 75 70 76
REMARK SMILES IDX 67 77 69 78 68 79 55 80 56 81 60 82 57 83 59 84 58 85
REMARK H PARENT 24 7 31 34 75 53 53 64
REMARK Flexibility Score: inf
ROOT
ATOM      1  C   UNL     1       3.433  -3.530   1.048  1.00  0.00     0.002 C 
ENDROOT
BRANCH   1   2
ATOM      2  C   UNL     1       1.925  -3.223   1.017  1.00  0.00     0.021 C 
BRANCH   2   3
ATOM      3  C   UNL     1       1.502  -1.876   1.622  1.00  0.00     0.116 C 
BRANCH   3   4
ATOM      4  N   UNL     1       2.298  -0.799   1.074  1.00  0.00    -0.356 N 
ATOM      5  O   UNL     1       0.617   0.636   0.485  1.00  0.00    -0.275 OA
ATOM      6  C   UNL     1       1.804   0.329   0.469  1.00  0.00     0.222 C 
ATOM      7  H   UNL     1       3.277  -0.883   1.142  1.00  0.00     0.163 HD
BRANCH   6   8
ATOM      8  C   UNL     1       2.813   1.065  -0.399  1.00  0.00     0.130 C 
BRANCH   8   9
ATOM      9  C   UNL     1       3.996   1.768   0.292  1.00  0.00     0.125 C 
BRANCH   9  10
ATOM     10  C   UNL     1       4.917   0.860   1.137  1.00  0.00    -0.018 A 
ATOM     11  C   UNL     1       5.485  -0.317   0.614  1.00  0.00     0.006 A 
ATOM     12  C   UNL     1       5.378   1.323   2.386  1.00  0.00     0.091 A 
ATOM     13  C   UNL     1       6.474  -1.015   1.312  1.00  0.00     0.007 A 
ATOM     14  C   UNL     1       6.398   0.639   3.063  1.00  0.00     0.269 A 
ATOM     15  C   UNL     1       6.937  -0.539   2.536  1.00  0.00     0.085 A 
BRANCH  14  16
ATOM     16  N   UNL     1       6.957   1.195   4.303  1.00  0.00     0.062 N 
ATOM     17  O   UNL     1       7.747   0.485   4.943  1.00  0.00    -0.258 OA
ATOM     18  O   UNL     1       6.608   2.335   4.638  1.00  0.00    -0.258 OA
ENDBRANCH  14  16
ENDBRANCH   9  10
BRANCH   9  19
ATOM     19  N   UNL     1       4.865   2.499  -0.678  1.00  0.00    -0.327 N 
ATOM     20  C   UNL     1       5.273   1.913  -1.953  1.00  0.00     0.157 C 
ATOM     21  C   UNL     1       5.970   3.183  -0.125  1.00  0.00     0.255 C 
ATOM     22  C   UNL     1       6.732   1.708  -1.748  1.00  0.00    -0.016 A 
ATOM     23  C   UNL     1       7.165   2.537  -0.713  1.00  0.00     0.045 A 
ATOM     24  O   UNL     1       5.986   3.934   0.828  1.00  0.00    -0.269 OA
ATOM     25  C   UNL     1       7.563   0.743  -2.289  1.00  0.00     0.006 A 
ATOM     26  C   UNL     1       8.416   2.401  -0.141  1.00  0.00     0.014 A 
ATOM     27  C   UNL     1       8.831   0.587  -1.722  1.00  0.00     0.000 A 
ATOM     28  C   UNL     1       9.252   1.405  -0.656  1.00  0.00     0.001 A 
ENDBRANCH   9  19
ENDBRANCH   8   9
ENDBRANCH   6   8
ENDBRANCH   3   4
ENDBRANCH   2   3
ENDBRANCH   1   2
BRANCH   1  29
ATOM     29  C   UNL     1       4.119  -3.397   2.412  1.00  0.00     0.002 C 
BRANCH  29  30
ATOM     30  C   UNL     1       3.605  -4.341   3.496  1.00  0.00     0.021 C 
BRANCH  30  31
ATOM     31  C   UNL     1       3.817  -5.822   3.206  1.00  0.00     0.116 C 
BRANCH  31  32
ATOM     32  N   UNL     1       5.221  -6.201   3.159  1.00  0.00    -0.352 N 
ATOM     33  C   UNL     1       5.821  -7.344   3.630  1.00  0.00     0.251 C 
ATOM     34  H   UNL     1       5.823  -5.549   2.733  1.00  0.00     0.163 HD
ATOM     35  O   UNL     1       7.043  -7.456   3.605  1.00  0.00    -0.269 OA
BRANCH  33  36
ATOM     36  C   UNL     1       4.992  -8.430   4.199  1.00  0.00     0.039 A 
ATOM     37  C   UNL     1       5.378  -9.009   5.411  1.00  0.00     0.014 A 
ATOM     38  C   UNL     1       3.838  -8.872   3.546  1.00  0.00     0.014 A 
ATOM     39  C   UNL     1       4.571  -9.985   6.002  1.00  0.00     0.010 A 
ATOM     40  C   UNL     1       3.005  -9.800   4.164  1.00  0.00     0.010 A 
ATOM     41  C   UNL     1       3.363 -10.365   5.397  1.00  0.00    -0.014 A 
BRANCH  41  42
ATOM     42  C   UNL     1       2.462 -11.364   6.024  1.00  0.00     0.031 A 
ATOM     43  C   UNL     1       2.228 -12.688   5.351  1.00  0.00     0.074 A 
ATOM     44  C   UNL     1       1.799 -11.057   7.155  1.00  0.00     0.049 A 
ATOM     45  N   UNL     1       1.391 -13.641   5.672  1.00  0.00    -0.248 NA
ATOM     46  C   UNL     1       3.021 -12.964   4.142  1.00  0.00     0.031 C 
ATOM     47  C   UNL     1       1.907  -9.796   7.891  1.00  0.00     0.029 A 
ATOM     48  N   UNL     1       0.886 -11.786   7.876  1.00  0.00    -0.354 N 
ATOM     49  C   UNL     1       1.536 -14.615   4.693  1.00  0.00     0.074 A 
ATOM     50  C   UNL     1       2.518 -14.125   3.749  1.00  0.00     0.031 C 
ATOM     51  C   UNL     1       1.104  -9.845   8.967  1.00  0.00     0.029 A 
ATOM     52  C   UNL     1       0.403 -11.125   8.979  1.00  0.00     0.049 A 
ATOM     53  H   UNL     1       0.605 -12.696   7.627  1.00  0.00     0.167 HD
ATOM     54  C   UNL     1       0.920 -15.816   4.593  1.00  0.00     0.031 A 
ATOM     55  C   UNL     1      -0.508 -11.506   9.894  1.00  0.00     0.031 A 
ATOM     56  C   UNL     1      -0.037 -16.321   5.539  1.00  0.00     0.049 A 
ATOM     57  C   UNL     1      -1.147 -12.861   9.782  1.00  0.00     0.074 A 
ATOM     58  C   UNL     1      -0.702 -17.535   5.531  1.00  0.00     0.029 A 
ATOM     59  N   UNL     1      -0.451 -15.645   6.674  1.00  0.00    -0.354 N 
ATOM     60  N   UNL     1      -0.984 -13.777   8.860  1.00  0.00    -0.248 NA
ATOM     61  C   UNL     1      -2.087 -13.239  10.848  1.00  0.00     0.031 C 
ATOM     62  C   UNL     1      -1.530 -17.588   6.658  1.00  0.00     0.029 A 
ATOM     63  C   UNL     1      -1.354 -16.419   7.380  1.00  0.00     0.049 A 
ATOM     64  H   UNL     1      -0.147 -14.746   6.939  1.00  0.00     0.167 HD
ATOM     65  C   UNL     1      -1.776 -14.849   9.248  1.00  0.00     0.074 A 
ATOM     66  C   UNL     1      -2.412 -14.475  10.494  1.00  0.00     0.031 C 
ATOM     67  C   UNL     1      -1.961 -16.038   8.627  1.00  0.00     0.031 A 
BRANCH  54  68
ATOM     68  C   UNL     1       1.273 -16.671   3.411  1.00  0.00    -0.014 A 
ATOM     69  C   UNL     1       2.504 -17.342   3.350  1.00  0.00     0.009 A 
ATOM     70  C   UNL     1       0.356 -16.830   2.361  1.00  0.00     0.009 A 
ATOM     71  C   UNL     1       2.823 -18.132   2.244  1.00  0.00     0.001 A 
ATOM     72  C   UNL     1       0.669 -17.639   1.267  1.00  0.00     0.001 A 
ATOM     73  C   UNL     1       1.904 -18.283   1.206  1.00  0.00     0.000 A 
ENDBRANCH  54  68
BRANCH  55  74
ATOM     74  C   UNL     1      -0.860 -10.602  11.017  1.00  0.00    -0.014 A 
ATOM     75  C   UNL     1      -0.388 -10.864  12.312  1.00  0.00     0.009 A 
ATOM     76  C   UNL     1      -1.683  -9.486  10.803  1.00  0.00     0.009 A 
ATOM     77  C   UNL     1      -0.759 -10.043  13.379  1.00  0.00     0.001 A 
ATOM     78  C   UNL     1      -2.034  -8.654  11.869  1.00  0.00     0.001 A 
ATOM     79  C   UNL     1      -1.579  -8.938  13.156  1.00  0.00     0.000 A 
ENDBRANCH  55  74
BRANCH  67  80
ATOM     80  C   UNL     1      -2.846 -17.037   9.311  1.00  0.00    -0.014 A 
ATOM     81  C   UNL     1      -4.243 -16.909   9.282  1.00  0.00     0.009 A 
ATOM     82  C   UNL     1      -2.272 -18.139   9.961  1.00  0.00     0.009 A 
ATOM     83  C   UNL     1      -5.048 -17.856   9.918  1.00  0.00     0.001 A 
ATOM     84  C   UNL     1      -3.080 -19.093  10.580  1.00  0.00     0.001 A 
ATOM     85  C   UNL     1      -4.466 -18.947  10.564  1.00  0.00     0.000 A 
ENDBRANCH  67  80
ENDBRANCH  41  42
ENDBRANCH  33  36
ENDBRANCH  31  32
ENDBRANCH  30  31
ENDBRANCH  29  30
ENDBRANCH   1  29
TORSDOF 17
