REMARK SMILES C[C@H]([NH2+]CC1(O)CCCC1)[C@H](C)C(=O)NCCCCCCNC(=O)c1ccc(-c2c3nc(c(-c4ccccc4)c4ccc([nH]4)c(-c4ccccc4)c4nc(c(-c5ccccc5)c5ccc2[nH]5)C=C4)C=C3)cc1
REMARK SMILES IDX 17 1 16 2 15 3 13 4 14 5 11 7 12 8 2 9 1 10 3 11 4 14 5 15
REMARK SMILES IDX 7 16 10 17 8 18 9 19 6 20 18 22 19 23 20 24 21 25 22 26
REMARK SMILES IDX 23 27 24 29 25 30 26 31 72 32 27 33 71 34 28 35 29 36 30 37
REMARK SMILES IDX 65 38 31 39 70 40 64 41 66 42 32 43 69 44 63 45 62 46 33 48
REMARK SMILES IDX 55 49 40 50 54 51 41 52 44 53 53 54 67 55 42 56 43 57 52 59
REMARK SMILES IDX 68 60 45 61 34 62 35 63 39 64 36 65 38 66 37 67 56 68 57 69
REMARK SMILES IDX 61 70 58 71 60 72 59 73 46 74 47 75 51 76 48 77 50 78 49 79
REMARK H PARENT 15 6 3 12 3 13 6 21 22 28 66 47 44 58
REMARK Flexibility Score: inf
ROOT
ATOM      1  C   UNL     1       0.913  -1.421  -4.634  1.00  0.00     0.021 C 
ENDROOT
BRANCH   1   2
ATOM      2  C   UNL     1      -0.197  -0.680  -3.897  1.00  0.00     0.116 C 
BRANCH   2   3
ATOM      3  N   UNL     1      -1.145  -1.599  -3.303  1.00  0.00    -0.356 N 
ATOM      4  C   UNL     1      -1.511  -1.762  -2.003  1.00  0.00     0.228 C 
ATOM      5  O   UNL     1      -2.328  -2.648  -1.739  1.00  0.00    -0.275 OA
ATOM      6  H   UNL     1      -1.595  -2.200  -3.939  1.00  0.00     0.163 HD
BRANCH   4   7
ATOM      7  C   UNL     1      -0.919  -0.891  -0.900  1.00  0.00     0.133 C 
ATOM      8  C   UNL     1       0.597  -1.125  -0.798  1.00  0.00     0.024 C 
BRANCH   7   9
ATOM      9  C   UNL     1      -1.403   0.588  -1.020  1.00  0.00     0.191 C 
ATOM     10  C   UNL     1      -0.489   1.554  -0.247  1.00  0.00     0.076 C 
BRANCH   9  11
ATOM     11  N   UNL     1      -2.849   0.669  -0.736  1.00  0.00    -0.341 N 
ATOM     12  H   UNL     1      -3.111  -0.180  -0.235  1.00  0.00     0.346 HD
ATOM     13  H   UNL     1      -3.288   0.787  -1.649  1.00  0.00     0.346 HD
BRANCH  11  14
ATOM     14  C   UNL     1      -3.316   1.805   0.053  1.00  0.00     0.296 C 
BRANCH  14  15
ATOM     15  C   UNL     1      -4.854   1.847   0.189  1.00  0.00     0.113 C 
ATOM     16  C   UNL     1      -5.594   1.882  -1.151  1.00  0.00     0.041 C 
ATOM     17  C   UNL     1      -5.303   3.146   0.865  1.00  0.00     0.041 C 
ATOM     18  C   UNL     1      -6.946   2.520  -0.836  1.00  0.00     0.003 C 
ATOM     19  C   UNL     1      -6.755   3.337   0.439  1.00  0.00     0.003 C 
BRANCH  15  20
ATOM     20  O   UNL     1      -5.284   0.727   0.971  1.00  0.00    -0.384 OA
ATOM     21  H   UNL     1      -4.999  -0.095   0.542  1.00  0.00     0.211 HD
ENDBRANCH  15  20
ENDBRANCH  14  15
ENDBRANCH  11  14
ENDBRANCH   9  11
ENDBRANCH   7   9
ENDBRANCH   4   7
ENDBRANCH   2   3
ENDBRANCH   1   2
BRANCH   1  22
ATOM     22  C   UNL     1       0.435  -2.203  -5.862  1.00  0.00     0.002 C 
BRANCH  22  23
ATOM     23  C   UNL     1      -0.330  -1.375  -6.899  1.00  0.00     0.002 C 
BRANCH  23  24
ATOM     24  C   UNL     1       0.394  -0.119  -7.390  1.00  0.00     0.021 C 
BRANCH  24  25
ATOM     25  C   UNL     1       1.779  -0.372  -7.972  1.00  0.00     0.116 C 
BRANCH  25  26
ATOM     26  N   UNL     1       1.734  -1.225  -9.148  1.00  0.00    -0.352 N 
ATOM     27  C   UNL     1       2.256  -1.007 -10.396  1.00  0.00     0.251 C 
ATOM     28  H   UNL     1       1.261  -2.081  -9.031  1.00  0.00     0.163 HD
ATOM     29  O   UNL     1       1.963  -1.752 -11.330  1.00  0.00    -0.269 OA
BRANCH  27  30
ATOM     30  C   UNL     1       3.158   0.140 -10.625  1.00  0.00     0.039 A 
ATOM     31  C   UNL     1       2.967   0.934 -11.758  1.00  0.00     0.014 A 
ATOM     32  C   UNL     1       4.188   0.431  -9.725  1.00  0.00     0.014 A 
ATOM     33  C   UNL     1       3.774   2.055 -11.959  1.00  0.00     0.010 A 
ATOM     34  C   UNL     1       4.939   1.591  -9.886  1.00  0.00     0.010 A 
ATOM     35  C   UNL     1       4.744   2.412 -11.008  1.00  0.00    -0.014 A 
BRANCH  35  36
ATOM     36  C   UNL     1       5.564   3.638 -11.171  1.00  0.00     0.031 A 
ATOM     37  C   UNL     1       7.056   3.535 -11.335  1.00  0.00     0.074 A 
ATOM     38  C   UNL     1       4.974   4.848 -11.115  1.00  0.00     0.049 A 
ATOM     39  N   UNL     1       7.943   4.492 -11.440  1.00  0.00    -0.248 NA
ATOM     40  C   UNL     1       7.630   2.180 -11.360  1.00  0.00     0.031 C 
ATOM     41  C   UNL     1       3.542   5.085 -10.925  1.00  0.00     0.029 A 
ATOM     42  N   UNL     1       5.510   6.108 -11.208  1.00  0.00    -0.354 N 
ATOM     43  C   UNL     1       9.175   3.857 -11.529  1.00  0.00     0.074 A 
ATOM     44  C   UNL     1       8.928   2.437 -11.411  1.00  0.00     0.031 C 
ATOM     45  C   UNL     1       3.309   6.407 -10.946  1.00  0.00     0.029 A 
ATOM     46  C   UNL     1       4.577   7.112 -11.104  1.00  0.00     0.049 A 
ATOM     47  H   UNL     1       6.471   6.277 -11.337  1.00  0.00     0.167 HD
ATOM     48  C   UNL     1      10.401   4.404 -11.712  1.00  0.00     0.031 A 
ATOM     49  C   UNL     1       4.726   8.450 -11.124  1.00  0.00     0.031 A 
ATOM     50  C   UNL     1      10.646   5.816 -11.833  1.00  0.00     0.049 A 
ATOM     51  C   UNL     1       6.101   9.032 -11.299  1.00  0.00     0.074 A 
ATOM     52  C   UNL     1      11.844   6.465 -12.072  1.00  0.00     0.029 A 
ATOM     53  N   UNL     1       9.674   6.798 -11.718  1.00  0.00    -0.354 N 
ATOM     54  N   UNL     1       7.247   8.415 -11.450  1.00  0.00    -0.248 NA
ATOM     55  C   UNL     1       6.199  10.499 -11.316  1.00  0.00     0.031 C 
ATOM     56  C   UNL     1      11.609   7.843 -12.040  1.00  0.00     0.029 A 
ATOM     57  C   UNL     1      10.252   8.050 -11.851  1.00  0.00     0.049 A 
ATOM     58  H   UNL     1       8.716   6.631 -11.565  1.00  0.00     0.167 HD
ATOM     59  C   UNL     1       8.197   9.415 -11.612  1.00  0.00     0.074 A 
ATOM     60  C   UNL     1       7.490  10.678 -11.558  1.00  0.00     0.031 C 
ATOM     61  C   UNL     1       9.536   9.299 -11.792  1.00  0.00     0.031 A 
BRANCH  48  62
ATOM     62  C   UNL     1      11.575   3.466 -11.780  1.00  0.00    -0.014 A 
ATOM     63  C   UNL     1      11.751   2.592 -12.866  1.00  0.00     0.009 A 
ATOM     64  C   UNL     1      12.540   3.480 -10.760  1.00  0.00     0.009 A 
ATOM     65  C   UNL     1      12.846   1.727 -12.909  1.00  0.00     0.001 A 
ATOM     66  C   UNL     1      13.651   2.637 -10.822  1.00  0.00     0.001 A 
ATOM     67  C   UNL     1      13.798   1.754 -11.890  1.00  0.00     0.000 A 
ENDBRANCH  48  62
BRANCH  49  68
ATOM     68  C   UNL     1       3.539   9.335 -10.983  1.00  0.00    -0.014 A 
ATOM     69  C   UNL     1       3.095  10.111 -12.065  1.00  0.00     0.009 A 
ATOM     70  C   UNL     1       2.851   9.419  -9.762  1.00  0.00     0.009 A 
ATOM     71  C   UNL     1       2.006  10.974 -11.918  1.00  0.00     0.001 A 
ATOM     72  C   UNL     1       1.743  10.258  -9.628  1.00  0.00     0.001 A 
ATOM     73  C   UNL     1       1.329  11.043 -10.703  1.00  0.00     0.000 A 
ENDBRANCH  49  68
BRANCH  61  74
ATOM     74  C   UNL     1      10.319  10.568 -11.984  1.00  0.00    -0.014 A 
ATOM     75  C   UNL     1      10.531  11.466 -10.925  1.00  0.00     0.009 A 
ATOM     76  C   UNL     1      10.888  10.848 -13.236  1.00  0.00     0.009 A 
ATOM     77  C   UNL     1      11.267  12.635 -11.129  1.00  0.00     0.001 A 
ATOM     78  C   UNL     1      11.651  12.001 -13.428  1.00  0.00     0.001 A 
ATOM     79  C   UNL     1      11.831  12.898 -12.377  1.00  0.00     0.000 A 
ENDBRANCH  61  74
ENDBRANCH  35  36
ENDBRANCH  27  30
ENDBRANCH  25  26
ENDBRANCH  24  25
ENDBRANCH  23  24
ENDBRANCH  22  23
ENDBRANCH   1  22
TORSDOF 18
