REMARK SMILES Cc1nc(-c2ccc(OC(F)(F)F)cc2)sc1C(=O)N[C@H](C)C(=O)NCCCCCCNC(=O)c1ccc(-c2c3nc(c(-c4ccccc4)c4ccc([nH]4)c(-c4ccccc4)c4nc(c(-c5ccccc5)c5ccc2[nH]5)C=C4)C=C3)cc1
REMARK SMILES IDX 27 1 26 2 25 3 23 4 24 5 21 7 22 8 20 9 18 10 19 11 17 13
REMARK SMILES IDX 1 14 2 15 3 16 4 17 16 18 5 19 6 20 15 21 7 22 14 23 8 24
REMARK SMILES IDX 9 25 10 26 11 27 12 28 13 29 28 30 29 31 30 32 31 33 32 34
REMARK SMILES IDX 33 35 34 37 35 38 36 39 82 40 37 41 81 42 38 43 39 44 40 45
REMARK SMILES IDX 75 46 41 47 80 48 74 49 76 50 42 51 79 52 73 53 72 54 43 56
REMARK SMILES IDX 65 57 50 58 64 59 51 60 54 61 63 62 77 63 52 64 53 65 62 67
REMARK SMILES IDX 78 68 55 69 44 70 45 71 49 72 46 73 48 74 47 75 66 76 67 77
REMARK SMILES IDX 71 78 68 79 70 80 69 81 56 82 57 83 61 84 58 85 60 86 59 87
REMARK H PARENT 25 6 20 12 32 36 76 55 54 66
REMARK Flexibility Score: inf
ROOT
ATOM      1  C   UNL     1      -4.320  -5.549   1.807  1.00  0.00     0.021 C 
ENDROOT
BRANCH   1   2
ATOM      2  C   UNL     1      -4.968  -4.346   1.105  1.00  0.00     0.116 C 
BRANCH   2   3
ATOM      3  N   UNL     1      -4.477  -3.096   1.661  1.00  0.00    -0.354 N 
ATOM      4  C   UNL     1      -3.680  -2.101   1.197  1.00  0.00     0.242 C 
ATOM      5  O   UNL     1      -3.389  -1.226   2.024  1.00  0.00    -0.273 OA
ATOM      6  H   UNL     1      -4.795  -2.935   2.579  1.00  0.00     0.163 HD
BRANCH   4   7
ATOM      7  C   UNL     1      -3.177  -1.954  -0.269  1.00  0.00     0.168 C 
ATOM      8  C   UNL     1      -1.742  -1.419  -0.390  1.00  0.00     0.041 C 
BRANCH   7   9
ATOM      9  N   UNL     1      -3.462  -2.894  -1.339  1.00  0.00    -0.340 N 
ATOM     10  C   UNL     1      -2.983  -4.094  -1.780  1.00  0.00     0.263 C 
ATOM     11  O   UNL     1      -3.395  -4.352  -2.920  1.00  0.00    -0.268 OA
ATOM     12  H   UNL     1      -4.206  -2.578  -1.901  1.00  0.00     0.164 HD
BRANCH  10  13
ATOM     13  C   UNL     1      -2.195  -5.049  -1.009  1.00  0.00     0.115 A 
ATOM     14  C   UNL     1      -0.937  -4.080   1.112  1.00  0.00     0.068 C 
ATOM     15  C   UNL     1      -1.411  -5.095   0.142  1.00  0.00     0.062 A 
ATOM     16  N   UNL     1      -1.002  -6.366   0.512  1.00  0.00    -0.241 NA
ATOM     17  C   UNL     1      -1.415  -7.284  -0.321  1.00  0.00     0.124 A 
ATOM     18  S   UNL     1      -2.248  -6.686  -1.670  1.00  0.00    -0.108 S 
BRANCH  17  19
ATOM     19  C   UNL     1      -1.262  -8.708  -0.035  1.00  0.00     0.011 A 
ATOM     20  C   UNL     1      -1.393  -9.113   1.301  1.00  0.00     0.015 A 
ATOM     21  C   UNL     1      -0.938  -9.667  -0.999  1.00  0.00     0.015 A 
ATOM     22  C   UNL     1      -1.191 -10.437   1.672  1.00  0.00     0.047 A 
ATOM     23  C   UNL     1      -0.722 -11.001  -0.623  1.00  0.00     0.047 A 
ATOM     24  C   UNL     1      -0.837 -11.387   0.715  1.00  0.00     0.129 A 
BRANCH  24  25
ATOM     25  O   UNL     1      -0.657 -12.640   1.223  1.00  0.00    -0.406 OA
BRANCH  25  26
ATOM     26  C   UNL     1      -0.041 -13.602   0.386  1.00  0.00     0.573 C 
ATOM     27  F   UNL     1      -0.838 -13.896  -0.661  1.00  0.00    -0.132 F 
ATOM     28  F   UNL     1       1.157 -13.170  -0.056  1.00  0.00    -0.132 F 
ATOM     29  F   UNL     1       0.148 -14.732   1.102  1.00  0.00    -0.132 F 
ENDBRANCH  25  26
ENDBRANCH  24  25
ENDBRANCH  17  19
ENDBRANCH  10  13
ENDBRANCH   7   9
ENDBRANCH   4   7
ENDBRANCH   2   3
ENDBRANCH   1   2
BRANCH   1  30
ATOM     30  C   UNL     1      -5.223  -6.261   2.820  1.00  0.00     0.002 C 
BRANCH  30  31
ATOM     31  C   UNL     1      -6.423  -6.998   2.214  1.00  0.00     0.002 C 
BRANCH  31  32
ATOM     32  C   UNL     1      -6.094  -8.082   1.180  1.00  0.00     0.021 C 
BRANCH  32  33
ATOM     33  C   UNL     1      -5.190  -9.209   1.677  1.00  0.00     0.116 C 
BRANCH  33  34
ATOM     34  N   UNL     1      -5.788  -9.972   2.763  1.00  0.00    -0.352 N 
ATOM     35  C   UNL     1      -6.162 -11.294   2.825  1.00  0.00     0.251 C 
ATOM     36  H   UNL     1      -5.950  -9.458   3.587  1.00  0.00     0.163 HD
ATOM     37  O   UNL     1      -6.793 -11.710   3.788  1.00  0.00    -0.269 OA
BRANCH  35  38
ATOM     38  C   UNL     1      -5.826 -12.218   1.720  1.00  0.00     0.039 A 
ATOM     39  C   UNL     1      -6.820 -13.057   1.209  1.00  0.00     0.014 A 
ATOM     40  C   UNL     1      -4.533 -12.270   1.197  1.00  0.00     0.014 A 
ATOM     41  C   UNL     1      -6.539 -13.880   0.115  1.00  0.00     0.010 A 
ATOM     42  C   UNL     1      -4.270 -13.042   0.068  1.00  0.00     0.010 A 
ATOM     43  C   UNL     1      -5.273 -13.844  -0.493  1.00  0.00    -0.014 A 
BRANCH  43  44
ATOM     44  C   UNL     1      -4.996 -14.585  -1.749  1.00  0.00     0.031 A 
ATOM     45  C   UNL     1      -4.001 -15.710  -1.777  1.00  0.00     0.074 A 
ATOM     46  C   UNL     1      -5.592 -14.187  -2.890  1.00  0.00     0.049 A 
ATOM     47  N   UNL     1      -3.601 -16.430  -2.795  1.00  0.00    -0.248 NA
ATOM     48  C   UNL     1      -3.362 -16.062  -0.500  1.00  0.00     0.031 C 
ATOM     49  C   UNL     1      -6.552 -13.087  -3.004  1.00  0.00     0.029 A 
ATOM     50  N   UNL     1      -5.471 -14.656  -4.174  1.00  0.00    -0.354 N 
ATOM     51  C   UNL     1      -2.662 -17.317  -2.284  1.00  0.00     0.074 A 
ATOM     52  C   UNL     1      -2.514 -17.009  -0.877  1.00  0.00     0.031 C 
ATOM     53  C   UNL     1      -6.956 -12.987  -4.280  1.00  0.00     0.029 A 
ATOM     54  C   UNL     1      -6.249 -13.980  -5.082  1.00  0.00     0.049 A 
ATOM     55  H   UNL     1      -4.883 -15.406  -4.421  1.00  0.00     0.167 HD
ATOM     56  C   UNL     1      -1.996 -18.309  -2.923  1.00  0.00     0.031 A 
ATOM     57  C   UNL     1      -6.374 -14.132  -6.414  1.00  0.00     0.031 A 
ATOM     58  C   UNL     1      -2.129 -18.604  -4.326  1.00  0.00     0.049 A 
ATOM     59  C   UNL     1      -5.570 -15.192  -7.112  1.00  0.00     0.074 A 
ATOM     60  C   UNL     1      -1.534 -19.619  -5.055  1.00  0.00     0.029 A 
ATOM     61  N   UNL     1      -2.900 -17.872  -5.217  1.00  0.00    -0.354 N 
ATOM     62  N   UNL     1      -4.745 -16.073  -6.601  1.00  0.00    -0.248 NA
ATOM     63  C   UNL     1      -5.715 -15.278  -8.573  1.00  0.00     0.031 C 
ATOM     64  C   UNL     1      -1.894 -19.463  -6.398  1.00  0.00     0.029 A 
ATOM     65  C   UNL     1      -2.762 -18.388  -6.496  1.00  0.00     0.049 A 
ATOM     66  H   UNL     1      -3.462 -17.101  -4.976  1.00  0.00     0.167 HD
ATOM     67  C   UNL     1      -4.290 -16.831  -7.672  1.00  0.00     0.074 A 
ATOM     68  C   UNL     1      -4.943 -16.317  -8.858  1.00  0.00     0.031 C 
ATOM     69  C   UNL     1      -3.409 -17.861  -7.670  1.00  0.00     0.031 A 
BRANCH  56  70
ATOM     70  C   UNL     1      -1.048 -19.143  -2.104  1.00  0.00    -0.014 A 
ATOM     71  C   UNL     1      -1.522 -20.026  -1.119  1.00  0.00     0.009 A 
ATOM     72  C   UNL     1       0.334 -19.066  -2.336  1.00  0.00     0.009 A 
ATOM     73  C   UNL     1      -0.629 -20.779  -0.354  1.00  0.00     0.001 A 
ATOM     74  C   UNL     1       1.222 -19.844  -1.591  1.00  0.00     0.001 A 
ATOM     75  C   UNL     1       0.742 -20.691  -0.593  1.00  0.00     0.000 A 
ENDBRANCH  56  70
BRANCH  57  76
ATOM     76  C   UNL     1      -7.307 -13.262  -7.176  1.00  0.00    -0.014 A 
ATOM     77  C   UNL     1      -8.485 -13.794  -7.723  1.00  0.00     0.009 A 
ATOM     78  C   UNL     1      -7.031 -11.897  -7.356  1.00  0.00     0.009 A 
ATOM     79  C   UNL     1      -9.357 -12.982  -8.451  1.00  0.00     0.001 A 
ATOM     80  C   UNL     1      -7.920 -11.081  -8.060  1.00  0.00     0.001 A 
ATOM     81  C   UNL     1      -9.077 -11.626  -8.614  1.00  0.00     0.000 A 
ENDBRANCH  57  76
BRANCH  69  82
ATOM     82  C   UNL     1      -3.110 -18.515  -8.991  1.00  0.00    -0.014 A 
ATOM     83  C   UNL     1      -2.322 -17.872  -9.957  1.00  0.00     0.009 A 
ATOM     84  C   UNL     1      -3.578 -19.813  -9.248  1.00  0.00     0.009 A 
ATOM     85  C   UNL     1      -2.028 -18.508 -11.166  1.00  0.00     0.001 A 
ATOM     86  C   UNL     1      -3.259 -20.457 -10.444  1.00  0.00     0.001 A 
ATOM     87  C   UNL     1      -2.490 -19.802 -11.405  1.00  0.00     0.000 A 
ENDBRANCH  69  82
ENDBRANCH  43  44
ENDBRANCH  35  38
ENDBRANCH  33  34
ENDBRANCH  32  33
ENDBRANCH  31  32
ENDBRANCH  30  31
ENDBRANCH   1  30
TORSDOF 18
