REMARK SMILES COc1ccc([C@H]2CC(c3ccc(S(C)(=O)=O)cc3)=NN2c2ccc(C(=O)NCCCCCCNC(=O)c3ccc(-c4c5nc(c(-c6ccccc6)c6ccc([nH]6)c(-c6ccccc6)c6nc(c(-c7ccccc7)c7ccc4[nH]7)C=C6)C=C5)cc3)cc2)cc1
REMARK SMILES IDX 31 1 30 2 29 3 28 4 26 5 27 6 25 8 22 9 23 10 87 11 24 12
REMARK SMILES IDX 86 13 21 14 7 15 8 16 9 17 20 18 6 19 3 20 4 21 89 22 5 23
REMARK SMILES IDX 88 24 2 25 1 26 10 27 11 28 19 29 12 30 18 31 13 32 14 33
REMARK SMILES IDX 15 34 16 35 17 36 32 37 33 38 34 39 35 40 36 41 37 43 38 44
REMARK SMILES IDX 39 45 85 46 40 47 84 48 41 49 42 50 43 51 78 52 44 53 83 54
REMARK SMILES IDX 77 55 79 56 45 57 82 58 76 59 75 60 46 62 68 63 53 64 67 65
REMARK SMILES IDX 54 66 57 67 66 68 80 69 55 70 56 71 65 73 81 74 58 75 47 76
REMARK SMILES IDX 48 77 52 78 49 79 51 80 50 81 69 82 70 83 74 84 71 85 73 86
REMARK SMILES IDX 72 87 59 88 60 89 64 90 61 91 63 92 62 93
REMARK H PARENT 28 7 35 42 79 61 57 72
REMARK Flexibility Score: inf
ROOT
ATOM      1  C   UNL     1       1.067  -1.466  11.835  1.00  0.00     0.002 C 
ENDROOT
BRANCH   1   2
ATOM      2  C   UNL     1       1.112  -2.337  10.572  1.00  0.00     0.021 C 
BRANCH   2   3
ATOM      3  C   UNL     1       1.291  -1.523   9.289  1.00  0.00     0.116 C 
BRANCH   3   4
ATOM      4  N   UNL     1       2.668  -1.091   9.174  1.00  0.00    -0.352 N 
ATOM      5  C   UNL     1       3.730  -1.554   8.445  1.00  0.00     0.251 C 
ATOM      6  O   UNL     1       4.812  -0.986   8.600  1.00  0.00    -0.269 OA
ATOM      7  H   UNL     1       2.884  -0.308   9.731  1.00  0.00     0.163 HD
BRANCH   5   8
ATOM      8  C   UNL     1       3.621  -2.646   7.438  1.00  0.00     0.039 A 
ATOM      9  C   UNL     1       3.495  -4.544   5.345  1.00  0.00     0.060 A 
ATOM     10  C   UNL     1       4.476  -3.549   5.351  1.00  0.00     0.029 A 
ATOM     11  C   UNL     1       2.624  -4.622   6.434  1.00  0.00     0.029 A 
ATOM     12  C   UNL     1       4.527  -2.597   6.370  1.00  0.00     0.016 A 
ATOM     13  C   UNL     1       2.715  -3.708   7.493  1.00  0.00     0.016 A 
BRANCH   9  14
ATOM     14  N   UNL     1       3.425  -5.417   4.275  1.00  0.00    -0.257 N 
ATOM     15  C   UNL     1       2.232  -5.649   3.459  1.00  0.00     0.144 C 
ATOM     16  C   UNL     1       2.720  -6.721   2.474  1.00  0.00     0.091 C 
ATOM     17  C   UNL     1       3.981  -7.141   3.177  1.00  0.00     0.071 C 
ATOM     18  N   UNL     1       4.363  -6.389   4.160  1.00  0.00    -0.176 NA
BRANCH  15  19
ATOM     19  C   UNL     1       1.749  -4.376   2.787  1.00  0.00    -0.023 A 
ATOM     20  C   UNL     1       0.862  -1.955   1.631  1.00  0.00     0.118 A 
ATOM     21  C   UNL     1       0.000  -2.730   2.409  1.00  0.00     0.047 A 
ATOM     22  C   UNL     1       2.173  -2.385   1.436  1.00  0.00     0.047 A 
ATOM     23  C   UNL     1       0.433  -3.933   2.977  1.00  0.00     0.010 A 
ATOM     24  C   UNL     1       2.611  -3.585   2.009  1.00  0.00     0.010 A 
BRANCH  20  25
ATOM     25  O   UNL     1       0.319  -0.796   1.150  1.00  0.00    -0.497 OA
ATOM     26  C   UNL     1       1.024  -0.157   0.093  1.00  0.00     0.278 C 
ENDBRANCH  20  25
ENDBRANCH  15  19
BRANCH  17  27
ATOM     27  C   UNL     1       4.727  -8.338   2.781  1.00  0.00    -0.002 A 
ATOM     28  C   UNL     1       5.005  -9.296   3.761  1.00  0.00     0.011 A 
ATOM     29  C   UNL     1       5.199  -8.483   1.475  1.00  0.00     0.011 A 
ATOM     30  C   UNL     1       5.758 -10.422   3.432  1.00  0.00     0.021 A 
ATOM     31  C   UNL     1       5.977  -9.597   1.151  1.00  0.00     0.021 A 
ATOM     32  C   UNL     1       6.257 -10.556   2.133  1.00  0.00     0.067 A 
BRANCH  32  33
ATOM     33  S   UNL     1       7.255 -11.972   1.737  1.00  0.00     0.175 S 
ATOM     34  C   UNL     1       8.658 -11.830   2.815  1.00  0.00     0.163 C 
ATOM     35  O   UNL     1       6.492 -13.141   2.126  1.00  0.00    -0.224 OA
ATOM     36  O   UNL     1       7.731 -11.806   0.376  1.00  0.00    -0.224 OA
ENDBRANCH  32  33
ENDBRANCH  17  27
ENDBRANCH   9  14
ENDBRANCH   5   8
ENDBRANCH   3   4
ENDBRANCH   2   3
ENDBRANCH   1   2
BRANCH   1  37
ATOM     37  C   UNL     1      -0.133  -0.513  11.915  1.00  0.00     0.002 C 
BRANCH  37  38
ATOM     38  C   UNL     1      -1.501  -1.188  11.789  1.00  0.00     0.021 C 
BRANCH  38  39
ATOM     39  C   UNL     1      -1.793  -2.220  12.874  1.00  0.00     0.116 C 
BRANCH  39  40
ATOM     40  N   UNL     1      -1.909  -1.603  14.186  1.00  0.00    -0.352 N 
ATOM     41  C   UNL     1      -2.933  -1.692  15.095  1.00  0.00     0.251 C 
ATOM     42  H   UNL     1      -1.147  -1.044  14.461  1.00  0.00     0.163 HD
ATOM     43  O   UNL     1      -2.974  -0.940  16.062  1.00  0.00    -0.269 OA
BRANCH  41  44
ATOM     44  C   UNL     1      -3.999  -2.696  14.898  1.00  0.00     0.039 A 
ATOM     45  C   UNL     1      -5.331  -2.314  15.072  1.00  0.00     0.014 A 
ATOM     46  C   UNL     1      -3.680  -4.015  14.562  1.00  0.00     0.014 A 
ATOM     47  C   UNL     1      -6.350  -3.245  14.863  1.00  0.00     0.010 A 
ATOM     48  C   UNL     1      -4.698  -4.924  14.291  1.00  0.00     0.010 A 
ATOM     49  C   UNL     1      -6.041  -4.551  14.448  1.00  0.00    -0.014 A 
BRANCH  49  50
ATOM     50  C   UNL     1      -7.106  -5.549  14.192  1.00  0.00     0.031 A 
ATOM     51  C   UNL     1      -7.228  -6.762  15.071  1.00  0.00     0.074 A 
ATOM     52  C   UNL     1      -7.923  -5.398  13.133  1.00  0.00     0.049 A 
ATOM     53  N   UNL     1      -8.054  -7.772  14.975  1.00  0.00    -0.248 NA
ATOM     54  C   UNL     1      -6.277  -6.864  16.189  1.00  0.00     0.031 C 
ATOM     55  C   UNL     1      -7.889  -4.280  12.188  1.00  0.00     0.029 A 
ATOM     56  N   UNL     1      -8.941  -6.193  12.674  1.00  0.00    -0.354 N 
ATOM     57  C   UNL     1      -7.709  -8.639  16.004  1.00  0.00     0.074 A 
ATOM     58  C   UNL     1      -6.570  -8.058  16.682  1.00  0.00     0.031 C 
ATOM     59  C   UNL     1      -8.865  -4.445  11.281  1.00  0.00     0.029 A 
ATOM     60  C   UNL     1      -9.566  -5.694  11.558  1.00  0.00     0.049 A 
ATOM     61  H   UNL     1      -9.199  -7.041  13.103  1.00  0.00     0.167 HD
ATOM     62  C   UNL     1      -8.297  -9.804  16.366  1.00  0.00     0.031 A 
ATOM     63  C   UNL     1     -10.591  -6.189  10.839  1.00  0.00     0.031 A 
ATOM     64  C   UNL     1      -9.436 -10.377  15.699  1.00  0.00     0.049 A 
ATOM     65  C   UNL     1     -11.216  -7.492  11.246  1.00  0.00     0.074 A 
ATOM     66  C   UNL     1     -10.142 -11.521  16.025  1.00  0.00     0.029 A 
ATOM     67  N   UNL     1     -10.033  -9.845  14.566  1.00  0.00    -0.354 N 
ATOM     68  N   UNL     1     -10.917  -8.271  12.256  1.00  0.00    -0.248 NA
ATOM     69  C   UNL     1     -12.326  -7.978  10.415  1.00  0.00     0.031 C 
ATOM     70  C   UNL     1     -11.139 -11.707  15.060  1.00  0.00     0.029 A 
ATOM     71  C   UNL     1     -11.084 -10.652  14.164  1.00  0.00     0.049 A 
ATOM     72  H   UNL     1      -9.751  -9.017  14.115  1.00  0.00     0.167 HD
ATOM     73  C   UNL     1     -11.817  -9.327  12.200  1.00  0.00     0.074 A 
ATOM     74  C   UNL     1     -12.679  -9.082  11.060  1.00  0.00     0.031 C 
ATOM     75  C   UNL     1     -11.925 -10.399  13.022  1.00  0.00     0.031 A 
BRANCH  62  76
ATOM     76  C   UNL     1      -7.694 -10.540  17.530  1.00  0.00    -0.014 A 
ATOM     77  C   UNL     1      -7.792 -10.039  18.839  1.00  0.00     0.009 A 
ATOM     78  C   UNL     1      -7.014 -11.748  17.316  1.00  0.00     0.009 A 
ATOM     79  C   UNL     1      -7.177 -10.706  19.901  1.00  0.00     0.001 A 
ATOM     80  C   UNL     1      -6.426 -12.429  18.384  1.00  0.00     0.001 A 
ATOM     81  C   UNL     1      -6.496 -11.901  19.672  1.00  0.00     0.000 A 
ENDBRANCH  62  76
BRANCH  63  82
ATOM     82  C   UNL     1     -11.115  -5.421   9.681  1.00  0.00    -0.014 A 
ATOM     83  C   UNL     1     -12.340  -4.745   9.782  1.00  0.00     0.009 A 
ATOM     84  C   UNL     1     -10.388  -5.340   8.483  1.00  0.00     0.009 A 
ATOM     85  C   UNL     1     -12.835  -4.014   8.701  1.00  0.00     0.001 A 
ATOM     86  C   UNL     1     -10.876  -4.589   7.412  1.00  0.00     0.001 A 
ATOM     87  C   UNL     1     -12.100  -3.931   7.519  1.00  0.00     0.000 A 
ENDBRANCH  63  82
BRANCH  75  88
ATOM     88  C   UNL     1     -13.031 -11.373  12.734  1.00  0.00    -0.014 A 
ATOM     89  C   UNL     1     -12.954 -12.263  11.652  1.00  0.00     0.009 A 
ATOM     90  C   UNL     1     -14.149 -11.424  13.582  1.00  0.00     0.009 A 
ATOM     91  C   UNL     1     -13.991 -13.166  11.408  1.00  0.00     0.001 A 
ATOM     92  C   UNL     1     -15.171 -12.345  13.349  1.00  0.00     0.001 A 
ATOM     93  C   UNL     1     -15.095 -13.209  12.258  1.00  0.00     0.000 A 
ENDBRANCH  75  88
ENDBRANCH  49  50
ENDBRANCH  41  44
ENDBRANCH  39  40
ENDBRANCH  38  39
ENDBRANCH  37  38
ENDBRANCH   1  37
TORSDOF 18
