REMARK SMILES O=C(CCn1cc(/C=C\C(=O)c2ccc(F)cc2)c(-c2cccc(Cl)c2)n1)NCCCCCCNC(=O)c1ccc(-c2c3nc(c(-c4ccccc4)c4ccc([nH]4)c(-c4ccccc4)c4nc(c(-c5ccccc5)c5ccc2[nH]5)C=C4)C=C3)cc1
REMARK SMILES IDX 30 1 29 2 28 3 1 4 2 5 3 7 4 8 5 9 6 10 27 11 7 12 19 13
REMARK SMILES IDX 8 14 9 15 10 16 11 17 12 18 13 19 18 20 14 21 17 22 15 23
REMARK SMILES IDX 16 24 20 25 21 26 26 27 22 28 24 29 23 30 25 31 31 32 32 33
REMARK SMILES IDX 33 34 34 35 35 36 36 37 37 39 38 40 39 41 85 42 40 43 84 44
REMARK SMILES IDX 41 45 42 46 43 47 78 48 44 49 83 50 77 51 79 52 45 53 82 54
REMARK SMILES IDX 76 55 75 56 46 58 68 59 53 60 67 61 54 62 57 63 66 64 80 65
REMARK SMILES IDX 55 66 56 67 65 69 81 70 58 71 47 72 48 73 52 74 49 75 51 76
REMARK SMILES IDX 50 77 69 78 70 79 74 80 71 81 73 82 72 83 59 84 60 85 64 86
REMARK SMILES IDX 61 87 63 88 62 89
REMARK H PARENT 28 6 35 38 79 57 57 68
REMARK Flexibility Score: inf
ROOT
ATOM      1  C   UNL     1       1.516  -2.459   2.434  1.00  0.00     0.021 C 
ENDROOT
BRANCH   1   2
ATOM      2  C   UNL     1       1.206  -1.013   2.013  1.00  0.00     0.116 C 
BRANCH   2   3
ATOM      3  N   UNL     1       2.009  -0.528   0.900  1.00  0.00    -0.356 N 
ATOM      4  O   UNL     1       0.383   0.697  -0.152  1.00  0.00    -0.275 OA
ATOM      5  C   UNL     1       1.561   0.361  -0.052  1.00  0.00     0.221 C 
ATOM      6  H   UNL     1       2.934  -0.856   0.822  1.00  0.00     0.163 HD
BRANCH   5   7
ATOM      7  C   UNL     1       2.622   0.931  -0.996  1.00  0.00     0.123 C 
BRANCH   7   8
ATOM      8  C   UNL     1       3.515   2.011  -0.344  1.00  0.00     0.154 C 
BRANCH   8   9
ATOM      9  N   UNL     1       4.516   1.473   0.565  1.00  0.00    -0.271 N 
ATOM     10  C   UNL     1       5.515   2.096   1.273  1.00  0.00     0.117 A 
ATOM     11  N   UNL     1       4.536   0.150   0.710  1.00  0.00    -0.172 NA
ATOM     12  C   UNL     1       6.285   1.084   1.832  1.00  0.00     0.021 A 
ATOM     13  C   UNL     1       5.676  -0.103   1.325  1.00  0.00     0.100 A 
BRANCH  12  14
ATOM     14  C   UNL     1       7.418   1.240   2.720  1.00  0.00     0.016 C 
ATOM     15  C   UNL     1       8.354   0.375   3.193  1.00  0.00     0.053 C 
BRANCH  15  16
ATOM     16  C   UNL     1       8.727  -1.113   3.028  1.00  0.00     0.185 C 
ATOM     17  O   UNL     1       9.738  -1.545   3.568  1.00  0.00    -0.289 OA
BRANCH  16  18
ATOM     18  C   UNL     1       7.861  -2.001   2.098  1.00  0.00     0.022 A 
ATOM     19  C   UNL     1       8.032  -1.060   0.551  1.00  0.00     0.015 A 
ATOM     20  C   UNL     1       6.261  -3.256   2.231  1.00  0.00     0.015 A 
ATOM     21  C   UNL     1       6.781  -1.205  -0.681  1.00  0.00     0.040 A 
ATOM     22  C   UNL     1       5.092  -3.301   0.860  1.00  0.00     0.040 A 
ATOM     23  C   UNL     1       5.381  -2.264  -0.508  1.00  0.00     0.123 A 
ATOM     24  F   UNL     1       4.460  -2.243  -1.485  1.00  0.00    -0.207 F 
ENDBRANCH  16  18
ENDBRANCH  15  16
ENDBRANCH  12  14
BRANCH  13  25
ATOM     25  C   UNL     1       6.118  -1.498   1.580  1.00  0.00     0.004 A 
ATOM     26  C   UNL     1       7.165  -2.955   0.626  1.00  0.00     0.010 A 
ATOM     27  C   UNL     1       6.165  -1.521   3.397  1.00  0.00     0.031 A 
ATOM     28  C   UNL     1       8.096  -4.124   1.616  1.00  0.00     0.002 A 
ATOM     29  C   UNL     1       7.147  -2.718   4.204  1.00  0.00     0.041 A 
ATOM     30  C   UNL     1       8.062  -3.955   3.353  1.00  0.00     0.020 A 
ATOM     31  Cl  UNL     1       7.342  -2.544   5.908  1.00  0.00    -0.084 Cl
ENDBRANCH  13  25
ENDBRANCH   8   9
ENDBRANCH   7   8
ENDBRANCH   5   7
ENDBRANCH   2   3
ENDBRANCH   1   2
BRANCH   1  32
ATOM     32  C   UNL     1       2.890  -2.648   3.080  1.00  0.00     0.002 C 
BRANCH  32  33
ATOM     33  C   UNL     1       3.120  -2.146   4.510  1.00  0.00     0.002 C 
BRANCH  33  34
ATOM     34  C   UNL     1       2.723  -3.045   5.677  1.00  0.00     0.021 C 
BRANCH  34  35
ATOM     35  C   UNL     1       3.386  -4.420   5.692  1.00  0.00     0.116 C 
BRANCH  35  36
ATOM     36  N   UNL     1       4.810  -4.460   6.067  1.00  0.00    -0.352 N 
ATOM     37  C   UNL     1       5.553  -5.574   6.469  1.00  0.00     0.251 C 
ATOM     38  H   UNL     1       5.294  -3.604   6.029  1.00  0.00     0.163 HD
ATOM     39  O   UNL     1       6.662  -5.507   6.978  1.00  0.00    -0.269 OA
BRANCH  37  40
ATOM     40  C   UNL     1       5.006  -6.885   6.118  1.00  0.00     0.039 A 
ATOM     41  C   UNL     1       4.837  -7.985   6.965  1.00  0.00     0.014 A 
ATOM     42  C   UNL     1       4.551  -6.936   4.821  1.00  0.00     0.014 A 
ATOM     43  C   UNL     1       4.120  -9.075   6.455  1.00  0.00     0.010 A 
ATOM     44  C   UNL     1       3.421  -7.651   4.683  1.00  0.00     0.010 A 
ATOM     45  C   UNL     1       3.463  -8.904   5.229  1.00  0.00    -0.014 A 
BRANCH  45  46
ATOM     46  C   UNL     1       2.423  -9.727   4.651  1.00  0.00     0.031 A 
ATOM     47  C   UNL     1       1.338  -9.952   5.639  1.00  0.00     0.074 A 
ATOM     48  C   UNL     1       2.369  -9.962   3.313  1.00  0.00     0.049 A 
ATOM     49  N   UNL     1       1.313 -10.940   6.468  1.00  0.00    -0.248 NA
ATOM     50  C   UNL     1       0.407  -8.863   6.018  1.00  0.00     0.031 C 
ATOM     51  C   UNL     1       3.253  -9.534   2.214  1.00  0.00     0.029 A 
ATOM     52  N   UNL     1       1.427 -10.669   2.636  1.00  0.00    -0.354 N 
ATOM     53  C   UNL     1       0.151 -10.776   7.200  1.00  0.00     0.074 A 
ATOM     54  C   UNL     1      -0.168  -9.378   7.112  1.00  0.00     0.031 C 
ATOM     55  C   UNL     1       2.675  -9.801   1.011  1.00  0.00     0.029 A 
ATOM     56  C   UNL     1       1.464 -10.563   1.239  1.00  0.00     0.049 A 
ATOM     57  H   UNL     1       0.758 -11.224   3.100  1.00  0.00     0.167 HD
ATOM     58  C   UNL     1      -0.637 -11.859   7.445  1.00  0.00     0.031 A 
ATOM     59  C   UNL     1       0.554 -11.119   0.384  1.00  0.00     0.031 A 
ATOM     60  C   UNL     1       0.063 -13.077   7.090  1.00  0.00     0.049 A 
ATOM     61  C   UNL     1      -0.097 -12.226   1.148  1.00  0.00     0.074 A 
ATOM     62  C   UNL     1       1.254 -13.656   7.486  1.00  0.00     0.029 A 
ATOM     63  N   UNL     1      -0.208 -13.573   5.833  1.00  0.00    -0.354 N 
ATOM     64  N   UNL     1       0.577 -13.278   1.536  1.00  0.00    -0.248 NA
ATOM     65  C   UNL     1      -1.236 -11.860   1.984  1.00  0.00     0.031 C 
ATOM     66  C   UNL     1       1.875 -14.079   6.271  1.00  0.00     0.029 A 
ATOM     67  C   UNL     1       0.978 -13.890   5.218  1.00  0.00     0.049 A 
ATOM     68  H   UNL     1      -1.104 -13.682   5.441  1.00  0.00     0.167 HD
ATOM     69  C   UNL     1       0.248 -13.433   2.876  1.00  0.00     0.074 A 
ATOM     70  C   UNL     1      -0.892 -12.528   3.093  1.00  0.00     0.031 C 
ATOM     71  C   UNL     1       1.133 -13.960   3.779  1.00  0.00     0.031 A 
BRANCH  58  72
ATOM     72  C   UNL     1      -2.142 -11.810   7.479  1.00  0.00    -0.014 A 
ATOM     73  C   UNL     1      -2.830 -12.998   7.779  1.00  0.00     0.009 A 
ATOM     74  C   UNL     1      -2.905 -10.749   6.954  1.00  0.00     0.009 A 
ATOM     75  C   UNL     1      -4.191 -13.142   7.493  1.00  0.00     0.001 A 
ATOM     76  C   UNL     1      -4.271 -10.879   6.697  1.00  0.00     0.001 A 
ATOM     77  C   UNL     1      -4.909 -12.085   6.943  1.00  0.00     0.000 A 
ENDBRANCH  58  72
BRANCH  59  78
ATOM     78  C   UNL     1      -0.091 -10.509  -0.818  1.00  0.00    -0.014 A 
ATOM     79  C   UNL     1      -0.882 -11.257  -1.714  1.00  0.00     0.009 A 
ATOM     80  C   UNL     1      -0.170  -9.108  -0.921  1.00  0.00     0.009 A 
ATOM     81  C   UNL     1      -1.730 -10.626  -2.648  1.00  0.00     0.001 A 
ATOM     82  C   UNL     1      -1.022  -8.480  -1.841  1.00  0.00     0.001 A 
ATOM     83  C   UNL     1      -1.811  -9.237  -2.699  1.00  0.00     0.000 A 
ENDBRANCH  59  78
BRANCH  71  84
ATOM     84  C   UNL     1       2.438 -14.539   3.272  1.00  0.00    -0.014 A 
ATOM     85  C   UNL     1       3.470 -13.802   2.654  1.00  0.00     0.009 A 
ATOM     86  C   UNL     1       2.699 -15.876   3.600  1.00  0.00     0.009 A 
ATOM     87  C   UNL     1       4.700 -14.406   2.345  1.00  0.00     0.001 A 
ATOM     88  C   UNL     1       3.928 -16.471   3.311  1.00  0.00     0.001 A 
ATOM     89  C   UNL     1       4.926 -15.741   2.674  1.00  0.00     0.000 A 
ENDBRANCH  71  84
ENDBRANCH  45  46
ENDBRANCH  37  40
ENDBRANCH  35  36
ENDBRANCH  34  35
ENDBRANCH  33  34
ENDBRANCH  32  33
ENDBRANCH   1  32
TORSDOF 19
