REMARK SMILES C[C@H](C(=O)NCCCCCCNC(=O)c1ccc(-c2c3nc(c(-c4ccccc4)c4ccc([nH]4)c(-c4ccccc4)c4nc(c(-c5ccccc5)c5ccc2[nH]5)C=C4)C=C3)cc1)[C@H](C)[NH+]1CCN(S(C)(=O)=O)CC1
REMARK SMILES IDX 8 1 7 2 6 3 5 4 3 5 4 6 2 8 1 9 63 10 64 11 65 12 66 13
REMARK SMILES IDX 74 14 67 16 73 17 68 18 69 19 70 20 71 21 72 22 9 23 10 24
REMARK SMILES IDX 11 25 12 26 13 27 14 29 15 30 16 31 62 32 17 33 61 34 18 35
REMARK SMILES IDX 19 36 20 37 55 38 21 39 60 40 54 41 56 42 22 43 59 44 53 45
REMARK SMILES IDX 52 46 23 48 45 49 30 50 44 51 31 52 34 53 43 54 57 55 32 56
REMARK SMILES IDX 33 57 42 59 58 60 35 61 24 62 25 63 29 64 26 65 28 66 27 67
REMARK SMILES IDX 46 68 47 69 51 70 48 71 50 72 49 73 36 74 37 75 41 76 38 77
REMARK SMILES IDX 40 78 39 79
REMARK H PARENT 5 7 65 15 12 28 56 47 34 58
REMARK Flexibility Score: inf
ROOT
ATOM      1  C   UNL     1      -1.203   2.837   5.931  1.00  0.00     0.002 C 
ENDROOT
BRANCH   1   2
ATOM      2  C   UNL     1      -0.348   2.409   4.733  1.00  0.00     0.021 C 
BRANCH   2   3
ATOM      3  C   UNL     1      -0.666   1.017   4.192  1.00  0.00     0.116 C 
BRANCH   3   4
ATOM      4  N   UNL     1      -1.991   0.961   3.614  1.00  0.00    -0.356 N 
ATOM      5  C   UNL     1      -2.394   0.552   2.377  1.00  0.00     0.228 C 
ATOM      6  O   UNL     1      -3.602   0.595   2.130  1.00  0.00    -0.275 OA
ATOM      7  H   UNL     1      -2.716   1.266   4.206  1.00  0.00     0.163 HD
BRANCH   5   8
ATOM      8  C   UNL     1      -1.363   0.045   1.358  1.00  0.00     0.133 C 
ATOM      9  C   UNL     1      -2.025  -1.038   0.485  1.00  0.00     0.024 C 
BRANCH   8  10
ATOM     10  C   UNL     1      -0.716   1.177   0.483  1.00  0.00     0.193 C 
ATOM     11  C   UNL     1       0.798   1.264   0.729  1.00  0.00     0.076 C 
BRANCH  10  12
ATOM     12  N   UNL     1      -1.459   2.433   0.612  1.00  0.00    -0.330 N 
ATOM     13  C   UNL     1      -0.810   3.671   1.040  1.00  0.00     0.279 C 
ATOM     14  C   UNL     1      -2.487   2.634  -0.421  1.00  0.00     0.279 C 
ATOM     15  H   UNL     1      -1.909   2.207   1.499  1.00  0.00     0.348 HD
ATOM     16  C   UNL     1      -0.414   4.651  -0.079  1.00  0.00     0.163 C 
ATOM     17  C   UNL     1      -2.034   3.545  -1.573  1.00  0.00     0.163 C 
ATOM     18  N   UNL     1      -1.508   4.833  -1.062  1.00  0.00    -0.191 NA
BRANCH  18  19
ATOM     19  S   UNL     1      -2.509   6.176  -0.973  1.00  0.00     0.211 S 
ATOM     20  C   UNL     1      -3.566   5.873   0.430  1.00  0.00     0.176 C 
ATOM     21  O   UNL     1      -1.684   7.319  -0.647  1.00  0.00    -0.212 OA
ATOM     22  O   UNL     1      -3.350   6.179  -2.153  1.00  0.00    -0.212 OA
ENDBRANCH  18  19
ENDBRANCH  10  12
ENDBRANCH   8  10
ENDBRANCH   5   8
ENDBRANCH   3   4
ENDBRANCH   2   3
ENDBRANCH   1   2
BRANCH   1  23
ATOM     23  C   UNL     1      -1.151   1.892   7.135  1.00  0.00     0.002 C 
BRANCH  23  24
ATOM     24  C   UNL     1       0.253   1.588   7.663  1.00  0.00     0.021 C 
BRANCH  24  25
ATOM     25  C   UNL     1       1.068   2.815   8.062  1.00  0.00     0.116 C 
BRANCH  25  26
ATOM     26  N   UNL     1       0.436   3.570   9.129  1.00  0.00    -0.352 N 
ATOM     27  C   UNL     1       0.945   3.988  10.332  1.00  0.00     0.251 C 
ATOM     28  H   UNL     1      -0.501   3.820   8.964  1.00  0.00     0.163 HD
ATOM     29  O   UNL     1       0.190   4.447  11.185  1.00  0.00    -0.269 OA
BRANCH  27  30
ATOM     30  C   UNL     1       2.392   3.871  10.620  1.00  0.00     0.039 A 
ATOM     31  C   UNL     1       2.783   3.467  11.899  1.00  0.00     0.014 A 
ATOM     32  C   UNL     1       3.360   4.185   9.661  1.00  0.00     0.014 A 
ATOM     33  C   UNL     1       4.139   3.330  12.198  1.00  0.00     0.010 A 
ATOM     34  C   UNL     1       4.711   3.974   9.938  1.00  0.00     0.010 A 
ATOM     35  C   UNL     1       5.115   3.547  11.210  1.00  0.00    -0.014 A 
BRANCH  35  36
ATOM     36  C   UNL     1       6.550   3.306  11.509  1.00  0.00     0.031 A 
ATOM     37  C   UNL     1       7.546   4.434  11.487  1.00  0.00     0.074 A 
ATOM     38  C   UNL     1       6.961   2.053  11.792  1.00  0.00     0.049 A 
ATOM     39  N   UNL     1       8.828   4.405  11.754  1.00  0.00    -0.248 NA
ATOM     40  C   UNL     1       7.045   5.762  11.098  1.00  0.00     0.031 C 
ATOM     41  C   UNL     1       6.105   0.864  11.798  1.00  0.00     0.029 A 
ATOM     42  N   UNL     1       8.199   1.572  12.137  1.00  0.00    -0.354 N 
ATOM     43  C   UNL     1       9.282   5.706  11.575  1.00  0.00     0.074 A 
ATOM     44  C   UNL     1       8.155   6.486  11.113  1.00  0.00     0.031 C 
ATOM     45  C   UNL     1       6.835  -0.201  12.168  1.00  0.00     0.029 A 
ATOM     46  C   UNL     1       8.214   0.221  12.385  1.00  0.00     0.049 A 
ATOM     47  H   UNL     1       9.000   2.141  12.201  1.00  0.00     0.167 HD
ATOM     48  C   UNL     1      10.519   6.213  11.799  1.00  0.00     0.031 A 
ATOM     49  C   UNL     1       9.225  -0.592  12.746  1.00  0.00     0.031 A 
ATOM     50  C   UNL     1      11.645   5.437  12.249  1.00  0.00     0.049 A 
ATOM     51  C   UNL     1      10.593  -0.006  12.963  1.00  0.00     0.074 A 
ATOM     52  C   UNL     1      12.931   5.867  12.531  1.00  0.00     0.029 A 
ATOM     53  N   UNL     1      11.622   4.071  12.480  1.00  0.00    -0.354 N 
ATOM     54  N   UNL     1      10.986   1.240  12.854  1.00  0.00    -0.248 NA
ATOM     55  C   UNL     1      11.652  -0.939  13.370  1.00  0.00     0.031 C 
ATOM     56  C   UNL     1      13.699   4.751  12.881  1.00  0.00     0.029 A 
ATOM     57  C   UNL     1      12.876   3.637  12.880  1.00  0.00     0.049 A 
ATOM     58  H   UNL     1      10.831   3.493  12.375  1.00  0.00     0.167 HD
ATOM     59  C   UNL     1      12.331   1.243  13.202  1.00  0.00     0.074 A 
ATOM     60  C   UNL     1      12.675  -0.118  13.557  1.00  0.00     0.031 C 
ATOM     61  C   UNL     1      13.206   2.278  13.220  1.00  0.00     0.031 A 
BRANCH  48  62
ATOM     62  C   UNL     1      10.719   7.686  11.567  1.00  0.00    -0.014 A 
ATOM     63  C   UNL     1      10.139   8.638  12.422  1.00  0.00     0.009 A 
ATOM     64  C   UNL     1      11.544   8.129  10.521  1.00  0.00     0.009 A 
ATOM     65  C   UNL     1      10.358  10.002  12.217  1.00  0.00     0.001 A 
ATOM     66  C   UNL     1      11.785   9.493  10.337  1.00  0.00     0.001 A 
ATOM     67  C   UNL     1      11.186  10.428  11.180  1.00  0.00     0.000 A 
ENDBRANCH  48  62
BRANCH  49  68
ATOM     68  C   UNL     1       8.990  -2.050  12.922  1.00  0.00    -0.014 A 
ATOM     69  C   UNL     1       9.093  -2.650  14.186  1.00  0.00     0.009 A 
ATOM     70  C   UNL     1       8.691  -2.858  11.813  1.00  0.00     0.009 A 
ATOM     71  C   UNL     1       8.944  -4.032  14.329  1.00  0.00     0.001 A 
ATOM     72  C   UNL     1       8.505  -4.233  11.964  1.00  0.00     0.001 A 
ATOM     73  C   UNL     1       8.647  -4.821  13.219  1.00  0.00     0.000 A 
ENDBRANCH  49  68
BRANCH  61  74
ATOM     74  C   UNL     1      14.611   1.975  13.665  1.00  0.00    -0.014 A 
ATOM     75  C   UNL     1      15.476   1.198  12.878  1.00  0.00     0.009 A 
ATOM     76  C   UNL     1      15.078   2.482  14.888  1.00  0.00     0.009 A 
ATOM     77  C   UNL     1      16.761   0.892  13.330  1.00  0.00     0.001 A 
ATOM     78  C   UNL     1      16.375   2.204  15.321  1.00  0.00     0.001 A 
ATOM     79  C   UNL     1      17.210   1.398  14.549  1.00  0.00     0.000 A 
ENDBRANCH  61  74
ENDBRANCH  35  36
ENDBRANCH  27  30
ENDBRANCH  25  26
ENDBRANCH  24  25
ENDBRANCH  23  24
ENDBRANCH   1  23
TORSDOF 16
