REMARK SMILES Cn1cc([C@@H]2CC(NCCCCCCNC(=O)c3ccc(-c4c5nc(c(-c6ccccc6)c6ccc([nH]6)c(-c6ccccc6)c6nc(c(-c7ccccc7)c7ccc4[nH]7)C=C6)C=C5)cc3)=[NH+]c3c2sc(C(=O)[O-])c3-c2ccc(Cl)cc2)cn1
REMARK SMILES IDX 12 1 11 2 10 3 9 4 8 5 5 6 6 7 68 8 7 9 67 10 69 11 66 12
REMARK SMILES IDX 74 13 70 14 4 17 1 18 2 19 3 20 83 21 82 22 75 23 76 24
REMARK SMILES IDX 81 25 77 26 80 27 78 28 79 29 71 30 72 31 73 32 13 33 14 34
REMARK SMILES IDX 15 35 16 36 17 38 18 39 19 40 65 41 20 42 64 43 21 44 22 45
REMARK SMILES IDX 23 46 58 47 24 48 63 49 57 50 59 51 25 52 62 53 56 54 55 55
REMARK SMILES IDX 26 57 48 58 33 59 47 60 34 61 37 62 46 63 60 64 35 65 36 66
REMARK SMILES IDX 45 68 61 69 38 70 27 71 28 72 32 73 29 74 31 75 30 76 49 77
REMARK SMILES IDX 50 78 54 79 51 80 53 81 52 82 39 83 40 84 44 85 41 86 43 87
REMARK SMILES IDX 42 88
REMARK H PARENT 8 15 66 16 15 37 59 56 37 67
REMARK Flexibility Score: inf
ROOT
ATOM      1  C   UNL     1       4.171  -6.697  -4.575  1.00  0.00     0.002 C 
ENDROOT
BRANCH   1   2
ATOM      2  C   UNL     1       2.754  -6.457  -4.035  1.00  0.00     0.004 C 
BRANCH   2   3
ATOM      3  C   UNL     1       2.543  -6.725  -2.542  1.00  0.00     0.046 C 
BRANCH   3   4
ATOM      4  C   UNL     1       3.524  -6.012  -1.613  1.00  0.00     0.233 C 
BRANCH   4   5
ATOM      5  N   UNL     1       3.364  -4.574  -1.712  1.00  0.00    -0.278 N 
ATOM      6  C   UNL     1       2.653  -1.325   0.206  1.00  0.00     0.079 C 
ATOM      7  C   UNL     1       2.982  -2.264  -0.962  1.00  0.00     0.142 C 
ATOM      8  C   UNL     1       2.658  -2.067   1.498  1.00  0.00     0.061 A 
ATOM      9  C   UNL     1       3.121  -3.752  -0.632  1.00  0.00     0.248 C 
ATOM     10  C   UNL     1       2.835  -3.411   1.629  1.00  0.00     0.147 A 
ATOM     11  S   UNL     1       2.454  -1.323   3.011  1.00  0.00    -0.133 S 
ATOM     12  N   UNL     1       3.050  -4.273   0.558  1.00  0.00    -0.243 N 
ATOM     13  C   UNL     1       2.784  -3.881   2.979  1.00  0.00     0.049 A 
ATOM     14  C   UNL     1       2.566  -2.827   3.862  1.00  0.00     0.062 A 
ATOM     15  H   UNL     1       3.432  -4.160  -2.602  1.00  0.00     0.304 HD
ATOM     16  H   UNL     1       3.144  -5.243   0.695  1.00  0.00     0.312 HD
BRANCH   6  17
ATOM     17  C   UNL     1       1.361  -0.584  -0.005  1.00  0.00    -0.001 A 
ATOM     18  C   UNL     1      -2.193  -0.002  -0.141  1.00  0.00     0.173 C 
ATOM     19  N   UNL     1      -0.751  -0.001  -0.164  1.00  0.00    -0.276 N 
ATOM     20  C   UNL     1       0.073  -1.081  -0.058  1.00  0.00     0.112 A 
ATOM     21  N   UNL     1      -0.091   1.167  -0.257  1.00  0.00    -0.182 NA
ATOM     22  C   UNL     1       1.190   0.814  -0.138  1.00  0.00     0.139 A 
ENDBRANCH   6  17
BRANCH  13  23
ATOM     23  C   UNL     1       2.983  -5.271   3.388  1.00  0.00    -0.012 A 
ATOM     24  C   UNL     1       1.964  -5.999   4.015  1.00  0.00     0.010 A 
ATOM     25  C   UNL     1       4.210  -5.897   3.120  1.00  0.00     0.010 A 
ATOM     26  C   UNL     1       2.192  -7.317   4.423  1.00  0.00     0.021 A 
ATOM     27  C   UNL     1       4.433  -7.217   3.516  1.00  0.00     0.021 A 
ATOM     28  C   UNL     1       3.426  -7.916   4.178  1.00  0.00     0.041 A 
ATOM     29  Cl  UNL     1       3.711  -9.532   4.697  1.00  0.00    -0.084 Cl
ENDBRANCH  13  23
BRANCH  14  30
ATOM     30  C   UNL     1       2.440  -2.746   5.307  1.00  0.00     0.082 C 
ATOM     31  O   UNL     1       2.110  -1.794   5.985  1.00  0.00    -0.544 OA
ATOM     32  O   UNL     1       2.751  -3.907   5.929  1.00  0.00    -0.544 OA
ENDBRANCH  14  30
ENDBRANCH   4   5
ENDBRANCH   3   4
ENDBRANCH   2   3
ENDBRANCH   1   2
BRANCH   1  33
ATOM     33  C   UNL     1       4.794  -8.073  -4.304  1.00  0.00     0.021 C 
BRANCH  33  34
ATOM     34  C   UNL     1       4.051  -9.242  -4.933  1.00  0.00     0.116 C 
BRANCH  34  35
ATOM     35  N   UNL     1       4.072  -9.213  -6.397  1.00  0.00    -0.352 N 
ATOM     36  C   UNL     1       3.391 -10.031  -7.281  1.00  0.00     0.251 C 
ATOM     37  H   UNL     1       4.644  -8.523  -6.805  1.00  0.00     0.163 HD
ATOM     38  O   UNL     1       3.769 -10.169  -8.438  1.00  0.00    -0.269 OA
BRANCH  36  39
ATOM     39  C   UNL     1       2.186 -10.730  -6.806  1.00  0.00     0.039 A 
ATOM     40  C   UNL     1       1.900 -12.050  -7.165  1.00  0.00     0.014 A 
ATOM     41  C   UNL     1       1.351 -10.033  -5.941  1.00  0.00     0.014 A 
ATOM     42  C   UNL     1       0.810 -12.684  -6.569  1.00  0.00     0.010 A 
ATOM     43  C   UNL     1       0.412 -10.711  -5.215  1.00  0.00     0.010 A 
ATOM     44  C   UNL     1       0.082 -12.010  -5.575  1.00  0.00    -0.014 A 
BRANCH  44  45
ATOM     45  C   UNL     1      -0.967 -12.675  -4.811  1.00  0.00     0.031 A 
ATOM     46  C   UNL     1      -0.518 -13.906  -4.118  1.00  0.00     0.074 A 
ATOM     47  C   UNL     1      -2.159 -12.096  -4.537  1.00  0.00     0.049 A 
ATOM     48  N   UNL     1      -0.807 -15.127  -4.421  1.00  0.00    -0.248 NA
ATOM     49  C   UNL     1       0.493 -13.779  -3.053  1.00  0.00     0.031 C 
ATOM     50  C   UNL     1      -2.577 -10.723  -4.861  1.00  0.00     0.029 A 
ATOM     51  N   UNL     1      -3.207 -12.556  -3.797  1.00  0.00    -0.354 N 
ATOM     52  C   UNL     1      -0.235 -15.902  -3.416  1.00  0.00     0.074 A 
ATOM     53  C   UNL     1       0.733 -15.060  -2.763  1.00  0.00     0.031 C 
ATOM     54  C   UNL     1      -3.647 -10.383  -4.112  1.00  0.00     0.029 A 
ATOM     55  C   UNL     1      -4.115 -11.569  -3.424  1.00  0.00     0.049 A 
ATOM     56  H   UNL     1      -3.313 -13.502  -3.549  1.00  0.00     0.167 HD
ATOM     57  C   UNL     1      -0.869 -17.024  -2.973  1.00  0.00     0.031 A 
ATOM     58  C   UNL     1      -5.188 -11.709  -2.612  1.00  0.00     0.031 A 
ATOM     59  C   UNL     1      -1.959 -17.377  -3.850  1.00  0.00     0.049 A 
ATOM     60  C   UNL     1      -5.558 -13.137  -2.606  1.00  0.00     0.074 A 
ATOM     61  C   UNL     1      -2.127 -17.952  -5.088  1.00  0.00     0.029 A 
ATOM     62  N   UNL     1      -3.123 -16.725  -3.540  1.00  0.00    -0.354 N 
ATOM     63  N   UNL     1      -6.001 -13.761  -3.660  1.00  0.00    -0.248 NA
ATOM     64  C   UNL     1      -5.122 -13.990  -1.507  1.00  0.00     0.031 C 
ATOM     65  C   UNL     1      -3.390 -17.492  -5.574  1.00  0.00     0.029 A 
ATOM     66  C   UNL     1      -3.981 -16.686  -4.604  1.00  0.00     0.049 A 
ATOM     67  H   UNL     1      -3.319 -16.333  -2.659  1.00  0.00     0.167 HD
ATOM     68  C   UNL     1      -5.483 -15.034  -3.536  1.00  0.00     0.074 A 
ATOM     69  C   UNL     1      -5.128 -15.172  -2.129  1.00  0.00     0.031 C 
ATOM     70  C   UNL     1      -5.066 -15.730  -4.632  1.00  0.00     0.031 A 
BRANCH  57  71
ATOM     71  C   UNL     1      -0.917 -17.454  -1.516  1.00  0.00    -0.014 A 
ATOM     72  C   UNL     1      -1.681 -18.593  -1.191  1.00  0.00     0.009 A 
ATOM     73  C   UNL     1      -0.521 -16.641  -0.438  1.00  0.00     0.009 A 
ATOM     74  C   UNL     1      -2.092 -18.853   0.123  1.00  0.00     0.001 A 
ATOM     75  C   UNL     1      -0.901 -16.915   0.880  1.00  0.00     0.001 A 
ATOM     76  C   UNL     1      -1.711 -18.006   1.157  1.00  0.00     0.000 A 
ENDBRANCH  57  71
BRANCH  58  77
ATOM     77  C   UNL     1      -5.819 -10.738  -1.698  1.00  0.00    -0.014 A 
ATOM     78  C   UNL     1      -7.140 -10.924  -1.261  1.00  0.00     0.009 A 
ATOM     79  C   UNL     1      -5.024  -9.799  -1.017  1.00  0.00     0.009 A 
ATOM     80  C   UNL     1      -7.628 -10.242  -0.139  1.00  0.00     0.001 A 
ATOM     81  C   UNL     1      -5.513  -9.117   0.103  1.00  0.00     0.001 A 
ATOM     82  C   UNL     1      -6.808  -9.355   0.554  1.00  0.00     0.000 A 
ENDBRANCH  58  77
BRANCH  70  83
ATOM     83  C   UNL     1      -5.647 -15.352  -5.962  1.00  0.00    -0.014 A 
ATOM     84  C   UNL     1      -5.417 -14.120  -6.596  1.00  0.00     0.009 A 
ATOM     85  C   UNL     1      -6.412 -16.318  -6.630  1.00  0.00     0.009 A 
ATOM     86  C   UNL     1      -5.962 -13.860  -7.859  1.00  0.00     0.001 A 
ATOM     87  C   UNL     1      -6.939 -16.066  -7.896  1.00  0.00     0.001 A 
ATOM     88  C   UNL     1      -6.719 -14.834  -8.508  1.00  0.00     0.000 A 
ENDBRANCH  70  83
ENDBRANCH  44  45
ENDBRANCH  36  39
ENDBRANCH  34  35
ENDBRANCH  33  34
ENDBRANCH   1  33
TORSDOF 15
