REMARK SMILES CC1(C)CCSC[C@@]1(Nc1ccccc1Br)C(=O)NCCCCCCNC(=O)c1ccc(-c2c3nc(c(-c4ccccc4)c4ccc([nH]4)c(-c4ccccc4)c4nc(c(-c5ccccc5)c5ccc2[nH]5)C=C4)C=C3)cc1
REMARK SMILES IDX 22 1 21 2 20 3 19 4 17 5 18 6 8 8 1 9 2 10 3 11 4 12 5 13
REMARK SMILES IDX 7 14 6 15 9 16 10 18 11 19 15 20 12 21 14 22 16 23 13 24
REMARK SMILES IDX 23 25 24 26 25 27 26 28 27 29 28 31 29 32 30 33 76 34 31 35
REMARK SMILES IDX 75 36 32 37 33 38 34 39 69 40 35 41 74 42 68 43 70 44 36 45
REMARK SMILES IDX 73 46 67 47 66 48 37 50 59 51 44 52 58 53 45 54 48 55 57 56
REMARK SMILES IDX 71 57 46 58 47 59 56 61 72 62 49 63 38 64 39 65 43 66 40 67
REMARK SMILES IDX 42 68 41 69 60 70 61 71 65 72 62 73 64 74 63 75 50 76 51 77
REMARK SMILES IDX 55 78 52 79 54 80 53 81
REMARK H PARENT 19 7 9 17 26 30 70 49 48 60
REMARK Flexibility Score: inf
ROOT
ATOM      1  C   UNL     1      -0.161  -1.252   3.957  1.00  0.00     0.002 C 
ENDROOT
BRANCH   1   2
ATOM      2  C   UNL     1       0.476  -0.752   2.660  1.00  0.00     0.021 C 
BRANCH   2   3
ATOM      3  C   UNL     1       1.110  -1.847   1.797  1.00  0.00     0.116 C 
BRANCH   3   4
ATOM      4  N   UNL     1       0.122  -2.530   0.978  1.00  0.00    -0.354 N 
ATOM      5  C   UNL     1      -0.435  -1.992  -0.156  1.00  0.00     0.247 C 
ATOM      6  O   UNL     1      -1.616  -1.644  -0.054  1.00  0.00    -0.272 OA
ATOM      7  H   UNL     1      -0.164  -3.432   1.252  1.00  0.00     0.163 HD
BRANCH   5   8
ATOM      8  C   UNL     1       0.386  -1.845  -1.504  1.00  0.00     0.131 C 
ATOM      9  C   UNL     1       1.010   0.571  -0.682  1.00  0.00     0.014 C 
ATOM     10  C   UNL     1       0.489  -0.277  -1.868  1.00  0.00    -0.002 C 
ATOM     11  C   UNL     1      -0.887   0.346  -2.246  1.00  0.00     0.014 C 
ATOM     12  C   UNL     1       1.432  -0.018  -3.082  1.00  0.00     0.020 C 
ATOM     13  C   UNL     1       2.872  -0.479  -2.906  1.00  0.00     0.070 C 
ATOM     14  C   UNL     1       1.792  -2.510  -1.384  1.00  0.00     0.108 C 
ATOM     15  S   UNL     1       2.962  -2.273  -2.772  1.00  0.00    -0.159 SA
BRANCH   8  16
ATOM     16  N   UNL     1      -0.409  -2.520  -2.606  1.00  0.00    -0.369 N 
ATOM     17  H   UNL     1      -0.985  -1.943  -3.157  1.00  0.00     0.161 HD
BRANCH  16  18
ATOM     18  C   UNL     1      -0.403  -3.881  -2.911  1.00  0.00     0.049 A 
ATOM     19  C   UNL     1       0.404  -4.298  -3.988  1.00  0.00     0.027 A 
ATOM     20  C   UNL     1      -1.164  -4.876  -2.273  1.00  0.00     0.041 A 
ATOM     21  C   UNL     1       0.497  -5.637  -4.379  1.00  0.00     0.002 A 
ATOM     22  C   UNL     1      -1.075  -6.222  -2.667  1.00  0.00     0.018 A 
ATOM     23  Br  UNL     1      -2.487  -4.514  -0.961  1.00  0.00    -0.049 Br
ATOM     24  C   UNL     1      -0.239  -6.604  -3.712  1.00  0.00     0.001 A 
ENDBRANCH  16  18
ENDBRANCH   8  16
ENDBRANCH   5   8
ENDBRANCH   3   4
ENDBRANCH   2   3
ENDBRANCH   1   2
BRANCH   1  25
ATOM     25  C   UNL     1       0.803  -1.915   4.944  1.00  0.00     0.002 C 
BRANCH  25  26
ATOM     26  C   UNL     1       2.073  -1.121   5.267  1.00  0.00     0.021 C 
BRANCH  26  27
ATOM     27  C   UNL     1       1.849   0.311   5.750  1.00  0.00     0.116 C 
BRANCH  27  28
ATOM     28  N   UNL     1       1.032   0.367   6.947  1.00  0.00    -0.352 N 
ATOM     29  C   UNL     1       1.294   0.929   8.169  1.00  0.00     0.251 C 
ATOM     30  H   UNL     1       0.151  -0.066   6.870  1.00  0.00     0.163 HD
ATOM     31  O   UNL     1       0.542   0.710   9.114  1.00  0.00    -0.269 OA
BRANCH  29  32
ATOM     32  C   UNL     1       2.483   1.786   8.368  1.00  0.00     0.039 A 
ATOM     33  C   UNL     1       3.221   1.631   9.545  1.00  0.00     0.014 A 
ATOM     34  C   UNL     1       2.845   2.771   7.443  1.00  0.00     0.014 A 
ATOM     35  C   UNL     1       4.340   2.432   9.775  1.00  0.00     0.010 A 
ATOM     36  C   UNL     1       3.999   3.529   7.645  1.00  0.00     0.010 A 
ATOM     37  C   UNL     1       4.752   3.374   8.818  1.00  0.00    -0.014 A 
BRANCH  37  38
ATOM     38  C   UNL     1       5.973   4.187   9.050  1.00  0.00     0.031 A 
ATOM     39  C   UNL     1       5.880   5.673   9.261  1.00  0.00     0.074 A 
ATOM     40  C   UNL     1       7.176   3.581   9.052  1.00  0.00     0.049 A 
ATOM     41  N   UNL     1       6.836   6.526   9.539  1.00  0.00    -0.248 NA
ATOM     42  C   UNL     1       4.551   6.289   9.123  1.00  0.00     0.031 C 
ATOM     43  C   UNL     1       7.409   2.157   8.796  1.00  0.00     0.029 A 
ATOM     44  N   UNL     1       8.431   4.086   9.283  1.00  0.00    -0.354 N 
ATOM     45  C   UNL     1       6.228   7.774   9.592  1.00  0.00     0.074 A 
ATOM     46  C   UNL     1       4.829   7.576   9.280  1.00  0.00     0.031 C 
ATOM     47  C   UNL     1       8.721   1.898   8.919  1.00  0.00     0.029 A 
ATOM     48  C   UNL     1       9.423   3.136   9.239  1.00  0.00     0.049 A 
ATOM     49  H   UNL     1       8.604   5.038   9.463  1.00  0.00     0.167 HD
ATOM     50  C   UNL     1       6.780   8.973   9.891  1.00  0.00     0.031 A 
ATOM     51  C   UNL     1      10.748   3.247   9.446  1.00  0.00     0.031 A 
ATOM     52  C   UNL     1       8.165   9.169  10.229  1.00  0.00     0.049 A 
ATOM     53  C   UNL     1      11.326   4.583   9.817  1.00  0.00     0.074 A 
ATOM     54  C   UNL     1       8.798  10.332  10.634  1.00  0.00     0.029 A 
ATOM     55  N   UNL     1       9.133   8.178  10.196  1.00  0.00    -0.354 N 
ATOM     56  N   UNL     1      10.716   5.733   9.972  1.00  0.00    -0.248 NA
ATOM     57  C   UNL     1      12.774   4.630  10.063  1.00  0.00     0.031 C 
ATOM     58  C   UNL     1      10.159  10.055  10.801  1.00  0.00     0.029 A 
ATOM     59  C   UNL     1      10.363   8.709  10.546  1.00  0.00     0.049 A 
ATOM     60  H   UNL     1       8.970   7.236   9.959  1.00  0.00     0.167 HD
ATOM     61  C   UNL     1      11.700   6.634  10.354  1.00  0.00     0.074 A 
ATOM     62  C   UNL     1      12.942   5.892  10.432  1.00  0.00     0.031 C 
ATOM     63  C   UNL     1      11.589   7.959  10.612  1.00  0.00     0.031 A 
BRANCH  50  64
ATOM     64  C   UNL     1       5.886  10.181   9.868  1.00  0.00    -0.014 A 
ATOM     65  C   UNL     1       4.930  10.399  10.873  1.00  0.00     0.009 A 
ATOM     66  C   UNL     1       6.046  11.147   8.862  1.00  0.00     0.009 A 
ATOM     67  C   UNL     1       4.137  11.548  10.857  1.00  0.00     0.001 A 
ATOM     68  C   UNL     1       5.268  12.306   8.862  1.00  0.00     0.001 A 
ATOM     69  C   UNL     1       4.310  12.503   9.856  1.00  0.00     0.000 A 
ENDBRANCH  50  64
BRANCH  51  70
ATOM     70  C   UNL     1      11.626   2.053   9.332  1.00  0.00    -0.014 A 
ATOM     71  C   UNL     1      12.213   1.486  10.474  1.00  0.00     0.009 A 
ATOM     72  C   UNL     1      11.901   1.490   8.077  1.00  0.00     0.009 A 
ATOM     73  C   UNL     1      13.086   0.403  10.357  1.00  0.00     0.001 A 
ATOM     74  C   UNL     1      12.752   0.389   7.966  1.00  0.00     0.001 A 
ATOM     75  C   UNL     1      13.353  -0.146   9.104  1.00  0.00     0.000 A 
ENDBRANCH  51  70
BRANCH  63  76
ATOM     76  C   UNL     1      12.841   8.680  11.022  1.00  0.00    -0.014 A 
ATOM     77  C   UNL     1      13.861   8.946  10.095  1.00  0.00     0.009 A 
ATOM     78  C   UNL     1      12.997   9.109  12.349  1.00  0.00     0.009 A 
ATOM     79  C   UNL     1      15.031   9.591  10.500  1.00  0.00     0.001 A 
ATOM     80  C   UNL     1      14.155   9.779  12.744  1.00  0.00     0.001 A 
ATOM     81  C   UNL     1      15.176  10.009  11.822  1.00  0.00     0.000 A 
ENDBRANCH  63  76
ENDBRANCH  37  38
ENDBRANCH  29  32
ENDBRANCH  27  28
ENDBRANCH  26  27
ENDBRANCH  25  26
ENDBRANCH   1  25
TORSDOF 15
