REMARK SMILES O=C(NCCCCCCNC(=O)[C@H]1CCCC[C@@H]1C(=O)Nc1ccc(Br)c(Cl)c1)c1ccc(-c2c3nc(c(-c4ccccc4)c4ccc([nH]4)c(-c4ccccc4)c4nc(c(-c5ccccc5)c5ccc2[nH]5)C=C4)C=C3)cc1
REMARK SMILES IDX 6 1 5 2 4 3 3 4 1 5 2 6 30 8 31 9 77 10 32 11 76 12 33 13
REMARK SMILES IDX 34 14 35 15 70 16 36 17 75 18 69 19 71 20 37 21 74 22 68 23
REMARK SMILES IDX 67 24 38 26 60 27 45 28 59 29 46 30 49 31 58 32 72 33 47 34
REMARK SMILES IDX 48 35 57 37 73 38 50 39 39 40 40 41 44 42 41 43 43 44 42 45
REMARK SMILES IDX 61 46 62 47 66 48 63 49 65 50 64 51 51 52 52 53 56 54 53 55
REMARK SMILES IDX 55 56 54 57 7 58 8 59 9 60 10 61 11 62 12 64 13 65 14 66
REMARK SMILES IDX 18 67 15 68 17 69 16 70 19 71 20 72 21 73 22 75 23 76 29 77
REMARK SMILES IDX 24 78 27 79 25 80 28 81 26 82
REMARK H PARENT 3 7 71 25 49 36 10 63 21 74
REMARK Flexibility Score: inf
ROOT
ATOM      1  C   UNL     1      12.473   9.683  -7.538  1.00  0.00     0.002 C 
ENDROOT
BRANCH   1   2
ATOM      2  C   UNL     1      12.512  10.861  -6.562  1.00  0.00     0.021 C 
BRANCH   2   3
ATOM      3  C   UNL     1      13.864  11.101  -5.900  1.00  0.00     0.116 C 
BRANCH   3   4
ATOM      4  N   UNL     1      14.907  11.378  -6.871  1.00  0.00    -0.352 N 
ATOM      5  O   UNL     1      16.451  12.601  -7.957  1.00  0.00    -0.269 OA
ATOM      6  C   UNL     1      15.769  12.440  -6.950  1.00  0.00     0.251 C 
ATOM      7  H   UNL     1      15.010  10.701  -7.579  1.00  0.00     0.163 HD
BRANCH   6   8
ATOM      8  C   UNL     1      15.879  13.397  -5.828  1.00  0.00     0.039 A 
ATOM      9  C   UNL     1      16.009  14.756  -6.121  1.00  0.00     0.014 A 
ATOM     10  C   UNL     1      15.905  12.960  -4.500  1.00  0.00     0.014 A 
ATOM     11  C   UNL     1      16.150  15.676  -5.082  1.00  0.00     0.010 A 
ATOM     12  C   UNL     1      15.957  13.886  -3.462  1.00  0.00     0.010 A 
ATOM     13  C   UNL     1      16.114  15.249  -3.743  1.00  0.00    -0.014 A 
BRANCH  13  14
ATOM     14  C   UNL     1      16.295  16.223  -2.639  1.00  0.00     0.031 A 
ATOM     15  C   UNL     1      17.503  16.142  -1.746  1.00  0.00     0.074 A 
ATOM     16  C   UNL     1      15.373  17.184  -2.441  1.00  0.00     0.049 A 
ATOM     17  N   UNL     1      17.860  16.937  -0.769  1.00  0.00    -0.248 NA
ATOM     18  C   UNL     1      18.419  15.010  -1.962  1.00  0.00     0.031 C 
ATOM     19  C   UNL     1      14.139  17.340  -3.212  1.00  0.00     0.029 A 
ATOM     20  N   UNL     1      15.342  18.223  -1.545  1.00  0.00    -0.354 N 
ATOM     21  C   UNL     1      19.037  16.402  -0.261  1.00  0.00     0.074 A 
ATOM     22  C   UNL     1      19.293  15.176  -0.981  1.00  0.00     0.031 C 
ATOM     23  C   UNL     1      13.499  18.443  -2.794  1.00  0.00     0.029 A 
ATOM     24  C   UNL     1      14.258  19.051  -1.705  1.00  0.00     0.049 A 
ATOM     25  H   UNL     1      16.030  18.361  -0.854  1.00  0.00     0.167 HD
ATOM     26  C   UNL     1      19.854  16.906   0.693  1.00  0.00     0.031 A 
ATOM     27  C   UNL     1      13.920  20.185  -1.061  1.00  0.00     0.031 A 
ATOM     28  C   UNL     1      19.600  18.131   1.404  1.00  0.00     0.049 A 
ATOM     29  C   UNL     1      14.833  20.724   0.003  1.00  0.00     0.074 A 
ATOM     30  C   UNL     1      20.385  18.747   2.362  1.00  0.00     0.029 A 
ATOM     31  N   UNL     1      18.476  18.925   1.233  1.00  0.00    -0.354 N 
ATOM     32  N   UNL     1      15.974  20.239   0.433  1.00  0.00    -0.248 NA
ATOM     33  C   UNL     1      14.423  21.973   0.660  1.00  0.00     0.031 C 
ATOM     34  C   UNL     1      19.706  19.881   2.816  1.00  0.00     0.029 A 
ATOM     35  C   UNL     1      18.532  20.012   2.089  1.00  0.00     0.049 A 
ATOM     36  H   UNL     1      17.747  18.743   0.597  1.00  0.00     0.167 HD
ATOM     37  C   UNL     1      16.421  21.123   1.406  1.00  0.00     0.074 A 
ATOM     38  C   UNL     1      15.444  22.192   1.479  1.00  0.00     0.031 C 
ATOM     39  C   UNL     1      17.537  21.052   2.173  1.00  0.00     0.031 A 
BRANCH  26  40
ATOM     40  C   UNL     1      21.110  16.139   1.013  1.00  0.00    -0.014 A 
ATOM     41  C   UNL     1      21.278  15.557   2.279  1.00  0.00     0.009 A 
ATOM     42  C   UNL     1      22.153  16.035   0.077  1.00  0.00     0.009 A 
ATOM     43  C   UNL     1      22.462  14.891   2.602  1.00  0.00     0.001 A 
ATOM     44  C   UNL     1      23.322  15.338   0.390  1.00  0.00     0.001 A 
ATOM     45  C   UNL     1      23.479  14.774   1.655  1.00  0.00     0.000 A 
ENDBRANCH  26  40
BRANCH  27  46
ATOM     46  C   UNL     1      12.681  20.901  -1.464  1.00  0.00    -0.014 A 
ATOM     47  C   UNL     1      11.417  20.342  -1.208  1.00  0.00     0.009 A 
ATOM     48  C   UNL     1      12.756  22.104  -2.180  1.00  0.00     0.009 A 
ATOM     49  C   UNL     1      10.259  20.954  -1.691  1.00  0.00     0.001 A 
ATOM     50  C   UNL     1      11.593  22.730  -2.637  1.00  0.00     0.001 A 
ATOM     51  C   UNL     1      10.348  22.148  -2.404  1.00  0.00     0.000 A 
ENDBRANCH  27  46
BRANCH  39  52
ATOM     52  C   UNL     1      17.760  22.145   3.183  1.00  0.00    -0.014 A 
ATOM     53  C   UNL     1      18.840  23.030   3.034  1.00  0.00     0.009 A 
ATOM     54  C   UNL     1      16.954  22.245   4.327  1.00  0.00     0.009 A 
ATOM     55  C   UNL     1      19.116  23.984   4.016  1.00  0.00     0.001 A 
ATOM     56  C   UNL     1      17.211  23.222   5.291  1.00  0.00     0.001 A 
ATOM     57  C   UNL     1      18.297  24.084   5.139  1.00  0.00     0.000 A 
ENDBRANCH  39  52
ENDBRANCH  13  14
ENDBRANCH   6   8
ENDBRANCH   3   4
ENDBRANCH   2   3
ENDBRANCH   1   2
BRANCH   1  58
ATOM     58  C   UNL     1      12.904   8.328  -6.962  1.00  0.00     0.002 C 
BRANCH  58  59
ATOM     59  C   UNL     1      12.242   7.933  -5.640  1.00  0.00     0.021 C 
BRANCH  59  60
ATOM     60  C   UNL     1      10.716   7.896  -5.687  1.00  0.00     0.116 C 
BRANCH  60  61
ATOM     61  N   UNL     1      10.219   6.630  -6.197  1.00  0.00    -0.356 N 
ATOM     62  C   UNL     1       9.580   5.539  -5.723  1.00  0.00     0.223 C 
ATOM     63  H   UNL     1      10.398   6.543  -7.162  1.00  0.00     0.163 HD
ATOM     64  O   UNL     1       9.370   4.673  -6.587  1.00  0.00    -0.275 OA
BRANCH  62  65
ATOM     65  C   UNL     1       9.056   5.283  -4.297  1.00  0.00     0.091 C 
ATOM     66  C   UNL     1       9.466   3.874  -3.829  1.00  0.00     0.014 C 
ATOM     67  C   UNL     1       9.277   6.330  -3.210  1.00  0.00     0.091 C 
ATOM     68  C   UNL     1      10.905   3.830  -3.346  1.00  0.00     0.001 C 
ATOM     69  C   UNL     1      10.677   6.228  -2.568  1.00  0.00     0.014 C 
ATOM     70  C   UNL     1      11.119   4.812  -2.204  1.00  0.00     0.001 C 
BRANCH  67  71
ATOM     71  C   UNL     1       8.174   6.352  -2.142  1.00  0.00     0.228 C 
ATOM     72  O   UNL     1       8.216   5.625  -1.149  1.00  0.00    -0.274 OA
ATOM     73  N   UNL     1       7.196   7.322  -2.209  1.00  0.00    -0.326 N 
ATOM     74  H   UNL     1       6.701   7.472  -1.372  1.00  0.00     0.169 HD
BRANCH  73  75
ATOM     75  C   UNL     1       6.796   8.130  -3.288  1.00  0.00     0.042 A 
ATOM     76  C   UNL     1       6.585   7.613  -4.566  1.00  0.00     0.027 A 
ATOM     77  C   UNL     1       6.536   9.481  -3.055  1.00  0.00     0.047 A 
ATOM     78  C   UNL     1       6.212   8.443  -5.624  1.00  0.00     0.019 A 
ATOM     79  C   UNL     1       6.175  10.325  -4.116  1.00  0.00     0.057 A 
ATOM     80  C   UNL     1       6.025   9.807  -5.407  1.00  0.00     0.036 A 
ATOM     81  Cl  UNL     1       5.950  12.001  -3.760  1.00  0.00    -0.083 Cl
ATOM     82  Br  UNL     1       5.558  10.873  -6.906  1.00  0.00    -0.049 Br
ENDBRANCH  73  75
ENDBRANCH  67  71
ENDBRANCH  62  65
ENDBRANCH  60  61
ENDBRANCH  59  60
ENDBRANCH  58  59
ENDBRANCH   1  58
TORSDOF 15
