REMARK SMILES COCCN1C(=O)CC[C@@H](C(=O)NCCCCCCNC(=O)c2ccc(-c3c4nc(c(-c5ccccc5)c5ccc([nH]5)c(-c5ccccc5)c5nc(c(-c6ccccc6)c6ccc3[nH]6)C=C5)C=C4)cc2)[C@H]1c1ccccc1C
REMARK SMILES IDX 16 1 15 2 14 3 13 4 11 5 12 6 10 8 5 9 6 10 71 11 7 12 8 13
REMARK SMILES IDX 9 14 4 15 3 16 2 17 1 18 72 19 73 20 77 21 74 22 76 23 78 24
REMARK SMILES IDX 75 25 17 26 18 27 19 28 20 29 21 30 22 32 23 33 24 34 70 35
REMARK SMILES IDX 25 36 69 37 26 38 27 39 28 40 63 41 29 42 68 43 62 44 64 45
REMARK SMILES IDX 30 46 67 47 61 48 60 49 31 51 53 52 38 53 52 54 39 55 42 56
REMARK SMILES IDX 51 57 65 58 40 59 41 60 50 62 66 63 43 64 32 65 33 66 37 67
REMARK SMILES IDX 34 68 36 69 35 70 54 71 55 72 59 73 56 74 58 75 57 76 44 77
REMARK SMILES IDX 45 78 49 79 46 80 48 81 47 82
REMARK H PARENT 13 7 20 31 64 50 42 61
REMARK Flexibility Score: inf
ROOT
ATOM      1  C   UNL     1      -1.093  -0.905  -1.463  1.00  0.00     0.002 C 
ENDROOT
BRANCH   1   2
ATOM      2  C   UNL     1      -0.769  -1.017   0.030  1.00  0.00     0.021 C 
BRANCH   2   3
ATOM      3  C   UNL     1      -0.045  -2.296   0.415  1.00  0.00     0.116 C 
BRANCH   3   4
ATOM      4  N   UNL     1       1.341  -2.314  -0.002  1.00  0.00    -0.356 N 
ATOM      5  C   UNL     1       2.518  -2.272   0.659  1.00  0.00     0.225 C 
ATOM      6  O   UNL     1       3.494  -2.649  -0.008  1.00  0.00    -0.275 OA
ATOM      7  H   UNL     1       1.450  -2.369  -0.979  1.00  0.00     0.163 HD
BRANCH   5   8
ATOM      8  C   UNL     1       2.757  -1.818   2.105  1.00  0.00     0.106 C 
ATOM      9  N   UNL     1       1.226   0.112   2.590  1.00  0.00    -0.333 N 
ATOM     10  C   UNL     1       0.344  -0.710   3.311  1.00  0.00     0.223 C 
ATOM     11  C   UNL     1       2.638  -0.321   2.501  1.00  0.00     0.128 C 
ATOM     12  O   UNL     1      -0.790  -0.353   3.639  1.00  0.00    -0.275 OA
ATOM     13  C   UNL     1       0.800  -2.095   3.749  1.00  0.00     0.101 C 
ATOM     14  C   UNL     1       2.054  -2.694   3.136  1.00  0.00     0.026 C 
BRANCH   9  15
ATOM     15  C   UNL     1       0.781   1.529   2.493  1.00  0.00     0.148 C 
BRANCH  15  16
ATOM     16  C   UNL     1       1.131   2.450   1.311  1.00  0.00     0.181 C 
BRANCH  16  17
ATOM     17  O   UNL     1       0.419   2.142   0.113  1.00  0.00    -0.383 OA
ATOM     18  C   UNL     1       1.276   1.688  -0.926  1.00  0.00     0.194 C 
ENDBRANCH  16  17
ENDBRANCH  15  16
ENDBRANCH   9  15
BRANCH  11  19
ATOM     19  C   UNL     1       3.647   0.648   1.868  1.00  0.00    -0.022 A 
ATOM     20  C   UNL     1       4.042   0.506   0.522  1.00  0.00     0.006 A 
ATOM     21  C   UNL     1       4.205   1.741   2.586  1.00  0.00    -0.046 A 
ATOM     22  C   UNL     1       4.885   1.419  -0.117  1.00  0.00     0.000 A 
ATOM     23  C   UNL     1       5.048   2.660   1.921  1.00  0.00     0.004 A 
ATOM     24  C   UNL     1       3.988   2.004   4.054  1.00  0.00     0.045 C 
ATOM     25  C   UNL     1       5.370   2.512   0.576  1.00  0.00     0.000 A 
ENDBRANCH  11  19
ENDBRANCH   5   8
ENDBRANCH   3   4
ENDBRANCH   2   3
ENDBRANCH   1   2
BRANCH   1  26
ATOM     26  C   UNL     1      -2.209  -1.842  -1.934  1.00  0.00     0.002 C 
BRANCH  26  27
ATOM     27  C   UNL     1      -3.524  -1.711  -1.160  1.00  0.00     0.021 C 
BRANCH  27  28
ATOM     28  C   UNL     1      -4.065  -0.286  -1.080  1.00  0.00     0.116 C 
BRANCH  28  29
ATOM     29  N   UNL     1      -4.401   0.229  -2.399  1.00  0.00    -0.352 N 
ATOM     30  C   UNL     1      -5.635   0.572  -2.892  1.00  0.00     0.251 C 
ATOM     31  H   UNL     1      -3.645   0.346  -3.019  1.00  0.00     0.163 HD
ATOM     32  O   UNL     1      -5.814   0.741  -4.091  1.00  0.00    -0.269 OA
BRANCH  30  33
ATOM     33  C   UNL     1      -6.753   0.729  -1.943  1.00  0.00     0.039 A 
ATOM     34  C   UNL     1      -7.960   0.074  -2.191  1.00  0.00     0.014 A 
ATOM     35  C   UNL     1      -6.586   1.511  -0.796  1.00  0.00     0.014 A 
ATOM     36  C   UNL     1      -8.991   0.167  -1.256  1.00  0.00     0.010 A 
ATOM     37  C   UNL     1      -7.585   1.539   0.168  1.00  0.00     0.010 A 
ATOM     38  C   UNL     1      -8.802   0.878  -0.059  1.00  0.00    -0.014 A 
BRANCH  38  39
ATOM     39  C   UNL     1      -9.874   0.958   0.961  1.00  0.00     0.031 A 
ATOM     40  C   UNL     1     -10.501   2.284   1.288  1.00  0.00     0.074 A 
ATOM     41  C   UNL     1     -10.242  -0.151   1.631  1.00  0.00     0.049 A 
ATOM     42  N   UNL     1     -11.426   2.566   2.171  1.00  0.00    -0.248 NA
ATOM     43  C   UNL     1     -10.005   3.454   0.544  1.00  0.00     0.031 C 
ATOM     44  C   UNL     1      -9.672  -1.486   1.439  1.00  0.00     0.029 A 
ATOM     45  N   UNL     1     -11.180  -0.328   2.615  1.00  0.00    -0.354 N 
ATOM     46  C   UNL     1     -11.610   3.941   2.096  1.00  0.00     0.074 A 
ATOM     47  C   UNL     1     -10.662   4.444   1.128  1.00  0.00     0.031 C 
ATOM     48  C   UNL     1     -10.291  -2.349   2.260  1.00  0.00     0.029 A 
ATOM     49  C   UNL     1     -11.272  -1.624   3.061  1.00  0.00     0.049 A 
ATOM     50  H   UNL     1     -11.736   0.404   2.969  1.00  0.00     0.167 HD
ATOM     51  C   UNL     1     -12.505   4.713   2.756  1.00  0.00     0.031 A 
ATOM     52  C   UNL     1     -12.056  -2.166   4.011  1.00  0.00     0.031 A 
ATOM     53  C   UNL     1     -13.447   4.209   3.719  1.00  0.00     0.049 A 
ATOM     54  C   UNL     1     -13.035  -1.287   4.739  1.00  0.00     0.074 A 
ATOM     55  C   UNL     1     -14.430   4.897   4.407  1.00  0.00     0.029 A 
ATOM     56  N   UNL     1     -13.516   2.888   4.134  1.00  0.00    -0.354 N 
ATOM     57  N   UNL     1     -13.253  -0.001   4.602  1.00  0.00    -0.248 NA
ATOM     58  C   UNL     1     -13.888  -1.939   5.743  1.00  0.00     0.031 C 
ATOM     59  C   UNL     1     -15.059   4.002   5.279  1.00  0.00     0.029 A 
ATOM     60  C   UNL     1     -14.510   2.744   5.088  1.00  0.00     0.049 A 
ATOM     61  H   UNL     1     -12.944   2.159   3.800  1.00  0.00     0.167 HD
ATOM     62  C   UNL     1     -14.282   0.305   5.481  1.00  0.00     0.074 A 
ATOM     63  C   UNL     1     -14.659  -0.933   6.132  1.00  0.00     0.031 C 
ATOM     64  C   UNL     1     -14.865   1.504   5.729  1.00  0.00     0.031 A 
BRANCH  51  65
ATOM     65  C   UNL     1     -12.494   6.188   2.458  1.00  0.00    -0.014 A 
ATOM     66  C   UNL     1     -12.899   6.680   1.206  1.00  0.00     0.009 A 
ATOM     67  C   UNL     1     -12.086   7.099   3.444  1.00  0.00     0.009 A 
ATOM     68  C   UNL     1     -12.851   8.049   0.933  1.00  0.00     0.001 A 
ATOM     69  C   UNL     1     -12.071   8.470   3.180  1.00  0.00     0.001 A 
ATOM     70  C   UNL     1     -12.442   8.943   1.922  1.00  0.00     0.000 A 
ENDBRANCH  51  65
BRANCH  52  71
ATOM     71  C   UNL     1     -11.957  -3.617   4.316  1.00  0.00    -0.014 A 
ATOM     72  C   UNL     1     -12.995  -4.494   3.965  1.00  0.00     0.009 A 
ATOM     73  C   UNL     1     -10.821  -4.134   4.958  1.00  0.00     0.009 A 
ATOM     74  C   UNL     1     -12.908  -5.854   4.273  1.00  0.00     0.001 A 
ATOM     75  C   UNL     1     -10.724  -5.499   5.238  1.00  0.00     0.001 A 
ATOM     76  C   UNL     1     -11.771  -6.356   4.904  1.00  0.00     0.000 A 
ENDBRANCH  52  71
BRANCH  64  77
ATOM     77  C   UNL     1     -15.991   1.526   6.724  1.00  0.00    -0.014 A 
ATOM     78  C   UNL     1     -15.757   1.356   8.097  1.00  0.00     0.009 A 
ATOM     79  C   UNL     1     -17.303   1.761   6.282  1.00  0.00     0.009 A 
ATOM     80  C   UNL     1     -16.819   1.385   9.003  1.00  0.00     0.001 A 
ATOM     81  C   UNL     1     -18.358   1.820   7.193  1.00  0.00     0.001 A 
ATOM     82  C   UNL     1     -18.117   1.622   8.551  1.00  0.00     0.000 A 
ENDBRANCH  64  77
ENDBRANCH  38  39
ENDBRANCH  30  33
ENDBRANCH  28  29
ENDBRANCH  27  28
ENDBRANCH  26  27
ENDBRANCH   1  26
TORSDOF 17
