REMARK SMILES CC(C)[C@H]([NH2+][C@H]1CCCS[C@H]1C)C(=O)NCCCCCCNC(=O)c1ccc(-c2c3nc(c(-c4ccccc4)c4ccc([nH]4)c(-c4ccccc4)c4nc(c(-c5ccccc5)c5ccc2[nH]5)C=C4)C=C3)cc1
REMARK SMILES IDX 18 1 17 2 16 3 15 4 13 5 14 6 4 8 2 9 1 10 3 11 5 12 6 15
REMARK SMILES IDX 7 16 11 17 8 18 10 19 12 20 9 21 19 22 20 23 21 24 22 25
REMARK SMILES IDX 23 26 24 28 25 29 26 30 72 31 27 32 71 33 28 34 29 35 30 36
REMARK SMILES IDX 65 37 31 38 70 39 64 40 66 41 32 42 69 43 63 44 62 45 33 47
REMARK SMILES IDX 55 48 40 49 54 50 41 51 44 52 53 53 67 54 42 55 43 56 52 58
REMARK SMILES IDX 68 59 45 60 34 61 35 62 39 63 36 64 38 65 37 66 56 67 57 68
REMARK SMILES IDX 61 69 58 70 60 71 59 72 46 73 47 74 51 75 48 76 50 77 49 78
REMARK H PARENT 15 7 5 13 5 14 22 27 66 46 44 57
REMARK Flexibility Score: inf
ROOT
ATOM      1  C   UNL     1      -3.675  -2.823   3.385  1.00  0.00     0.002 C 
ENDROOT
BRANCH   1   2
ATOM      2  C   UNL     1      -2.641  -1.841   2.825  1.00  0.00     0.021 C 
BRANCH   2   3
ATOM      3  C   UNL     1      -1.266  -2.457   2.587  1.00  0.00     0.116 C 
BRANCH   3   4
ATOM      4  N   UNL     1      -1.227  -3.316   1.420  1.00  0.00    -0.351 N 
ATOM      5  C   UNL     1      -0.241  -3.502   0.487  1.00  0.00     0.278 C 
ATOM      6  O   UNL     1      -0.368  -4.457  -0.285  1.00  0.00    -0.268 OA
ATOM      7  H   UNL     1      -2.040  -3.852   1.274  1.00  0.00     0.163 HD
BRANCH   5   8
ATOM      8  C   UNL     1       1.008  -2.567   0.408  1.00  0.00     0.275 C 
BRANCH   8   9
ATOM      9  C   UNL     1       2.160  -3.054   1.345  1.00  0.00     0.051 C 
ATOM     10  C   UNL     1       1.757  -3.734   2.655  1.00  0.00     0.014 C 
ATOM     11  C   UNL     1       3.103  -4.017   0.597  1.00  0.00     0.014 C 
ENDBRANCH   8   9
BRANCH   8  12
ATOM     12  N   UNL     1       0.550  -1.168   0.378  1.00  0.00    -0.332 N 
ATOM     13  H   UNL     1      -0.257  -1.148   1.002  1.00  0.00     0.347 HD
ATOM     14  H   UNL     1       0.507  -1.044  -0.633  1.00  0.00     0.347 HD
BRANCH  12  15
ATOM     15  C   UNL     1       1.304   0.037   0.713  1.00  0.00     0.195 C 
ATOM     16  C   UNL     1       1.470   0.192   2.238  1.00  0.00     0.067 C 
ATOM     17  C   UNL     1       2.510   0.412  -0.207  1.00  0.00     0.101 C 
ATOM     18  C   UNL     1       2.174   1.463   2.699  1.00  0.00     0.017 C 
ATOM     19  S   UNL     1       3.329   1.979   0.300  1.00  0.00    -0.153 SA
ATOM     20  C   UNL     1       3.607  -0.622  -0.415  1.00  0.00     0.026 C 
ATOM     21  C   UNL     1       3.538   1.638   2.065  1.00  0.00     0.070 C 
ENDBRANCH  12  15
ENDBRANCH   8  12
ENDBRANCH   5   8
ENDBRANCH   3   4
ENDBRANCH   2   3
ENDBRANCH   1   2
BRANCH   1  22
ATOM     22  C   UNL     1      -3.264  -3.548   4.673  1.00  0.00     0.002 C 
BRANCH  22  23
ATOM     23  C   UNL     1      -2.826  -2.646   5.831  1.00  0.00     0.021 C 
BRANCH  23  24
ATOM     24  C   UNL     1      -3.854  -1.605   6.268  1.00  0.00     0.116 C 
BRANCH  24  25
ATOM     25  N   UNL     1      -5.116  -2.207   6.664  1.00  0.00    -0.352 N 
ATOM     26  C   UNL     1      -5.896  -1.966   7.762  1.00  0.00     0.251 C 
ATOM     27  H   UNL     1      -5.463  -2.892   6.049  1.00  0.00     0.163 HD
ATOM     28  O   UNL     1      -6.859  -2.700   7.998  1.00  0.00    -0.269 OA
BRANCH  26  29
ATOM     29  C   UNL     1      -5.589  -0.850   8.680  1.00  0.00     0.039 A 
ATOM     30  C   UNL     1      -5.702  -1.070  10.056  1.00  0.00     0.014 A 
ATOM     31  C   UNL     1      -5.232   0.415   8.201  1.00  0.00     0.014 A 
ATOM     32  C   UNL     1      -5.416  -0.038  10.950  1.00  0.00     0.010 A 
ATOM     33  C   UNL     1      -4.887   1.427   9.096  1.00  0.00     0.010 A 
ATOM     34  C   UNL     1      -4.983   1.211  10.479  1.00  0.00    -0.014 A 
BRANCH  34  35
ATOM     35  C   UNL     1      -4.624   2.290  11.431  1.00  0.00     0.031 A 
ATOM     36  C   UNL     1      -5.452   3.542  11.520  1.00  0.00     0.074 A 
ATOM     37  C   UNL     1      -3.527   2.152  12.200  1.00  0.00     0.049 A 
ATOM     38  N   UNL     1      -5.300   4.575  12.310  1.00  0.00    -0.248 NA
ATOM     39  C   UNL     1      -6.584   3.660  10.587  1.00  0.00     0.031 C 
ATOM     40  C   UNL     1      -2.611   1.009  12.172  1.00  0.00     0.029 A 
ATOM     41  N   UNL     1      -2.998   2.979  13.158  1.00  0.00    -0.354 N 
ATOM     42  C   UNL     1      -6.307   5.468  11.964  1.00  0.00     0.074 A 
ATOM     43  C   UNL     1      -7.034   4.876  10.862  1.00  0.00     0.031 C 
ATOM     44  C   UNL     1      -1.653   1.192  13.094  1.00  0.00     0.029 A 
ATOM     45  C   UNL     1      -1.871   2.473  13.758  1.00  0.00     0.049 A 
ATOM     46  H   UNL     1      -3.388   3.851  13.393  1.00  0.00     0.167 HD
ATOM     47  C   UNL     1      -6.611   6.663  12.523  1.00  0.00     0.031 A 
ATOM     48  C   UNL     1      -1.102   2.979  14.740  1.00  0.00     0.031 A 
ATOM     49  C   UNL     1      -5.896   7.248  13.627  1.00  0.00     0.049 A 
ATOM     50  C   UNL     1      -1.471   4.298  15.356  1.00  0.00     0.074 A 
ATOM     51  C   UNL     1      -6.165   8.425  14.303  1.00  0.00     0.029 A 
ATOM     52  N   UNL     1      -4.767   6.699  14.214  1.00  0.00    -0.354 N 
ATOM     53  N   UNL     1      -2.474   5.092  15.069  1.00  0.00    -0.248 NA
ATOM     54  C   UNL     1      -0.610   4.782  16.444  1.00  0.00     0.031 C 
ATOM     55  C   UNL     1      -5.173   8.610  15.272  1.00  0.00     0.029 A 
ATOM     56  C   UNL     1      -4.314   7.523  15.230  1.00  0.00     0.049 A 
ATOM     57  H   UNL     1      -4.348   5.848  13.948  1.00  0.00     0.167 HD
ATOM     58  C   UNL     1      -2.377   6.157  15.954  1.00  0.00     0.074 A 
ATOM     59  C   UNL     1      -1.231   5.897  16.800  1.00  0.00     0.031 C 
ATOM     60  C   UNL     1      -3.166   7.255  16.055  1.00  0.00     0.031 A 
BRANCH  47  61
ATOM     61  C   UNL     1      -7.771   7.423  11.944  1.00  0.00    -0.014 A 
ATOM     62  C   UNL     1      -9.092   6.991  12.138  1.00  0.00     0.009 A 
ATOM     63  C   UNL     1      -7.543   8.607  11.225  1.00  0.00     0.009 A 
ATOM     64  C   UNL     1     -10.159   7.710  11.595  1.00  0.00     0.001 A 
ATOM     65  C   UNL     1      -8.613   9.338  10.706  1.00  0.00     0.001 A 
ATOM     66  C   UNL     1      -9.919   8.885  10.884  1.00  0.00     0.000 A 
ENDBRANCH  47  61
BRANCH  48  67
ATOM     67  C   UNL     1       0.080   2.221  15.223  1.00  0.00    -0.014 A 
ATOM     68  C   UNL     1       0.063   1.604  16.483  1.00  0.00     0.009 A 
ATOM     69  C   UNL     1       1.231   2.113  14.428  1.00  0.00     0.009 A 
ATOM     70  C   UNL     1       1.185   0.916  16.949  1.00  0.00     0.001 A 
ATOM     71  C   UNL     1       2.343   1.403  14.886  1.00  0.00     0.001 A 
ATOM     72  C   UNL     1       2.322   0.813  16.149  1.00  0.00     0.000 A 
ENDBRANCH  48  67
BRANCH  60  73
ATOM     73  C   UNL     1      -2.821   8.242  17.134  1.00  0.00    -0.014 A 
ATOM     74  C   UNL     1      -1.693   9.071  17.027  1.00  0.00     0.009 A 
ATOM     75  C   UNL     1      -3.644   8.354  18.265  1.00  0.00     0.009 A 
ATOM     76  C   UNL     1      -1.375   9.965  18.051  1.00  0.00     0.001 A 
ATOM     77  C   UNL     1      -3.339   9.268  19.274  1.00  0.00     0.001 A 
ATOM     78  C   UNL     1      -2.200  10.064  19.171  1.00  0.00     0.000 A 
ENDBRANCH  60  73
ENDBRANCH  34  35
ENDBRANCH  26  29
ENDBRANCH  24  25
ENDBRANCH  23  24
ENDBRANCH  22  23
ENDBRANCH   1  22
TORSDOF 16
