REMARK SMILES CN1C=C/C(=C\C=C/C=N\c2ccc(C(=O)NCCCCCCNC(=O)c3ccc(-c4c5nc(c(-c6ccccc6)c6ccc([nH]6)c(-c6ccccc6)c6nc(c(-c7ccccc7)c7ccc4[nH]7)C=C6)C=C5)cc3)cc2)c2ccccc21
REMARK SMILES IDX 20 1 19 2 18 3 17 4 15 5 16 6 14 8 11 9 12 10 76 11 13 12
REMARK SMILES IDX 75 13 10 14 9 15 8 16 7 17 6 18 1 19 2 20 3 21 82 22 4 23
REMARK SMILES IDX 77 24 81 25 5 26 78 27 80 28 79 29 21 30 22 31 23 32 24 33
REMARK SMILES IDX 25 34 26 36 27 37 28 38 74 39 29 40 73 41 30 42 31 43 32 44
REMARK SMILES IDX 67 45 33 46 72 47 66 48 68 49 34 50 71 51 65 52 64 53 35 55
REMARK SMILES IDX 57 56 42 57 56 58 43 59 46 60 55 61 69 62 44 63 45 64 54 66
REMARK SMILES IDX 70 67 47 68 36 69 37 70 41 71 38 72 40 73 39 74 58 75 59 76
REMARK SMILES IDX 63 77 60 78 62 79 61 80 48 81 49 82 53 83 50 84 52 85 51 86
REMARK H PARENT 17 7 24 35 68 54 46 65
REMARK Flexibility Score: inf
ROOT
ATOM      1  C   UNL     1      -7.809   6.001 -11.781  1.00  0.00     0.002 C 
ENDROOT
BRANCH   1   2
ATOM      2  C   UNL     1      -7.282   4.753 -11.070  1.00  0.00     0.021 C 
BRANCH   2   3
ATOM      3  C   UNL     1      -6.018   4.108 -11.630  1.00  0.00     0.116 C 
BRANCH   3   4
ATOM      4  N   UNL     1      -4.883   5.003 -11.729  1.00  0.00    -0.352 N 
ATOM      5  C   UNL     1      -3.535   4.773 -11.588  1.00  0.00     0.251 C 
ATOM      6  O   UNL     1      -2.768   5.723 -11.738  1.00  0.00    -0.269 OA
ATOM      7  H   UNL     1      -5.118   5.937 -11.933  1.00  0.00     0.163 HD
BRANCH   5   8
ATOM      8  C   UNL     1      -2.982   3.450 -11.185  1.00  0.00     0.039 A 
ATOM      9  C   UNL     1      -1.988   1.065 -10.070  1.00  0.00     0.063 A 
ATOM     10  C   UNL     1      -1.297   2.267  -9.896  1.00  0.00     0.029 A 
ATOM     11  C   UNL     1      -3.078   1.041 -10.941  1.00  0.00     0.029 A 
ATOM     12  C   UNL     1      -1.809   3.457 -10.418  1.00  0.00     0.016 A 
ATOM     13  C   UNL     1      -3.553   2.221 -11.524  1.00  0.00     0.016 A 
BRANCH   9  14
ATOM     14  N   UNL     1      -1.611  -0.115  -9.417  1.00  0.00    -0.257 NA
ATOM     15  C   UNL     1      -1.550  -0.166  -8.121  1.00  0.00     0.111 C 
BRANCH  15  16
ATOM     16  C   UNL     1      -1.838   0.902  -7.122  1.00  0.00     0.020 C 
ATOM     17  C   UNL     1      -1.551   0.859  -5.812  1.00  0.00     0.002 C 
BRANCH  17  18
ATOM     18  C   UNL     1      -1.017  -0.261  -5.061  1.00  0.00     0.009 C 
ATOM     19  C   UNL     1       1.025  -0.111   0.229  1.00  0.00     0.149 C 
ATOM     20  N   UNL     1       0.529  -0.170  -1.145  1.00  0.00    -0.351 N 
ATOM     21  C   UNL     1       0.236   0.978  -1.857  1.00  0.00     0.086 C 
ATOM     22  C   UNL     1       0.384  -1.443  -1.768  1.00  0.00     0.048 A 
ATOM     23  C   UNL     1      -0.237   1.010  -3.108  1.00  0.00     0.026 C 
ATOM     24  C   UNL     1      -0.099  -1.529  -3.113  1.00  0.00     0.005 A 
ATOM     25  C   UNL     1       0.703  -2.641  -1.097  1.00  0.00     0.027 A 
ATOM     26  C   UNL     1      -0.477  -0.244  -3.820  1.00  0.00    -0.015 C 
ATOM     27  C   UNL     1      -0.226  -2.801  -3.708  1.00  0.00     0.011 A 
ATOM     28  C   UNL     1       0.555  -3.887  -1.708  1.00  0.00     0.002 A 
ATOM     29  C   UNL     1       0.094  -3.967  -3.012  1.00  0.00     0.001 A 
ENDBRANCH  17  18
ENDBRANCH  15  16
ENDBRANCH   9  14
ENDBRANCH   5   8
ENDBRANCH   3   4
ENDBRANCH   2   3
ENDBRANCH   1   2
BRANCH   1  30
ATOM     30  C   UNL     1      -7.998   5.916 -13.297  1.00  0.00     0.002 C 
BRANCH  30  31
ATOM     31  C   UNL     1      -8.810   4.734 -13.824  1.00  0.00     0.021 C 
BRANCH  31  32
ATOM     32  C   UNL     1     -10.172   4.511 -13.180  1.00  0.00     0.116 C 
BRANCH  32  33
ATOM     33  N   UNL     1     -11.113   5.595 -13.401  1.00  0.00    -0.352 N 
ATOM     34  C   UNL     1     -12.423   5.540 -13.830  1.00  0.00     0.251 C 
ATOM     35  H   UNL     1     -10.766   6.498 -13.217  1.00  0.00     0.163 HD
ATOM     36  O   UNL     1     -13.053   6.565 -14.034  1.00  0.00    -0.269 OA
BRANCH  34  37
ATOM     37  C   UNL     1     -13.047   4.223 -14.099  1.00  0.00     0.039 A 
ATOM     38  C   UNL     1     -12.940   3.173 -13.185  1.00  0.00     0.014 A 
ATOM     39  C   UNL     1     -13.705   4.029 -15.316  1.00  0.00     0.014 A 
ATOM     40  C   UNL     1     -13.322   1.889 -13.563  1.00  0.00     0.010 A 
ATOM     41  C   UNL     1     -14.161   2.753 -15.662  1.00  0.00     0.010 A 
ATOM     42  C   UNL     1     -13.917   1.661 -14.814  1.00  0.00    -0.014 A 
BRANCH  42  43
ATOM     43  C   UNL     1     -14.241   0.275 -15.243  1.00  0.00     0.031 A 
ATOM     44  C   UNL     1     -13.522  -0.349 -16.411  1.00  0.00     0.074 A 
ATOM     45  C   UNL     1     -15.149  -0.444 -14.555  1.00  0.00     0.049 A 
ATOM     46  N   UNL     1     -13.684  -1.536 -16.940  1.00  0.00    -0.248 NA
ATOM     47  C   UNL     1     -12.484   0.461 -17.071  1.00  0.00     0.031 C 
ATOM     48  C   UNL     1     -15.885   0.031 -13.383  1.00  0.00     0.029 A 
ATOM     49  N   UNL     1     -15.593  -1.731 -14.730  1.00  0.00    -0.354 N 
ATOM     50  C   UNL     1     -12.791  -1.606 -18.002  1.00  0.00     0.074 A 
ATOM     51  C   UNL     1     -12.103  -0.335 -18.061  1.00  0.00     0.031 C 
ATOM     52  C   UNL     1     -16.654  -0.965 -12.917  1.00  0.00     0.029 A 
ATOM     53  C   UNL     1     -16.519  -2.123 -13.795  1.00  0.00     0.049 A 
ATOM     54  H   UNL     1     -15.277  -2.316 -15.456  1.00  0.00     0.167 HD
ATOM     55  C   UNL     1     -12.557  -2.639 -18.844  1.00  0.00     0.031 A 
ATOM     56  C   UNL     1     -17.202  -3.277 -13.665  1.00  0.00     0.031 A 
ATOM     57  C   UNL     1     -13.228  -3.910 -18.774  1.00  0.00     0.049 A 
ATOM     58  C   UNL     1     -16.976  -4.384 -14.655  1.00  0.00     0.074 A 
ATOM     59  C   UNL     1     -13.039  -5.023 -19.575  1.00  0.00     0.029 A 
ATOM     60  N   UNL     1     -14.209  -4.238 -17.854  1.00  0.00    -0.354 N 
ATOM     61  N   UNL     1     -16.128  -4.432 -15.654  1.00  0.00    -0.248 NA
ATOM     62  C   UNL     1     -17.801  -5.591 -14.508  1.00  0.00     0.031 C 
ATOM     63  C   UNL     1     -13.947  -6.005 -19.176  1.00  0.00     0.029 A 
ATOM     64  C   UNL     1     -14.656  -5.527 -18.086  1.00  0.00     0.049 A 
ATOM     65  H   UNL     1     -14.540  -3.643 -17.142  1.00  0.00     0.167 HD
ATOM     66  C   UNL     1     -16.308  -5.675 -16.245  1.00  0.00     0.074 A 
ATOM     67  C   UNL     1     -17.334  -6.358 -15.485  1.00  0.00     0.031 C 
ATOM     68  C   UNL     1     -15.677  -6.198 -17.323  1.00  0.00     0.031 A 
BRANCH  55  69
ATOM     69  C   UNL     1     -11.538  -2.450 -19.934  1.00  0.00    -0.014 A 
ATOM     70  C   UNL     1     -11.957  -2.390 -21.274  1.00  0.00     0.009 A 
ATOM     71  C   UNL     1     -10.164  -2.436 -19.651  1.00  0.00     0.009 A 
ATOM     72  C   UNL     1     -11.022  -2.331 -22.308  1.00  0.00     0.001 A 
ATOM     73  C   UNL     1      -9.231  -2.350 -20.687  1.00  0.00     0.001 A 
ATOM     74  C   UNL     1      -9.660  -2.307 -22.014  1.00  0.00     0.000 A 
ENDBRANCH  55  69
BRANCH  56  75
ATOM     75  C   UNL     1     -18.171  -3.427 -12.547  1.00  0.00    -0.014 A 
ATOM     76  C   UNL     1     -19.351  -2.666 -12.520  1.00  0.00     0.009 A 
ATOM     77  C   UNL     1     -17.894  -4.287 -11.475  1.00  0.00     0.009 A 
ATOM     78  C   UNL     1     -20.219  -2.740 -11.429  1.00  0.00     0.001 A 
ATOM     79  C   UNL     1     -18.779  -4.381 -10.398  1.00  0.00     0.001 A 
ATOM     80  C   UNL     1     -19.934  -3.600 -10.370  1.00  0.00     0.000 A 
ENDBRANCH  56  75
BRANCH  68  81
ATOM     81  C   UNL     1     -16.052  -7.586 -17.758  1.00  0.00    -0.014 A 
ATOM     82  C   UNL     1     -15.139  -8.639 -17.590  1.00  0.00     0.009 A 
ATOM     83  C   UNL     1     -17.249  -7.825 -18.450  1.00  0.00     0.009 A 
ATOM     84  C   UNL     1     -15.404  -9.899 -18.126  1.00  0.00     0.001 A 
ATOM     85  C   UNL     1     -17.523  -9.094 -18.963  1.00  0.00     0.001 A 
ATOM     86  C   UNL     1     -16.597 -10.126 -18.812  1.00  0.00     0.000 A 
ENDBRANCH  68  81
ENDBRANCH  42  43
ENDBRANCH  34  37
ENDBRANCH  32  33
ENDBRANCH  31  32
ENDBRANCH  30  31
ENDBRANCH   1  30
TORSDOF 16
