REMARK SMILES C/C(=N\NC(N)=S)c1nnn(-c2ccc(C(=O)NCCCCCCNC(=O)c3ccc(-c4c5nc(c(-c6ccccc6)c6ccc([nH]6)c(-c6ccccc6)c6nc(c(-c7ccccc7)c7ccc4[nH]7)C=C6)C=C5)cc3)cc2)c1C
REMARK SMILES IDX 20 1 19 2 18 3 16 4 17 5 15 7 12 8 13 9 77 10 14 11 76 12
REMARK SMILES IDX 11 13 8 14 9 15 78 16 10 17 79 18 2 19 1 20 3 21 4 22 5 24
REMARK SMILES IDX 7 25 6 26 21 29 22 30 23 31 24 32 25 33 26 34 27 36 28 37
REMARK SMILES IDX 29 38 75 39 30 40 74 41 31 42 32 43 33 44 68 45 34 46 73 47
REMARK SMILES IDX 67 48 69 49 35 50 72 51 66 52 65 53 36 55 58 56 43 57 57 58
REMARK SMILES IDX 44 59 47 60 56 61 70 62 45 63 46 64 55 66 71 67 48 68 37 69
REMARK SMILES IDX 38 70 42 71 39 72 41 73 40 74 59 75 60 76 64 77 61 78 63 79
REMARK SMILES IDX 62 80 49 81 50 82 54 83 51 84 53 85 52 86
REMARK H PARENT 18 6 4 23 6 27 6 28 25 35 69 54 47 65
REMARK Flexibility Score: inf
ROOT
ATOM      1  C   UNL     1       8.598   3.100   6.445  1.00  0.00     0.021 C 
ENDROOT
BRANCH   1   2
ATOM      2  C   UNL     1       8.327   1.722   5.834  1.00  0.00     0.116 C 
BRANCH   2   3
ATOM      3  N   UNL     1       7.931   0.783   6.868  1.00  0.00    -0.352 N 
ATOM      4  C   UNL     1       6.715   0.277   7.256  1.00  0.00     0.251 C 
ATOM      5  O   UNL     1       6.705  -0.533   8.183  1.00  0.00    -0.269 OA
ATOM      6  H   UNL     1       8.687   0.441   7.398  1.00  0.00     0.163 HD
BRANCH   4   7
ATOM      7  C   UNL     1       5.437   0.598   6.560  1.00  0.00     0.039 A 
ATOM      8  C   UNL     1       3.134   0.897   5.014  1.00  0.00     0.067 A 
ATOM      9  C   UNL     1       3.238  -0.205   5.864  1.00  0.00     0.029 A 
ATOM     10  C   UNL     1       4.096   1.907   5.027  1.00  0.00     0.029 A 
ATOM     11  C   UNL     1       4.410  -0.364   6.611  1.00  0.00     0.016 A 
ATOM     12  C   UNL     1       5.213   1.779   5.848  1.00  0.00     0.016 A 
BRANCH   8  13
ATOM     13  N   UNL     1       2.110   0.953   4.057  1.00  0.00    -0.217 N 
ATOM     14  C   UNL     1       0.960   0.987   2.215  1.00  0.00     0.132 A 
ATOM     15  N   UNL     1       0.093   0.978   3.280  1.00  0.00    -0.128 NA
ATOM     16  C   UNL     1       2.259   0.947   2.682  1.00  0.00     0.071 A 
ATOM     17  N   UNL     1       0.807   0.879   4.394  1.00  0.00    -0.061 NA
ATOM     18  C   UNL     1       3.544   0.742   1.974  1.00  0.00     0.069 C 
BRANCH  14  19
ATOM     19  C   UNL     1       0.504   0.790   0.851  1.00  0.00     0.087 C 
ATOM     20  C   UNL     1       0.507  -0.637   0.376  1.00  0.00     0.071 C 
ATOM     21  N   UNL     1       0.113   1.859   0.221  1.00  0.00    -0.176 NA
BRANCH  21  22
ATOM     22  N   UNL     1      -0.431   1.817  -1.031  1.00  0.00    -0.254 N 
ATOM     23  H   UNL     1      -1.351   2.161  -1.099  1.00  0.00     0.193 HD
BRANCH  22  24
ATOM     24  C   UNL     1       0.114   1.367  -2.217  1.00  0.00     0.184 C 
ATOM     25  S   UNL     1       1.602   0.691  -2.520  1.00  0.00    -0.040 S 
BRANCH  24  26
ATOM     26  N   UNL     1      -0.746   1.534  -3.271  1.00  0.00    -0.375 N 
ATOM     27  H   UNL     1      -1.634   1.932  -3.123  1.00  0.00     0.159 HD
ATOM     28  H   UNL     1      -0.475   1.257  -4.175  1.00  0.00     0.159 HD
ENDBRANCH  24  26
ENDBRANCH  22  24
ENDBRANCH  21  22
ENDBRANCH  14  19
ENDBRANCH   8  13
ENDBRANCH   4   7
ENDBRANCH   2   3
ENDBRANCH   1   2
BRANCH   1  29
ATOM     29  C   UNL     1       9.998   3.223   7.060  1.00  0.00     0.002 C 
BRANCH  29  30
ATOM     30  C   UNL     1      11.163   3.030   6.075  1.00  0.00     0.002 C 
BRANCH  30  31
ATOM     31  C   UNL     1      11.114   3.899   4.810  1.00  0.00     0.021 C 
BRANCH  31  32
ATOM     32  C   UNL     1      11.271   5.386   5.098  1.00  0.00     0.116 C 
BRANCH  32  33
ATOM     33  N   UNL     1      12.621   5.707   5.546  1.00  0.00    -0.352 N 
ATOM     34  C   UNL     1      13.175   6.942   5.766  1.00  0.00     0.251 C 
ATOM     35  H   UNL     1      13.212   4.938   5.712  1.00  0.00     0.163 HD
ATOM     36  O   UNL     1      14.402   7.079   5.772  1.00  0.00    -0.269 OA
BRANCH  34  37
ATOM     37  C   UNL     1      12.308   8.109   6.002  1.00  0.00     0.039 A 
ATOM     38  C   UNL     1      12.663   9.360   5.490  1.00  0.00     0.014 A 
ATOM     39  C   UNL     1      11.152   7.963   6.774  1.00  0.00     0.014 A 
ATOM     40  C   UNL     1      11.816  10.444   5.703  1.00  0.00     0.010 A 
ATOM     41  C   UNL     1      10.270   9.013   6.913  1.00  0.00     0.010 A 
ATOM     42  C   UNL     1      10.608  10.260   6.399  1.00  0.00    -0.014 A 
BRANCH  42  43
ATOM     43  C   UNL     1       9.603  11.322   6.395  1.00  0.00     0.031 A 
ATOM     44  C   UNL     1       9.202  11.726   5.019  1.00  0.00     0.074 A 
ATOM     45  C   UNL     1       8.943  11.758   7.491  1.00  0.00     0.049 A 
ATOM     46  N   UNL     1       9.443  12.850   4.433  1.00  0.00    -0.248 NA
ATOM     47  C   UNL     1       8.619  10.704   4.128  1.00  0.00     0.031 C 
ATOM     48  C   UNL     1       9.023  11.231   8.857  1.00  0.00     0.029 A 
ATOM     49  N   UNL     1       7.968  12.709   7.599  1.00  0.00    -0.354 N 
ATOM     50  C   UNL     1       8.844  12.764   3.179  1.00  0.00     0.074 A 
ATOM     51  C   UNL     1       8.530  11.374   2.977  1.00  0.00     0.031 C 
ATOM     52  C   UNL     1       7.983  11.697   9.587  1.00  0.00     0.029 A 
ATOM     53  C   UNL     1       7.254  12.673   8.797  1.00  0.00     0.049 A 
ATOM     54  H   UNL     1       7.785  13.365   6.889  1.00  0.00     0.167 HD
ATOM     55  C   UNL     1       8.396  13.885   2.547  1.00  0.00     0.031 A 
ATOM     56  C   UNL     1       6.134  13.376   9.108  1.00  0.00     0.031 A 
ATOM     57  C   UNL     1       8.950  15.073   3.150  1.00  0.00     0.049 A 
ATOM     58  C   UNL     1       6.051  14.510   8.166  1.00  0.00     0.074 A 
ATOM     59  C   UNL     1      10.216  15.585   3.344  1.00  0.00     0.029 A 
ATOM     60  N   UNL     1       8.128  15.727   4.035  1.00  0.00    -0.354 N 
ATOM     61  N   UNL     1       6.871  15.518   8.182  1.00  0.00    -0.248 NA
ATOM     62  C   UNL     1       5.305  14.326   6.934  1.00  0.00     0.031 C 
ATOM     63  C   UNL     1      10.171  16.210   4.625  1.00  0.00     0.029 A 
ATOM     64  C   UNL     1       8.865  16.128   5.112  1.00  0.00     0.049 A 
ATOM     65  H   UNL     1       7.163  15.881   3.912  1.00  0.00     0.167 HD
ATOM     66  C   UNL     1       7.104  15.788   6.843  1.00  0.00     0.074 A 
ATOM     67  C   UNL     1       6.019  15.116   6.129  1.00  0.00     0.031 C 
ATOM     68  C   UNL     1       8.313  16.278   6.440  1.00  0.00     0.031 A 
BRANCH  55  69
ATOM     69  C   UNL     1       7.094  13.936   1.771  1.00  0.00    -0.014 A 
ATOM     70  C   UNL     1       6.666  15.185   1.278  1.00  0.00     0.009 A 
ATOM     71  C   UNL     1       6.135  12.907   1.780  1.00  0.00     0.009 A 
ATOM     72  C   UNL     1       5.330  15.417   0.929  1.00  0.00     0.001 A 
ATOM     73  C   UNL     1       4.809  13.123   1.393  1.00  0.00     0.001 A 
ATOM     74  C   UNL     1       4.398  14.388   1.001  1.00  0.00     0.000 A 
ENDBRANCH  55  69
BRANCH  56  75
ATOM     75  C   UNL     1       4.995  13.059  10.002  1.00  0.00    -0.014 A 
ATOM     76  C   UNL     1       4.105  14.070  10.412  1.00  0.00     0.009 A 
ATOM     77  C   UNL     1       4.598  11.726  10.197  1.00  0.00     0.009 A 
ATOM     78  C   UNL     1       2.845  13.757  10.942  1.00  0.00     0.001 A 
ATOM     79  C   UNL     1       3.340  11.413  10.729  1.00  0.00     0.001 A 
ATOM     80  C   UNL     1       2.456  12.428  11.083  1.00  0.00     0.000 A 
ENDBRANCH  56  75
BRANCH  68  81
ATOM     81  C   UNL     1       9.236  16.837   7.494  1.00  0.00    -0.014 A 
ATOM     82  C   UNL     1       9.745  16.094   8.574  1.00  0.00     0.009 A 
ATOM     83  C   UNL     1       9.702  18.148   7.309  1.00  0.00     0.009 A 
ATOM     84  C   UNL     1      10.667  16.665   9.459  1.00  0.00     0.001 A 
ATOM     85  C   UNL     1      10.640  18.707   8.176  1.00  0.00     0.001 A 
ATOM     86  C   UNL     1      11.117  17.969   9.256  1.00  0.00     0.000 A 
ENDBRANCH  68  81
ENDBRANCH  42  43
ENDBRANCH  34  37
ENDBRANCH  32  33
ENDBRANCH  31  32
ENDBRANCH  30  31
ENDBRANCH  29  30
ENDBRANCH   1  29
TORSDOF 18
