REMARK SMILES NC(=O)c1ccc(NC(=O)Cc2ccccc2C(=O)NCCCCCCNC(=O)c2ccc(-c3c4nc(c(-c5ccccc5)c5ccc([nH]5)c(-c5ccccc5)c5nc(c(-c6ccccc6)c6ccc3[nH]6)C=C5)C=C4)cc2)cc1
REMARK SMILES IDX 22 1 21 2 20 3 18 4 19 5 17 7 12 8 13 9 14 10 16 11 15 12
REMARK SMILES IDX 11 13 9 14 8 15 10 17 7 18 4 19 5 20 79 21 6 22 78 23 2 24
REMARK SMILES IDX 1 25 3 28 23 29 24 30 25 31 26 32 27 33 28 34 29 36 30 37
REMARK SMILES IDX 31 38 77 39 32 40 76 41 33 42 34 43 35 44 70 45 36 46 75 47
REMARK SMILES IDX 69 48 71 49 37 50 74 51 68 52 67 53 38 55 60 56 45 57 59 58
REMARK SMILES IDX 46 59 49 60 58 61 72 62 47 63 48 64 57 66 73 67 50 68 39 69
REMARK SMILES IDX 40 70 44 71 41 72 43 73 42 74 61 75 62 76 66 77 63 78 65 79
REMARK SMILES IDX 64 80 51 81 52 82 56 83 53 84 55 85 54 86
REMARK H PARENT 20 6 8 16 1 26 1 27 27 35 71 54 49 65
REMARK Flexibility Score: inf
ROOT
ATOM      1  C   UNL     1       3.299   6.821  -0.102  1.00  0.00     0.021 C 
ENDROOT
BRANCH   1   2
ATOM      2  C   UNL     1       2.288   7.030  -1.220  1.00  0.00     0.116 C 
BRANCH   2   3
ATOM      3  N   UNL     1       1.924   5.815  -1.891  1.00  0.00    -0.352 N 
ATOM      4  C   UNL     1       0.661   5.279  -2.000  1.00  0.00     0.251 C 
ATOM      5  O   UNL     1       0.119   4.689  -1.073  1.00  0.00    -0.269 OA
ATOM      6  H   UNL     1       2.655   5.313  -2.319  1.00  0.00     0.163 HD
BRANCH   4   7
ATOM      7  C   UNL     1      -0.042   5.512  -3.299  1.00  0.00     0.043 A 
ATOM      8  C   UNL     1       0.561   6.175  -4.373  1.00  0.00    -0.026 A 
ATOM      9  C   UNL     1      -0.306   6.950  -5.191  1.00  0.00     0.005 A 
ATOM     10  C   UNL     1      -1.700   6.866  -5.097  1.00  0.00     0.000 A 
ATOM     11  C   UNL     1      -1.440   5.315  -3.291  1.00  0.00     0.014 A 
ATOM     12  C   UNL     1      -2.266   5.972  -4.203  1.00  0.00     0.001 A 
BRANCH   8  13
ATOM     13  C   UNL     1       2.048   6.305  -4.612  1.00  0.00     0.136 C 
BRANCH  13  14
ATOM     14  C   UNL     1       3.098   5.184  -4.741  1.00  0.00     0.228 C 
ATOM     15  N   UNL     1       3.384   4.007  -4.120  1.00  0.00    -0.326 N 
ATOM     16  H   UNL     1       4.312   3.757  -4.332  1.00  0.00     0.169 HD
ATOM     17  O   UNL     1       4.006   5.452  -5.564  1.00  0.00    -0.274 OA
BRANCH  15  18
ATOM     18  C   UNL     1       2.829   3.013  -3.279  1.00  0.00     0.041 A 
ATOM     19  C   UNL     1       1.755   0.884  -1.758  1.00  0.00     0.039 A 
ATOM     20  C   UNL     1       2.133   2.054  -1.125  1.00  0.00     0.016 A 
ATOM     21  C   UNL     1       2.102   0.689  -3.093  1.00  0.00     0.016 A 
ATOM     22  C   UNL     1       2.721   3.077  -1.886  1.00  0.00     0.027 A 
ATOM     23  C   UNL     1       2.664   1.741  -3.834  1.00  0.00     0.027 A 
BRANCH  19  24
ATOM     24  C   UNL     1       0.837  -0.049  -1.089  1.00  0.00     0.248 C 
ATOM     25  N   UNL     1       1.300  -0.743  -0.019  1.00  0.00    -0.366 N 
ATOM     26  H   UNL     1       0.709  -1.375   0.450  1.00  0.00     0.159 HD
ATOM     27  H   UNL     1       2.226  -0.613   0.288  1.00  0.00     0.159 HD
ATOM     28  O   UNL     1      -0.319  -0.179  -1.501  1.00  0.00    -0.270 OA
ENDBRANCH  19  24
ENDBRANCH  15  18
ENDBRANCH  13  14
ENDBRANCH   8  13
ENDBRANCH   4   7
ENDBRANCH   2   3
ENDBRANCH   1   2
BRANCH   1  29
ATOM     29  C   UNL     1       4.620   6.075  -0.384  1.00  0.00     0.002 C 
BRANCH  29  30
ATOM     30  C   UNL     1       5.481   6.450  -1.592  1.00  0.00     0.002 C 
BRANCH  30  31
ATOM     31  C   UNL     1       5.907   7.907  -1.703  1.00  0.00     0.021 C 
BRANCH  31  32
ATOM     32  C   UNL     1       6.412   8.549  -0.420  1.00  0.00     0.116 C 
BRANCH  32  33
ATOM     33  N   UNL     1       7.664   8.006   0.079  1.00  0.00    -0.352 N 
ATOM     34  C   UNL     1       8.689   8.692   0.695  1.00  0.00     0.251 C 
ATOM     35  H   UNL     1       7.796   7.037  -0.035  1.00  0.00     0.163 HD
ATOM     36  O   UNL     1       9.723   8.121   1.022  1.00  0.00    -0.269 OA
BRANCH  34  37
ATOM     37  C   UNL     1       8.547  10.151   0.909  1.00  0.00     0.039 A 
ATOM     38  C   UNL     1       9.564  11.000   0.467  1.00  0.00     0.014 A 
ATOM     39  C   UNL     1       7.383  10.681   1.472  1.00  0.00     0.014 A 
ATOM     40  C   UNL     1       9.377  12.384   0.516  1.00  0.00     0.010 A 
ATOM     41  C   UNL     1       7.163  12.055   1.437  1.00  0.00     0.010 A 
ATOM     42  C   UNL     1       8.157  12.921   0.959  1.00  0.00    -0.014 A 
BRANCH  42  43
ATOM     43  C   UNL     1       7.903  14.385   0.932  1.00  0.00     0.031 A 
ATOM     44  C   UNL     1       7.656  15.131   2.215  1.00  0.00     0.074 A 
ATOM     45  C   UNL     1       7.834  15.034  -0.247  1.00  0.00     0.049 A 
ATOM     46  N   UNL     1       7.369  16.396   2.393  1.00  0.00    -0.248 NA
ATOM     47  C   UNL     1       7.712  14.348   3.460  1.00  0.00     0.031 C 
ATOM     48  C   UNL     1       8.012  14.423  -1.566  1.00  0.00     0.029 A 
ATOM     49  N   UNL     1       7.589  16.357  -0.527  1.00  0.00    -0.354 N 
ATOM     50  C   UNL     1       7.196  16.555   3.762  1.00  0.00     0.074 A 
ATOM     51  C   UNL     1       7.353  15.249   4.363  1.00  0.00     0.031 C 
ATOM     52  C   UNL     1       7.904  15.372  -2.510  1.00  0.00     0.029 A 
ATOM     53  C   UNL     1       7.606  16.649  -1.870  1.00  0.00     0.049 A 
ATOM     54  H   UNL     1       7.418  17.031   0.169  1.00  0.00     0.167 HD
ATOM     55  C   UNL     1       6.951  17.688   4.462  1.00  0.00     0.031 A 
ATOM     56  C   UNL     1       7.402  17.814  -2.514  1.00  0.00     0.031 A 
ATOM     57  C   UNL     1       6.804  18.989   3.867  1.00  0.00     0.049 A 
ATOM     58  C   UNL     1       7.112  19.055  -1.716  1.00  0.00     0.074 A 
ATOM     59  C   UNL     1       6.609  20.206   4.497  1.00  0.00     0.029 A 
ATOM     60  N   UNL     1       6.832  19.241   2.505  1.00  0.00    -0.354 N 
ATOM     61  N   UNL     1       7.023  19.200  -0.416  1.00  0.00    -0.248 NA
ATOM     62  C   UNL     1       6.906  20.297  -2.476  1.00  0.00     0.031 C 
ATOM     63  C   UNL     1       6.463  21.187   3.511  1.00  0.00     0.029 A 
ATOM     64  C   UNL     1       6.632  20.591   2.272  1.00  0.00     0.049 A 
ATOM     65  H   UNL     1       6.974  18.562   1.806  1.00  0.00     0.167 HD
ATOM     66  C   UNL     1       6.785  20.552  -0.201  1.00  0.00     0.074 A 
ATOM     67  C   UNL     1       6.755  21.185  -1.503  1.00  0.00     0.031 C 
ATOM     68  C   UNL     1       6.610  21.209   0.971  1.00  0.00     0.031 A 
BRANCH  55  69
ATOM     69  C   UNL     1       6.820  17.564   5.955  1.00  0.00    -0.014 A 
ATOM     70  C   UNL     1       7.927  17.255   6.761  1.00  0.00     0.009 A 
ATOM     71  C   UNL     1       5.578  17.793   6.568  1.00  0.00     0.009 A 
ATOM     72  C   UNL     1       7.785  17.138   8.146  1.00  0.00     0.001 A 
ATOM     73  C   UNL     1       5.446  17.708   7.955  1.00  0.00     0.001 A 
ATOM     74  C   UNL     1       6.546  17.370   8.742  1.00  0.00     0.000 A 
ENDBRANCH  55  69
BRANCH  56  75
ATOM     75  C   UNL     1       7.479  17.869  -3.999  1.00  0.00    -0.014 A 
ATOM     76  C   UNL     1       8.536  18.541  -4.633  1.00  0.00     0.009 A 
ATOM     77  C   UNL     1       6.492  17.261  -4.790  1.00  0.00     0.009 A 
ATOM     78  C   UNL     1       8.587  18.626  -6.027  1.00  0.00     0.001 A 
ATOM     79  C   UNL     1       6.562  17.321  -6.184  1.00  0.00     0.001 A 
ATOM     80  C   UNL     1       7.603  18.012  -6.801  1.00  0.00     0.000 A 
ENDBRANCH  56  75
BRANCH  68  81
ATOM     81  C   UNL     1       6.414  22.698   0.907  1.00  0.00    -0.014 A 
ATOM     82  C   UNL     1       5.220  23.260   0.431  1.00  0.00     0.009 A 
ATOM     83  C   UNL     1       7.425  23.549   1.382  1.00  0.00     0.009 A 
ATOM     84  C   UNL     1       5.056  24.647   0.403  1.00  0.00     0.001 A 
ATOM     85  C   UNL     1       7.246  24.932   1.382  1.00  0.00     0.001 A 
ATOM     86  C   UNL     1       6.066  25.480   0.884  1.00  0.00     0.000 A 
ENDBRANCH  68  81
ENDBRANCH  42  43
ENDBRANCH  34  37
ENDBRANCH  32  33
ENDBRANCH  31  32
ENDBRANCH  30  31
ENDBRANCH  29  30
ENDBRANCH   1  29
TORSDOF 17
