REMARK SMILES O=C(NCCCCCCNC(=O)[C@H]1CC=CC[C@@H]1C(=O)Nc1nn(Cc2ccccc2F)cc1Br)c1ccc(-c2c3nc(c(-c4ccccc4)c4ccc([nH]4)c(-c4ccccc4)c4nc(c(-c5ccccc5)c5ccc2[nH]5)C=C4)C=C3)cc1
REMARK SMILES IDX 7 1 6 2 5 3 4 4 3 5 1 6 2 7 36 9 37 10 83 11 38 12 82 13
REMARK SMILES IDX 39 14 40 15 41 16 76 17 42 18 81 19 75 20 77 21 43 22 80 23
REMARK SMILES IDX 74 24 73 25 44 27 66 28 51 29 65 30 52 31 55 32 64 33 78 34
REMARK SMILES IDX 53 35 54 36 63 38 79 39 56 40 45 41 46 42 50 43 47 44 49 45
REMARK SMILES IDX 48 46 67 47 68 48 72 49 69 50 71 51 70 52 57 53 58 54 62 55
REMARK SMILES IDX 59 56 61 57 60 58 8 59 9 60 10 61 11 62 12 64 13 65 14 66
REMARK SMILES IDX 18 67 15 68 17 69 16 70 19 71 20 72 21 73 22 75 23 76 34 77
REMARK SMILES IDX 24 78 33 79 35 80 25 81 26 82 27 83 31 84 28 85 30 86 32 87
REMARK SMILES IDX 29 88
REMARK H PARENT 3 8 77 26 55 37 10 63 21 74
REMARK Flexibility Score: inf
ROOT
ATOM      1  C   UNL     1       4.768  -3.649  -1.971  1.00  0.00     0.002 C 
ENDROOT
BRANCH   1   2
ATOM      2  C   UNL     1       4.010  -3.502  -0.654  1.00  0.00     0.002 C 
BRANCH   2   3
ATOM      3  C   UNL     1       4.437  -2.312   0.205  1.00  0.00     0.021 C 
BRANCH   3   4
ATOM      4  C   UNL     1       4.459  -0.957  -0.510  1.00  0.00     0.116 C 
BRANCH   4   5
ATOM      5  N   UNL     1       3.166  -0.425  -0.894  1.00  0.00    -0.352 N 
ATOM      6  O   UNL     1       1.224   0.662  -0.835  1.00  0.00    -0.269 OA
ATOM      7  C   UNL     1       2.138   0.142  -0.190  1.00  0.00     0.251 C 
ATOM      8  H   UNL     1       2.990  -0.484  -1.861  1.00  0.00     0.163 HD
BRANCH   7   9
ATOM      9  C   UNL     1       2.020   0.074   1.288  1.00  0.00     0.039 A 
ATOM     10  C   UNL     1       3.092  -0.099   2.163  1.00  0.00     0.014 A 
ATOM     11  C   UNL     1       0.719   0.146   1.814  1.00  0.00     0.014 A 
ATOM     12  C   UNL     1       2.864  -0.372   3.503  1.00  0.00     0.010 A 
ATOM     13  C   UNL     1       0.488  -0.063   3.168  1.00  0.00     0.010 A 
ATOM     14  C   UNL     1       1.560  -0.377   4.000  1.00  0.00    -0.014 A 
BRANCH  14  15
ATOM     15  C   UNL     1       1.397  -0.554   5.439  1.00  0.00     0.031 A 
ATOM     16  C   UNL     1       2.049   0.497   6.273  1.00  0.00     0.074 A 
ATOM     17  C   UNL     1       0.607  -1.491   5.997  1.00  0.00     0.049 A 
ATOM     18  N   UNL     1       2.944   0.354   7.195  1.00  0.00    -0.248 NA
ATOM     19  C   UNL     1       1.720   1.898   5.965  1.00  0.00     0.031 C 
ATOM     20  C   UNL     1      -0.326  -2.394   5.323  1.00  0.00     0.029 A 
ATOM     21  N   UNL     1       0.382  -1.736   7.319  1.00  0.00    -0.354 N 
ATOM     22  C   UNL     1       3.176   1.631   7.705  1.00  0.00     0.074 A 
ATOM     23  C   UNL     1       2.498   2.550   6.827  1.00  0.00     0.031 C 
ATOM     24  C   UNL     1      -1.184  -2.901   6.237  1.00  0.00     0.029 A 
ATOM     25  C   UNL     1      -0.776  -2.461   7.561  1.00  0.00     0.049 A 
ATOM     26  H   UNL     1       0.984  -1.428   8.034  1.00  0.00     0.167 HD
ATOM     27  C   UNL     1       3.722   1.832   8.936  1.00  0.00     0.031 A 
ATOM     28  C   UNL     1      -1.400  -2.618   8.753  1.00  0.00     0.031 A 
ATOM     29  C   UNL     1       4.411   0.667   9.422  1.00  0.00     0.049 A 
ATOM     30  C   UNL     1      -0.439  -2.282   9.826  1.00  0.00     0.074 A 
ATOM     31  C   UNL     1       5.477  -0.097   8.991  1.00  0.00     0.029 A 
ATOM     32  N   UNL     1       3.787  -0.079  10.392  1.00  0.00    -0.354 N 
ATOM     33  N   UNL     1       0.595  -3.013  10.127  1.00  0.00    -0.248 NA
ATOM     34  C   UNL     1      -0.403  -0.915  10.321  1.00  0.00     0.031 C 
ATOM     35  C   UNL     1       5.152  -1.432   9.372  1.00  0.00     0.029 A 
ATOM     36  C   UNL     1       3.929  -1.393  10.044  1.00  0.00     0.049 A 
ATOM     37  H   UNL     1       3.324   0.268  11.189  1.00  0.00     0.167 HD
ATOM     38  C   UNL     1       1.586  -2.101  10.458  1.00  0.00     0.074 A 
ATOM     39  C   UNL     1       0.882  -0.840  10.676  1.00  0.00     0.031 C 
ATOM     40  C   UNL     1       2.904  -2.390  10.246  1.00  0.00     0.031 A 
BRANCH  27  41
ATOM     41  C   UNL     1       3.256   2.925   9.874  1.00  0.00    -0.014 A 
ATOM     42  C   UNL     1       3.840   3.008  11.153  1.00  0.00     0.009 A 
ATOM     43  C   UNL     1       2.070   3.658   9.677  1.00  0.00     0.009 A 
ATOM     44  C   UNL     1       3.207   3.685  12.202  1.00  0.00     0.001 A 
ATOM     45  C   UNL     1       1.460   4.374  10.710  1.00  0.00     0.001 A 
ATOM     46  C   UNL     1       2.009   4.355  11.983  1.00  0.00     0.000 A 
ENDBRANCH  27  41
BRANCH  28  47
ATOM     47  C   UNL     1      -2.845  -2.778   9.016  1.00  0.00    -0.014 A 
ATOM     48  C   UNL     1      -3.301  -3.270  10.248  1.00  0.00     0.009 A 
ATOM     49  C   UNL     1      -3.791  -2.202   8.148  1.00  0.00     0.009 A 
ATOM     50  C   UNL     1      -4.651  -3.160  10.610  1.00  0.00     0.001 A 
ATOM     51  C   UNL     1      -5.138  -2.098   8.506  1.00  0.00     0.001 A 
ATOM     52  C   UNL     1      -5.565  -2.563   9.745  1.00  0.00     0.000 A 
ENDBRANCH  28  47
BRANCH  40  53
ATOM     53  C   UNL     1       3.274  -3.809   9.904  1.00  0.00    -0.014 A 
ATOM     54  C   UNL     1       2.786  -4.469   8.763  1.00  0.00     0.009 A 
ATOM     55  C   UNL     1       4.263  -4.443  10.670  1.00  0.00     0.009 A 
ATOM     56  C   UNL     1       3.250  -5.742   8.420  1.00  0.00     0.001 A 
ATOM     57  C   UNL     1       4.743  -5.705  10.315  1.00  0.00     0.001 A 
ATOM     58  C   UNL     1       4.232  -6.357   9.194  1.00  0.00     0.000 A 
ENDBRANCH  40  53
ENDBRANCH  14  15
ENDBRANCH   7   9
ENDBRANCH   4   5
ENDBRANCH   3   4
ENDBRANCH   2   3
ENDBRANCH   1   2
BRANCH   1  59
ATOM     59  C   UNL     1       6.296  -3.684  -1.839  1.00  0.00     0.021 C 
BRANCH  59  60
ATOM     60  C   UNL     1       6.882  -4.986  -1.299  1.00  0.00     0.116 C 
BRANCH  60  61
ATOM     61  N   UNL     1       6.628  -6.076  -2.218  1.00  0.00    -0.356 N 
ATOM     62  C   UNL     1       7.450  -6.668  -3.133  1.00  0.00     0.224 C 
ATOM     63  H   UNL     1       5.718  -6.449  -2.177  1.00  0.00     0.163 HD
ATOM     64  O   UNL     1       6.893  -7.358  -3.989  1.00  0.00    -0.275 OA
BRANCH  62  65
ATOM     65  C   UNL     1       8.975  -6.488  -3.043  1.00  0.00     0.095 C 
ATOM     66  C   UNL     1       9.533  -7.217  -1.812  1.00  0.00     0.041 C 
ATOM     67  C   UNL     1       9.680  -6.968  -4.334  1.00  0.00     0.095 C 
ATOM     68  C   UNL     1       9.645  -8.700  -1.996  1.00  0.00    -0.030 C 
ATOM     69  C   UNL     1       9.541  -8.512  -4.493  1.00  0.00     0.041 C 
ATOM     70  C   UNL     1       9.622  -9.283  -3.201  1.00  0.00    -0.030 C 
BRANCH  67  71
ATOM     71  C   UNL     1      11.169  -6.586  -4.422  1.00  0.00     0.229 C 
ATOM     72  O   UNL     1      12.057  -7.440  -4.279  1.00  0.00    -0.274 OA
ATOM     73  N   UNL     1      11.622  -5.351  -4.763  1.00  0.00    -0.308 N 
ATOM     74  H   UNL     1      12.588  -5.322  -4.949  1.00  0.00     0.171 HD
BRANCH  73  75
ATOM     75  C   UNL     1      11.000  -4.135  -4.900  1.00  0.00     0.168 A 
ATOM     76  N   UNL     1       9.814  -3.812  -4.389  1.00  0.00    -0.153 NA
ATOM     77  C   UNL     1      11.565  -3.003  -5.536  1.00  0.00     0.080 A 
ATOM     78  N   UNL     1       9.528  -2.602  -4.914  1.00  0.00    -0.265 N 
ATOM     79  C   UNL     1      10.611  -2.020  -5.509  1.00  0.00     0.127 A 
ATOM     80  Br  UNL     1      13.263  -2.898  -6.314  1.00  0.00    -0.045 Br
BRANCH  78  81
ATOM     81  C   UNL     1       8.249  -1.956  -4.633  1.00  0.00     0.182 C 
BRANCH  81  82
ATOM     82  C   UNL     1       7.004  -2.578  -5.234  1.00  0.00     0.009 A 
ATOM     83  C   UNL     1       5.840  -1.788  -5.295  1.00  0.00     0.008 A 
ATOM     84  C   UNL     1       6.863  -3.933  -5.564  1.00  0.00     0.128 A 
ATOM     85  C   UNL     1       4.600  -2.348  -5.628  1.00  0.00     0.001 A 
ATOM     86  C   UNL     1       5.627  -4.504  -5.853  1.00  0.00     0.039 A 
ATOM     87  F   UNL     1       7.908  -4.757  -5.603  1.00  0.00    -0.207 F 
ATOM     88  C   UNL     1       4.489  -3.713  -5.880  1.00  0.00     0.003 A 
ENDBRANCH  81  82
ENDBRANCH  78  81
ENDBRANCH  73  75
ENDBRANCH  67  71
ENDBRANCH  62  65
ENDBRANCH  60  61
ENDBRANCH  59  60
ENDBRANCH   1  59
TORSDOF 17
