REMARK SMILES COC(=O)c1ccc(C)c2c1[C@H]1C=CC[C@H]1[C@@H](c1ccc(C(=O)NCCCCCCNC(=O)c3ccc(-c4c5nc(c(-c6ccccc6)c6ccc([nH]6)c(-c6ccccc6)c6nc(c(-c7ccccc7)c7ccc4[nH]7)C=C6)C=C5)cc3)cc1)N2
REMARK SMILES IDX 27 1 26 2 25 3 24 4 22 5 23 6 21 8 18 9 19 10 83 11 20 12
REMARK SMILES IDX 82 13 17 14 5 15 6 16 11 17 7 18 10 19 12 20 8 21 84 22
REMARK SMILES IDX 13 23 16 24 9 25 14 27 15 28 3 29 4 30 2 31 1 32 28 33 29 34
REMARK SMILES IDX 30 35 31 36 32 37 33 39 34 40 35 41 81 42 36 43 80 44 37 45
REMARK SMILES IDX 38 46 39 47 74 48 40 49 79 50 73 51 75 52 41 53 78 54 72 55
REMARK SMILES IDX 71 56 42 58 64 59 49 60 63 61 50 62 53 63 62 64 76 65 51 66
REMARK SMILES IDX 52 67 61 69 77 70 54 71 43 72 44 73 48 74 45 75 47 76 46 77
REMARK SMILES IDX 65 78 66 79 70 80 67 81 69 82 68 83 55 84 56 85 60 86 57 87
REMARK SMILES IDX 59 88 58 89
REMARK H PARENT 24 7 84 26 31 38 75 57 53 68
REMARK Flexibility Score: inf
ROOT
ATOM      1  C   UNL     1       7.511   4.085   7.501  1.00  0.00     0.002 C 
ENDROOT
BRANCH   1   2
ATOM      2  C   UNL     1       7.100   2.605   7.553  1.00  0.00     0.021 C 
BRANCH   2   3
ATOM      3  C   UNL     1       5.786   2.383   8.302  1.00  0.00     0.116 C 
BRANCH   3   4
ATOM      4  N   UNL     1       4.695   2.866   7.492  1.00  0.00    -0.352 N 
ATOM      5  C   UNL     1       3.825   2.232   6.655  1.00  0.00     0.251 C 
ATOM      6  O   UNL     1       3.057   2.943   6.005  1.00  0.00    -0.269 OA
ATOM      7  H   UNL     1       4.550   3.838   7.556  1.00  0.00     0.163 HD
BRANCH   5   8
ATOM      8  C   UNL     1       3.721   0.753   6.540  1.00  0.00     0.039 A 
ATOM      9  C   UNL     1       3.266  -2.028   6.106  1.00  0.00    -0.025 A 
ATOM     10  C   UNL     1       2.243  -1.077   5.971  1.00  0.00     0.006 A 
ATOM     11  C   UNL     1       4.511  -1.553   6.543  1.00  0.00     0.006 A 
ATOM     12  C   UNL     1       2.462   0.282   6.176  1.00  0.00     0.014 A 
ATOM     13  C   UNL     1       4.748  -0.178   6.715  1.00  0.00     0.014 A 
BRANCH   9  14
ATOM     14  C   UNL     1       3.103  -3.503   5.697  1.00  0.00     0.114 C 
ATOM     15  C   UNL     1       0.305  -2.577   2.678  1.00  0.00     0.065 A 
ATOM     16  C   UNL     1      -1.031  -2.401   3.048  1.00  0.00     0.016 A 
ATOM     17  C   UNL     1       1.235  -3.158   3.567  1.00  0.00    -0.003 A 
ATOM     18  C   UNL     1      -1.463  -2.808   4.305  1.00  0.00     0.006 A 
ATOM     19  C   UNL     1       0.787  -3.572   4.853  1.00  0.00     0.042 A 
ATOM     20  C   UNL     1       2.693  -3.333   3.180  1.00  0.00     0.050 C 
ATOM     21  C   UNL     1      -0.568  -3.388   5.219  1.00  0.00    -0.028 A 
ATOM     22  N   UNL     1       1.722  -3.952   5.814  1.00  0.00    -0.377 N 
ATOM     23  C   UNL     1       3.480  -2.091   2.831  1.00  0.00    -0.023 C 
ATOM     24  C   UNL     1       3.589  -3.930   4.288  1.00  0.00     0.031 C 
ATOM     25  C   UNL     1      -1.109  -3.669   6.599  1.00  0.00     0.046 C 
ATOM     26  H   UNL     1       1.450  -4.521   6.570  1.00  0.00     0.161 HD
ATOM     27  C   UNL     1       4.760  -2.189   3.216  1.00  0.00    -0.030 C 
ATOM     28  C   UNL     1       5.010  -3.479   3.922  1.00  0.00     0.034 C 
BRANCH  15  29
ATOM     29  C   UNL     1       0.713  -2.099   1.337  1.00  0.00     0.338 C 
ATOM     30  O   UNL     1       1.280  -2.771   0.501  1.00  0.00    -0.246 OA
BRANCH  29  31
ATOM     31  O   UNL     1       0.417  -0.774   1.262  1.00  0.00    -0.465 OA
ATOM     32  C   UNL     1       0.901  -0.135   0.082  1.00  0.00     0.282 C 
ENDBRANCH  29  31
ENDBRANCH  15  29
ENDBRANCH   9  14
ENDBRANCH   5   8
ENDBRANCH   3   4
ENDBRANCH   2   3
ENDBRANCH   1   2
BRANCH   1  33
ATOM     33  C   UNL     1       7.681   4.744   8.876  1.00  0.00     0.002 C 
BRANCH  33  34
ATOM     34  C   UNL     1       8.569   3.959   9.845  1.00  0.00     0.021 C 
BRANCH  34  35
ATOM     35  C   UNL     1       9.985   3.742   9.325  1.00  0.00     0.116 C 
BRANCH  35  36
ATOM     36  N   UNL     1      10.704   5.002   9.263  1.00  0.00    -0.352 N 
ATOM     37  C   UNL     1      11.762   5.405  10.034  1.00  0.00     0.251 C 
ATOM     38  H   UNL     1      10.394   5.645   8.584  1.00  0.00     0.163 HD
ATOM     39  O   UNL     1      12.079   6.586  10.106  1.00  0.00    -0.269 OA
BRANCH  37  40
ATOM     40  C   UNL     1      12.534   4.385  10.768  1.00  0.00     0.039 A 
ATOM     41  C   UNL     1      12.828   4.587  12.118  1.00  0.00     0.014 A 
ATOM     42  C   UNL     1      13.000   3.251  10.094  1.00  0.00     0.014 A 
ATOM     43  C   UNL     1      13.591   3.641  12.802  1.00  0.00     0.010 A 
ATOM     44  C   UNL     1      13.723   2.288  10.787  1.00  0.00     0.010 A 
ATOM     45  C   UNL     1      14.047   2.492  12.136  1.00  0.00    -0.014 A 
BRANCH  45  46
ATOM     46  C   UNL     1      14.970   1.542  12.792  1.00  0.00     0.031 A 
ATOM     47  C   UNL     1      16.413   1.528  12.372  1.00  0.00     0.074 A 
ATOM     48  C   UNL     1      14.517   0.679  13.719  1.00  0.00     0.049 A 
ATOM     49  N   UNL     1      17.367   0.709  12.729  1.00  0.00    -0.248 NA
ATOM     50  C   UNL     1      16.835   2.567  11.415  1.00  0.00     0.031 C 
ATOM     51  C   UNL     1      13.144   0.612  14.219  1.00  0.00     0.029 A 
ATOM     52  N   UNL     1      15.174  -0.311  14.403  1.00  0.00    -0.354 N 
ATOM     53  C   UNL     1      18.494   1.125  12.034  1.00  0.00     0.074 A 
ATOM     54  C   UNL     1      18.104   2.246  11.209  1.00  0.00     0.031 C 
ATOM     55  C   UNL     1      13.065  -0.359  15.146  1.00  0.00     0.029 A 
ATOM     56  C   UNL     1      14.370  -1.002  15.275  1.00  0.00     0.049 A 
ATOM     57  H   UNL     1      16.130  -0.508  14.280  1.00  0.00     0.167 HD
ATOM     58  C   UNL     1      19.749   0.626  12.092  1.00  0.00     0.031 A 
ATOM     59  C   UNL     1      14.655  -2.044  16.078  1.00  0.00     0.031 A 
ATOM     60  C   UNL     1      20.143  -0.472  12.927  1.00  0.00     0.049 A 
ATOM     61  C   UNL     1      16.046  -2.616  16.079  1.00  0.00     0.074 A 
ATOM     62  C   UNL     1      21.400  -1.032  13.072  1.00  0.00     0.029 A 
ATOM     63  N   UNL     1      19.289  -1.169  13.764  1.00  0.00    -0.354 N 
ATOM     64  N   UNL     1      17.102  -2.216  15.413  1.00  0.00    -0.248 NA
ATOM     65  C   UNL     1      16.281  -3.789  16.934  1.00  0.00     0.031 C 
ATOM     66  C   UNL     1      21.299  -2.093  13.975  1.00  0.00     0.029 A 
ATOM     67  C   UNL     1      19.988  -2.167  14.417  1.00  0.00     0.049 A 
ATOM     68  H   UNL     1      18.329  -0.983  13.877  1.00  0.00     0.167 HD
ATOM     69  C   UNL     1      18.128  -3.076  15.779  1.00  0.00     0.074 A 
ATOM     70  C   UNL     1      17.573  -4.014  16.733  1.00  0.00     0.031 C 
ATOM     71  C   UNL     1      19.415  -3.090  15.359  1.00  0.00     0.031 A 
BRANCH  58  72
ATOM     72  C   UNL     1      20.799   1.270  11.238  1.00  0.00    -0.014 A 
ATOM     73  C   UNL     1      21.383   2.487  11.619  1.00  0.00     0.009 A 
ATOM     74  C   UNL     1      21.270   0.612  10.092  1.00  0.00     0.009 A 
ATOM     75  C   UNL     1      22.420   3.036  10.864  1.00  0.00     0.001 A 
ATOM     76  C   UNL     1      22.318   1.156   9.348  1.00  0.00     0.001 A 
ATOM     77  C   UNL     1      22.892   2.367   9.735  1.00  0.00     0.000 A 
ENDBRANCH  58  72
BRANCH  59  78
ATOM     78  C   UNL     1      13.604  -2.614  16.957  1.00  0.00    -0.014 A 
ATOM     79  C   UNL     1      13.636  -2.374  18.339  1.00  0.00     0.009 A 
ATOM     80  C   UNL     1      12.569  -3.397  16.424  1.00  0.00     0.009 A 
ATOM     81  C   UNL     1      12.657  -2.919  19.173  1.00  0.00     0.001 A 
ATOM     82  C   UNL     1      11.581  -3.924  17.259  1.00  0.00     0.001 A 
ATOM     83  C   UNL     1      11.629  -3.690  18.632  1.00  0.00     0.000 A 
ENDBRANCH  59  78
BRANCH  71  84
ATOM     84  C   UNL     1      20.321  -4.141  15.926  1.00  0.00    -0.014 A 
ATOM     85  C   UNL     1      20.274  -5.459  15.449  1.00  0.00     0.009 A 
ATOM     86  C   UNL     1      21.298  -3.787  16.869  1.00  0.00     0.009 A 
ATOM     87  C   UNL     1      21.184  -6.408  15.917  1.00  0.00     0.001 A 
ATOM     88  C   UNL     1      22.219  -4.732  17.319  1.00  0.00     0.001 A 
ATOM     89  C   UNL     1      22.160  -6.042  16.844  1.00  0.00     0.000 A 
ENDBRANCH  71  84
ENDBRANCH  45  46
ENDBRANCH  37  40
ENDBRANCH  35  36
ENDBRANCH  34  35
ENDBRANCH  33  34
ENDBRANCH   1  33
TORSDOF 16
