REMARK SMILES CCC[C@@H](CNC(=O)NCc1c(C)nn(C)c1C)C(=O)NCCCCCCNC(=O)c1ccc(-c2c3nc(c(-c4ccccc4)c4ccc([nH]4)c(-c4ccccc4)c4nc(c(-c5ccccc5)c5ccc2[nH]5)C=C4)C=C3)cc1
REMARK SMILES IDX 23 1 22 2 21 3 19 4 20 5 4 7 3 8 2 9 1 10 5 11 6 12 7 13
REMARK SMILES IDX 8 15 9 16 10 18 11 19 12 20 17 21 13 22 14 23 15 24 18 25
REMARK SMILES IDX 16 26 24 27 25 28 26 29 27 30 28 31 29 32 30 34 31 35 32 36
REMARK SMILES IDX 78 37 33 38 77 39 34 40 35 41 36 42 71 43 37 44 76 45 70 46
REMARK SMILES IDX 72 47 38 48 75 49 69 50 68 51 39 53 61 54 46 55 60 56 47 57
REMARK SMILES IDX 50 58 59 59 73 60 48 61 49 62 58 64 74 65 51 66 40 67 41 68
REMARK SMILES IDX 45 69 42 70 44 71 43 72 62 73 63 74 67 75 64 76 66 77 65 78
REMARK SMILES IDX 52 79 53 80 57 81 54 82 56 83 55 84
REMARK H PARENT 21 6 6 14 9 17 28 33 72 52 50 63
REMARK Flexibility Score: inf
ROOT
ATOM      1  C   UNL     1       0.995  -0.257  -6.247  1.00  0.00     0.021 C 
ENDROOT
BRANCH   1   2
ATOM      2  C   UNL     1       0.115  -0.946  -5.216  1.00  0.00     0.116 C 
BRANCH   2   3
ATOM      3  N   UNL     1       0.766  -2.067  -4.570  1.00  0.00    -0.356 N 
ATOM      4  C   UNL     1       0.801  -2.430  -3.260  1.00  0.00     0.224 C 
ATOM      5  O   UNL     1       1.215  -3.565  -3.000  1.00  0.00    -0.275 OA
ATOM      6  H   UNL     1       1.264  -2.662  -5.177  1.00  0.00     0.163 HD
BRANCH   4   7
ATOM      7  C   UNL     1       0.356  -1.506  -2.128  1.00  0.00     0.097 C 
BRANCH   7   8
ATOM      8  C   UNL     1       1.089  -0.146  -2.133  1.00  0.00     0.015 C 
BRANCH   8   9
ATOM      9  C   UNL     1       0.763   0.801  -0.973  1.00  0.00    -0.003 C 
ATOM     10  C   UNL     1       1.061   0.220   0.399  1.00  0.00     0.004 C 
ENDBRANCH   8   9
ENDBRANCH   7   8
BRANCH   7  11
ATOM     11  C   UNL     1      -1.166  -1.482  -1.909  1.00  0.00     0.131 C 
BRANCH  11  12
ATOM     12  N   UNL     1      -1.978  -1.175  -3.070  1.00  0.00    -0.337 N 
ATOM     13  C   UNL     1      -2.744  -1.891  -3.905  1.00  0.00     0.315 C 
ATOM     14  H   UNL     1      -1.963  -0.218  -3.298  1.00  0.00     0.165 HD
ATOM     15  O   UNL     1      -3.281  -1.284  -4.835  1.00  0.00    -0.249 OA
ATOM     16  N   UNL     1      -2.973  -3.199  -3.795  1.00  0.00    -0.334 N 
ATOM     17  H   UNL     1      -3.563  -3.537  -4.507  1.00  0.00     0.165 HD
BRANCH  16  18
ATOM     18  C   UNL     1      -2.563  -4.238  -2.882  1.00  0.00     0.157 C 
BRANCH  18  19
ATOM     19  C   UNL     1      -3.640  -4.549  -1.886  1.00  0.00     0.015 A 
ATOM     20  C   UNL     1      -4.538  -3.691  -1.172  1.00  0.00     0.065 A 
ATOM     21  C   UNL     1      -3.970  -5.824  -1.427  1.00  0.00     0.040 A 
ATOM     22  C   UNL     1      -4.725  -2.220  -1.181  1.00  0.00     0.069 C 
ATOM     23  N   UNL     1      -5.352  -4.383  -0.369  1.00  0.00    -0.178 NA
ATOM     24  N   UNL     1      -5.007  -5.659  -0.550  1.00  0.00    -0.272 N 
ATOM     25  C   UNL     1      -3.400  -7.159  -1.748  1.00  0.00     0.067 C 
ATOM     26  C   UNL     1      -5.755  -6.660   0.173  1.00  0.00     0.174 C 
ENDBRANCH  18  19
ENDBRANCH  16  18
ENDBRANCH  11  12
ENDBRANCH   7  11
ENDBRANCH   4   7
ENDBRANCH   2   3
ENDBRANCH   1   2
BRANCH   1  27
ATOM     27  C   UNL     1       1.154  -1.043  -7.550  1.00  0.00     0.002 C 
BRANCH  27  28
ATOM     28  C   UNL     1      -0.155  -1.481  -8.221  1.00  0.00     0.002 C 
BRANCH  28  29
ATOM     29  C   UNL     1      -1.193  -0.375  -8.433  1.00  0.00     0.021 C 
BRANCH  29  30
ATOM     30  C   UNL     1      -0.690   0.832  -9.215  1.00  0.00     0.116 C 
BRANCH  30  31
ATOM     31  N   UNL     1      -0.213   0.469 -10.539  1.00  0.00    -0.352 N 
ATOM     32  C   UNL     1      -0.543   1.002 -11.759  1.00  0.00     0.251 C 
ATOM     33  H   UNL     1       0.441  -0.267 -10.563  1.00  0.00     0.163 HD
ATOM     34  O   UNL     1      -0.186   0.449 -12.792  1.00  0.00    -0.269 OA
BRANCH  32  35
ATOM     35  C   UNL     1      -1.347   2.239 -11.822  1.00  0.00     0.039 A 
ATOM     36  C   UNL     1      -2.404   2.308 -12.733  1.00  0.00     0.014 A 
ATOM     37  C   UNL     1      -1.059   3.327 -10.993  1.00  0.00     0.014 A 
ATOM     38  C   UNL     1      -3.204   3.450 -12.776  1.00  0.00     0.010 A 
ATOM     39  C   UNL     1      -1.904   4.431 -10.982  1.00  0.00     0.010 A 
ATOM     40  C   UNL     1      -2.981   4.508 -11.879  1.00  0.00    -0.014 A 
BRANCH  40  41
ATOM     41  C   UNL     1      -3.865   5.699 -11.864  1.00  0.00     0.031 A 
ATOM     42  C   UNL     1      -3.312   7.056 -12.203  1.00  0.00     0.074 A 
ATOM     43  C   UNL     1      -5.152   5.568 -11.490  1.00  0.00     0.049 A 
ATOM     44  N   UNL     1      -3.917   8.218 -12.199  1.00  0.00    -0.248 NA
ATOM     45  C   UNL     1      -1.888   7.123 -12.571  1.00  0.00     0.031 C 
ATOM     46  C   UNL     1      -5.798   4.312 -11.099  1.00  0.00     0.029 A 
ATOM     47  N   UNL     1      -6.149   6.504 -11.371  1.00  0.00    -0.354 N 
ATOM     48  C   UNL     1      -2.946   9.149 -12.546  1.00  0.00     0.074 A 
ATOM     49  C   UNL     1      -1.703   8.428 -12.703  1.00  0.00     0.031 C 
ATOM     50  C   UNL     1      -7.087   4.552 -10.812  1.00  0.00     0.029 A 
ATOM     51  C   UNL     1      -7.348   5.980 -10.953  1.00  0.00     0.049 A 
ATOM     52  H   UNL     1      -6.016   7.460 -11.567  1.00  0.00     0.167 HD
ATOM     53  C   UNL     1      -3.082  10.484 -12.734  1.00  0.00     0.031 A 
ATOM     54  C   UNL     1      -8.525   6.584 -10.700  1.00  0.00     0.031 A 
ATOM     55  C   UNL     1      -4.321  11.199 -12.583  1.00  0.00     0.049 A 
ATOM     56  C   UNL     1      -8.642   8.070 -10.897  1.00  0.00     0.074 A 
ATOM     57  C   UNL     1      -4.573  12.541 -12.808  1.00  0.00     0.029 A 
ATOM     58  N   UNL     1      -5.513  10.632 -12.161  1.00  0.00    -0.354 N 
ATOM     59  N   UNL     1      -7.734   8.926 -11.299  1.00  0.00    -0.248 NA
ATOM     60  C   UNL     1      -9.953   8.672 -10.616  1.00  0.00     0.031 C 
ATOM     61  C   UNL     1      -5.903  12.799 -12.461  1.00  0.00     0.029 A 
ATOM     62  C   UNL     1      -6.497  11.604 -12.089  1.00  0.00     0.049 A 
ATOM     63  H   UNL     1      -5.642   9.680 -11.945  1.00  0.00     0.167 HD
ATOM     64  C   UNL     1      -8.371  10.159 -11.349  1.00  0.00     0.074 A 
ATOM     65  C   UNL     1      -9.746   9.937 -10.953  1.00  0.00     0.031 C 
ATOM     66  C   UNL     1      -7.862  11.368 -11.694  1.00  0.00     0.031 A 
BRANCH  53  67
ATOM     67  C   UNL     1      -1.851  11.262 -13.112  1.00  0.00    -0.014 A 
ATOM     68  C   UNL     1      -1.243  11.105 -14.369  1.00  0.00     0.009 A 
ATOM     69  C   UNL     1      -1.315  12.199 -12.214  1.00  0.00     0.009 A 
ATOM     70  C   UNL     1      -0.105  11.842 -14.703  1.00  0.00     0.001 A 
ATOM     71  C   UNL     1      -0.197  12.958 -12.563  1.00  0.00     0.001 A 
ATOM     72  C   UNL     1       0.413  12.772 -13.802  1.00  0.00     0.000 A 
ENDBRANCH  53  67
BRANCH  54  73
ATOM     73  C   UNL     1      -9.690   5.785 -10.238  1.00  0.00    -0.014 A 
ATOM     74  C   UNL     1     -10.811   5.609 -11.065  1.00  0.00     0.009 A 
ATOM     75  C   UNL     1      -9.694   5.202  -8.961  1.00  0.00     0.009 A 
ATOM     76  C   UNL     1     -11.922   4.895 -10.610  1.00  0.00     0.001 A 
ATOM     77  C   UNL     1     -10.793   4.460  -8.522  1.00  0.00     0.001 A 
ATOM     78  C   UNL     1     -11.910   4.318  -9.341  1.00  0.00     0.000 A 
ENDBRANCH  54  73
BRANCH  66  79
ATOM     79  C   UNL     1      -8.807  12.537 -11.700  1.00  0.00    -0.014 A 
ATOM     80  C   UNL     1      -9.312  13.080 -10.508  1.00  0.00     0.009 A 
ATOM     81  C   UNL     1      -9.163  13.132 -12.922  1.00  0.00     0.009 A 
ATOM     82  C   UNL     1     -10.183  14.172 -10.543  1.00  0.00     0.001 A 
ATOM     83  C   UNL     1     -10.005  14.244 -12.951  1.00  0.00     0.001 A 
ATOM     84  C   UNL     1     -10.523  14.756 -11.763  1.00  0.00     0.000 A 
ENDBRANCH  66  79
ENDBRANCH  40  41
ENDBRANCH  32  35
ENDBRANCH  30  31
ENDBRANCH  29  30
ENDBRANCH  28  29
ENDBRANCH  27  28
ENDBRANCH   1  27
TORSDOF 19
