REMARK SMILES Nc1cccc(C(=O)N[C@@H]2C=C[C@@H](C(=O)NCCCCCCNC(=O)c3ccc(-c4c5nc(c(-c6ccccc6)c6ccc([nH]6)c(-c6ccccc6)c6nc(c(-c7ccccc7)c7ccc4[nH]7)C=C6)C=C5)cc3)C2)c1
REMARK SMILES IDX 19 1 18 2 17 3 16 4 14 5 15 6 13 8 10 9 11 10 74 11 12 12
REMARK SMILES IDX 9 13 7 14 8 15 6 17 2 18 3 19 75 20 4 21 5 22 1 23 20 26
REMARK SMILES IDX 21 27 22 28 23 29 24 30 25 32 26 33 27 34 73 35 28 36 72 37
REMARK SMILES IDX 29 38 30 39 31 40 66 41 32 42 71 43 65 44 67 45 33 46 70 47
REMARK SMILES IDX 64 48 63 49 34 51 56 52 41 53 55 54 42 55 45 56 54 57 68 58
REMARK SMILES IDX 43 59 44 60 53 62 69 63 46 64 35 65 36 66 40 67 37 68 39 69
REMARK SMILES IDX 38 70 57 71 58 72 62 73 59 74 61 75 60 76 47 77 48 78 52 79
REMARK SMILES IDX 49 80 51 81 50 82
REMARK H PARENT 16 7 9 16 1 24 1 25 23 31 67 50 45 61
REMARK Flexibility Score: inf
ROOT
ATOM      1  C   UNL     1      -1.756   2.253   5.177  1.00  0.00     0.002 C 
ENDROOT
BRANCH   1   2
ATOM      2  C   UNL     1      -1.429   2.595   3.717  1.00  0.00     0.021 C 
BRANCH   2   3
ATOM      3  C   UNL     1      -0.212   3.506   3.561  1.00  0.00     0.116 C 
BRANCH   3   4
ATOM      4  N   UNL     1       0.998   2.809   3.938  1.00  0.00    -0.356 N 
ATOM      5  C   UNL     1       2.079   2.401   3.228  1.00  0.00     0.227 C 
ATOM      6  O   UNL     1       2.927   1.750   3.849  1.00  0.00    -0.274 OA
ATOM      7  H   UNL     1       1.046   2.586   4.895  1.00  0.00     0.163 HD
BRANCH   5   8
ATOM      8  C   UNL     1       2.337   2.780   1.767  1.00  0.00     0.103 C 
ATOM      9  C   UNL     1       0.865   3.938   0.150  1.00  0.00     0.106 C 
ATOM     10  C   UNL     1       1.889   4.843   0.752  1.00  0.00    -0.006 C 
ATOM     11  C   UNL     1       1.237   2.550   0.722  1.00  0.00     0.047 C 
ATOM     12  C   UNL     1       2.663   4.230   1.649  1.00  0.00    -0.016 C 
BRANCH   9  13
ATOM     13  N   UNL     1       0.877   4.002  -1.298  1.00  0.00    -0.346 N 
ATOM     14  C   UNL     1       0.577   5.034  -2.162  1.00  0.00     0.251 C 
ATOM     15  O   UNL     1       0.552   4.808  -3.370  1.00  0.00    -0.269 OA
ATOM     16  H   UNL     1       1.145   3.164  -1.741  1.00  0.00     0.164 HD
BRANCH  14  17
ATOM     17  C   UNL     1       0.407   6.430  -1.681  1.00  0.00     0.041 A 
ATOM     18  C   UNL     1      -0.153   8.017   0.065  1.00  0.00     0.032 A 
ATOM     19  C   UNL     1       0.504   9.018  -0.652  1.00  0.00     0.025 A 
ATOM     20  C   UNL     1      -0.299   6.758  -0.519  1.00  0.00     0.039 A 
ATOM     21  C   UNL     1       1.097   8.739  -1.884  1.00  0.00     0.003 A 
ATOM     22  C   UNL     1       1.071   7.439  -2.387  1.00  0.00     0.014 A 
BRANCH  18  23
ATOM     23  N   UNL     1      -0.729   8.288   1.297  1.00  0.00    -0.399 N 
ATOM     24  H   UNL     1      -0.623   9.178   1.705  1.00  0.00     0.156 HD
ATOM     25  H   UNL     1      -1.243   7.591   1.765  1.00  0.00     0.156 HD
ENDBRANCH  18  23
ENDBRANCH  14  17
ENDBRANCH   9  13
ENDBRANCH   5   8
ENDBRANCH   3   4
ENDBRANCH   2   3
ENDBRANCH   1   2
BRANCH   1  26
ATOM     26  C   UNL     1      -2.090   3.460   6.061  1.00  0.00     0.002 C 
BRANCH  26  27
ATOM     27  C   UNL     1      -3.258   4.315   5.566  1.00  0.00     0.021 C 
BRANCH  27  28
ATOM     28  C   UNL     1      -4.570   3.555   5.394  1.00  0.00     0.116 C 
BRANCH  28  29
ATOM     29  N   UNL     1      -5.049   2.998   6.649  1.00  0.00    -0.352 N 
ATOM     30  C   UNL     1      -6.264   3.163   7.270  1.00  0.00     0.251 C 
ATOM     31  H   UNL     1      -4.410   2.418   7.123  1.00  0.00     0.163 HD
ATOM     32  O   UNL     1      -6.429   2.779   8.420  1.00  0.00    -0.269 OA
BRANCH  30  33
ATOM     33  C   UNL     1      -7.366   3.831   6.548  1.00  0.00     0.039 A 
ATOM     34  C   UNL     1      -8.101   4.821   7.206  1.00  0.00     0.014 A 
ATOM     35  C   UNL     1      -7.665   3.492   5.225  1.00  0.00     0.014 A 
ATOM     36  C   UNL     1      -9.085   5.525   6.511  1.00  0.00     0.010 A 
ATOM     37  C   UNL     1      -8.596   4.243   4.514  1.00  0.00     0.010 A 
ATOM     38  C   UNL     1      -9.308   5.273   5.147  1.00  0.00    -0.014 A 
BRANCH  38  39
ATOM     39  C   UNL     1     -10.252   6.103   4.358  1.00  0.00     0.031 A 
ATOM     40  C   UNL     1     -11.477   5.490   3.740  1.00  0.00     0.074 A 
ATOM     41  C   UNL     1      -9.964   7.402   4.138  1.00  0.00     0.049 A 
ATOM     42  N   UNL     1     -12.378   6.046   2.970  1.00  0.00    -0.248 NA
ATOM     43  C   UNL     1     -11.710   4.061   4.003  1.00  0.00     0.031 C 
ATOM     44  C   UNL     1      -8.787   8.107   4.651  1.00  0.00     0.029 A 
ATOM     45  N   UNL     1     -10.635   8.358   3.418  1.00  0.00    -0.354 N 
ATOM     46  C   UNL     1     -13.275   5.036   2.648  1.00  0.00     0.074 A 
ATOM     47  C   UNL     1     -12.784   3.823   3.265  1.00  0.00     0.031 C 
ATOM     48  C   UNL     1      -8.833   9.388   4.252  1.00  0.00     0.029 A 
ATOM     49  C   UNL     1     -10.013   9.583   3.416  1.00  0.00     0.049 A 
ATOM     50  H   UNL     1     -11.482   8.183   2.948  1.00  0.00     0.167 HD
ATOM     51  C   UNL     1     -14.413   5.115   1.918  1.00  0.00     0.031 A 
ATOM     52  C   UNL     1     -10.344  10.733   2.799  1.00  0.00     0.031 A 
ATOM     53  C   UNL     1     -14.898   6.322   1.302  1.00  0.00     0.049 A 
ATOM     54  C   UNL     1     -11.590  10.782   1.959  1.00  0.00     0.074 A 
ATOM     55  C   UNL     1     -16.071   6.515   0.592  1.00  0.00     0.029 A 
ATOM     56  N   UNL     1     -14.233   7.538   1.314  1.00  0.00    -0.354 N 
ATOM     57  N   UNL     1     -12.470   9.837   1.730  1.00  0.00    -0.248 NA
ATOM     58  C   UNL     1     -11.891  12.058   1.296  1.00  0.00     0.031 C 
ATOM     59  C   UNL     1     -16.082   7.830   0.117  1.00  0.00     0.029 A 
ATOM     60  C   UNL     1     -14.950   8.475   0.588  1.00  0.00     0.049 A 
ATOM     61  H   UNL     1     -13.377   7.710   1.770  1.00  0.00     0.167 HD
ATOM     62  C   UNL     1     -13.437  10.410   0.916  1.00  0.00     0.074 A 
ATOM     63  C   UNL     1     -13.049  11.790   0.710  1.00  0.00     0.031 C 
ATOM     64  C   UNL     1     -14.547   9.842   0.384  1.00  0.00     0.031 A 
BRANCH  51  65
ATOM     65  C   UNL     1     -15.208   3.851   1.731  1.00  0.00    -0.014 A 
ATOM     66  C   UNL     1     -15.893   3.255   2.801  1.00  0.00     0.009 A 
ATOM     67  C   UNL     1     -15.310   3.273   0.456  1.00  0.00     0.009 A 
ATOM     68  C   UNL     1     -16.633   2.086   2.606  1.00  0.00     0.001 A 
ATOM     69  C   UNL     1     -16.075   2.123   0.257  1.00  0.00     0.001 A 
ATOM     70  C   UNL     1     -16.728   1.525   1.333  1.00  0.00     0.000 A 
ENDBRANCH  51  65
BRANCH  52  71
ATOM     71  C   UNL     1      -9.480  11.934   2.945  1.00  0.00    -0.014 A 
ATOM     72  C   UNL     1      -9.931  13.055   3.657  1.00  0.00     0.009 A 
ATOM     73  C   UNL     1      -8.201  11.969   2.366  1.00  0.00     0.009 A 
ATOM     74  C   UNL     1      -9.131  14.196   3.763  1.00  0.00     0.001 A 
ATOM     75  C   UNL     1      -7.391  13.098   2.501  1.00  0.00     0.001 A 
ATOM     76  C   UNL     1      -7.861  14.214   3.189  1.00  0.00     0.000 A 
ENDBRANCH  52  71
BRANCH  64  77
ATOM     77  C   UNL     1     -15.433  10.719  -0.458  1.00  0.00    -0.014 A 
ATOM     78  C   UNL     1     -15.035  11.143  -1.735  1.00  0.00     0.009 A 
ATOM     79  C   UNL     1     -16.702  11.087   0.016  1.00  0.00     0.009 A 
ATOM     80  C   UNL     1     -15.879  11.944  -2.508  1.00  0.00     0.001 A 
ATOM     81  C   UNL     1     -17.556  11.860  -0.772  1.00  0.00     0.001 A 
ATOM     82  C   UNL     1     -17.140  12.295  -2.029  1.00  0.00     0.000 A 
ENDBRANCH  64  77
ENDBRANCH  38  39
ENDBRANCH  30  33
ENDBRANCH  28  29
ENDBRANCH  27  28
ENDBRANCH  26  27
ENDBRANCH   1  26
TORSDOF 16
