REMARK SMILES COc1ccc(OC)c(/C=N/[NH+]=C2/NC(=O)[C@@H](CC(=O)NCCCCCCNC(=O)c3ccc(-c4c5nc(c(-c6ccccc6)c6ccc([nH]6)c(-c6ccccc6)c6nc(c(-c7ccccc7)c7ccc4[nH]7)C=C6)C=C5)cc3)S2)c1
REMARK SMILES IDX 23 1 22 2 21 3 19 4 20 5 18 7 17 8 12 9 13 10 14 12 79 13
REMARK SMILES IDX 15 14 16 16 11 17 10 18 9 19 3 20 4 21 80 22 5 23 6 24 2 25
REMARK SMILES IDX 1 26 7 27 8 28 24 29 25 30 26 31 27 32 28 33 29 34 30 36
REMARK SMILES IDX 31 37 32 38 78 39 33 40 77 41 34 42 35 43 36 44 71 45 37 46
REMARK SMILES IDX 76 47 70 48 72 49 38 50 75 51 69 52 68 53 39 55 61 56 46 57
REMARK SMILES IDX 60 58 47 59 50 60 59 61 73 62 48 63 49 64 58 66 74 67 51 68
REMARK SMILES IDX 40 69 41 70 45 71 42 72 44 73 43 74 62 75 63 76 67 77 64 78
REMARK SMILES IDX 66 79 65 80 52 81 53 82 57 83 54 84 56 85 55 86
REMARK H PARENT 21 6 12 11 14 15 28 35 72 54 50 65
REMARK Flexibility Score: inf
ROOT
ATOM      1  C   UNL     1       6.929  -1.308  -4.587  1.00  0.00     0.021 C 
ENDROOT
BRANCH   1   2
ATOM      2  C   UNL     1       7.926  -0.907  -3.502  1.00  0.00     0.116 C 
BRANCH   2   3
ATOM      3  N   UNL     1       7.330  -1.046  -2.185  1.00  0.00    -0.356 N 
ATOM      4  C   UNL     1       7.544  -1.953  -1.196  1.00  0.00     0.221 C 
ATOM      5  O   UNL     1       6.841  -1.874  -0.187  1.00  0.00    -0.275 OA
ATOM      6  H   UNL     1       6.652  -0.364  -1.972  1.00  0.00     0.163 HD
BRANCH   4   7
ATOM      7  C   UNL     1       8.623  -3.008  -1.315  1.00  0.00     0.127 C 
BRANCH   7   8
ATOM      8  C   UNL     1       8.224  -4.345  -1.942  1.00  0.00     0.183 C 
ATOM      9  N   UNL     1       5.338  -4.709  -4.449  1.00  0.00    -0.142 N 
ATOM     10  C   UNL     1       6.363  -4.769  -3.669  1.00  0.00     0.337 C 
ATOM     11  H   UNL     1       5.446  -4.684  -5.428  1.00  0.00     0.343 HD
ATOM     12  N   UNL     1       7.599  -4.712  -4.215  1.00  0.00    -0.202 N 
ATOM     13  S   UNL     1       6.451  -4.779  -1.939  1.00  0.00    -0.020 SA
ATOM     14  C   UNL     1       8.649  -4.421  -3.397  1.00  0.00     0.322 C 
ATOM     15  H   UNL     1       7.736  -4.877  -5.176  1.00  0.00     0.316 HD
ATOM     16  O   UNL     1       9.770  -4.186  -3.814  1.00  0.00    -0.246 OA
BRANCH   9  17
ATOM     17  N   UNL     1       4.071  -4.679  -3.865  1.00  0.00    -0.093 NA
ATOM     18  C   UNL     1       3.704  -3.487  -3.514  1.00  0.00     0.170 C 
BRANCH  18  19
ATOM     19  C   UNL     1       2.332  -3.166  -3.101  1.00  0.00     0.042 A 
ATOM     20  C   UNL     1       0.905  -2.115  -1.458  1.00  0.00     0.119 A 
ATOM     21  C   UNL     1      -0.216  -2.537  -2.168  1.00  0.00     0.050 A 
ATOM     22  C   UNL     1       2.184  -2.433  -1.912  1.00  0.00     0.060 A 
ATOM     23  C   UNL     1      -0.061  -3.236  -3.366  1.00  0.00     0.051 A 
ATOM     24  C   UNL     1       1.212  -3.534  -3.859  1.00  0.00     0.128 A 
BRANCH  20  25
ATOM     25  O   UNL     1       0.673  -1.483  -0.267  1.00  0.00    -0.497 OA
ATOM     26  C   UNL     1       1.295  -0.203  -0.187  1.00  0.00     0.278 C 
ENDBRANCH  20  25
BRANCH  24  27
ATOM     27  O   UNL     1       1.206  -4.207  -5.050  1.00  0.00    -0.496 OA
ATOM     28  C   UNL     1       2.109  -3.735  -6.046  1.00  0.00     0.278 C 
ENDBRANCH  24  27
ENDBRANCH  18  19
ENDBRANCH   9  17
ENDBRANCH   7   8
ENDBRANCH   4   7
ENDBRANCH   2   3
ENDBRANCH   1   2
BRANCH   1  29
ATOM     29  C   UNL     1       5.766  -0.329  -4.786  1.00  0.00     0.002 C 
BRANCH  29  30
ATOM     30  C   UNL     1       6.112   0.921  -5.599  1.00  0.00     0.002 C 
BRANCH  30  31
ATOM     31  C   UNL     1       6.685   0.653  -6.994  1.00  0.00     0.021 C 
BRANCH  31  32
ATOM     32  C   UNL     1       5.844  -0.271  -7.872  1.00  0.00     0.116 C 
BRANCH  32  33
ATOM     33  N   UNL     1       4.576   0.334  -8.247  1.00  0.00    -0.352 N 
ATOM     34  C   UNL     1       4.136   0.736  -9.485  1.00  0.00     0.251 C 
ATOM     35  H   UNL     1       3.942   0.475  -7.508  1.00  0.00     0.163 HD
ATOM     36  O   UNL     1       3.127   1.425  -9.589  1.00  0.00    -0.269 OA
BRANCH  34  37
ATOM     37  C   UNL     1       4.892   0.352 -10.697  1.00  0.00     0.039 A 
ATOM     38  C   UNL     1       5.172   1.326 -11.659  1.00  0.00     0.014 A 
ATOM     39  C   UNL     1       5.311  -0.968 -10.889  1.00  0.00     0.014 A 
ATOM     40  C   UNL     1       5.929   0.990 -12.784  1.00  0.00     0.010 A 
ATOM     41  C   UNL     1       6.121  -1.285 -11.976  1.00  0.00     0.010 A 
ATOM     42  C   UNL     1       6.436  -0.310 -12.936  1.00  0.00    -0.014 A 
BRANCH  42  43
ATOM     43  C   UNL     1       7.302  -0.670 -14.087  1.00  0.00     0.031 A 
ATOM     44  C   UNL     1       6.841  -1.681 -15.099  1.00  0.00     0.074 A 
ATOM     45  C   UNL     1       8.541  -0.149 -14.176  1.00  0.00     0.049 A 
ATOM     46  N   UNL     1       7.483  -2.165 -16.133  1.00  0.00    -0.248 NA
ATOM     47  C   UNL     1       5.496  -2.242 -14.907  1.00  0.00     0.031 C 
ATOM     48  C   UNL     1       9.133   0.797 -13.229  1.00  0.00     0.029 A 
ATOM     49  N   UNL     1       9.531  -0.357 -15.104  1.00  0.00    -0.354 N 
ATOM     50  C   UNL     1       6.631  -3.106 -16.697  1.00  0.00     0.074 A 
ATOM     51  C   UNL     1       5.446  -3.155 -15.867  1.00  0.00     0.031 C 
ATOM     52  C   UNL     1      10.378   1.098 -13.632  1.00  0.00     0.029 A 
ATOM     53  C   UNL     1      10.682   0.344 -14.844  1.00  0.00     0.049 A 
ATOM     54  H   UNL     1       9.426  -0.953 -15.880  1.00  0.00     0.167 HD
ATOM     55  C   UNL     1       6.810  -3.854 -17.812  1.00  0.00     0.031 A 
ATOM     56  C   UNL     1      11.856   0.375 -15.502  1.00  0.00     0.031 A 
ATOM     57  C   UNL     1       7.979  -3.797 -18.648  1.00  0.00     0.049 A 
ATOM     58  C   UNL     1      12.027  -0.443 -16.749  1.00  0.00     0.074 A 
ATOM     59  C   UNL     1       8.218  -4.450 -19.844  1.00  0.00     0.029 A 
ATOM     60  N   UNL     1       9.112  -3.047 -18.369  1.00  0.00    -0.354 N 
ATOM     61  N   UNL     1      11.177  -1.261 -17.320  1.00  0.00    -0.248 NA
ATOM     62  C   UNL     1      13.313  -0.322 -17.449  1.00  0.00     0.031 C 
ATOM     63  C   UNL     1       9.515  -4.135 -20.264  1.00  0.00     0.029 A 
ATOM     64  C   UNL     1      10.064  -3.244 -19.354  1.00  0.00     0.049 A 
ATOM     65  H   UNL     1       9.222  -2.461 -17.585  1.00  0.00     0.167 HD
ATOM     66  C   UNL     1      11.817  -1.740 -18.456  1.00  0.00     0.074 A 
ATOM     67  C   UNL     1      13.120  -1.107 -18.500  1.00  0.00     0.031 C 
ATOM     68  C   UNL     1      11.363  -2.621 -19.380  1.00  0.00     0.031 A 
BRANCH  55  69
ATOM     69  C   UNL     1       5.711  -4.814 -18.178  1.00  0.00    -0.014 A 
ATOM     70  C   UNL     1       4.465  -4.358 -18.639  1.00  0.00     0.009 A 
ATOM     71  C   UNL     1       5.928  -6.195 -18.064  1.00  0.00     0.009 A 
ATOM     72  C   UNL     1       3.444  -5.265 -18.930  1.00  0.00     0.001 A 
ATOM     73  C   UNL     1       4.915  -7.101 -18.384  1.00  0.00     0.001 A 
ATOM     74  C   UNL     1       3.670  -6.635 -18.803  1.00  0.00     0.000 A 
ENDBRANCH  55  69
BRANCH  56  75
ATOM     75  C   UNL     1      12.956   1.234 -14.993  1.00  0.00    -0.014 A 
ATOM     76  C   UNL     1      13.274   2.438 -15.637  1.00  0.00     0.009 A 
ATOM     77  C   UNL     1      13.666   0.870 -13.838  1.00  0.00     0.009 A 
ATOM     78  C   UNL     1      14.290   3.257 -15.141  1.00  0.00     0.001 A 
ATOM     79  C   UNL     1      14.666   1.702 -13.331  1.00  0.00     0.001 A 
ATOM     80  C   UNL     1      14.980   2.892 -13.986  1.00  0.00     0.000 A 
ENDBRANCH  56  75
BRANCH  68  81
ATOM     81  C   UNL     1      12.277  -2.944 -20.527  1.00  0.00    -0.014 A 
ATOM     82  C   UNL     1      13.404  -3.762 -20.351  1.00  0.00     0.009 A 
ATOM     83  C   UNL     1      11.982  -2.458 -21.811  1.00  0.00     0.009 A 
ATOM     84  C   UNL     1      14.234  -4.062 -21.433  1.00  0.00     0.001 A 
ATOM     85  C   UNL     1      12.799  -2.780 -22.895  1.00  0.00     0.001 A 
ATOM     86  C   UNL     1      13.928  -3.575 -22.704  1.00  0.00     0.000 A 
ENDBRANCH  68  81
ENDBRANCH  42  43
ENDBRANCH  34  37
ENDBRANCH  32  33
ENDBRANCH  31  32
ENDBRANCH  30  31
ENDBRANCH  29  30
ENDBRANCH   1  29
TORSDOF 18
