REMARK SMILES CCn1ncc(NC(=O)[C@@H]2CCCC[C@@H]2C(=O)NCCCCCCNC(=O)c2ccc(-c3c4nc(c(-c5ccccc5)c5ccc([nH]5)c(-c5ccccc5)c5nc(c(-c6ccccc6)c6ccc3[nH]6)C=C5)C=C4)cc2)c1C(=O)Nc1cnn(C)c1C
REMARK SMILES IDX 20 1 19 2 18 3 16 4 17 5 15 7 10 8 11 9 12 10 14 11 13 12
REMARK SMILES IDX 8 13 7 14 9 16 6 17 3 18 4 19 76 20 5 21 2 22 1 23 77 24
REMARK SMILES IDX 78 25 79 26 80 28 81 29 85 30 82 31 83 32 86 33 84 34 21 35
REMARK SMILES IDX 22 36 23 37 24 38 25 39 26 40 27 42 28 43 29 44 75 45 30 46
REMARK SMILES IDX 74 47 31 48 32 49 33 50 68 51 34 52 73 53 67 54 69 55 35 56
REMARK SMILES IDX 72 57 66 58 65 59 36 61 58 62 43 63 57 64 44 65 47 66 56 67
REMARK SMILES IDX 70 68 45 69 46 70 55 72 71 73 48 74 37 75 38 76 42 77 39 78
REMARK SMILES IDX 41 79 40 80 59 81 60 82 64 83 61 84 63 85 62 86 49 87 50 88
REMARK SMILES IDX 54 89 51 90 53 91 52 92
REMARK H PARENT 18 6 7 15 79 27 25 41 69 60 47 71
REMARK Flexibility Score: inf
ROOT
ATOM      1  C   UNL     1       2.546   0.174   8.703  1.00  0.00     0.021 C 
ENDROOT
BRANCH   1   2
ATOM      2  C   UNL     1       3.941  -0.423   8.527  1.00  0.00     0.116 C 
BRANCH   2   3
ATOM      3  N   UNL     1       3.918  -1.854   8.656  1.00  0.00    -0.356 N 
ATOM      4  C   UNL     1       3.989  -2.842   7.738  1.00  0.00     0.223 C 
ATOM      5  O   UNL     1       4.084  -3.976   8.222  1.00  0.00    -0.275 OA
ATOM      6  H   UNL     1       3.837  -2.172   9.584  1.00  0.00     0.163 HD
BRANCH   4   7
ATOM      7  C   UNL     1       4.028  -2.614   6.205  1.00  0.00     0.091 C 
ATOM      8  C   UNL     1       2.938  -1.751   5.520  1.00  0.00     0.091 C 
ATOM      9  C   UNL     1       1.555  -2.202   5.988  1.00  0.00     0.014 C 
ATOM     10  C   UNL     1       1.303  -3.658   5.561  1.00  0.00     0.001 C 
ATOM     11  C   UNL     1       3.884  -4.006   5.532  1.00  0.00     0.014 C 
ATOM     12  C   UNL     1       2.487  -4.616   5.756  1.00  0.00     0.001 C 
BRANCH   8  13
ATOM     13  C   UNL     1       3.293  -0.265   5.381  1.00  0.00     0.228 C 
ATOM     14  N   UNL     1       2.343   0.673   5.121  1.00  0.00    -0.322 N 
ATOM     15  H   UNL     1       2.201   1.345   5.827  1.00  0.00     0.170 HD
ATOM     16  O   UNL     1       4.452   0.142   5.506  1.00  0.00    -0.274 OA
BRANCH  14  17
ATOM     17  C   UNL     1       1.548   0.808   3.991  1.00  0.00     0.092 A 
ATOM     18  N   UNL     1       0.466   0.710   2.085  1.00  0.00    -0.258 N 
ATOM     19  N   UNL     1       0.054   1.872   2.633  1.00  0.00    -0.178 NA
ATOM     20  C   UNL     1       1.441   0.059   2.824  1.00  0.00     0.150 A 
ATOM     21  C   UNL     1       0.727   1.938   3.773  1.00  0.00     0.162 A 
BRANCH  18  22
ATOM     22  C   UNL     1      -0.148   0.350   0.821  1.00  0.00     0.142 C 
ATOM     23  C   UNL     1       0.628   0.836  -0.389  1.00  0.00     0.029 C 
ENDBRANCH  18  22
BRANCH  20  24
ATOM     24  C   UNL     1       2.254  -1.054   2.378  1.00  0.00     0.276 C 
ATOM     25  O   UNL     1       3.480  -1.024   2.339  1.00  0.00    -0.267 OA
ATOM     26  N   UNL     1       1.568  -2.229   2.179  1.00  0.00    -0.318 N 
ATOM     27  H   UNL     1       1.278  -2.764   2.953  1.00  0.00     0.170 HD
BRANCH  26  28
ATOM     28  C   UNL     1       1.284  -2.662   0.902  1.00  0.00     0.082 A 
ATOM     29  C   UNL     1       1.833  -2.252  -0.325  1.00  0.00     0.161 A 
ATOM     30  C   UNL     1       0.261  -3.528   0.584  1.00  0.00     0.059 A 
ATOM     31  N   UNL     1       1.088  -2.658  -1.352  1.00  0.00    -0.179 NA
ATOM     32  N   UNL     1       0.072  -3.322  -0.765  1.00  0.00    -0.271 N 
ATOM     33  C   UNL     1      -0.651  -4.345   1.423  1.00  0.00     0.068 C 
ATOM     34  C   UNL     1      -1.177  -3.424  -1.486  1.00  0.00     0.174 C 
ENDBRANCH  26  28
ENDBRANCH  20  24
ENDBRANCH  14  17
ENDBRANCH   8  13
ENDBRANCH   4   7
ENDBRANCH   2   3
ENDBRANCH   1   2
BRANCH   1  35
ATOM     35  C   UNL     1       2.217   0.473  10.166  1.00  0.00     0.002 C 
BRANCH  35  36
ATOM     36  C   UNL     1       3.163   1.484  10.831  1.00  0.00     0.002 C 
BRANCH  36  37
ATOM     37  C   UNL     1       3.300   2.833  10.108  1.00  0.00     0.021 C 
BRANCH  37  38
ATOM     38  C   UNL     1       2.042   3.676  10.213  1.00  0.00     0.116 C 
BRANCH  38  39
ATOM     39  N   UNL     1       1.768   4.040  11.604  1.00  0.00    -0.352 N 
ATOM     40  C   UNL     1       0.710   4.741  12.127  1.00  0.00     0.251 C 
ATOM     41  H   UNL     1       2.439   3.739  12.258  1.00  0.00     0.163 HD
ATOM     42  O   UNL     1       0.780   5.255  13.244  1.00  0.00    -0.269 OA
BRANCH  40  43
ATOM     43  C   UNL     1      -0.519   4.856  11.338  1.00  0.00     0.039 A 
ATOM     44  C   UNL     1      -1.257   6.042  11.304  1.00  0.00     0.014 A 
ATOM     45  C   UNL     1      -0.922   3.737  10.611  1.00  0.00     0.014 A 
ATOM     46  C   UNL     1      -2.377   6.105  10.485  1.00  0.00     0.010 A 
ATOM     47  C   UNL     1      -1.909   3.857   9.675  1.00  0.00     0.010 A 
ATOM     48  C   UNL     1      -2.687   5.006   9.669  1.00  0.00    -0.014 A 
BRANCH  48  49
ATOM     49  C   UNL     1      -3.774   5.058   8.708  1.00  0.00     0.031 A 
ATOM     50  C   UNL     1      -3.619   6.122   7.685  1.00  0.00     0.074 A 
ATOM     51  C   UNL     1      -4.695   4.075   8.615  1.00  0.00     0.049 A 
ATOM     52  N   UNL     1      -4.325   7.194   7.557  1.00  0.00    -0.248 NA
ATOM     53  C   UNL     1      -2.440   6.075   6.801  1.00  0.00     0.031 C 
ATOM     54  C   UNL     1      -4.749   2.802   9.349  1.00  0.00     0.029 A 
ATOM     55  N   UNL     1      -5.721   3.948   7.737  1.00  0.00    -0.354 N 
ATOM     56  C   UNL     1      -3.822   7.851   6.440  1.00  0.00     0.074 A 
ATOM     57  C   UNL     1      -2.553   7.234   6.149  1.00  0.00     0.031 C 
ATOM     58  C   UNL     1      -5.585   1.948   8.716  1.00  0.00     0.029 A 
ATOM     59  C   UNL     1      -6.253   2.666   7.646  1.00  0.00     0.049 A 
ATOM     60  H   UNL     1      -6.063   4.703   7.206  1.00  0.00     0.167 HD
ATOM     61  C   UNL     1      -4.619   8.654   5.681  1.00  0.00     0.031 A 
ATOM     62  C   UNL     1      -7.153   2.225   6.733  1.00  0.00     0.031 A 
ATOM     63  C   UNL     1      -5.856   8.952   6.361  1.00  0.00     0.049 A 
ATOM     64  C   UNL     1      -7.802   3.422   6.146  1.00  0.00     0.074 A 
ATOM     65  C   UNL     1      -6.188   9.569   7.550  1.00  0.00     0.029 A 
ATOM     66  N   UNL     1      -6.951   8.204   5.997  1.00  0.00    -0.354 N 
ATOM     67  N   UNL     1      -8.576   4.218   6.827  1.00  0.00    -0.248 NA
ATOM     68  C   UNL     1      -7.202   4.001   4.954  1.00  0.00     0.031 C 
ATOM     69  C   UNL     1      -7.260   8.790   8.075  1.00  0.00     0.029 A 
ATOM     70  C   UNL     1      -7.585   7.802   7.142  1.00  0.00     0.049 A 
ATOM     71  H   UNL     1      -7.231   7.995   5.076  1.00  0.00     0.167 HD
ATOM     72  C   UNL     1      -8.209   5.494   6.423  1.00  0.00     0.074 A 
ATOM     73  C   UNL     1      -7.429   5.295   5.201  1.00  0.00     0.031 C 
ATOM     74  C   UNL     1      -8.315   6.559   7.271  1.00  0.00     0.031 A 
BRANCH  61  75
ATOM     75  C   UNL     1      -4.498   8.785   4.182  1.00  0.00    -0.014 A 
ATOM     76  C   UNL     1      -5.404   9.629   3.513  1.00  0.00     0.009 A 
ATOM     77  C   UNL     1      -3.745   7.908   3.380  1.00  0.00     0.009 A 
ATOM     78  C   UNL     1      -5.614   9.528   2.133  1.00  0.00     0.001 A 
ATOM     79  C   UNL     1      -3.921   7.833   1.996  1.00  0.00     0.001 A 
ATOM     80  C   UNL     1      -4.879   8.621   1.377  1.00  0.00     0.000 A 
ENDBRANCH  61  75
BRANCH  62  81
ATOM     81  C   UNL     1      -7.295   0.877   6.139  1.00  0.00    -0.014 A 
ATOM     82  C   UNL     1      -8.489   0.480   5.516  1.00  0.00     0.009 A 
ATOM     83  C   UNL     1      -6.158   0.071   5.943  1.00  0.00     0.009 A 
ATOM     84  C   UNL     1      -8.534  -0.664   4.704  1.00  0.00     0.001 A 
ATOM     85  C   UNL     1      -6.202  -1.069   5.131  1.00  0.00     0.001 A 
ATOM     86  C   UNL     1      -7.388  -1.429   4.500  1.00  0.00     0.000 A 
ENDBRANCH  62  81
BRANCH  74  87
ATOM     87  C   UNL     1      -9.057   6.368   8.572  1.00  0.00    -0.014 A 
ATOM     88  C   UNL     1      -8.627   5.500   9.591  1.00  0.00     0.009 A 
ATOM     89  C   UNL     1     -10.118   7.243   8.847  1.00  0.00     0.009 A 
ATOM     90  C   UNL     1      -9.251   5.504  10.844  1.00  0.00     0.001 A 
ATOM     91  C   UNL     1     -10.726   7.263  10.103  1.00  0.00     0.001 A 
ATOM     92  C   UNL     1     -10.294   6.393  11.101  1.00  0.00     0.000 A 
ENDBRANCH  74  87
ENDBRANCH  48  49
ENDBRANCH  40  43
ENDBRANCH  38  39
ENDBRANCH  37  38
ENDBRANCH  36  37
ENDBRANCH  35  36
ENDBRANCH   1  35
TORSDOF 18
