REMARK SMILES COc1ccccc1Nc1snc(C)c1C(=O)NCCCCCCNC(=O)c1ccc(-c2c3nc(c(-c4ccccc4)c4ccc([nH]4)c(-c4ccccc4)c4nc(c(-c5ccccc5)c5ccc2[nH]5)C=C4)C=C3)cc1
REMARK SMILES IDX 21 1 20 2 19 3 18 4 16 5 17 6 15 8 10 9 11 10 12 11 13 12
REMARK SMILES IDX 14 13 9 14 8 16 3 17 4 18 5 19 7 20 6 21 2 22 1 23 22 24
REMARK SMILES IDX 23 25 24 26 25 27 26 28 27 30 28 31 29 32 75 33 30 34 74 35
REMARK SMILES IDX 31 36 32 37 33 38 68 39 34 40 73 41 67 42 69 43 35 44 72 45
REMARK SMILES IDX 66 46 65 47 36 49 58 50 43 51 57 52 44 53 47 54 56 55 70 56
REMARK SMILES IDX 45 57 46 58 55 60 71 61 48 62 37 63 38 64 42 65 39 66 41 67
REMARK SMILES IDX 40 68 59 69 60 70 64 71 61 72 63 73 62 74 49 75 50 76 54 77
REMARK SMILES IDX 51 78 53 79 52 80
REMARK H PARENT 18 7 9 15 25 29 69 48 47 59
REMARK Flexibility Score: inf
ROOT
ATOM      1  C   UNL     1      -0.425   0.995   3.978  1.00  0.00     0.002 C 
ENDROOT
BRANCH   1   2
ATOM      2  C   UNL     1       0.753   0.342   3.242  1.00  0.00     0.021 C 
BRANCH   2   3
ATOM      3  C   UNL     1       1.825   1.261   2.668  1.00  0.00     0.116 C 
BRANCH   3   4
ATOM      4  N   UNL     1       2.671   1.948   3.611  1.00  0.00    -0.352 N 
ATOM      5  C   UNL     1       3.929   2.494   3.436  1.00  0.00     0.256 C 
ATOM      6  O   UNL     1       4.279   3.291   4.311  1.00  0.00    -0.269 OA
ATOM      7  H   UNL     1       2.297   2.043   4.516  1.00  0.00     0.163 HD
BRANCH   5   8
ATOM      8  C   UNL     1       4.863   2.103   2.366  1.00  0.00     0.097 A 
ATOM      9  C   UNL     1       4.644   1.875   1.001  1.00  0.00     0.127 A 
ATOM     10  S   UNL     1       6.107   1.260   0.315  1.00  0.00    -0.018 S 
ATOM     11  N   UNL     1       7.057   1.530   1.616  1.00  0.00    -0.195 NA
ATOM     12  C   UNL     1       6.307   1.987   2.618  1.00  0.00     0.066 A 
ATOM     13  C   UNL     1       7.055   2.318   3.870  1.00  0.00     0.069 C 
BRANCH   9  14
ATOM     14  N   UNL     1       3.593   2.012   0.149  1.00  0.00    -0.342 N 
ATOM     15  H   UNL     1       3.530   1.328  -0.556  1.00  0.00     0.168 HD
BRANCH  14  16
ATOM     16  C   UNL     1       2.583   2.992   0.132  1.00  0.00     0.082 A 
ATOM     17  C   UNL     1       1.371   2.736  -0.545  1.00  0.00     0.142 A 
ATOM     18  C   UNL     1       0.314   3.648  -0.471  1.00  0.00     0.048 A 
ATOM     19  C   UNL     1       0.438   4.806   0.299  1.00  0.00     0.004 A 
ATOM     20  C   UNL     1       2.702   4.188   0.855  1.00  0.00     0.030 A 
ATOM     21  C   UNL     1       1.638   5.086   0.944  1.00  0.00     0.002 A 
BRANCH  17  22
ATOM     22  O   UNL     1       1.212   1.664  -1.391  1.00  0.00    -0.495 OA
ATOM     23  C   UNL     1       1.049   0.407  -0.736  1.00  0.00     0.278 C 
ENDBRANCH  17  22
ENDBRANCH  14  16
ENDBRANCH   9  14
ENDBRANCH   5   8
ENDBRANCH   3   4
ENDBRANCH   2   3
ENDBRANCH   1   2
BRANCH   1  24
ATOM     24  C   UNL     1      -1.178   2.159   3.310  1.00  0.00     0.002 C 
BRANCH  24  25
ATOM     25  C   UNL     1      -1.674   1.986   1.871  1.00  0.00     0.021 C 
BRANCH  25  26
ATOM     26  C   UNL     1      -2.571   0.793   1.606  1.00  0.00     0.116 C 
BRANCH  26  27
ATOM     27  N   UNL     1      -3.879   0.883   2.241  1.00  0.00    -0.352 N 
ATOM     28  C   UNL     1      -4.948   0.013   2.109  1.00  0.00     0.251 C 
ATOM     29  H   UNL     1      -4.019   1.655   2.836  1.00  0.00     0.163 HD
ATOM     30  O   UNL     1      -6.085   0.375   2.368  1.00  0.00    -0.269 OA
BRANCH  28  31
ATOM     31  C   UNL     1      -4.695  -1.372   1.654  1.00  0.00     0.039 A 
ATOM     32  C   UNL     1      -5.617  -2.055   0.856  1.00  0.00     0.014 A 
ATOM     33  C   UNL     1      -3.518  -2.001   2.059  1.00  0.00     0.014 A 
ATOM     34  C   UNL     1      -5.308  -3.345   0.424  1.00  0.00     0.010 A 
ATOM     35  C   UNL     1      -3.141  -3.199   1.507  1.00  0.00     0.010 A 
ATOM     36  C   UNL     1      -4.058  -3.902   0.743  1.00  0.00    -0.014 A 
BRANCH  36  37
ATOM     37  C   UNL     1      -3.626  -5.167   0.165  1.00  0.00     0.031 A 
ATOM     38  C   UNL     1      -3.614  -5.152  -1.318  1.00  0.00     0.074 A 
ATOM     39  C   UNL     1      -3.090  -6.183   0.877  1.00  0.00     0.049 A 
ATOM     40  N   UNL     1      -4.469  -5.715  -2.101  1.00  0.00    -0.248 NA
ATOM     41  C   UNL     1      -2.664  -4.264  -2.010  1.00  0.00     0.031 C 
ATOM     42  C   UNL     1      -2.737  -6.213   2.301  1.00  0.00     0.029 A 
ATOM     43  N   UNL     1      -2.649  -7.396   0.441  1.00  0.00    -0.354 N 
ATOM     44  C   UNL     1      -4.029  -5.455  -3.393  1.00  0.00     0.074 A 
ATOM     45  C   UNL     1      -3.060  -4.395  -3.279  1.00  0.00     0.031 C 
ATOM     46  C   UNL     1      -1.942  -7.280   2.552  1.00  0.00     0.029 A 
ATOM     47  C   UNL     1      -1.864  -8.096   1.353  1.00  0.00     0.049 A 
ATOM     48  H   UNL     1      -2.869  -7.750  -0.450  1.00  0.00     0.167 HD
ATOM     49  C   UNL     1      -4.283  -6.338  -4.399  1.00  0.00     0.031 A 
ATOM     50  C   UNL     1      -1.190  -9.254   1.128  1.00  0.00     0.031 A 
ATOM     51  C   UNL     1      -5.271  -7.312  -3.995  1.00  0.00     0.049 A 
ATOM     52  C   UNL     1      -1.795  -9.887  -0.065  1.00  0.00     0.074 A 
ATOM     53  C   UNL     1      -6.579  -7.256  -3.558  1.00  0.00     0.029 A 
ATOM     54  N   UNL     1      -4.789  -8.539  -3.604  1.00  0.00    -0.354 N 
ATOM     55  N   UNL     1      -2.997 -10.383  -0.077  1.00  0.00    -0.248 NA
ATOM     56  C   UNL     1      -1.238  -9.559  -1.366  1.00  0.00     0.031 C 
ATOM     57  C   UNL     1      -6.667  -8.247  -2.534  1.00  0.00     0.029 A 
ATOM     58  C   UNL     1      -5.445  -8.918  -2.465  1.00  0.00     0.049 A 
ATOM     59  H   UNL     1      -4.090  -9.057  -4.066  1.00  0.00     0.167 HD
ATOM     60  C   UNL     1      -3.520  -9.989  -1.299  1.00  0.00     0.074 A 
ATOM     61  C   UNL     1      -2.360  -9.580  -2.092  1.00  0.00     0.031 C 
ATOM     62  C   UNL     1      -4.857  -9.752  -1.440  1.00  0.00     0.031 A 
BRANCH  49  63
ATOM     63  C   UNL     1      -3.319  -6.625  -5.528  1.00  0.00    -0.014 A 
ATOM     64  C   UNL     1      -3.674  -7.616  -6.463  1.00  0.00     0.009 A 
ATOM     65  C   UNL     1      -1.980  -6.196  -5.545  1.00  0.00     0.009 A 
ATOM     66  C   UNL     1      -2.718  -8.217  -7.291  1.00  0.00     0.001 A 
ATOM     67  C   UNL     1      -1.031  -6.764  -6.400  1.00  0.00     0.001 A 
ATOM     68  C   UNL     1      -1.394  -7.798  -7.249  1.00  0.00     0.000 A 
ENDBRANCH  49  63
BRANCH  50  69
ATOM     69  C   UNL     1       0.080  -9.763   1.698  1.00  0.00    -0.014 A 
ATOM     70  C   UNL     1       0.444 -11.114   1.544  1.00  0.00     0.009 A 
ATOM     71  C   UNL     1       1.077  -8.866   2.116  1.00  0.00     0.009 A 
ATOM     72  C   UNL     1       1.765 -11.538   1.747  1.00  0.00     0.001 A 
ATOM     73  C   UNL     1       2.397  -9.290   2.321  1.00  0.00     0.001 A 
ATOM     74  C   UNL     1       2.745 -10.622   2.118  1.00  0.00     0.000 A 
ENDBRANCH  50  69
BRANCH  62  75
ATOM     75  C   UNL     1      -5.781 -10.208  -0.336  1.00  0.00    -0.014 A 
ATOM     76  C   UNL     1      -5.705  -9.749   0.991  1.00  0.00     0.009 A 
ATOM     77  C   UNL     1      -6.859 -11.030  -0.694  1.00  0.00     0.009 A 
ATOM     78  C   UNL     1      -6.668 -10.129   1.934  1.00  0.00     0.001 A 
ATOM     79  C   UNL     1      -7.832 -11.389   0.239  1.00  0.00     0.001 A 
ATOM     80  C   UNL     1      -7.734 -10.944   1.555  1.00  0.00     0.000 A 
ENDBRANCH  62  75
ENDBRANCH  36  37
ENDBRANCH  28  31
ENDBRANCH  26  27
ENDBRANCH  25  26
ENDBRANCH  24  25
ENDBRANCH   1  24
TORSDOF 16
