REMARK SMILES CC(C)OCCS(=O)(=O)N1CCC[C@H](C(=O)NCCCCCCNC(=O)c2ccc(-c3c4nc(c(-c5ccccc5)c5ccc([nH]5)c(-c5ccccc5)c5nc(c(-c6ccccc6)c6ccc3[nH]6)C=C5)C=C4)cc2)C1
REMARK SMILES IDX 19 1 18 2 17 3 15 4 16 5 14 7 10 8 11 9 75 10 12 11 13 12
REMARK SMILES IDX 7 13 8 14 9 15 6 16 5 17 4 18 2 19 1 20 3 21 20 22 21 23
REMARK SMILES IDX 22 24 23 25 24 26 25 27 26 29 27 30 28 31 74 32 29 33 73 34
REMARK SMILES IDX 30 35 31 36 32 37 67 38 33 39 72 40 66 41 68 42 34 43 71 44
REMARK SMILES IDX 65 45 64 46 35 48 57 49 42 50 56 51 43 52 46 53 55 54 69 55
REMARK SMILES IDX 44 56 45 57 54 59 70 60 47 61 36 62 37 63 41 64 38 65 40 66
REMARK SMILES IDX 39 67 58 68 59 69 63 70 60 71 62 72 61 73 48 74 49 75 53 76
REMARK SMILES IDX 50 77 52 78 51 79
REMARK H PARENT 17 6 24 28 68 47 46 58
REMARK Flexibility Score: inf
ROOT
ATOM      1  C   UNL     1       4.798  -5.115   0.188  1.00  0.00     0.021 C 
ENDROOT
BRANCH   1   2
ATOM      2  C   UNL     1       4.014  -3.814   0.169  1.00  0.00     0.116 C 
BRANCH   2   3
ATOM      3  N   UNL     1       3.986  -3.266  -1.159  1.00  0.00    -0.356 N 
ATOM      4  C   UNL     1       2.927  -3.094  -1.982  1.00  0.00     0.224 C 
ATOM      5  O   UNL     1       3.165  -2.728  -3.136  1.00  0.00    -0.275 OA
ATOM      6  H   UNL     1       4.856  -2.977  -1.518  1.00  0.00     0.163 HD
BRANCH   4   7
ATOM      7  C   UNL     1       1.480  -3.329  -1.531  1.00  0.00     0.093 C 
ATOM      8  N   UNL     1       0.848  -3.341   0.976  1.00  0.00    -0.201 NA
ATOM      9  C   UNL     1       0.169  -4.638   0.801  1.00  0.00     0.102 C 
ATOM     10  C   UNL     1       1.056  -2.566  -0.281  1.00  0.00     0.115 C 
ATOM     11  C   UNL     1       0.865  -5.472  -0.273  1.00  0.00     0.018 C 
ATOM     12  C   UNL     1       0.974  -4.760  -1.613  1.00  0.00     0.016 C 
BRANCH   8  13
ATOM     13  S   UNL     1       0.557  -2.494   2.451  1.00  0.00     0.216 S 
ATOM     14  O   UNL     1       1.497  -1.404   2.539  1.00  0.00    -0.212 OA
ATOM     15  O   UNL     1       0.572  -3.510   3.494  1.00  0.00    -0.212 OA
BRANCH  13  16
ATOM     16  C   UNL     1      -1.151  -1.864   2.352  1.00  0.00     0.182 C 
BRANCH  16  17
ATOM     17  C   UNL     1      -1.369  -0.336   2.342  1.00  0.00     0.178 C 
BRANCH  17  18
ATOM     18  O   UNL     1      -1.849   0.195   1.090  1.00  0.00    -0.378 OA
BRANCH  18  19
ATOM     19  C   UNL     1      -0.929   0.791   0.164  1.00  0.00     0.112 C 
ATOM     20  C   UNL     1      -0.967   2.311   0.136  1.00  0.00     0.038 C 
ATOM     21  C   UNL     1       0.505   0.407   0.384  1.00  0.00     0.038 C 
ENDBRANCH  18  19
ENDBRANCH  17  18
ENDBRANCH  16  17
ENDBRANCH  13  16
ENDBRANCH   8  13
ENDBRANCH   4   7
ENDBRANCH   2   3
ENDBRANCH   1   2
BRANCH   1  22
ATOM     22  C   UNL     1       6.266  -4.912   0.547  1.00  0.00     0.002 C 
BRANCH  22  23
ATOM     23  C   UNL     1       6.499  -4.194   1.883  1.00  0.00     0.002 C 
BRANCH  23  24
ATOM     24  C   UNL     1       5.695  -4.746   3.065  1.00  0.00     0.021 C 
BRANCH  24  25
ATOM     25  C   UNL     1       5.832  -6.249   3.271  1.00  0.00     0.116 C 
BRANCH  25  26
ATOM     26  N   UNL     1       7.223  -6.666   3.264  1.00  0.00    -0.352 N 
ATOM     27  C   UNL     1       7.903  -7.423   4.173  1.00  0.00     0.251 C 
ATOM     28  H   UNL     1       7.751  -6.359   2.492  1.00  0.00     0.163 HD
ATOM     29  O   UNL     1       9.126  -7.495   4.132  1.00  0.00    -0.269 OA
BRANCH  27  30
ATOM     30  C   UNL     1       7.148  -8.152   5.205  1.00  0.00     0.039 A 
ATOM     31  C   UNL     1       7.636  -8.152   6.511  1.00  0.00     0.014 A 
ATOM     32  C   UNL     1       5.984  -8.853   4.873  1.00  0.00     0.014 A 
ATOM     33  C   UNL     1       6.948  -8.858   7.492  1.00  0.00     0.010 A 
ATOM     34  C   UNL     1       5.252  -9.481   5.870  1.00  0.00     0.010 A 
ATOM     35  C   UNL     1       5.749  -9.521   7.180  1.00  0.00    -0.014 A 
BRANCH  35  36
ATOM     36  C   UNL     1       5.045 -10.320   8.207  1.00  0.00     0.031 A 
ATOM     37  C   UNL     1       4.931 -11.811   8.040  1.00  0.00     0.074 A 
ATOM     38  C   UNL     1       4.512  -9.704   9.277  1.00  0.00     0.049 A 
ATOM     39  N   UNL     1       4.358 -12.686   8.825  1.00  0.00    -0.248 NA
ATOM     40  C   UNL     1       5.516 -12.394   6.820  1.00  0.00     0.031 C 
ATOM     41  C   UNL     1       4.532  -8.260   9.524  1.00  0.00     0.029 A 
ATOM     42  N   UNL     1       3.857 -10.219  10.364  1.00  0.00    -0.354 N 
ATOM     43  C   UNL     1       4.516 -13.915   8.196  1.00  0.00     0.074 A 
ATOM     44  C   UNL     1       5.168 -13.666   6.931  1.00  0.00     0.031 C 
ATOM     45  C   UNL     1       3.946  -8.010  10.706  1.00  0.00     0.029 A 
ATOM     46  C   UNL     1       3.479  -9.267  11.279  1.00  0.00     0.049 A 
ATOM     47  H   UNL     1       3.674 -11.180  10.479  1.00  0.00     0.167 HD
ATOM     48  C   UNL     1       4.181 -15.146   8.647  1.00  0.00     0.031 A 
ATOM     49  C   UNL     1       2.828  -9.399  12.449  1.00  0.00     0.031 A 
ATOM     50  C   UNL     1       3.534 -15.390   9.907  1.00  0.00     0.049 A 
ATOM     51  C   UNL     1       2.446 -10.779  12.913  1.00  0.00     0.074 A 
ATOM     52  C   UNL     1       3.159 -16.598  10.467  1.00  0.00     0.029 A 
ATOM     53  N   UNL     1       3.172 -14.400  10.808  1.00  0.00    -0.354 N 
ATOM     54  N   UNL     1       2.645 -11.936  12.329  1.00  0.00    -0.248 NA
ATOM     55  C   UNL     1       1.772 -10.869  14.214  1.00  0.00     0.031 C 
ATOM     56  C   UNL     1       2.532 -16.336  11.689  1.00  0.00     0.029 A 
ATOM     57  C   UNL     1       2.575 -14.970  11.919  1.00  0.00     0.049 A 
ATOM     58  H   UNL     1       3.319 -13.435  10.677  1.00  0.00     0.167 HD
ATOM     59  C   UNL     1       2.159 -12.893  13.210  1.00  0.00     0.074 A 
ATOM     60  C   UNL     1       1.677 -12.180  14.375  1.00  0.00     0.031 C 
ATOM     61  C   UNL     1       2.114 -14.241  13.072  1.00  0.00     0.031 A 
BRANCH  48  62
ATOM     62  C   UNL     1       4.524 -16.320   7.772  1.00  0.00    -0.014 A 
ATOM     63  C   UNL     1       5.861 -16.701   7.565  1.00  0.00     0.009 A 
ATOM     64  C   UNL     1       3.505 -17.077   7.175  1.00  0.00     0.009 A 
ATOM     65  C   UNL     1       6.170 -17.793   6.753  1.00  0.00     0.001 A 
ATOM     66  C   UNL     1       3.816 -18.189   6.389  1.00  0.00     0.001 A 
ATOM     67  C   UNL     1       5.147 -18.540   6.172  1.00  0.00     0.000 A 
ENDBRANCH  48  62
BRANCH  49  68
ATOM     68  C   UNL     1       2.500  -8.204  13.270  1.00  0.00    -0.014 A 
ATOM     69  C   UNL     1       3.098  -8.007  14.525  1.00  0.00     0.009 A 
ATOM     70  C   UNL     1       1.553  -7.271  12.818  1.00  0.00     0.009 A 
ATOM     71  C   UNL     1       2.714  -6.933  15.332  1.00  0.00     0.001 A 
ATOM     72  C   UNL     1       1.199  -6.178  13.611  1.00  0.00     0.001 A 
ATOM     73  C   UNL     1       1.766  -6.020  14.874  1.00  0.00     0.000 A 
ENDBRANCH  49  68
BRANCH  61  74
ATOM     74  C   UNL     1       1.586 -15.029  14.239  1.00  0.00    -0.014 A 
ATOM     75  C   UNL     1       0.234 -14.982  14.612  1.00  0.00     0.009 A 
ATOM     76  C   UNL     1       2.466 -15.842  14.972  1.00  0.00     0.009 A 
ATOM     77  C   UNL     1      -0.214 -15.688  15.729  1.00  0.00     0.001 A 
ATOM     78  C   UNL     1       2.007 -16.578  16.064  1.00  0.00     0.001 A 
ATOM     79  C   UNL     1       0.672 -16.488  16.452  1.00  0.00     0.000 A 
ENDBRANCH  61  74
ENDBRANCH  35  36
ENDBRANCH  27  30
ENDBRANCH  25  26
ENDBRANCH  24  25
ENDBRANCH  23  24
ENDBRANCH  22  23
ENDBRANCH   1  22
TORSDOF 18
