REMARK SMILES CCC(C)(C)NC(=O)[C@@H](C)Oc1ccc(C)nc1C(=O)NCCCCCCNC(=O)c1ccc(-c2c3nc(c(-c4ccccc4)c4ccc([nH]4)c(-c4ccccc4)c4nc(c(-c5ccccc5)c5ccc2[nH]5)C=C4)C=C3)cc1
REMARK SMILES IDX 23 1 22 2 21 3 19 4 20 5 18 7 12 8 13 9 14 10 17 11 15 12
REMARK SMILES IDX 16 13 11 14 9 15 10 16 7 17 6 18 8 20 3 21 4 22 5 23 2 24
REMARK SMILES IDX 1 25 24 26 25 27 26 28 27 29 28 30 29 31 30 33 31 34 32 35
REMARK SMILES IDX 78 36 33 37 77 38 34 39 35 40 36 41 71 42 37 43 76 44 70 45
REMARK SMILES IDX 72 46 38 47 75 48 69 49 68 50 39 52 61 53 46 54 60 55 47 56
REMARK SMILES IDX 50 57 59 58 73 59 48 60 49 61 58 63 74 64 51 65 40 66 41 67
REMARK SMILES IDX 45 68 42 69 44 70 43 71 62 72 63 73 67 74 64 75 66 76 65 77
REMARK SMILES IDX 52 78 53 79 57 80 54 81 56 82 55 83
REMARK H PARENT 21 6 6 19 28 32 72 51 50 62
REMARK Flexibility Score: inf
ROOT
ATOM      1  C   UNL     1       1.385  -2.211   2.579  1.00  0.00     0.021 C 
ENDROOT
BRANCH   1   2
ATOM      2  C   UNL     1       1.126  -2.822   1.200  1.00  0.00     0.116 C 
BRANCH   2   3
ATOM      3  N   UNL     1      -0.267  -2.643   0.861  1.00  0.00    -0.351 N 
ATOM      4  C   UNL     1      -0.956  -1.738   0.091  1.00  0.00     0.273 C 
ATOM      5  O   UNL     1      -2.186  -1.801   0.210  1.00  0.00    -0.267 OA
ATOM      6  H   UNL     1      -0.852  -3.320   1.273  1.00  0.00     0.163 HD
BRANCH   4   7
ATOM      7  C   UNL     1      -0.364  -0.795  -0.931  1.00  0.00     0.170 A 
ATOM      8  C   UNL     1       0.912  -0.225  -0.953  1.00  0.00     0.151 A 
ATOM      9  C   UNL     1       1.312   0.378  -2.151  1.00  0.00     0.051 A 
ATOM     10  C   UNL     1       0.362   0.700  -3.121  1.00  0.00     0.027 A 
ATOM     11  N   UNL     1      -1.296  -0.456  -1.875  1.00  0.00    -0.244 NA
ATOM     12  C   UNL     1      -0.956   0.369  -2.881  1.00  0.00     0.038 A 
ATOM     13  C   UNL     1      -2.078   0.976  -3.666  1.00  0.00     0.067 C 
BRANCH   8  14
ATOM     14  O   UNL     1       1.600  -0.085   0.221  1.00  0.00    -0.478 OA
BRANCH  14  15
ATOM     15  C   UNL     1       2.709   0.796   0.320  1.00  0.00     0.259 C 
ATOM     16  C   UNL     1       2.998   1.078   1.810  1.00  0.00     0.064 C 
BRANCH  15  17
ATOM     17  C   UNL     1       2.875   2.177  -0.367  1.00  0.00     0.261 C 
ATOM     18  N   UNL     1       2.157   3.275  -0.016  1.00  0.00    -0.348 N 
ATOM     19  H   UNL     1       2.711   3.973   0.402  1.00  0.00     0.164 HD
ATOM     20  O   UNL     1       3.845   2.368  -1.114  1.00  0.00    -0.271 OA
BRANCH  18  21
ATOM     21  C   UNL     1       0.729   3.666  -0.118  1.00  0.00     0.034 C 
ATOM     22  C   UNL     1       0.483   4.075  -1.593  1.00  0.00     0.034 C 
ATOM     23  C   UNL     1       0.576   4.932   0.749  1.00  0.00     0.034 C 
BRANCH  21  24
ATOM     24  C   UNL     1      -0.391   2.670   0.266  1.00  0.00     0.024 C 
ATOM     25  C   UNL     1      -0.400   2.018   1.636  1.00  0.00     0.006 C 
ENDBRANCH  21  24
ENDBRANCH  18  21
ENDBRANCH  15  17
ENDBRANCH  14  15
ENDBRANCH   8  14
ENDBRANCH   4   7
ENDBRANCH   2   3
ENDBRANCH   1   2
BRANCH   1  26
ATOM     26  C   UNL     1       1.431  -3.228   3.722  1.00  0.00     0.002 C 
BRANCH  26  27
ATOM     27  C   UNL     1       2.680  -4.119   3.708  1.00  0.00     0.002 C 
BRANCH  27  28
ATOM     28  C   UNL     1       4.021  -3.371   3.716  1.00  0.00     0.021 C 
BRANCH  28  29
ATOM     29  C   UNL     1       4.214  -2.424   4.898  1.00  0.00     0.116 C 
BRANCH  29  30
ATOM     30  N   UNL     1       4.218  -3.148   6.159  1.00  0.00    -0.352 N 
ATOM     31  C   UNL     1       5.267  -3.445   6.991  1.00  0.00     0.251 C 
ATOM     32  H   UNL     1       3.338  -3.473   6.459  1.00  0.00     0.163 HD
ATOM     33  O   UNL     1       5.150  -4.322   7.840  1.00  0.00    -0.269 OA
BRANCH  31  34
ATOM     34  C   UNL     1       6.539  -2.703   6.875  1.00  0.00     0.039 A 
ATOM     35  C   UNL     1       7.746  -3.400   6.977  1.00  0.00     0.014 A 
ATOM     36  C   UNL     1       6.542  -1.312   6.732  1.00  0.00     0.014 A 
ATOM     37  C   UNL     1       8.956  -2.708   6.895  1.00  0.00     0.010 A 
ATOM     38  C   UNL     1       7.746  -0.631   6.585  1.00  0.00     0.010 A 
ATOM     39  C   UNL     1       8.965  -1.320   6.680  1.00  0.00    -0.014 A 
BRANCH  39  40
ATOM     40  C   UNL     1      10.237  -0.566   6.570  1.00  0.00     0.031 A 
ATOM     41  C   UNL     1      10.605   0.451   7.615  1.00  0.00     0.074 A 
ATOM     42  C   UNL     1      11.028  -0.747   5.496  1.00  0.00     0.049 A 
ATOM     43  N   UNL     1      11.644   1.247   7.663  1.00  0.00    -0.248 NA
ATOM     44  C   UNL     1       9.671   0.611   8.740  1.00  0.00     0.031 C 
ATOM     45  C   UNL     1      10.766  -1.679   4.399  1.00  0.00     0.029 A 
ATOM     46  N   UNL     1      12.213  -0.148   5.152  1.00  0.00    -0.354 N 
ATOM     47  C   UNL     1      11.474   2.017   8.807  1.00  0.00     0.074 A 
ATOM     48  C   UNL     1      10.213   1.624   9.398  1.00  0.00     0.031 C 
ATOM     49  C   UNL     1      11.778  -1.613   3.518  1.00  0.00     0.029 A 
ATOM     50  C   UNL     1      12.736  -0.609   3.969  1.00  0.00     0.049 A 
ATOM     51  H   UNL     1      12.647   0.545   5.700  1.00  0.00     0.167 HD
ATOM     52  C   UNL     1      12.300   2.957   9.328  1.00  0.00     0.031 A 
ATOM     53  C   UNL     1      13.863  -0.262   3.320  1.00  0.00     0.031 A 
ATOM     54  C   UNL     1      13.559   3.338   8.746  1.00  0.00     0.049 A 
ATOM     55  C   UNL     1      14.757   0.790   3.909  1.00  0.00     0.074 A 
ATOM     56  C   UNL     1      14.500   4.229   9.232  1.00  0.00     0.029 A 
ATOM     57  N   UNL     1      14.050   2.852   7.544  1.00  0.00    -0.354 N 
ATOM     58  N   UNL     1      14.617   1.464   5.025  1.00  0.00    -0.248 NA
ATOM     59  C   UNL     1      15.970   1.125   3.150  1.00  0.00     0.031 C 
ATOM     60  C   UNL     1      15.539   4.319   8.298  1.00  0.00     0.029 A 
ATOM     61  C   UNL     1      15.268   3.445   7.257  1.00  0.00     0.049 A 
ATOM     62  H   UNL     1      13.600   2.184   6.979  1.00  0.00     0.167 HD
ATOM     63  C   UNL     1      15.734   2.283   5.117  1.00  0.00     0.074 A 
ATOM     64  C   UNL     1      16.547   2.013   3.948  1.00  0.00     0.031 C 
ATOM     65  C   UNL     1      16.060   3.174   6.085  1.00  0.00     0.031 A 
BRANCH  52  66
ATOM     66  C   UNL     1      11.846   3.647  10.585  1.00  0.00    -0.014 A 
ATOM     67  C   UNL     1      11.785   2.965  11.812  1.00  0.00     0.009 A 
ATOM     68  C   UNL     1      11.477   5.000  10.543  1.00  0.00     0.009 A 
ATOM     69  C   UNL     1      11.315   3.610  12.958  1.00  0.00     0.001 A 
ATOM     70  C   UNL     1      11.037   5.651  11.697  1.00  0.00     0.001 A 
ATOM     71  C   UNL     1      10.944   4.953  12.900  1.00  0.00     0.000 A 
ENDBRANCH  52  66
BRANCH  53  72
ATOM     72  C   UNL     1      14.225  -0.950   2.055  1.00  0.00    -0.014 A 
ATOM     73  C   UNL     1      15.266  -1.891   2.039  1.00  0.00     0.009 A 
ATOM     74  C   UNL     1      13.521  -0.693   0.869  1.00  0.00     0.009 A 
ATOM     75  C   UNL     1      15.604  -2.550   0.856  1.00  0.00     0.001 A 
ATOM     76  C   UNL     1      13.846  -1.371  -0.307  1.00  0.00     0.001 A 
ATOM     77  C   UNL     1      14.891  -2.295  -0.314  1.00  0.00     0.000 A 
ENDBRANCH  53  72
BRANCH  65  78
ATOM     78  C   UNL     1      17.364   3.903   5.932  1.00  0.00    -0.014 A 
ATOM     79  C   UNL     1      17.518   4.926   4.984  1.00  0.00     0.009 A 
ATOM     80  C   UNL     1      18.441   3.584   6.773  1.00  0.00     0.009 A 
ATOM     81  C   UNL     1      18.738   5.595   4.862  1.00  0.00     0.001 A 
ATOM     82  C   UNL     1      19.650   4.273   6.667  1.00  0.00     0.001 A 
ATOM     83  C   UNL     1      19.800   5.271   5.706  1.00  0.00     0.000 A 
ENDBRANCH  65  78
ENDBRANCH  39  40
ENDBRANCH  31  34
ENDBRANCH  29  30
ENDBRANCH  28  29
ENDBRANCH  27  28
ENDBRANCH  26  27
ENDBRANCH   1  26
TORSDOF 18
