REMARK SMILES O=C(NCCCCCCNC(=O)[C@H](NC(=O)c1ccc(Br)nc1)c1ccccc1)c1ccc(-c2c3nc(c(-c4ccccc4)c4ccc([nH]4)c(-c4ccccc4)c4nc(c(-c5ccccc5)c5ccc2[nH]5)C=C4)C=C3)cc1
REMARK SMILES IDX 6 1 5 2 4 3 3 4 1 5 2 6 30 8 31 9 77 10 32 11 76 12 33 13
REMARK SMILES IDX 34 14 35 15 70 16 36 17 75 18 69 19 71 20 37 21 74 22 68 23
REMARK SMILES IDX 67 24 38 26 60 27 45 28 59 29 46 30 49 31 58 32 72 33 47 34
REMARK SMILES IDX 48 35 57 37 73 38 50 39 39 40 40 41 44 42 41 43 43 44 42 45
REMARK SMILES IDX 61 46 62 47 66 48 63 49 65 50 64 51 51 52 52 53 56 54 53 55
REMARK SMILES IDX 55 56 54 57 7 58 8 59 9 60 10 61 11 62 12 64 13 65 24 66
REMARK SMILES IDX 25 67 29 68 26 69 28 70 27 71 14 72 15 73 16 75 17 76 18 77
REMARK SMILES IDX 23 78 19 79 22 80 20 81 21 82
REMARK H PARENT 3 7 71 25 49 36 10 63 14 74
REMARK Flexibility Score: inf
ROOT
ATOM      1  C   UNL     1      13.040  -2.094  -2.420  1.00  0.00     0.002 C 
ENDROOT
BRANCH   1   2
ATOM      2  C   UNL     1      13.669  -2.811  -1.228  1.00  0.00     0.021 C 
BRANCH   2   3
ATOM      3  C   UNL     1      15.166  -3.072  -1.314  1.00  0.00     0.116 C 
BRANCH   3   4
ATOM      4  N   UNL     1      15.972  -1.867  -1.407  1.00  0.00    -0.352 N 
ATOM      5  O   UNL     1      17.645  -0.440  -0.896  1.00  0.00    -0.269 OA
ATOM      6  C   UNL     1      17.129  -1.542  -0.738  1.00  0.00     0.251 C 
ATOM      7  H   UNL     1      15.644  -1.187  -2.039  1.00  0.00     0.163 HD
BRANCH   6   8
ATOM      8  C   UNL     1      17.730  -2.506   0.214  1.00  0.00     0.039 A 
ATOM      9  C   UNL     1      17.852  -3.858  -0.107  1.00  0.00     0.014 A 
ATOM     10  C   UNL     1      18.155  -2.045   1.465  1.00  0.00     0.014 A 
ATOM     11  C   UNL     1      18.230  -4.770   0.874  1.00  0.00     0.010 A 
ATOM     12  C   UNL     1      18.623  -2.953   2.420  1.00  0.00     0.010 A 
ATOM     13  C   UNL     1      18.618  -4.329   2.150  1.00  0.00    -0.014 A 
BRANCH  13  14
ATOM     14  C   UNL     1      19.032  -5.329   3.170  1.00  0.00     0.031 A 
ATOM     15  C   UNL     1      18.238  -5.531   4.433  1.00  0.00     0.074 A 
ATOM     16  C   UNL     1      20.111  -6.098   2.927  1.00  0.00     0.049 A 
ATOM     17  N   UNL     1      18.424  -6.407   5.390  1.00  0.00    -0.248 NA
ATOM     18  C   UNL     1      17.094  -4.633   4.659  1.00  0.00     0.031 C 
ATOM     19  C   UNL     1      20.969  -5.998   1.743  1.00  0.00     0.029 A 
ATOM     20  N   UNL     1      20.652  -7.135   3.643  1.00  0.00    -0.354 N 
ATOM     21  C   UNL     1      17.442  -6.149   6.340  1.00  0.00     0.074 A 
ATOM     22  C   UNL     1      16.674  -5.022   5.855  1.00  0.00     0.031 C 
ATOM     23  C   UNL     1      21.887  -6.975   1.784  1.00  0.00     0.029 A 
ATOM     24  C   UNL     1      21.721  -7.731   3.019  1.00  0.00     0.049 A 
ATOM     25  H   UNL     1      20.308  -7.425   4.519  1.00  0.00     0.167 HD
ATOM     26  C   UNL     1      17.199  -6.793   7.507  1.00  0.00     0.031 A 
ATOM     27  C   UNL     1      22.488  -8.770   3.397  1.00  0.00     0.031 A 
ATOM     28  C   UNL     1      17.953  -7.923   7.987  1.00  0.00     0.049 A 
ATOM     29  C   UNL     1      22.201  -9.459   4.698  1.00  0.00     0.074 A 
ATOM     30  C   UNL     1      17.755  -8.665   9.139  1.00  0.00     0.029 A 
ATOM     31  N   UNL     1      19.051  -8.470   7.343  1.00  0.00    -0.354 N 
ATOM     32  N   UNL     1      21.244  -9.226   5.562  1.00  0.00    -0.248 NA
ATOM     33  C   UNL     1      23.100 -10.559   5.072  1.00  0.00     0.031 C 
ATOM     34  C   UNL     1      18.762  -9.634   9.215  1.00  0.00     0.029 A 
ATOM     35  C   UNL     1      19.555  -9.528   8.084  1.00  0.00     0.049 A 
ATOM     36  H   UNL     1      19.419  -8.155   6.486  1.00  0.00     0.167 HD
ATOM     37  C   UNL     1      21.413 -10.162   6.573  1.00  0.00     0.074 A 
ATOM     38  C   UNL     1      22.551 -10.978   6.203  1.00  0.00     0.031 C 
ATOM     39  C   UNL     1      20.689 -10.329   7.706  1.00  0.00     0.031 A 
BRANCH  26  40
ATOM     40  C   UNL     1      16.081  -6.273   8.369  1.00  0.00    -0.014 A 
ATOM     41  C   UNL     1      14.736  -6.462   8.018  1.00  0.00     0.009 A 
ATOM     42  C   UNL     1      16.382  -5.620   9.576  1.00  0.00     0.009 A 
ATOM     43  C   UNL     1      13.715  -5.981   8.843  1.00  0.00     0.001 A 
ATOM     44  C   UNL     1      15.360  -5.163  10.410  1.00  0.00     0.001 A 
ATOM     45  C   UNL     1      14.028  -5.335  10.039  1.00  0.00     0.000 A 
ENDBRANCH  26  40
BRANCH  27  46
ATOM     46  C   UNL     1      23.598  -9.225   2.522  1.00  0.00    -0.014 A 
ATOM     47  C   UNL     1      23.513 -10.449   1.842  1.00  0.00     0.009 A 
ATOM     48  C   UNL     1      24.744  -8.432   2.355  1.00  0.00     0.009 A 
ATOM     49  C   UNL     1      24.562 -10.878   1.027  1.00  0.00     0.001 A 
ATOM     50  C   UNL     1      25.779  -8.850   1.518  1.00  0.00     0.001 A 
ATOM     51  C   UNL     1      25.691 -10.076   0.861  1.00  0.00     0.000 A 
ENDBRANCH  27  46
BRANCH  39  52
ATOM     52  C   UNL     1      21.091 -11.461   8.607  1.00  0.00    -0.014 A 
ATOM     53  C   UNL     1      22.258 -11.397   9.383  1.00  0.00     0.009 A 
ATOM     54  C   UNL     1      20.279 -12.603   8.690  1.00  0.00     0.009 A 
ATOM     55  C   UNL     1      22.625 -12.472  10.195  1.00  0.00     0.001 A 
ATOM     56  C   UNL     1      20.634 -13.664   9.524  1.00  0.00     0.001 A 
ATOM     57  C   UNL     1      21.812 -13.603  10.267  1.00  0.00     0.000 A 
ENDBRANCH  39  52
ENDBRANCH  13  14
ENDBRANCH   6   8
ENDBRANCH   3   4
ENDBRANCH   2   3
ENDBRANCH   1   2
BRANCH   1  58
ATOM     58  C   UNL     1      13.362  -2.647  -3.811  1.00  0.00     0.002 C 
BRANCH  58  59
ATOM     59  C   UNL     1      13.099  -4.139  -4.060  1.00  0.00     0.021 C 
BRANCH  59  60
ATOM     60  C   UNL     1      11.736  -4.669  -3.625  1.00  0.00     0.116 C 
BRANCH  60  61
ATOM     61  N   UNL     1      10.627  -3.942  -4.203  1.00  0.00    -0.354 N 
ATOM     62  C   UNL     1       9.306  -4.280  -4.269  1.00  0.00     0.247 C 
ATOM     63  H   UNL     1      10.859  -3.076  -4.609  1.00  0.00     0.163 HD
ATOM     64  O   UNL     1       8.559  -3.424  -4.759  1.00  0.00    -0.272 OA
BRANCH  62  65
ATOM     65  C   UNL     1       8.792  -5.692  -3.876  1.00  0.00     0.202 C 
BRANCH  65  66
ATOM     66  C   UNL     1       9.172  -6.281  -2.525  1.00  0.00    -0.016 A 
ATOM     67  C   UNL     1       9.104  -7.677  -2.356  1.00  0.00     0.006 A 
ATOM     68  C   UNL     1       9.529  -5.503  -1.415  1.00  0.00     0.006 A 
ATOM     69  C   UNL     1       9.396  -8.269  -1.125  1.00  0.00     0.000 A 
ATOM     70  C   UNL     1       9.825  -6.095  -0.184  1.00  0.00     0.000 A 
ATOM     71  C   UNL     1       9.757  -7.476  -0.040  1.00  0.00     0.000 A 
ENDBRANCH  65  66
BRANCH  65  72
ATOM     72  N   UNL     1       7.347  -5.818  -4.138  1.00  0.00    -0.336 N 
ATOM     73  C   UNL     1       6.256  -5.401  -3.419  1.00  0.00     0.253 C 
ATOM     74  H   UNL     1       7.126  -6.283  -4.978  1.00  0.00     0.165 HD
ATOM     75  O   UNL     1       5.120  -5.630  -3.822  1.00  0.00    -0.269 OA
BRANCH  73  76
ATOM     76  C   UNL     1       6.423  -4.724  -2.130  1.00  0.00     0.058 A 
ATOM     77  C   UNL     1       6.879  -3.413  -2.030  1.00  0.00     0.018 A 
ATOM     78  C   UNL     1       6.110  -5.410  -0.965  1.00  0.00     0.126 A 
ATOM     79  C   UNL     1       7.093  -2.868  -0.764  1.00  0.00     0.037 A 
ATOM     80  N   UNL     1       6.301  -4.901   0.278  1.00  0.00    -0.249 NA
ATOM     81  C   UNL     1       6.807  -3.650   0.350  1.00  0.00     0.106 A 
ATOM     82  Br  UNL     1       7.197  -2.959   2.072  1.00  0.00    -0.029 Br
ENDBRANCH  73  76
ENDBRANCH  65  72
ENDBRANCH  62  65
ENDBRANCH  60  61
ENDBRANCH  59  60
ENDBRANCH  58  59
ENDBRANCH   1  58
TORSDOF 16
