REMARK SMILES CCc1ncc(S(=O)(=O)NCc2ccc(C(=O)NCCCCCCNC(=O)c3ccc(-c4c5nc(c(-c6ccccc6)c6ccc([nH]6)c(-c6ccccc6)c6nc(c(-c7ccccc7)c7ccc4[nH]7)C=C6)C=C5)cc3)o2)[nH]1
REMARK SMILES IDX 20 1 19 2 18 3 16 4 17 5 15 7 12 8 13 9 76 10 14 11 11 12
REMARK SMILES IDX 10 13 7 15 8 16 9 17 6 18 3 19 4 20 77 21 5 22 2 24 1 25
REMARK SMILES IDX 21 26 22 27 23 28 24 29 25 30 26 31 27 33 28 34 29 35 75 36
REMARK SMILES IDX 30 37 74 38 31 39 32 40 33 41 68 42 34 43 73 44 67 45 69 46
REMARK SMILES IDX 35 47 72 48 66 49 65 50 36 52 58 53 43 54 57 55 44 56 47 57
REMARK SMILES IDX 56 58 70 59 45 60 46 61 55 63 71 64 48 65 37 66 38 67 42 68
REMARK SMILES IDX 39 69 41 70 40 71 59 72 60 73 64 74 61 75 63 76 62 77 49 78
REMARK SMILES IDX 50 79 54 80 51 81 53 82 52 83
REMARK H PARENT 18 6 10 14 77 23 25 32 69 51 47 62
REMARK Flexibility Score: inf
ROOT
ATOM      1  C   UNL     1      -4.186   4.763  -9.013  1.00  0.00     0.021 C 
ENDROOT
BRANCH   1   2
ATOM      2  C   UNL     1      -2.977   4.438  -9.889  1.00  0.00     0.116 C 
BRANCH   2   3
ATOM      3  N   UNL     1      -1.769   5.043  -9.376  1.00  0.00    -0.349 N 
ATOM      4  C   UNL     1      -0.631   4.486  -8.843  1.00  0.00     0.286 C 
ATOM      5  O   UNL     1       0.313   5.264  -8.685  1.00  0.00    -0.266 OA
ATOM      6  H   UNL     1      -1.759   6.027  -9.416  1.00  0.00     0.163 HD
BRANCH   4   7
ATOM      7  C   UNL     1      -0.557   3.077  -8.502  1.00  0.00     0.191 A 
ATOM      8  C   UNL     1       0.573   1.299  -7.819  1.00  0.00     0.119 A 
ATOM      9  C   UNL     1      -0.746   0.913  -7.873  1.00  0.00     0.048 A 
ATOM     10  O   UNL     1       0.702   2.573  -8.276  1.00  0.00    -0.455 OA
ATOM     11  C   UNL     1      -1.473   2.062  -8.273  1.00  0.00     0.056 A 
BRANCH   8  12
ATOM     12  C   UNL     1       1.801   0.621  -7.346  1.00  0.00     0.174 C 
BRANCH  12  13
ATOM     13  N   UNL     1       2.789   1.553  -6.783  1.00  0.00    -0.202 NA
ATOM     14  H   UNL     1       3.633   1.009  -6.600  1.00  0.00     0.141 HD
BRANCH  13  15
ATOM     15  S   UNL     1       2.452   2.402  -5.377  1.00  0.00     0.258 S 
ATOM     16  O   UNL     1       1.288   3.236  -5.558  1.00  0.00    -0.205 OA
ATOM     17  O   UNL     1       3.699   2.970  -4.915  1.00  0.00    -0.205 OA
BRANCH  15  18
ATOM     18  C   UNL     1       1.970   1.338  -4.083  1.00  0.00     0.167 A 
ATOM     19  C   UNL     1       1.095   0.846  -2.092  1.00  0.00     0.106 A 
ATOM     20  N   UNL     1       1.432  -0.313  -2.621  1.00  0.00    -0.240 NA
ATOM     21  N   UNL     1       1.396   1.868  -2.951  1.00  0.00    -0.332 N 
ATOM     22  C   UNL     1       2.000  -0.014  -3.835  1.00  0.00     0.153 A 
ATOM     23  H   UNL     1       1.229   2.824  -2.786  1.00  0.00     0.169 HD
BRANCH  19  24
ATOM     24  C   UNL     1       0.466   1.098  -0.763  1.00  0.00     0.072 C 
ATOM     25  C   UNL     1       0.883   0.069   0.274  1.00  0.00     0.012 C 
ENDBRANCH  19  24
ENDBRANCH  15  18
ENDBRANCH  13  15
ENDBRANCH  12  13
ENDBRANCH   8  12
ENDBRANCH   4   7
ENDBRANCH   2   3
ENDBRANCH   1   2
BRANCH   1  26
ATOM     26  C   UNL     1      -4.709   6.198  -9.179  1.00  0.00     0.002 C 
BRANCH  26  27
ATOM     27  C   UNL     1      -5.103   6.596 -10.608  1.00  0.00     0.002 C 
BRANCH  27  28
ATOM     28  C   UNL     1      -6.052   5.628 -11.321  1.00  0.00     0.021 C 
BRANCH  28  29
ATOM     29  C   UNL     1      -7.402   5.443 -10.637  1.00  0.00     0.116 C 
BRANCH  29  30
ATOM     30  N   UNL     1      -8.200   6.657 -10.670  1.00  0.00    -0.352 N 
ATOM     31  C   UNL     1      -9.488   6.837 -11.110  1.00  0.00     0.251 C 
ATOM     32  H   UNL     1      -7.754   7.465 -10.329  1.00  0.00     0.163 HD
ATOM     33  O   UNL     1      -9.943   7.968 -11.247  1.00  0.00    -0.269 OA
BRANCH  31  34
ATOM     34  C   UNL     1     -10.328   5.664 -11.432  1.00  0.00     0.039 A 
ATOM     35  C   UNL     1     -11.086   5.677 -12.606  1.00  0.00     0.014 A 
ATOM     36  C   UNL     1     -10.389   4.567 -10.567  1.00  0.00     0.014 A 
ATOM     37  C   UNL     1     -11.870   4.570 -12.938  1.00  0.00     0.010 A 
ATOM     38  C   UNL     1     -11.123   3.441 -10.928  1.00  0.00     0.010 A 
ATOM     39  C   UNL     1     -11.877   3.435 -12.112  1.00  0.00    -0.014 A 
BRANCH  39  40
ATOM     40  C   UNL     1     -12.683   2.237 -12.454  1.00  0.00     0.031 A 
ATOM     41  C   UNL     1     -13.840   1.837 -11.581  1.00  0.00     0.074 A 
ATOM     42  C   UNL     1     -12.334   1.472 -13.505  1.00  0.00     0.049 A 
ATOM     43  N   UNL     1     -14.608   0.780 -11.661  1.00  0.00    -0.248 NA
ATOM     44  C   UNL     1     -14.160   2.730 -10.456  1.00  0.00     0.031 C 
ATOM     45  C   UNL     1     -11.216   1.734 -14.412  1.00  0.00     0.029 A 
ATOM     46  N   UNL     1     -12.884   0.308 -13.980  1.00  0.00    -0.354 N 
ATOM     47  C   UNL     1     -15.483   0.869 -10.586  1.00  0.00     0.074 A 
ATOM     48  C   UNL     1     -15.126   2.060  -9.846  1.00  0.00     0.031 C 
ATOM     49  C   UNL     1     -11.174   0.769 -15.346  1.00  0.00     0.029 A 
ATOM     50  C   UNL     1     -12.237  -0.196 -15.082  1.00  0.00     0.049 A 
ATOM     51  H   UNL     1     -13.667  -0.125 -13.571  1.00  0.00     0.167 HD
ATOM     52  C   UNL     1     -16.503   0.043 -10.251  1.00  0.00     0.031 A 
ATOM     53  C   UNL     1     -12.470  -1.313 -15.796  1.00  0.00     0.031 A 
ATOM     54  C   UNL     1     -16.872  -1.131 -10.995  1.00  0.00     0.049 A 
ATOM     55  C   UNL     1     -13.606  -2.215 -15.405  1.00  0.00     0.074 A 
ATOM     56  C   UNL     1     -17.923  -2.002 -10.767  1.00  0.00     0.029 A 
ATOM     57  N   UNL     1     -16.201  -1.597 -12.114  1.00  0.00    -0.354 N 
ATOM     58  N   UNL     1     -14.455  -2.090 -14.415  1.00  0.00    -0.248 NA
ATOM     59  C   UNL     1     -13.819  -3.408 -16.236  1.00  0.00     0.031 C 
ATOM     60  C   UNL     1     -17.864  -3.018 -11.728  1.00  0.00     0.029 A 
ATOM     61  C   UNL     1     -16.804  -2.752 -12.579  1.00  0.00     0.049 A 
ATOM     62  H   UNL     1     -15.412  -1.169 -12.519  1.00  0.00     0.167 HD
ATOM     63  C   UNL     1     -15.320  -3.171 -14.520  1.00  0.00     0.074 A 
ATOM     64  C   UNL     1     -14.899  -3.935 -15.676  1.00  0.00     0.031 C 
ATOM     65  C   UNL     1     -16.372  -3.499 -13.732  1.00  0.00     0.031 A 
BRANCH  52  66
ATOM     66  C   UNL     1     -17.285   0.382  -9.014  1.00  0.00    -0.014 A 
ATOM     67  C   UNL     1     -18.156   1.484  -8.984  1.00  0.00     0.009 A 
ATOM     68  C   UNL     1     -17.166  -0.421  -7.869  1.00  0.00     0.009 A 
ATOM     69  C   UNL     1     -18.861   1.796  -7.819  1.00  0.00     0.001 A 
ATOM     70  C   UNL     1     -17.893  -0.122  -6.715  1.00  0.00     0.001 A 
ATOM     71  C   UNL     1     -18.731   0.992  -6.688  1.00  0.00     0.000 A 
ENDBRANCH  52  66
BRANCH  53  72
ATOM     72  C   UNL     1     -11.620  -1.632 -16.971  1.00  0.00    -0.014 A 
ATOM     73  C   UNL     1     -12.127  -1.489 -18.272  1.00  0.00     0.009 A 
ATOM     74  C   UNL     1     -10.300  -2.078 -16.801  1.00  0.00     0.009 A 
ATOM     75  C   UNL     1     -11.336  -1.807 -19.378  1.00  0.00     0.001 A 
ATOM     76  C   UNL     1      -9.504  -2.372 -17.910  1.00  0.00     0.001 A 
ATOM     77  C   UNL     1     -10.025  -2.244 -19.196  1.00  0.00     0.000 A 
ENDBRANCH  53  72
BRANCH  65  78
ATOM     78  C   UNL     1     -17.162  -4.718 -14.114  1.00  0.00    -0.014 A 
ATOM     79  C   UNL     1     -16.659  -6.009 -13.891  1.00  0.00     0.009 A 
ATOM     80  C   UNL     1     -18.444  -4.569 -14.665  1.00  0.00     0.009 A 
ATOM     81  C   UNL     1     -17.417  -7.128 -14.241  1.00  0.00     0.001 A 
ATOM     82  C   UNL     1     -19.208  -5.690 -14.991  1.00  0.00     0.001 A 
ATOM     83  C   UNL     1     -18.691  -6.968 -14.786  1.00  0.00     0.000 A 
ENDBRANCH  65  78
ENDBRANCH  39  40
ENDBRANCH  31  34
ENDBRANCH  29  30
ENDBRANCH  28  29
ENDBRANCH  27  28
ENDBRANCH  26  27
ENDBRANCH   1  26
TORSDOF 18
