REMARK SMILES O=C(NCCCCCCNC(=O)c1cccc2nc(Cl)c(Cl)nc12)c1ccc(-c2c3nc(c(-c4ccccc4)c4ccc([nH]4)c(-c4ccccc4)c4nc(c(-c5ccccc5)c5ccc2[nH]5)C=C4)C=C3)cc1
REMARK SMILES IDX 5 1 4 2 3 3 1 4 2 5 25 7 26 8 72 9 27 10 71 11 28 12 29 13
REMARK SMILES IDX 30 14 65 15 31 16 70 17 64 18 66 19 32 20 69 21 63 22 62 23
REMARK SMILES IDX 33 25 55 26 40 27 54 28 41 29 44 30 53 31 67 32 42 33 43 34
REMARK SMILES IDX 52 36 68 37 45 38 34 39 35 40 39 41 36 42 38 43 37 44 56 45
REMARK SMILES IDX 57 46 61 47 58 48 60 49 59 50 46 51 47 52 51 53 48 54 50 55
REMARK SMILES IDX 49 56 6 57 7 58 8 59 9 60 10 61 11 62 12 64 13 65 14 66
REMARK SMILES IDX 24 67 15 68 17 69 23 70 16 71 18 72 21 73 19 74 22 75 20 76
REMARK H PARENT 3 6 66 24 44 35 10 63
REMARK Flexibility Score: inf
ROOT
ATOM      1  C   UNL     1       4.852  -2.640   0.528  1.00  0.00     0.021 C 
ENDROOT
BRANCH   1   2
ATOM      2  C   UNL     1       4.605  -1.283  -0.124  1.00  0.00     0.116 C 
BRANCH   2   3
ATOM      3  N   UNL     1       3.196  -1.010  -0.335  1.00  0.00    -0.352 N 
ATOM      4  O   UNL     1       1.229   0.056  -0.159  1.00  0.00    -0.269 OA
ATOM      5  C   UNL     1       2.450   0.093  -0.013  1.00  0.00     0.251 C 
ATOM      6  H   UNL     1       2.697  -1.733  -0.780  1.00  0.00     0.163 HD
BRANCH   5   7
ATOM      7  C   UNL     1       3.078   1.329   0.514  1.00  0.00     0.039 A 
ATOM      8  C   UNL     1       2.392   2.051   1.497  1.00  0.00     0.014 A 
ATOM      9  C   UNL     1       4.274   1.834  -0.005  1.00  0.00     0.014 A 
ATOM     10  C   UNL     1       2.903   3.265   1.964  1.00  0.00     0.010 A 
ATOM     11  C   UNL     1       4.816   3.016   0.505  1.00  0.00     0.010 A 
ATOM     12  C   UNL     1       4.120   3.758   1.472  1.00  0.00    -0.014 A 
BRANCH  12  13
ATOM     13  C   UNL     1       4.624   5.093   1.885  1.00  0.00     0.031 A 
ATOM     14  C   UNL     1       4.646   6.221   0.888  1.00  0.00     0.074 A 
ATOM     15  C   UNL     1       5.061   5.300   3.142  1.00  0.00     0.049 A 
ATOM     16  N   UNL     1       5.082   7.447   1.037  1.00  0.00    -0.248 NA
ATOM     17  C   UNL     1       4.122   5.931  -0.458  1.00  0.00     0.031 C 
ATOM     18  C   UNL     1       5.090   4.295   4.206  1.00  0.00     0.029 A 
ATOM     19  N   UNL     1       5.556   6.433   3.739  1.00  0.00    -0.354 N 
ATOM     20  C   UNL     1       4.902   8.062  -0.196  1.00  0.00     0.074 A 
ATOM     21  C   UNL     1       4.356   7.069  -1.093  1.00  0.00     0.031 C 
ATOM     22  C   UNL     1       5.545   4.867   5.334  1.00  0.00     0.029 A 
ATOM     23  C   UNL     1       5.870   6.266   5.066  1.00  0.00     0.049 A 
ATOM     24  H   UNL     1       5.675   7.285   3.261  1.00  0.00     0.167 HD
ATOM     25  C   UNL     1       5.151   9.345  -0.546  1.00  0.00     0.031 A 
ATOM     26  C   UNL     1       6.357   7.141   5.967  1.00  0.00     0.031 A 
ATOM     27  C   UNL     1       5.661  10.347   0.348  1.00  0.00     0.049 A 
ATOM     28  C   UNL     1       6.629   8.561   5.552  1.00  0.00     0.074 A 
ATOM     29  C   UNL     1       5.923  11.680   0.086  1.00  0.00     0.029 A 
ATOM     30  N   UNL     1       5.968  10.130   1.681  1.00  0.00    -0.354 N 
ATOM     31  N   UNL     1       6.445   9.127   4.384  1.00  0.00    -0.248 NA
ATOM     32  C   UNL     1       7.166   9.465   6.581  1.00  0.00     0.031 C 
ATOM     33  C   UNL     1       6.417  12.265   1.254  1.00  0.00     0.029 A 
ATOM     34  C   UNL     1       6.420  11.305   2.253  1.00  0.00     0.049 A 
ATOM     35  H   UNL     1       5.877   9.269   2.151  1.00  0.00     0.167 HD
ATOM     36  C   UNL     1       6.814  10.456   4.545  1.00  0.00     0.074 A 
ATOM     37  C   UNL     1       7.228  10.616   5.924  1.00  0.00     0.031 C 
ATOM     38  C   UNL     1       6.809  11.454   3.630  1.00  0.00     0.031 A 
BRANCH  25  39
ATOM     39  C   UNL     1       4.863   9.752  -1.963  1.00  0.00    -0.014 A 
ATOM     40  C   UNL     1       5.923  10.024  -2.841  1.00  0.00     0.009 A 
ATOM     41  C   UNL     1       3.545   9.937  -2.406  1.00  0.00     0.009 A 
ATOM     42  C   UNL     1       5.669  10.481  -4.135  1.00  0.00     0.001 A 
ATOM     43  C   UNL     1       3.293  10.370  -3.709  1.00  0.00     0.001 A 
ATOM     44  C   UNL     1       4.355  10.649  -4.569  1.00  0.00     0.000 A 
ENDBRANCH  25  39
BRANCH  26  45
ATOM     45  C   UNL     1       6.585   6.707   7.370  1.00  0.00    -0.014 A 
ATOM     46  C   UNL     1       7.648   5.851   7.694  1.00  0.00     0.009 A 
ATOM     47  C   UNL     1       5.728   7.143   8.392  1.00  0.00     0.009 A 
ATOM     48  C   UNL     1       7.844   5.433   9.012  1.00  0.00     0.001 A 
ATOM     49  C   UNL     1       5.940   6.743   9.713  1.00  0.00     0.001 A 
ATOM     50  C   UNL     1       6.994   5.884  10.021  1.00  0.00     0.000 A 
ENDBRANCH  26  45
BRANCH  38  51
ATOM     51  C   UNL     1       7.223  12.825   4.080  1.00  0.00    -0.014 A 
ATOM     52  C   UNL     1       6.254  13.832   4.210  1.00  0.00     0.009 A 
ATOM     53  C   UNL     1       8.575  13.148   4.264  1.00  0.00     0.009 A 
ATOM     54  C   UNL     1       6.632  15.143   4.506  1.00  0.00     0.001 A 
ATOM     55  C   UNL     1       8.947  14.456   4.581  1.00  0.00     0.001 A 
ATOM     56  C   UNL     1       7.978  15.452   4.693  1.00  0.00     0.000 A 
ENDBRANCH  38  51
ENDBRANCH  12  13
ENDBRANCH   5   7
ENDBRANCH   2   3
ENDBRANCH   1   2
BRANCH   1  57
ATOM     57  C   UNL     1       4.378  -3.859  -0.266  1.00  0.00     0.002 C 
BRANCH  57  58
ATOM     58  C   UNL     1       4.904  -3.977  -1.699  1.00  0.00     0.002 C 
BRANCH  58  59
ATOM     59  C   UNL     1       6.426  -3.912  -1.871  1.00  0.00     0.021 C 
BRANCH  59  60
ATOM     60  C   UNL     1       7.234  -4.898  -1.030  1.00  0.00     0.116 C 
BRANCH  60  61
ATOM     61  N   UNL     1       6.893  -6.281  -1.304  1.00  0.00    -0.352 N 
ATOM     62  C   UNL     1       7.721  -7.347  -1.540  1.00  0.00     0.253 C 
ATOM     63  H   UNL     1       5.930  -6.483  -1.325  1.00  0.00     0.163 HD
ATOM     64  O   UNL     1       7.250  -8.472  -1.720  1.00  0.00    -0.269 OA
BRANCH  62  65
ATOM     65  C   UNL     1       9.180  -7.169  -1.498  1.00  0.00     0.067 A 
ATOM     66  C   UNL     1       9.767  -6.845  -0.265  1.00  0.00     0.016 A 
ATOM     67  C   UNL     1       9.939  -7.399  -2.653  1.00  0.00     0.103 A 
ATOM     68  C   UNL     1      11.144  -6.717  -0.179  1.00  0.00     0.003 A 
ATOM     69  C   UNL     1      11.350  -7.287  -2.535  1.00  0.00     0.091 A 
ATOM     70  N   UNL     1       9.380  -7.707  -3.852  1.00  0.00    -0.230 NA
ATOM     71  C   UNL     1      11.920  -6.941  -1.315  1.00  0.00     0.031 A 
ATOM     72  N   UNL     1      12.175  -7.503  -3.577  1.00  0.00    -0.231 NA
ATOM     73  C   UNL     1      10.220  -7.942  -4.886  1.00  0.00     0.167 A 
ATOM     74  C   UNL     1      11.592  -7.845  -4.749  1.00  0.00     0.167 A 
ATOM     75  Cl  UNL     1       9.424  -8.350  -6.349  1.00  0.00    -0.059 Cl
ATOM     76  Cl  UNL     1      12.712  -8.128  -6.018  1.00  0.00    -0.059 Cl
ENDBRANCH  62  65
ENDBRANCH  60  61
ENDBRANCH  59  60
ENDBRANCH  58  59
ENDBRANCH  57  58
ENDBRANCH   1  57
TORSDOF 13
