REMARK SMILES Cc1cc(Cl)ccc1Oc1cc(C)c(N)c(C(=O)NCCCCCCNC(=O)c2ccc(-c3c4nc(c(-c5ccccc5)c5ccc([nH]5)c(-c5ccccc5)c5nc(c(-c6ccccc6)c6ccc3[nH]6)C=C5)C=C4)cc2)c1
REMARK SMILES IDX 22 1 21 2 20 3 19 4 17 5 18 6 16 8 10 9 11 10 77 11 12 12
REMARK SMILES IDX 13 13 14 14 9 15 8 16 1 17 2 18 3 19 4 20 7 21 5 22 6 23
REMARK SMILES IDX 15 24 23 27 24 28 25 29 26 30 27 31 28 33 29 34 30 35 76 36
REMARK SMILES IDX 31 37 75 38 32 39 33 40 34 41 69 42 35 43 74 44 68 45 70 46
REMARK SMILES IDX 36 47 73 48 67 49 66 50 37 52 59 53 44 54 58 55 45 56 48 57
REMARK SMILES IDX 57 58 71 59 46 60 47 61 56 63 72 64 49 65 38 66 39 67 43 68
REMARK SMILES IDX 40 69 42 70 41 71 60 72 61 73 65 74 62 75 64 76 63 77 50 78
REMARK SMILES IDX 51 79 55 80 52 81 54 82 53 83
REMARK H PARENT 19 7 15 25 15 26 26 32 70 51 48 62
REMARK Flexibility Score: inf
ROOT
ATOM      1  C   UNL     1      -6.279  -1.139   5.892  1.00  0.00     0.002 C 
ENDROOT
BRANCH   1   2
ATOM      2  C   UNL     1      -5.560  -1.092   4.535  1.00  0.00     0.021 C 
BRANCH   2   3
ATOM      3  C   UNL     1      -6.504  -1.321   3.352  1.00  0.00     0.116 C 
BRANCH   3   4
ATOM      4  N   UNL     1      -7.229  -0.099   3.065  1.00  0.00    -0.352 N 
ATOM      5  C   UNL     1      -7.140   0.890   2.119  1.00  0.00     0.253 C 
ATOM      6  O   UNL     1      -7.935   1.823   2.272  1.00  0.00    -0.269 OA
ATOM      7  H   UNL     1      -7.961   0.060   3.703  1.00  0.00     0.163 HD
BRANCH   5   8
ATOM      8  C   UNL     1      -6.222   0.869   0.926  1.00  0.00     0.066 A 
ATOM      9  C   UNL     1      -4.317  -0.015  -0.288  1.00  0.00     0.128 A 
ATOM     10  C   UNL     1      -4.663   0.705  -1.423  1.00  0.00     0.052 A 
ATOM     11  C   UNL     1      -5.076   0.072   0.878  1.00  0.00     0.063 A 
ATOM     12  C   UNL     1      -5.717   1.622  -1.363  1.00  0.00    -0.024 A 
ATOM     13  C   UNL     1      -5.934   2.550  -2.529  1.00  0.00     0.047 C 
ATOM     14  C   UNL     1      -6.523   1.694  -0.200  1.00  0.00     0.048 A 
BRANCH   9  15
ATOM     15  O   UNL     1      -3.283  -0.904  -0.319  1.00  0.00    -0.457 OA
BRANCH  15  16
ATOM     16  C   UNL     1      -1.977  -0.492  -0.152  1.00  0.00     0.130 A 
ATOM     17  C   UNL     1      -2.257   2.059   0.221  1.00  0.00     0.048 C 
ATOM     18  C   UNL     1      -1.456   0.794   0.085  1.00  0.00    -0.007 A 
ATOM     19  C   UNL     1      -0.054   0.938   0.178  1.00  0.00     0.027 A 
ATOM     20  C   UNL     1       0.801  -0.158   0.080  1.00  0.00     0.041 A 
ATOM     21  C   UNL     1      -1.095  -1.588  -0.238  1.00  0.00     0.049 A 
ATOM     22  Cl  UNL     1       2.501   0.068   0.208  1.00  0.00    -0.084 Cl
ATOM     23  C   UNL     1       0.285  -1.428  -0.118  1.00  0.00     0.024 A 
ENDBRANCH  15  16
ENDBRANCH   9  15
BRANCH  14  24
ATOM     24  N   UNL     1      -7.527   2.661  -0.139  1.00  0.00    -0.398 N 
ATOM     25  H   UNL     1      -7.721   3.221  -0.925  1.00  0.00     0.156 HD
ATOM     26  H   UNL     1      -8.043   2.784   0.691  1.00  0.00     0.156 HD
ENDBRANCH  14  24
ENDBRANCH   5   8
ENDBRANCH   3   4
ENDBRANCH   2   3
ENDBRANCH   1   2
BRANCH   1  27
ATOM     27  C   UNL     1      -6.946  -2.482   6.220  1.00  0.00     0.002 C 
BRANCH  27  28
ATOM     28  C   UNL     1      -6.020  -3.697   6.126  1.00  0.00     0.021 C 
BRANCH  28  29
ATOM     29  C   UNL     1      -4.838  -3.651   7.088  1.00  0.00     0.116 C 
BRANCH  29  30
ATOM     30  N   UNL     1      -5.276  -3.702   8.474  1.00  0.00    -0.352 N 
ATOM     31  C   UNL     1      -4.947  -4.602   9.455  1.00  0.00     0.251 C 
ATOM     32  H   UNL     1      -5.897  -2.988   8.747  1.00  0.00     0.163 HD
ATOM     33  O   UNL     1      -5.590  -4.646  10.498  1.00  0.00    -0.269 OA
BRANCH  31  34
ATOM     34  C   UNL     1      -3.816  -5.529   9.247  1.00  0.00     0.039 A 
ATOM     35  C   UNL     1      -3.964  -6.871   9.604  1.00  0.00     0.014 A 
ATOM     36  C   UNL     1      -2.608  -5.069   8.715  1.00  0.00     0.014 A 
ATOM     37  C   UNL     1      -2.916  -7.764   9.380  1.00  0.00     0.010 A 
ATOM     38  C   UNL     1      -1.591  -5.973   8.425  1.00  0.00     0.010 A 
ATOM     39  C   UNL     1      -1.733  -7.327   8.761  1.00  0.00    -0.014 A 
BRANCH  39  40
ATOM     40  C   UNL     1      -0.634  -8.274   8.454  1.00  0.00     0.031 A 
ATOM     41  C   UNL     1       0.705  -8.126   9.120  1.00  0.00     0.074 A 
ATOM     42  C   UNL     1      -0.822  -9.227   7.521  1.00  0.00     0.049 A 
ATOM     43  N   UNL     1       1.796  -8.827   8.944  1.00  0.00    -0.248 NA
ATOM     44  C   UNL     1       0.845  -7.027  10.089  1.00  0.00     0.031 C 
ATOM     45  C   UNL     1      -2.060  -9.442   6.768  1.00  0.00     0.029 A 
ATOM     46  N   UNL     1       0.031 -10.187   7.040  1.00  0.00    -0.354 N 
ATOM     47  C   UNL     1       2.755  -8.243   9.762  1.00  0.00     0.074 A 
ATOM     48  C   UNL     1       2.132  -7.102  10.396  1.00  0.00     0.031 C 
ATOM     49  C   UNL     1      -1.892 -10.483   5.938  1.00  0.00     0.029 A 
ATOM     50  C   UNL     1      -0.528 -10.982   6.071  1.00  0.00     0.049 A 
ATOM     51  H   UNL     1       0.956 -10.295   7.360  1.00  0.00     0.167 HD
ATOM     52  C   UNL     1       4.035  -8.630   9.978  1.00  0.00     0.031 A 
ATOM     53  C   UNL     1       0.000 -11.997   5.361  1.00  0.00     0.031 A 
ATOM     54  C   UNL     1       4.650  -9.770   9.350  1.00  0.00     0.049 A 
ATOM     55  C   UNL     1       1.422 -12.410   5.617  1.00  0.00     0.074 A 
ATOM     56  C   UNL     1       5.916 -10.290   9.558  1.00  0.00     0.029 A 
ATOM     57  N   UNL     1       4.046 -10.559   8.384  1.00  0.00    -0.354 N 
ATOM     58  N   UNL     1       2.290 -11.902   6.457  1.00  0.00    -0.248 NA
ATOM     59  C   UNL     1       1.931 -13.545   4.835  1.00  0.00     0.031 C 
ATOM     60  C   UNL     1       6.099 -11.357   8.673  1.00  0.00     0.029 A 
ATOM     61  C   UNL     1       4.926 -11.542   7.959  1.00  0.00     0.049 A 
ATOM     62  H   UNL     1       3.128 -10.439   8.049  1.00  0.00     0.167 HD
ATOM     63  C   UNL     1       3.441 -12.667   6.322  1.00  0.00     0.074 A 
ATOM     64  C   UNL     1       3.152 -13.684   5.331  1.00  0.00     0.031 C 
ATOM     65  C   UNL     1       4.629 -12.539   6.962  1.00  0.00     0.031 A 
BRANCH  52  66
ATOM     66  C   UNL     1       4.859  -7.796  10.921  1.00  0.00    -0.014 A 
ATOM     67  C   UNL     1       4.584  -7.758  12.297  1.00  0.00     0.009 A 
ATOM     68  C   UNL     1       5.939  -7.048  10.425  1.00  0.00     0.009 A 
ATOM     69  C   UNL     1       5.342  -6.951  13.149  1.00  0.00     0.001 A 
ATOM     70  C   UNL     1       6.715  -6.268  11.284  1.00  0.00     0.001 A 
ATOM     71  C   UNL     1       6.409  -6.210  12.643  1.00  0.00     0.000 A 
ENDBRANCH  52  66
BRANCH  53  72
ATOM     72  C   UNL     1      -0.833 -12.698   4.351  1.00  0.00    -0.014 A 
ATOM     73  C   UNL     1      -1.294 -14.002   4.588  1.00  0.00     0.009 A 
ATOM     74  C   UNL     1      -1.192 -12.058   3.154  1.00  0.00     0.009 A 
ATOM     75  C   UNL     1      -2.084 -14.655   3.639  1.00  0.00     0.001 A 
ATOM     76  C   UNL     1      -2.005 -12.703   2.220  1.00  0.00     0.001 A 
ATOM     77  C   UNL     1      -2.444 -14.004   2.460  1.00  0.00     0.000 A 
ENDBRANCH  53  72
BRANCH  65  78
ATOM     78  C   UNL     1       5.701 -13.537   6.625  1.00  0.00    -0.014 A 
ATOM     79  C   UNL     1       6.367 -13.503   5.390  1.00  0.00     0.009 A 
ATOM     80  C   UNL     1       6.077 -14.500   7.574  1.00  0.00     0.009 A 
ATOM     81  C   UNL     1       7.366 -14.435   5.101  1.00  0.00     0.001 A 
ATOM     82  C   UNL     1       7.097 -15.411   7.294  1.00  0.00     0.001 A 
ATOM     83  C   UNL     1       7.734 -15.383   6.054  1.00  0.00     0.000 A 
ENDBRANCH  65  78
ENDBRANCH  39  40
ENDBRANCH  31  34
ENDBRANCH  29  30
ENDBRANCH  28  29
ENDBRANCH  27  28
ENDBRANCH   1  27
TORSDOF 16
