REMARK SMILES CCC[N@@H+]1CC2(CCN(C(=O)Cn3nnnc3C)CC2)C[C@H]1C(=O)NCCCCCCNC(=O)c1ccc(-c2c3nc(c(-c4ccccc4)c4ccc([nH]4)c(-c4ccccc4)c4nc(c(-c5ccccc5)c5ccc2[nH]5)C=C4)C=C3)cc1
REMARK SMILES IDX 28 1 27 2 26 3 25 4 23 5 24 6 22 8 4 9 5 10 6 12 21 13 7 14
REMARK SMILES IDX 20 15 8 16 19 17 9 18 10 19 11 20 3 21 2 22 1 23 12 24 13 25
REMARK SMILES IDX 14 26 17 27 15 28 16 29 18 30 29 31 30 32 31 33 32 34 33 35
REMARK SMILES IDX 34 37 35 38 36 39 82 40 37 41 81 42 38 43 39 44 40 45 75 46
REMARK SMILES IDX 41 47 80 48 74 49 76 50 42 51 79 52 73 53 72 54 43 56 65 57
REMARK SMILES IDX 50 58 64 59 51 60 54 61 63 62 77 63 52 64 53 65 62 67 78 68
REMARK SMILES IDX 55 69 44 70 45 71 49 72 46 73 48 74 47 75 66 76 67 77 71 78
REMARK SMILES IDX 68 79 70 80 69 81 56 82 57 83 61 84 58 85 60 86 59 87
REMARK H PARENT 25 7 4 11 32 36 76 55 54 66
REMARK Flexibility Score: inf
ROOT
ATOM      1  C   UNL     1       0.276   3.415  -6.506  1.00  0.00     0.002 C 
ENDROOT
BRANCH   1   2
ATOM      2  C   UNL     1       0.530   3.561  -5.003  1.00  0.00     0.021 C 
BRANCH   2   3
ATOM      3  C   UNL     1      -0.732   3.580  -4.151  1.00  0.00     0.116 C 
BRANCH   3   4
ATOM      4  N   UNL     1      -1.203   2.293  -3.721  1.00  0.00    -0.351 N 
ATOM      5  C   UNL     1      -1.392   1.727  -2.501  1.00  0.00     0.278 C 
ATOM      6  O   UNL     1      -1.988   0.637  -2.542  1.00  0.00    -0.268 OA
ATOM      7  H   UNL     1      -1.439   1.696  -4.468  1.00  0.00     0.163 HD
BRANCH   5   8
ATOM      8  C   UNL     1      -0.971   2.282  -1.101  1.00  0.00     0.274 C 
ATOM      9  N   UNL     1       0.457   2.655  -1.008  1.00  0.00    -0.324 N 
ATOM     10  C   UNL     1       0.494   4.136  -1.087  1.00  0.00     0.270 C 
ATOM     11  H   UNL     1       0.979   2.190  -1.751  1.00  0.00     0.348 HD
ATOM     12  C   UNL     1      -0.903   4.691  -0.660  1.00  0.00     0.029 C 
ATOM     13  C   UNL     1      -1.742   3.422  -0.443  1.00  0.00     0.088 C 
ATOM     14  C   UNL     1      -1.726   5.578  -1.618  1.00  0.00     0.034 C 
ATOM     15  C   UNL     1      -0.692   5.604   0.571  1.00  0.00     0.034 C 
ATOM     16  C   UNL     1      -0.949   6.779  -2.085  1.00  0.00     0.120 C 
ATOM     17  C   UNL     1       0.087   6.885   0.184  1.00  0.00     0.120 C 
ATOM     18  N   UNL     1      -0.443   7.597  -0.993  1.00  0.00    -0.341 N 
ATOM     19  C   UNL     1      -0.063   8.937  -1.155  1.00  0.00     0.244 C 
ATOM     20  O   UNL     1       0.708   9.475  -0.356  1.00  0.00    -0.273 OA
BRANCH   9  21
ATOM     21  C   UNL     1       1.074   2.242   0.286  1.00  0.00     0.262 C 
BRANCH  21  22
ATOM     22  C   UNL     1       0.826   0.830   0.844  1.00  0.00     0.058 C 
ATOM     23  C   UNL     1       1.228  -0.298  -0.088  1.00  0.00     0.010 C 
ENDBRANCH  21  22
ENDBRANCH   9  21
BRANCH  19  24
ATOM     24  C   UNL     1      -0.632   9.744  -2.306  1.00  0.00     0.248 C 
BRANCH  24  25
ATOM     25  N   UNL     1       0.349  10.150  -3.292  1.00  0.00    -0.220 N 
ATOM     26  N   UNL     1       0.316  11.418  -3.747  1.00  0.00    -0.044 NA
ATOM     27  C   UNL     1       1.200   9.419  -4.086  1.00  0.00     0.148 A 
ATOM     28  N   UNL     1       1.165  11.459  -4.761  1.00  0.00    -0.024 NA
ATOM     29  N   UNL     1       1.715  10.229  -4.988  1.00  0.00    -0.114 NA
ATOM     30  C   UNL     1       1.463   7.975  -4.006  1.00  0.00     0.091 C 
ENDBRANCH  24  25
ENDBRANCH  19  24
ENDBRANCH   5   8
ENDBRANCH   3   4
ENDBRANCH   2   3
ENDBRANCH   1   2
BRANCH   1  31
ATOM     31  C   UNL     1      -0.743   4.388  -7.134  1.00  0.00     0.002 C 
BRANCH  31  32
ATOM     32  C   UNL     1      -0.574   5.886  -6.831  1.00  0.00     0.021 C 
BRANCH  32  33
ATOM     33  C   UNL     1       0.677   6.504  -7.434  1.00  0.00     0.116 C 
BRANCH  33  34
ATOM     34  N   UNL     1       0.658   6.542  -8.904  1.00  0.00    -0.352 N 
ATOM     35  C   UNL     1       1.638   6.993  -9.787  1.00  0.00     0.251 C 
ATOM     36  H   UNL     1      -0.164   6.201  -9.324  1.00  0.00     0.163 HD
ATOM     37  O   UNL     1       1.364   7.308 -10.930  1.00  0.00    -0.269 OA
BRANCH  35  38
ATOM     38  C   UNL     1       3.034   7.046  -9.311  1.00  0.00     0.039 A 
ATOM     39  C   UNL     1       3.974   8.009  -9.691  1.00  0.00     0.014 A 
ATOM     40  C   UNL     1       3.368   6.095  -8.373  1.00  0.00     0.014 A 
ATOM     41  C   UNL     1       5.240   7.956  -9.099  1.00  0.00     0.010 A 
ATOM     42  C   UNL     1       4.345   6.414  -7.494  1.00  0.00     0.010 A 
ATOM     43  C   UNL     1       5.417   7.101  -8.006  1.00  0.00    -0.014 A 
BRANCH  43  44
ATOM     44  C   UNL     1       6.652   6.905  -7.269  1.00  0.00     0.031 A 
ATOM     45  C   UNL     1       7.129   8.129  -6.606  1.00  0.00     0.074 A 
ATOM     46  C   UNL     1       7.145   5.674  -6.985  1.00  0.00     0.049 A 
ATOM     47  N   UNL     1       8.103   8.881  -6.985  1.00  0.00    -0.248 NA
ATOM     48  C   UNL     1       6.323   8.684  -5.508  1.00  0.00     0.031 C 
ATOM     49  C   UNL     1       6.568   4.353  -7.299  1.00  0.00     0.029 A 
ATOM     50  N   UNL     1       8.244   5.339  -6.254  1.00  0.00    -0.354 N 
ATOM     51  C   UNL     1       8.184   9.884  -6.029  1.00  0.00     0.074 A 
ATOM     52  C   UNL     1       6.944   9.845  -5.296  1.00  0.00     0.031 C 
ATOM     53  C   UNL     1       7.205   3.388  -6.592  1.00  0.00     0.029 A 
ATOM     54  C   UNL     1       8.341   3.990  -5.922  1.00  0.00     0.049 A 
ATOM     55  H   UNL     1       8.919   6.001  -5.981  1.00  0.00     0.167 HD
ATOM     56  C   UNL     1       9.386  10.438  -5.711  1.00  0.00     0.031 A 
ATOM     57  C   UNL     1       9.304   3.411  -5.164  1.00  0.00     0.031 A 
ATOM     58  C   UNL     1      10.408  10.018  -6.640  1.00  0.00     0.049 A 
ATOM     59  C   UNL     1      10.471   4.317  -5.196  1.00  0.00     0.074 A 
ATOM     60  C   UNL     1      10.692  10.234  -7.971  1.00  0.00     0.029 A 
ATOM     61  N   UNL     1      11.068   8.873  -6.265  1.00  0.00    -0.354 N 
ATOM     62  N   UNL     1      11.143   4.567  -6.283  1.00  0.00    -0.248 NA
ATOM     63  C   UNL     1      10.651   5.277  -4.117  1.00  0.00     0.031 C 
ATOM     64  C   UNL     1      11.269   9.014  -8.439  1.00  0.00     0.029 A 
ATOM     65  C   UNL     1      11.374   8.123  -7.369  1.00  0.00     0.049 A 
ATOM     66  H   UNL     1      11.289   8.628  -5.337  1.00  0.00     0.167 HD
ATOM     67  C   UNL     1      11.457   5.912  -6.195  1.00  0.00     0.074 A 
ATOM     68  C   UNL     1      11.285   6.247  -4.784  1.00  0.00     0.031 C 
ATOM     69  C   UNL     1      11.535   6.683  -7.320  1.00  0.00     0.031 A 
BRANCH  56  70
ATOM     70  C   UNL     1       9.753  10.900  -4.322  1.00  0.00    -0.014 A 
ATOM     71  C   UNL     1      11.011  11.497  -4.131  1.00  0.00     0.009 A 
ATOM     72  C   UNL     1       9.055  10.514  -3.162  1.00  0.00     0.009 A 
ATOM     73  C   UNL     1      11.566  11.638  -2.853  1.00  0.00     0.001 A 
ATOM     74  C   UNL     1       9.589  10.685  -1.882  1.00  0.00     0.001 A 
ATOM     75  C   UNL     1      10.857  11.224  -1.730  1.00  0.00     0.000 A 
ENDBRANCH  56  70
BRANCH  57  76
ATOM     76  C   UNL     1       9.222   2.273  -4.224  1.00  0.00    -0.014 A 
ATOM     77  C   UNL     1      10.362   1.531  -3.870  1.00  0.00     0.009 A 
ATOM     78  C   UNL     1       8.069   2.117  -3.434  1.00  0.00     0.009 A 
ATOM     79  C   UNL     1      10.358   0.699  -2.740  1.00  0.00     0.001 A 
ATOM     80  C   UNL     1       8.068   1.292  -2.302  1.00  0.00     0.001 A 
ATOM     81  C   UNL     1       9.218   0.595  -1.946  1.00  0.00     0.000 A 
ENDBRANCH  57  76
BRANCH  69  82
ATOM     82  C   UNL     1      11.604   5.959  -8.643  1.00  0.00    -0.014 A 
ATOM     83  C   UNL     1      10.534   5.223  -9.184  1.00  0.00     0.009 A 
ATOM     84  C   UNL     1      12.760   6.117  -9.418  1.00  0.00     0.009 A 
ATOM     85  C   UNL     1      10.632   4.645 -10.456  1.00  0.00     0.001 A 
ATOM     86  C   UNL     1      12.851   5.556 -10.693  1.00  0.00     0.001 A 
ATOM     87  C   UNL     1      11.790   4.817 -11.210  1.00  0.00     0.000 A 
ENDBRANCH  69  82
ENDBRANCH  43  44
ENDBRANCH  35  38
ENDBRANCH  33  34
ENDBRANCH  32  33
ENDBRANCH  31  32
ENDBRANCH   1  31
TORSDOF 17
