REMARK SMILES CN(CC(N)=O)S(=O)(=O)c1ccc(C(=O)NCCCCCCNC(=O)c2ccc(-c3c4nc(c(-c5ccccc5)c5ccc([nH]5)c(-c5ccccc5)c5nc(c(-c6ccccc6)c6ccc3[nH]6)C=C5)C=C4)cc2)cc1Br
REMARK SMILES IDX 18 1 17 2 16 3 14 4 15 5 13 7 10 8 11 9 75 10 12 11 74 12
REMARK SMILES IDX 76 13 7 14 8 15 9 16 2 17 1 18 3 19 4 20 5 21 6 22 19 25
REMARK SMILES IDX 20 26 21 27 22 28 23 29 24 30 25 32 26 33 27 34 73 35 28 36
REMARK SMILES IDX 72 37 29 38 30 39 31 40 66 41 32 42 71 43 65 44 67 45 33 46
REMARK SMILES IDX 70 47 64 48 63 49 34 51 56 52 41 53 55 54 42 55 45 56 54 57
REMARK SMILES IDX 68 58 43 59 44 60 53 62 69 63 46 64 35 65 36 66 40 67 37 68
REMARK SMILES IDX 39 69 38 70 57 71 58 72 62 73 59 74 61 75 60 76 47 77 48 78
REMARK SMILES IDX 52 79 49 80 51 81 50 82
REMARK H PARENT 16 6 5 23 5 24 23 31 67 50 45 61
REMARK Flexibility Score: inf
ROOT
ATOM      1  C   UNL     1      -4.318  -7.982  -1.825  1.00  0.00     0.021 C 
ENDROOT
BRANCH   1   2
ATOM      2  C   UNL     1      -3.233  -7.519  -0.862  1.00  0.00     0.116 C 
BRANCH   2   3
ATOM      3  N   UNL     1      -2.077  -8.394  -0.721  1.00  0.00    -0.352 N 
ATOM      4  C   UNL     1      -0.738  -8.090  -0.521  1.00  0.00     0.251 C 
ATOM      5  O   UNL     1       0.081  -9.003  -0.445  1.00  0.00    -0.269 OA
ATOM      6  H   UNL     1      -2.278  -9.356  -0.777  1.00  0.00     0.163 HD
BRANCH   4   7
ATOM      7  C   UNL     1      -0.255  -6.678  -0.474  1.00  0.00     0.041 A 
ATOM      8  C   UNL     1       0.379  -3.972  -0.964  1.00  0.00     0.096 A 
ATOM      9  C   UNL     1       1.327  -4.991  -1.203  1.00  0.00     0.024 A 
ATOM     10  C   UNL     1      -0.863  -4.345  -0.459  1.00  0.00     0.038 A 
ATOM     11  C   UNL     1       0.985  -6.342  -1.022  1.00  0.00     0.015 A 
ATOM     12  C   UNL     1      -1.074  -5.654  -0.021  1.00  0.00     0.031 A 
ATOM     13  Br  UNL     1      -2.514  -3.438  -0.726  1.00  0.00    -0.049 Br
BRANCH   8  14
ATOM     14  S   UNL     1       0.794  -2.323  -1.505  1.00  0.00     0.244 S 
ATOM     15  O   UNL     1      -0.141  -2.001  -2.569  1.00  0.00    -0.207 OA
ATOM     16  O   UNL     1       2.218  -2.347  -1.777  1.00  0.00    -0.207 OA
BRANCH  14  17
ATOM     17  N   UNL     1       0.575  -1.257  -0.184  1.00  0.00    -0.192 NA
ATOM     18  C   UNL     1       1.612  -0.189  -0.096  1.00  0.00     0.125 C 
BRANCH  17  19
ATOM     19  C   UNL     1      -0.765  -0.665   0.076  1.00  0.00     0.201 C 
BRANCH  19  20
ATOM     20  C   UNL     1      -1.342   0.242  -1.004  1.00  0.00     0.232 C 
ATOM     21  N   UNL     1      -2.115  -0.341  -1.961  1.00  0.00    -0.369 N 
ATOM     22  O   UNL     1      -1.140   1.453  -1.025  1.00  0.00    -0.274 OA
ATOM     23  H   UNL     1      -2.275  -1.312  -1.941  1.00  0.00     0.159 HD
ATOM     24  H   UNL     1      -2.514   0.209  -2.674  1.00  0.00     0.159 HD
ENDBRANCH  19  20
ENDBRANCH  17  19
ENDBRANCH  14  17
ENDBRANCH   8  14
ENDBRANCH   4   7
ENDBRANCH   2   3
ENDBRANCH   1   2
BRANCH   1  25
ATOM     25  C   UNL     1      -5.154  -9.181  -1.389  1.00  0.00     0.002 C 
BRANCH  25  26
ATOM     26  C   UNL     1      -5.850  -9.074  -0.029  1.00  0.00     0.002 C 
BRANCH  26  27
ATOM     27  C   UNL     1      -6.716  -7.833   0.211  1.00  0.00     0.021 C 
BRANCH  27  28
ATOM     28  C   UNL     1      -7.814  -7.568  -0.817  1.00  0.00     0.116 C 
BRANCH  28  29
ATOM     29  N   UNL     1      -8.769  -8.658  -0.917  1.00  0.00    -0.352 N 
ATOM     30  C   UNL     1     -10.139  -8.645  -0.824  1.00  0.00     0.251 C 
ATOM     31  H   UNL     1      -8.372  -9.544  -1.076  1.00  0.00     0.163 HD
ATOM     32  O   UNL     1     -10.757  -9.706  -0.789  1.00  0.00    -0.269 OA
BRANCH  30  33
ATOM     33  C   UNL     1     -10.881  -7.367  -0.745  1.00  0.00     0.039 A 
ATOM     34  C   UNL     1     -11.937  -7.260   0.165  1.00  0.00     0.014 A 
ATOM     35  C   UNL     1     -10.572  -6.291  -1.582  1.00  0.00     0.014 A 
ATOM     36  C   UNL     1     -12.641  -6.058   0.280  1.00  0.00     0.010 A 
ATOM     37  C   UNL     1     -11.232  -5.073  -1.422  1.00  0.00     0.010 A 
ATOM     38  C   UNL     1     -12.273  -4.944  -0.491  1.00  0.00    -0.014 A 
BRANCH  38  39
ATOM     39  C   UNL     1     -12.962  -3.637  -0.331  1.00  0.00     0.031 A 
ATOM     40  C   UNL     1     -13.764  -3.055  -1.463  1.00  0.00     0.074 A 
ATOM     41  C   UNL     1     -12.816  -2.943   0.815  1.00  0.00     0.049 A 
ATOM     42  N   UNL     1     -14.384  -1.903  -1.529  1.00  0.00    -0.248 NA
ATOM     43  C   UNL     1     -13.865  -3.862  -2.689  1.00  0.00     0.031 C 
ATOM     44  C   UNL     1     -12.038  -3.378   1.977  1.00  0.00     0.029 A 
ATOM     45  N   UNL     1     -13.311  -1.718   1.187  1.00  0.00    -0.354 N 
ATOM     46  C   UNL     1     -14.931  -1.840  -2.805  1.00  0.00     0.074 A 
ATOM     47  C   UNL     1     -14.533  -3.049  -3.494  1.00  0.00     0.031 C 
ATOM     48  C   UNL     1     -12.128  -2.446   2.940  1.00  0.00     0.029 A 
ATOM     49  C   UNL     1     -12.934  -1.333   2.451  1.00  0.00     0.049 A 
ATOM     50  H   UNL     1     -13.882  -1.167   0.604  1.00  0.00     0.167 HD
ATOM     51  C   UNL     1     -15.708  -0.874  -3.349  1.00  0.00     0.031 A 
ATOM     52  C   UNL     1     -13.201  -0.206   3.139  1.00  0.00     0.031 A 
ATOM     53  C   UNL     1     -16.114   0.324  -2.662  1.00  0.00     0.049 A 
ATOM     54  C   UNL     1     -14.053   0.859   2.507  1.00  0.00     0.074 A 
ATOM     55  C   UNL     1     -16.945   1.336  -3.111  1.00  0.00     0.029 A 
ATOM     56  N   UNL     1     -15.715   0.672  -1.381  1.00  0.00    -0.354 N 
ATOM     57  N   UNL     1     -14.615   0.872   1.323  1.00  0.00    -0.248 NA
ATOM     58  C   UNL     1     -14.317   2.059   3.313  1.00  0.00     0.031 C 
ATOM     59  C   UNL     1     -17.010   2.320  -2.120  1.00  0.00     0.029 A 
ATOM     60  C   UNL     1     -16.265   1.895  -1.032  1.00  0.00     0.049 A 
ATOM     61  H   UNL     1     -15.129   0.131  -0.804  1.00  0.00     0.167 HD
ATOM     62  C   UNL     1     -15.322   2.065   1.252  1.00  0.00     0.074 A 
ATOM     63  C   UNL     1     -15.130   2.742   2.518  1.00  0.00     0.031 C 
ATOM     64  C   UNL     1     -16.065   2.556   0.231  1.00  0.00     0.031 A 
BRANCH  51  65
ATOM     65  C   UNL     1     -16.167  -1.070  -4.768  1.00  0.00    -0.014 A 
ATOM     66  C   UNL     1     -17.119  -2.049  -5.096  1.00  0.00     0.009 A 
ATOM     67  C   UNL     1     -15.670  -0.239  -5.784  1.00  0.00     0.009 A 
ATOM     68  C   UNL     1     -17.535  -2.216  -6.419  1.00  0.00     0.001 A 
ATOM     69  C   UNL     1     -16.109  -0.390  -7.101  1.00  0.00     0.001 A 
ATOM     70  C   UNL     1     -17.033  -1.384  -7.419  1.00  0.00     0.000 A 
ENDBRANCH  51  65
BRANCH  52  71
ATOM     71  C   UNL     1     -12.666  -0.029   4.514  1.00  0.00    -0.014 A 
ATOM     72  C   UNL     1     -13.526  -0.067   5.622  1.00  0.00     0.009 A 
ATOM     73  C   UNL     1     -11.296   0.187   4.726  1.00  0.00     0.009 A 
ATOM     74  C   UNL     1     -13.029   0.135   6.912  1.00  0.00     0.001 A 
ATOM     75  C   UNL     1     -10.797   0.359   6.020  1.00  0.00     0.001 A 
ATOM     76  C   UNL     1     -11.665   0.343   7.110  1.00  0.00     0.000 A 
ENDBRANCH  52  71
BRANCH  64  77
ATOM     77  C   UNL     1     -16.757   3.871   0.454  1.00  0.00    -0.014 A 
ATOM     78  C   UNL     1     -16.040   5.077   0.486  1.00  0.00     0.009 A 
ATOM     79  C   UNL     1     -18.153   3.905   0.594  1.00  0.00     0.009 A 
ATOM     80  C   UNL     1     -16.706   6.288   0.687  1.00  0.00     0.001 A 
ATOM     81  C   UNL     1     -18.819   5.119   0.766  1.00  0.00     0.001 A 
ATOM     82  C   UNL     1     -18.093   6.309   0.821  1.00  0.00     0.000 A 
ENDBRANCH  64  77
ENDBRANCH  38  39
ENDBRANCH  30  33
ENDBRANCH  28  29
ENDBRANCH  27  28
ENDBRANCH  26  27
ENDBRANCH  25  26
ENDBRANCH   1  25
TORSDOF 17
