REMARK SMILES CC[NH2+][C@]1(C(=O)NCCCCCCNC(=O)c2ccc(-c3c4nc(c(-c5ccccc5)c5ccc([nH]5)c(-c5ccccc5)c5nc(c(-c6ccccc6)c6ccc3[nH]6)C=C5)C=C4)cc2)CCC[C@H]1CC[N@H+]1CCC[C@@H](CC)C1
REMARK SMILES IDX 9 1 8 2 7 3 5 4 6 5 4 7 65 8 68 9 66 10 67 11 3 12 2 15 1 16
REMARK SMILES IDX 69 17 70 18 71 19 72 20 78 21 73 23 75 24 74 25 76 26 77 27
REMARK SMILES IDX 10 28 11 29 12 30 13 31 14 32 15 33 16 35 17 36 18 37 64 38
REMARK SMILES IDX 19 39 63 40 20 41 21 42 22 43 57 44 23 45 62 46 56 47 58 48
REMARK SMILES IDX 24 49 61 50 55 51 54 52 25 54 47 55 32 56 46 57 33 58 36 59
REMARK SMILES IDX 45 60 59 61 34 62 35 63 44 65 60 66 37 67 26 68 27 69 31 70
REMARK SMILES IDX 28 71 30 72 29 73 48 74 49 75 53 76 50 77 52 78 51 79 38 80
REMARK SMILES IDX 39 81 43 82 40 83 42 84 41 85
REMARK H PARENT 7 6 3 13 3 14 71 22 14 34 58 53 36 64
REMARK Flexibility Score: inf
ROOT
ATOM      1  C   UNL     1       4.206  -0.858  -1.643  1.00  0.00     0.021 C 
ENDROOT
BRANCH   1   2
ATOM      2  C   UNL     1       2.700  -1.175  -1.531  1.00  0.00     0.116 C 
BRANCH   2   3
ATOM      3  N   UNL     1       1.929   0.035  -1.274  1.00  0.00    -0.351 N 
ATOM      4  C   UNL     1       1.262   1.059  -1.814  1.00  0.00     0.281 C 
ATOM      5  O   UNL     1       0.949   1.834  -0.877  1.00  0.00    -0.268 OA
ATOM      6  H   UNL     1       1.879   0.142  -0.297  1.00  0.00     0.163 HD
BRANCH   4   7
ATOM      7  C   UNL     1       0.701   1.434  -3.260  1.00  0.00     0.178 C 
ATOM      8  C   UNL     1       0.867   2.991  -3.268  1.00  0.00     0.079 C 
ATOM      9  C   UNL     1       1.163   1.120  -4.734  1.00  0.00     0.066 C 
ATOM     10  C   UNL     1       0.415   3.499  -4.612  1.00  0.00     0.008 C 
ATOM     11  C   UNL     1       0.693   2.360  -5.572  1.00  0.00     0.011 C 
BRANCH   7  12
ATOM     12  N   UNL     1      -0.738   1.010  -3.329  1.00  0.00    -0.334 N 
ATOM     13  H   UNL     1      -1.083   1.276  -4.251  1.00  0.00     0.347 HD
ATOM     14  H   UNL     1      -0.707   0.012  -3.123  1.00  0.00     0.347 HD
BRANCH  12  15
ATOM     15  C   UNL     1      -1.679   1.536  -2.354  1.00  0.00     0.257 C 
ATOM     16  C   UNL     1      -3.087   1.167  -2.813  1.00  0.00     0.071 C 
ENDBRANCH  12  15
ENDBRANCH   7  12
BRANCH   9  17
ATOM     17  C   UNL     1       2.628   0.850  -5.090  1.00  0.00     0.072 C 
BRANCH  17  18
ATOM     18  C   UNL     1       3.018  -0.608  -4.883  1.00  0.00     0.262 C 
BRANCH  18  19
ATOM     19  N   UNL     1       2.353  -1.665  -5.679  1.00  0.00    -0.335 N 
ATOM     20  C   UNL     1       3.053  -1.829  -6.964  1.00  0.00     0.262 C 
ATOM     21  C   UNL     1       2.312  -2.923  -4.891  1.00  0.00     0.265 C 
ATOM     22  H   UNL     1       1.390  -1.403  -5.889  1.00  0.00     0.348 HD
ATOM     23  C   UNL     1       2.611  -3.065  -7.748  1.00  0.00     0.062 C 
ATOM     24  C   UNL     1       1.911  -4.193  -5.656  1.00  0.00     0.044 C 
ATOM     25  C   UNL     1       2.776  -4.327  -6.908  1.00  0.00     0.015 C 
BRANCH  24  26
ATOM     26  C   UNL     1       1.919  -5.477  -4.793  1.00  0.00     0.006 C 
ATOM     27  C   UNL     1       3.232  -5.879  -4.136  1.00  0.00     0.004 C 
ENDBRANCH  24  26
ENDBRANCH  18  19
ENDBRANCH  17  18
ENDBRANCH   9  17
ENDBRANCH   4   7
ENDBRANCH   2   3
ENDBRANCH   1   2
BRANCH   1  28
ATOM     28  C   UNL     1       5.158  -2.010  -1.276  1.00  0.00     0.002 C 
BRANCH  28  29
ATOM     29  C   UNL     1       5.091  -3.249  -2.166  1.00  0.00     0.002 C 
BRANCH  29  30
ATOM     30  C   UNL     1       5.726  -3.104  -3.553  1.00  0.00     0.021 C 
BRANCH  30  31
ATOM     31  C   UNL     1       7.249  -3.113  -3.608  1.00  0.00     0.116 C 
BRANCH  31  32
ATOM     32  N   UNL     1       7.822  -4.385  -3.193  1.00  0.00    -0.352 N 
ATOM     33  C   UNL     1       8.425  -5.406  -3.881  1.00  0.00     0.251 C 
ATOM     34  H   UNL     1       7.766  -4.543  -2.223  1.00  0.00     0.163 HD
ATOM     35  O   UNL     1       8.662  -6.456  -3.271  1.00  0.00    -0.269 OA
BRANCH  33  36
ATOM     36  C   UNL     1       8.798  -5.318  -5.315  1.00  0.00     0.039 A 
ATOM     37  C   UNL     1       8.823  -6.499  -6.074  1.00  0.00     0.014 A 
ATOM     38  C   UNL     1       9.221  -4.131  -5.912  1.00  0.00     0.014 A 
ATOM     39  C   UNL     1       9.227  -6.480  -7.415  1.00  0.00     0.010 A 
ATOM     40  C   UNL     1       9.526  -4.093  -7.274  1.00  0.00     0.010 A 
ATOM     41  C   UNL     1       9.560  -5.270  -8.037  1.00  0.00    -0.014 A 
BRANCH  41  42
ATOM     42  C   UNL     1      10.014  -5.201  -9.454  1.00  0.00     0.031 A 
ATOM     43  C   UNL     1      11.386  -4.658  -9.772  1.00  0.00     0.074 A 
ATOM     44  C   UNL     1       9.184  -5.544 -10.458  1.00  0.00     0.049 A 
ATOM     45  N   UNL     1      11.909  -4.350 -10.932  1.00  0.00    -0.248 NA
ATOM     46  C   UNL     1      12.271  -4.390  -8.627  1.00  0.00     0.031 C 
ATOM     47  C   UNL     1       7.826  -6.066 -10.300  1.00  0.00     0.029 A 
ATOM     48  N   UNL     1       9.359  -5.483 -11.820  1.00  0.00    -0.354 N 
ATOM     49  C   UNL     1      13.162  -3.815 -10.651  1.00  0.00     0.074 A 
ATOM     50  C   UNL     1      13.301  -3.797  -9.212  1.00  0.00     0.031 C 
ATOM     51  C   UNL     1       7.296  -6.290 -11.514  1.00  0.00     0.029 A 
ATOM     52  C   UNL     1       8.256  -5.883 -12.536  1.00  0.00     0.049 A 
ATOM     53  H   UNL     1      10.195  -5.181 -12.243  1.00  0.00     0.167 HD
ATOM     54  C   UNL     1      14.120  -3.393 -11.511  1.00  0.00     0.031 A 
ATOM     55  C   UNL     1       8.033  -5.902 -13.864  1.00  0.00     0.031 A 
ATOM     56  C   UNL     1      14.001  -3.445 -12.943  1.00  0.00     0.049 A 
ATOM     57  C   UNL     1       9.114  -5.437 -14.801  1.00  0.00     0.074 A 
ATOM     58  C   UNL     1      14.935  -3.090 -13.900  1.00  0.00     0.029 A 
ATOM     59  N   UNL     1      12.880  -3.896 -13.622  1.00  0.00    -0.354 N 
ATOM     60  N   UNL     1      10.303  -4.963 -14.519  1.00  0.00    -0.248 NA
ATOM     61  C   UNL     1       8.825  -5.519 -16.240  1.00  0.00     0.031 C 
ATOM     62  C   UNL     1      14.365  -3.291 -15.161  1.00  0.00     0.029 A 
ATOM     63  C   UNL     1      13.096  -3.819 -14.987  1.00  0.00     0.049 A 
ATOM     64  H   UNL     1      12.054  -4.221 -13.197  1.00  0.00     0.167 HD
ATOM     65  C   UNL     1      10.915  -4.722 -15.743  1.00  0.00     0.074 A 
ATOM     66  C   UNL     1       9.970  -5.111 -16.769  1.00  0.00     0.031 C 
ATOM     67  C   UNL     1      12.150  -4.225 -15.994  1.00  0.00     0.031 A 
BRANCH  54  68
ATOM     68  C   UNL     1      15.386  -2.834 -10.918  1.00  0.00    -0.014 A 
ATOM     69  C   UNL     1      16.302  -3.658 -10.245  1.00  0.00     0.009 A 
ATOM     70  C   UNL     1      15.680  -1.468 -11.058  1.00  0.00     0.009 A 
ATOM     71  C   UNL     1      17.462  -3.119  -9.685  1.00  0.00     0.001 A 
ATOM     72  C   UNL     1      16.857  -0.937 -10.526  1.00  0.00     0.001 A 
ATOM     73  C   UNL     1      17.741  -1.760  -9.830  1.00  0.00     0.000 A 
ENDBRANCH  54  68
BRANCH  55  74
ATOM     74  C   UNL     1       6.731  -6.388 -14.393  1.00  0.00    -0.014 A 
ATOM     75  C   UNL     1       6.650  -7.614 -15.070  1.00  0.00     0.009 A 
ATOM     76  C   UNL     1       5.562  -5.627 -14.228  1.00  0.00     0.009 A 
ATOM     77  C   UNL     1       5.433  -8.056 -15.594  1.00  0.00     0.001 A 
ATOM     78  C   UNL     1       4.341  -6.085 -14.727  1.00  0.00     0.001 A 
ATOM     79  C   UNL     1       4.279  -7.295 -15.418  1.00  0.00     0.000 A 
ENDBRANCH  55  74
BRANCH  67  80
ATOM     80  C   UNL     1      12.576  -4.121 -17.430  1.00  0.00    -0.014 A 
ATOM     81  C   UNL     1      12.059  -3.128 -18.276  1.00  0.00     0.009 A 
ATOM     82  C   UNL     1      13.556  -4.996 -17.925  1.00  0.00     0.009 A 
ATOM     83  C   UNL     1      12.498  -3.030 -19.598  1.00  0.00     0.001 A 
ATOM     84  C   UNL     1      14.012  -4.879 -19.238  1.00  0.00     0.001 A 
ATOM     85  C   UNL     1      13.478  -3.901 -20.075  1.00  0.00     0.000 A 
ENDBRANCH  67  80
ENDBRANCH  41  42
ENDBRANCH  33  36
ENDBRANCH  31  32
ENDBRANCH  30  31
ENDBRANCH  29  30
ENDBRANCH  28  29
ENDBRANCH   1  28
TORSDOF 19
