REMARK SMILES CC1(C)[C@@H](C(=O)NCCCCCCNC(=O)c2ccc(-c3c4nc(c(-c5ccccc5)c5ccc([nH]5)c(-c5ccccc5)c5nc(c(-c6ccccc6)c6ccc3[nH]6)C=C5)C=C4)cc2)[C@@H]1C(=O)N1CC[NH+](CCO)CC1
REMARK SMILES IDX 9 1 8 2 7 3 5 4 6 5 4 7 1 8 2 9 3 10 65 11 66 12 67 13 68 14
REMARK SMILES IDX 69 15 76 16 70 17 75 18 71 19 72 21 73 22 74 23 10 25 11 26
REMARK SMILES IDX 12 27 13 28 14 29 15 30 16 32 17 33 18 34 64 35 19 36 63 37
REMARK SMILES IDX 20 38 21 39 22 40 57 41 23 42 62 43 56 44 58 45 24 46 61 47
REMARK SMILES IDX 55 48 54 49 25 51 47 52 32 53 46 54 33 55 36 56 45 57 59 58
REMARK SMILES IDX 34 59 35 60 44 62 60 63 37 64 26 65 27 66 31 67 28 68 30 69
REMARK SMILES IDX 29 70 48 71 49 72 53 73 50 74 52 75 51 76 38 77 39 78 43 79
REMARK SMILES IDX 40 80 42 81 41 82
REMARK H PARENT 7 6 71 20 74 24 14 31 58 50 36 61
REMARK Flexibility Score: inf
ROOT
ATOM      1  C   UNL     1      -4.715  -1.762  -0.647  1.00  0.00     0.021 C 
ENDROOT
BRANCH   1   2
ATOM      2  C   UNL     1      -3.312  -2.101  -0.152  1.00  0.00     0.116 C 
BRANCH   2   3
ATOM      3  N   UNL     1      -2.359  -2.151  -1.231  1.00  0.00    -0.356 N 
ATOM      4  C   UNL     1      -1.346  -1.292  -1.546  1.00  0.00     0.224 C 
ATOM      5  O   UNL     1      -0.693  -1.492  -2.567  1.00  0.00    -0.275 OA
ATOM      6  H   UNL     1      -2.454  -2.922  -1.835  1.00  0.00     0.163 HD
BRANCH   4   7
ATOM      7  C   UNL     1      -1.042  -0.100  -0.714  1.00  0.00     0.098 C 
ATOM      8  C   UNL     1       1.208  -1.290  -0.022  1.00  0.00     0.013 C 
ATOM      9  C   UNL     1       0.350  -0.047  -0.080  1.00  0.00    -0.011 C 
ATOM     10  C   UNL     1       1.156   1.214  -0.294  1.00  0.00     0.013 C 
ATOM     11  C   UNL     1      -0.901  -0.027   0.798  1.00  0.00     0.098 C 
BRANCH  11  12
ATOM     12  C   UNL     1      -1.165   1.234   1.559  1.00  0.00     0.227 C 
ATOM     13  O   UNL     1      -0.361   1.595   2.409  1.00  0.00    -0.275 OA
ATOM     14  N   UNL     1      -2.224   2.007   1.133  1.00  0.00    -0.331 N 
ATOM     15  C   UNL     1      -2.094   3.453   1.136  1.00  0.00     0.181 C 
ATOM     16  C   UNL     1      -3.598   1.538   1.105  1.00  0.00     0.181 C 
ATOM     17  C   UNL     1      -2.874   4.071  -0.044  1.00  0.00     0.284 C 
ATOM     18  C   UNL     1      -4.377   2.127  -0.082  1.00  0.00     0.284 C 
ATOM     19  N   UNL     1      -4.244   3.577  -0.278  1.00  0.00    -0.330 N 
ATOM     20  H   UNL     1      -4.396   3.715  -1.277  1.00  0.00     0.348 HD
BRANCH  19  21
ATOM     21  C   UNL     1      -5.321   4.396   0.283  1.00  0.00     0.290 C 
BRANCH  21  22
ATOM     22  C   UNL     1      -5.526   4.428   1.804  1.00  0.00     0.217 C 
BRANCH  22  23
ATOM     23  O   UNL     1      -4.454   5.070   2.481  1.00  0.00    -0.391 OA
ATOM     24  H   UNL     1      -3.631   4.583   2.318  1.00  0.00     0.210 HD
ENDBRANCH  22  23
ENDBRANCH  21  22
ENDBRANCH  19  21
ENDBRANCH  11  12
ENDBRANCH   4   7
ENDBRANCH   2   3
ENDBRANCH   1   2
BRANCH   1  25
ATOM     25  C   UNL     1      -5.454  -2.945  -1.282  1.00  0.00     0.002 C 
BRANCH  25  26
ATOM     26  C   UNL     1      -5.618  -4.174  -0.380  1.00  0.00     0.002 C 
BRANCH  26  27
ATOM     27  C   UNL     1      -6.226  -3.904   1.001  1.00  0.00     0.021 C 
BRANCH  27  28
ATOM     28  C   UNL     1      -7.617  -3.276   0.982  1.00  0.00     0.116 C 
BRANCH  28  29
ATOM     29  N   UNL     1      -8.595  -4.134   0.337  1.00  0.00    -0.352 N 
ATOM     30  C   UNL     1      -9.797  -4.602   0.802  1.00  0.00     0.251 C 
ATOM     31  H   UNL     1      -8.359  -4.423  -0.574  1.00  0.00     0.163 HD
ATOM     32  O   UNL     1     -10.395  -5.474   0.178  1.00  0.00    -0.269 OA
BRANCH  30  33
ATOM     33  C   UNL     1     -10.377  -4.073   2.055  1.00  0.00     0.039 A 
ATOM     34  C   UNL     1     -10.961  -4.970   2.954  1.00  0.00     0.014 A 
ATOM     35  C   UNL     1     -10.399  -2.700   2.323  1.00  0.00     0.014 A 
ATOM     36  C   UNL     1     -11.527  -4.499   4.140  1.00  0.00     0.010 A 
ATOM     37  C   UNL     1     -10.915  -2.236   3.532  1.00  0.00     0.010 A 
ATOM     38  C   UNL     1     -11.491  -3.130   4.447  1.00  0.00    -0.014 A 
BRANCH  38  39
ATOM     39  C   UNL     1     -12.065  -2.616   5.716  1.00  0.00     0.031 A 
ATOM     40  C   UNL     1     -13.285  -1.738   5.696  1.00  0.00     0.074 A 
ATOM     41  C   UNL     1     -11.457  -2.898   6.884  1.00  0.00     0.049 A 
ATOM     42  N   UNL     1     -13.898  -1.155   6.695  1.00  0.00    -0.248 NA
ATOM     43  C   UNL     1     -13.881  -1.461   4.380  1.00  0.00     0.031 C 
ATOM     44  C   UNL     1     -10.247  -3.708   7.038  1.00  0.00     0.029 A 
ATOM     45  N   UNL     1     -11.774  -2.525   8.166  1.00  0.00    -0.354 N 
ATOM     46  C   UNL     1     -14.937  -0.427   6.128  1.00  0.00     0.074 A 
ATOM     47  C   UNL     1     -14.849  -0.612   4.695  1.00  0.00     0.031 C 
ATOM     48  C   UNL     1      -9.936  -3.787   8.342  1.00  0.00     0.029 A 
ATOM     49  C   UNL     1     -10.904  -3.011   9.111  1.00  0.00     0.049 A 
ATOM     50  H   UNL     1     -12.550  -1.961   8.387  1.00  0.00     0.167 HD
ATOM     51  C   UNL     1     -15.887   0.316   6.743  1.00  0.00     0.031 A 
ATOM     52  C   UNL     1     -10.888  -2.851  10.447  1.00  0.00     0.031 A 
ATOM     53  C   UNL     1     -15.991   0.486   8.167  1.00  0.00     0.049 A 
ATOM     54  C   UNL     1     -11.962  -2.034  11.106  1.00  0.00     0.074 A 
ATOM     55  C   UNL     1     -16.952   1.176   8.886  1.00  0.00     0.029 A 
ATOM     56  N   UNL     1     -15.104  -0.044   9.090  1.00  0.00    -0.354 N 
ATOM     57  N   UNL     1     -12.969  -1.398  10.559  1.00  0.00    -0.248 NA
ATOM     58  C   UNL     1     -11.903  -1.925  12.571  1.00  0.00     0.031 C 
ATOM     59  C   UNL     1     -16.627   1.091  10.244  1.00  0.00     0.029 A 
ATOM     60  C   UNL     1     -15.487   0.314  10.372  1.00  0.00     0.049 A 
ATOM     61  H   UNL     1     -14.318  -0.594   8.868  1.00  0.00     0.167 HD
ATOM     62  C   UNL     1     -13.677  -0.836  11.612  1.00  0.00     0.074 A 
ATOM     63  C   UNL     1     -12.992  -1.215  12.831  1.00  0.00     0.031 C 
ATOM     64  C   UNL     1     -14.796  -0.073  11.573  1.00  0.00     0.031 A 
BRANCH  51  65
ATOM     65  C   UNL     1     -16.892   1.011   5.868  1.00  0.00    -0.014 A 
ATOM     66  C   UNL     1     -17.903   0.291   5.213  1.00  0.00     0.009 A 
ATOM     67  C   UNL     1     -16.846   2.406   5.723  1.00  0.00     0.009 A 
ATOM     68  C   UNL     1     -18.829   0.952   4.403  1.00  0.00     0.001 A 
ATOM     69  C   UNL     1     -17.788   3.066   4.932  1.00  0.00     0.001 A 
ATOM     70  C   UNL     1     -18.773   2.338   4.266  1.00  0.00     0.000 A 
ENDBRANCH  51  65
BRANCH  52  71
ATOM     71  C   UNL     1      -9.827  -3.499  11.258  1.00  0.00    -0.014 A 
ATOM     72  C   UNL     1     -10.125  -4.617  12.051  1.00  0.00     0.009 A 
ATOM     73  C   UNL     1      -8.515  -3.001  11.247  1.00  0.00     0.009 A 
ATOM     74  C   UNL     1      -9.134  -5.211  12.836  1.00  0.00     0.001 A 
ATOM     75  C   UNL     1      -7.521  -3.612  12.015  1.00  0.00     0.001 A 
ATOM     76  C   UNL     1      -7.833  -4.710  12.815  1.00  0.00     0.000 A 
ENDBRANCH  52  71
BRANCH  64  77
ATOM     77  C   UNL     1     -15.367   0.370  12.888  1.00  0.00    -0.014 A 
ATOM     78  C   UNL     1     -14.762   1.392  13.635  1.00  0.00     0.009 A 
ATOM     79  C   UNL     1     -16.544  -0.223  13.370  1.00  0.00     0.009 A 
ATOM     80  C   UNL     1     -15.309   1.790  14.856  1.00  0.00     0.001 A 
ATOM     81  C   UNL     1     -17.102   0.193  14.579  1.00  0.00     0.001 A 
ATOM     82  C   UNL     1     -16.479   1.193  15.325  1.00  0.00     0.000 A 
ENDBRANCH  64  77
ENDBRANCH  38  39
ENDBRANCH  30  33
ENDBRANCH  28  29
ENDBRANCH  27  28
ENDBRANCH  26  27
ENDBRANCH  25  26
ENDBRANCH   1  25
TORSDOF 17
