REMARK SMILES CC(C)C[C@H](CNC(=O)NC[C@H]1CCC(=O)N1)C(=O)NCCCCCCNC(=O)c1ccc(-c2c3nc(c(-c4ccccc4)c4ccc([nH]4)c(-c4ccccc4)c4nc(c(-c5ccccc5)c5ccc2[nH]5)C=C4)C=C3)cc1
REMARK SMILES IDX 22 1 21 2 20 3 18 4 19 5 5 7 4 8 2 9 1 10 3 11 6 12 7 13
REMARK SMILES IDX 8 14 9 16 10 17 11 19 12 20 13 21 17 22 14 23 15 24 16 26
REMARK SMILES IDX 23 27 24 28 25 29 26 30 27 31 28 32 29 34 30 35 31 36 77 37
REMARK SMILES IDX 32 38 76 39 33 40 34 41 35 42 70 43 36 44 75 45 69 46 71 47
REMARK SMILES IDX 37 48 74 49 68 50 67 51 38 53 60 54 45 55 59 56 46 57 49 58
REMARK SMILES IDX 58 59 72 60 47 61 48 62 57 64 73 65 50 66 39 67 40 68 44 69
REMARK SMILES IDX 41 70 43 71 42 72 61 73 62 74 66 75 63 76 65 77 64 78 51 79
REMARK SMILES IDX 52 80 56 81 53 82 55 83 54 84
REMARK H PARENT 20 6 7 15 10 18 17 25 27 33 71 52 49 63
REMARK Flexibility Score: inf
ROOT
ATOM      1  C   UNL     1      -6.590   4.554   9.108  1.00  0.00     0.021 C 
ENDROOT
BRANCH   1   2
ATOM      2  C   UNL     1      -5.495   4.183   8.117  1.00  0.00     0.116 C 
BRANCH   2   3
ATOM      3  N   UNL     1      -4.749   3.019   8.540  1.00  0.00    -0.356 N 
ATOM      4  C   UNL     1      -4.433   1.870   7.890  1.00  0.00     0.224 C 
ATOM      5  O   UNL     1      -3.738   1.059   8.514  1.00  0.00    -0.275 OA
ATOM      6  H   UNL     1      -4.410   3.069   9.463  1.00  0.00     0.163 HD
BRANCH   4   7
ATOM      7  C   UNL     1      -4.904   1.519   6.469  1.00  0.00     0.098 C 
BRANCH   7   8
ATOM      8  C   UNL     1      -4.599   2.604   5.399  1.00  0.00     0.018 C 
BRANCH   8   9
ATOM      9  C   UNL     1      -5.614   2.938   4.275  1.00  0.00    -0.017 C 
ATOM     10  C   UNL     1      -6.881   3.678   4.707  1.00  0.00     0.007 C 
ATOM     11  C   UNL     1      -4.920   3.843   3.243  1.00  0.00     0.007 C 
ENDBRANCH   8   9
ENDBRANCH   7   8
BRANCH   7  12
ATOM     12  C   UNL     1      -6.258   0.798   6.414  1.00  0.00     0.131 C 
BRANCH  12  13
ATOM     13  N   UNL     1      -6.578  -0.003   7.583  1.00  0.00    -0.337 N 
ATOM     14  C   UNL     1      -7.751  -0.212   8.205  1.00  0.00     0.314 C 
ATOM     15  H   UNL     1      -5.809  -0.469   7.986  1.00  0.00     0.165 HD
ATOM     16  O   UNL     1      -7.923  -1.258   8.831  1.00  0.00    -0.249 OA
ATOM     17  N   UNL     1      -8.759   0.679   8.170  1.00  0.00    -0.336 N 
ATOM     18  H   UNL     1      -9.662   0.290   8.199  1.00  0.00     0.165 HD
BRANCH  17  19
ATOM     19  C   UNL     1      -8.714   2.128   8.096  1.00  0.00     0.142 C 
BRANCH  19  20
ATOM     20  C   UNL     1      -9.881   2.729   7.291  1.00  0.00     0.101 C 
ATOM     21  C   UNL     1     -11.141   2.881   8.145  1.00  0.00     0.036 C 
ATOM     22  N   UNL     1      -9.638   4.093   6.881  1.00  0.00    -0.352 N 
ATOM     23  C   UNL     1     -11.015   4.281   8.748  1.00  0.00     0.102 C 
ATOM     24  C   UNL     1     -10.291   5.022   7.659  1.00  0.00     0.220 C 
ATOM     25  H   UNL     1      -9.062   4.334   6.119  1.00  0.00     0.163 HD
ATOM     26  O   UNL     1     -10.232   6.226   7.508  1.00  0.00    -0.275 OA
ENDBRANCH  19  20
ENDBRANCH  17  19
ENDBRANCH  12  13
ENDBRANCH   7  12
ENDBRANCH   4   7
ENDBRANCH   2   3
ENDBRANCH   1   2
BRANCH   1  27
ATOM     27  C   UNL     1      -6.182   5.468  10.260  1.00  0.00     0.002 C 
BRANCH  27  28
ATOM     28  C   UNL     1      -5.822   6.905   9.878  1.00  0.00     0.002 C 
BRANCH  28  29
ATOM     29  C   UNL     1      -6.837   7.651   9.008  1.00  0.00     0.021 C 
BRANCH  29  30
ATOM     30  C   UNL     1      -8.282   7.632   9.499  1.00  0.00     0.116 C 
BRANCH  30  31
ATOM     31  N   UNL     1      -8.462   8.282  10.784  1.00  0.00    -0.352 N 
ATOM     32  C   UNL     1      -9.311   9.308  11.119  1.00  0.00     0.251 C 
ATOM     33  H   UNL     1      -7.899   7.940  11.516  1.00  0.00     0.163 HD
ATOM     34  O   UNL     1      -9.261   9.815  12.236  1.00  0.00    -0.269 OA
BRANCH  32  35
ATOM     35  C   UNL     1     -10.270   9.830  10.121  1.00  0.00     0.039 A 
ATOM     36  C   UNL     1     -10.316  11.207   9.890  1.00  0.00     0.014 A 
ATOM     37  C   UNL     1     -11.116   8.972   9.413  1.00  0.00     0.014 A 
ATOM     38  C   UNL     1     -11.173  11.719   8.912  1.00  0.00     0.010 A 
ATOM     39  C   UNL     1     -11.922   9.477   8.394  1.00  0.00     0.010 A 
ATOM     40  C   UNL     1     -11.964  10.856   8.136  1.00  0.00    -0.014 A 
BRANCH  40  41
ATOM     41  C   UNL     1     -12.849  11.382   7.062  1.00  0.00     0.031 A 
ATOM     42  C   UNL     1     -14.344  11.245   7.182  1.00  0.00     0.074 A 
ATOM     43  C   UNL     1     -12.312  11.942   5.960  1.00  0.00     0.049 A 
ATOM     44  N   UNL     1     -15.276  11.596   6.330  1.00  0.00    -0.248 NA
ATOM     45  C   UNL     1     -14.860  10.620   8.411  1.00  0.00     0.031 C 
ATOM     46  C   UNL     1     -10.881  12.117   5.706  1.00  0.00     0.029 A 
ATOM     47  N   UNL     1     -12.912  12.465   4.839  1.00  0.00    -0.354 N 
ATOM     48  C   UNL     1     -16.480  11.218   6.912  1.00  0.00     0.074 A 
ATOM     49  C   UNL     1     -16.162  10.577   8.168  1.00  0.00     0.031 C 
ATOM     50  C   UNL     1     -10.715  12.723   4.519  1.00  0.00     0.029 A 
ATOM     51  C   UNL     1     -12.021  12.939   3.905  1.00  0.00     0.049 A 
ATOM     52  H   UNL     1     -13.889  12.498   4.717  1.00  0.00     0.167 HD
ATOM     53  C   UNL     1     -17.739  11.402   6.449  1.00  0.00     0.031 A 
ATOM     54  C   UNL     1     -12.232  13.472   2.686  1.00  0.00     0.031 A 
ATOM     55  C   UNL     1     -18.060  12.051   5.206  1.00  0.00     0.049 A 
ATOM     56  C   UNL     1     -13.643  13.630   2.183  1.00  0.00     0.074 A 
ATOM     57  C   UNL     1     -19.310  12.332   4.682  1.00  0.00     0.029 A 
ATOM     58  N   UNL     1     -17.128  12.514   4.292  1.00  0.00    -0.354 N 
ATOM     59  N   UNL     1     -14.772  13.334   2.779  1.00  0.00    -0.248 NA
ATOM     60  C   UNL     1     -13.807  14.206   0.839  1.00  0.00     0.031 C 
ATOM     61  C   UNL     1     -19.136  12.908   3.421  1.00  0.00     0.029 A 
ATOM     62  C   UNL     1     -17.777  13.052   3.193  1.00  0.00     0.049 A 
ATOM     63  H   UNL     1     -16.152  12.468   4.406  1.00  0.00     0.167 HD
ATOM     64  C   UNL     1     -15.777  13.728   1.903  1.00  0.00     0.074 A 
ATOM     65  C   UNL     1     -15.126  14.293   0.742  1.00  0.00     0.031 C 
ATOM     66  C   UNL     1     -17.120  13.632   2.051  1.00  0.00     0.031 A 
BRANCH  53  67
ATOM     67  C   UNL     1     -18.878  10.887   7.284  1.00  0.00    -0.014 A 
ATOM     68  C   UNL     1     -19.235  11.505   8.492  1.00  0.00     0.009 A 
ATOM     69  C   UNL     1     -19.656   9.816   6.813  1.00  0.00     0.009 A 
ATOM     70  C   UNL     1     -20.334  11.046   9.223  1.00  0.00     0.001 A 
ATOM     71  C   UNL     1     -20.770   9.380   7.530  1.00  0.00     0.001 A 
ATOM     72  C   UNL     1     -21.105   9.991   8.737  1.00  0.00     0.000 A 
ENDBRANCH  53  67
BRANCH  54  73
ATOM     73  C   UNL     1     -11.085  13.892   1.834  1.00  0.00    -0.014 A 
ATOM     74  C   UNL     1     -10.888  15.245   1.513  1.00  0.00     0.009 A 
ATOM     75  C   UNL     1     -10.212  12.936   1.291  1.00  0.00     0.009 A 
ATOM     76  C   UNL     1      -9.874  15.625   0.630  1.00  0.00     0.001 A 
ATOM     77  C   UNL     1      -9.176  13.322   0.438  1.00  0.00     0.001 A 
ATOM     78  C   UNL     1      -9.018  14.664   0.095  1.00  0.00     0.000 A 
ENDBRANCH  54  73
BRANCH  66  79
ATOM     79  C   UNL     1     -17.985  14.207   0.964  1.00  0.00    -0.014 A 
ATOM     80  C   UNL     1     -18.091  13.595  -0.294  1.00  0.00     0.009 A 
ATOM     81  C   UNL     1     -18.755  15.351   1.231  1.00  0.00     0.009 A 
ATOM     82  C   UNL     1     -18.927  14.137  -1.273  1.00  0.00     0.001 A 
ATOM     83  C   UNL     1     -19.615  15.870   0.263  1.00  0.00     0.001 A 
ATOM     84  C   UNL     1     -19.694  15.268  -0.991  1.00  0.00     0.000 A 
ENDBRANCH  66  79
ENDBRANCH  40  41
ENDBRANCH  32  35
ENDBRANCH  30  31
ENDBRANCH  29  30
ENDBRANCH  28  29
ENDBRANCH  27  28
ENDBRANCH   1  27
TORSDOF 19
