REMARK SMILES C/C(=N\Nc1ccccc1C(=O)NCCCCCCNC(=O)c1ccc(-c2c3nc(c(-c4ccccc4)c4ccc([nH]4)c(-c4ccccc4)c4nc(c(-c5ccccc5)c5ccc2[nH]5)C=C4)C=C3)cc1)c1ccc(S(C)(=O)=O)cc1
REMARK SMILES IDX 15 1 14 2 13 3 11 4 12 5 10 7 5 8 6 9 7 10 9 11 8 12 4 13
REMARK SMILES IDX 3 15 1 16 2 17 71 18 72 19 80 20 73 21 79 22 74 23 75 24
REMARK SMILES IDX 76 25 77 26 78 27 16 28 17 29 18 30 19 31 20 32 21 33 22 35
REMARK SMILES IDX 23 36 24 37 70 38 25 39 69 40 26 41 27 42 28 43 63 44 29 45
REMARK SMILES IDX 68 46 62 47 64 48 30 49 67 50 61 51 60 52 31 54 53 55 38 56
REMARK SMILES IDX 52 57 39 58 42 59 51 60 65 61 40 62 41 63 50 65 66 66 43 67
REMARK SMILES IDX 32 68 33 69 37 70 34 71 36 72 35 73 54 74 55 75 59 76 56 77
REMARK SMILES IDX 58 78 57 79 44 80 45 81 49 82 46 83 48 84 47 85
REMARK H PARENT 13 6 4 14 20 34 64 53 42 64
REMARK Flexibility Score: inf
ROOT
ATOM      1  C   UNL     1      -3.539  -0.284   2.514  1.00  0.00     0.021 C 
ENDROOT
BRANCH   1   2
ATOM      2  C   UNL     1      -2.225   0.233   1.934  1.00  0.00     0.116 C 
BRANCH   2   3
ATOM      3  N   UNL     1      -1.959  -0.252   0.596  1.00  0.00    -0.352 N 
ATOM      4  C   UNL     1      -1.093   0.240  -0.351  1.00  0.00     0.253 C 
ATOM      5  O   UNL     1      -0.970  -0.380  -1.409  1.00  0.00    -0.269 OA
ATOM      6  H   UNL     1      -2.471  -1.048   0.326  1.00  0.00     0.163 HD
BRANCH   4   7
ATOM      7  C   UNL     1      -0.392   1.544  -0.197  1.00  0.00     0.064 A 
ATOM      8  C   UNL     1       0.355   1.951   0.922  1.00  0.00     0.069 A 
ATOM      9  C   UNL     1       0.867   3.269   0.933  1.00  0.00     0.028 A 
ATOM     10  C   UNL     1       0.752   4.114  -0.172  1.00  0.00     0.002 A 
ATOM     11  C   UNL     1      -0.471   2.393  -1.321  1.00  0.00     0.016 A 
ATOM     12  C   UNL     1       0.113   3.661  -1.316  1.00  0.00     0.001 A 
BRANCH   8  13
ATOM     13  N   UNL     1       0.833   1.121   1.958  1.00  0.00    -0.277 N 
ATOM     14  H   UNL     1       1.112   1.565   2.791  1.00  0.00     0.190 HD
BRANCH  13  15
ATOM     15  N   UNL     1       0.943  -0.223   1.918  1.00  0.00    -0.180 NA
ATOM     16  C   UNL     1       2.451  -0.120  -0.097  1.00  0.00     0.069 C 
ATOM     17  C   UNL     1       1.692  -0.802   1.022  1.00  0.00     0.065 C 
BRANCH  17  18
ATOM     18  C   UNL     1       1.804  -2.284   1.088  1.00  0.00    -0.002 A 
ATOM     19  C   UNL     1       0.644  -3.057   1.195  1.00  0.00     0.011 A 
ATOM     20  C   UNL     1       3.061  -2.896   1.086  1.00  0.00     0.011 A 
ATOM     21  C   UNL     1       0.733  -4.446   1.296  1.00  0.00     0.021 A 
ATOM     22  C   UNL     1       3.156  -4.285   1.175  1.00  0.00     0.021 A 
ATOM     23  C   UNL     1       1.992  -5.052   1.290  1.00  0.00     0.067 A 
BRANCH  23  24
ATOM     24  S   UNL     1       2.111  -6.824   1.354  1.00  0.00     0.175 S 
ATOM     25  C   UNL     1       1.848  -7.203   3.066  1.00  0.00     0.163 C 
ATOM     26  O   UNL     1       1.000  -7.357   0.592  1.00  0.00    -0.224 OA
ATOM     27  O   UNL     1       3.480  -7.181   1.028  1.00  0.00    -0.224 OA
ENDBRANCH  23  24
ENDBRANCH  17  18
ENDBRANCH  13  15
ENDBRANCH   8  13
ENDBRANCH   4   7
ENDBRANCH   2   3
ENDBRANCH   1   2
BRANCH   1  28
ATOM     28  C   UNL     1      -3.634  -1.804   2.706  1.00  0.00     0.002 C 
BRANCH  28  29
ATOM     29  C   UNL     1      -2.518  -2.477   3.510  1.00  0.00     0.002 C 
BRANCH  29  30
ATOM     30  C   UNL     1      -2.211  -1.901   4.890  1.00  0.00     0.021 C 
BRANCH  30  31
ATOM     31  C   UNL     1      -3.405  -1.734   5.817  1.00  0.00     0.116 C 
BRANCH  31  32
ATOM     32  N   UNL     1      -4.146  -2.966   6.023  1.00  0.00    -0.352 N 
ATOM     33  C   UNL     1      -4.651  -3.504   7.178  1.00  0.00     0.251 C 
ATOM     34  H   UNL     1      -4.311  -3.494   5.209  1.00  0.00     0.163 HD
ATOM     35  O   UNL     1      -5.156  -4.623   7.160  1.00  0.00    -0.269 OA
BRANCH  33  36
ATOM     36  C   UNL     1      -4.564  -2.760   8.455  1.00  0.00     0.039 A 
ATOM     37  C   UNL     1      -4.254  -3.471   9.618  1.00  0.00     0.014 A 
ATOM     38  C   UNL     1      -4.807  -1.385   8.523  1.00  0.00     0.014 A 
ATOM     39  C   UNL     1      -4.144  -2.797  10.836  1.00  0.00     0.010 A 
ATOM     40  C   UNL     1      -4.614  -0.702   9.720  1.00  0.00     0.010 A 
ATOM     41  C   UNL     1      -4.298  -1.403  10.893  1.00  0.00    -0.014 A 
BRANCH  41  42
ATOM     42  C   UNL     1      -4.158  -0.674  12.178  1.00  0.00     0.031 A 
ATOM     43  C   UNL     1      -5.338   0.045  12.772  1.00  0.00     0.074 A 
ATOM     44  C   UNL     1      -2.960  -0.633  12.793  1.00  0.00     0.049 A 
ATOM     45  N   UNL     1      -5.409   0.736  13.883  1.00  0.00    -0.248 NA
ATOM     46  C   UNL     1      -6.596   0.006  12.009  1.00  0.00     0.031 C 
ATOM     47  C   UNL     1      -1.730  -1.253  12.296  1.00  0.00     0.029 A 
ATOM     48  N   UNL     1      -2.583  -0.047  13.975  1.00  0.00    -0.354 N 
ATOM     49  C   UNL     1      -6.710   1.221  13.942  1.00  0.00     0.074 A 
ATOM     50  C   UNL     1      -7.376   0.797  12.730  1.00  0.00     0.031 C 
ATOM     51  C   UNL     1      -0.745  -1.047  13.185  1.00  0.00     0.029 A 
ATOM     52  C   UNL     1      -1.262  -0.252  14.293  1.00  0.00     0.049 A 
ATOM     53  H   UNL     1      -3.200   0.471  14.541  1.00  0.00     0.167 HD
ATOM     54  C   UNL     1      -7.306   1.935  14.926  1.00  0.00     0.031 A 
ATOM     55  C   UNL     1      -0.550   0.153  15.361  1.00  0.00     0.031 A 
ATOM     56  C   UNL     1      -6.646   2.347  16.136  1.00  0.00     0.049 A 
ATOM     57  C   UNL     1      -1.232   0.950  16.437  1.00  0.00     0.074 A 
ATOM     58  C   UNL     1      -7.177   3.023  17.221  1.00  0.00     0.029 A 
ATOM     59  N   UNL     1      -5.308   2.121  16.420  1.00  0.00    -0.354 N 
ATOM     60  N   UNL     1      -2.483   1.337  16.512  1.00  0.00    -0.248 NA
ATOM     61  C   UNL     1      -0.405   1.355  17.582  1.00  0.00     0.031 C 
ATOM     62  C   UNL     1      -6.146   3.254  18.137  1.00  0.00     0.029 A 
ATOM     63  C   UNL     1      -4.988   2.669  17.650  1.00  0.00     0.049 A 
ATOM     64  H   UNL     1      -4.679   1.642  15.833  1.00  0.00     0.167 HD
ATOM     65  C   UNL     1      -2.599   2.008  17.722  1.00  0.00     0.074 A 
ATOM     66  C   UNL     1      -1.298   1.956  18.357  1.00  0.00     0.031 C 
ATOM     67  C   UNL     1      -3.685   2.615  18.261  1.00  0.00     0.031 A 
BRANCH  54  68
ATOM     68  C   UNL     1      -8.746   2.321  14.726  1.00  0.00    -0.014 A 
ATOM     69  C   UNL     1      -9.769   1.359  14.749  1.00  0.00     0.009 A 
ATOM     70  C   UNL     1      -9.090   3.669  14.540  1.00  0.00     0.009 A 
ATOM     71  C   UNL     1     -11.100   1.733  14.549  1.00  0.00     0.001 A 
ATOM     72  C   UNL     1     -10.424   4.045  14.372  1.00  0.00     0.001 A 
ATOM     73  C   UNL     1     -11.426   3.076  14.366  1.00  0.00     0.000 A 
ENDBRANCH  54  68
BRANCH  55  74
ATOM     74  C   UNL     1       0.888  -0.206  15.477  1.00  0.00    -0.014 A 
ATOM     75  C   UNL     1       1.317  -1.128  16.445  1.00  0.00     0.009 A 
ATOM     76  C   UNL     1       1.841   0.375  14.626  1.00  0.00     0.009 A 
ATOM     77  C   UNL     1       2.673  -1.438  16.577  1.00  0.00     0.001 A 
ATOM     78  C   UNL     1       3.192   0.040  14.740  1.00  0.00     0.001 A 
ATOM     79  C   UNL     1       3.608  -0.857  15.722  1.00  0.00     0.000 A 
ENDBRANCH  55  74
BRANCH  67  80
ATOM     80  C   UNL     1      -3.513   3.248  19.613  1.00  0.00    -0.014 A 
ATOM     81  C   UNL     1      -2.764   4.423  19.779  1.00  0.00     0.009 A 
ATOM     82  C   UNL     1      -4.136   2.675  20.733  1.00  0.00     0.009 A 
ATOM     83  C   UNL     1      -2.609   4.989  21.046  1.00  0.00     0.001 A 
ATOM     84  C   UNL     1      -4.006   3.260  21.993  1.00  0.00     0.001 A 
ATOM     85  C   UNL     1      -3.233   4.410  22.150  1.00  0.00     0.000 A 
ENDBRANCH  67  80
ENDBRANCH  41  42
ENDBRANCH  33  36
ENDBRANCH  31  32
ENDBRANCH  30  31
ENDBRANCH  29  30
ENDBRANCH  28  29
ENDBRANCH   1  28
TORSDOF 17
