REMARK SMILES O=C(NCCCCCCNC(=O)[C@H]1[C@H]2CC[C@H](CC2)[C@@H]1C(=O)Nc1ccc(Cc2ccncc2)cc1)c1ccc(-c2c3nc(c(-c4ccccc4)c4ccc([nH]4)c(-c4ccccc4)c4nc(c(-c5ccccc5)c5ccc2[nH]5)C=C4)C=C3)cc1
REMARK SMILES IDX 7 1 6 2 5 3 4 4 3 5 1 6 2 7 37 9 38 10 84 11 39 12 83 13
REMARK SMILES IDX 40 14 41 15 42 16 77 17 43 18 82 19 76 20 78 21 44 22 81 23
REMARK SMILES IDX 75 24 74 25 45 27 67 28 52 29 66 30 53 31 56 32 65 33 79 34
REMARK SMILES IDX 54 35 55 36 64 38 80 39 57 40 46 41 47 42 51 43 48 44 50 45
REMARK SMILES IDX 49 46 68 47 69 48 73 49 70 50 72 51 71 52 58 53 59 54 63 55
REMARK SMILES IDX 60 56 62 57 61 58 8 59 9 60 10 61 11 62 12 64 13 65 14 66
REMARK SMILES IDX 20 67 15 68 19 69 17 70 16 71 18 72 21 73 22 74 23 75 24 77
REMARK SMILES IDX 25 78 36 79 26 80 35 81 27 82 28 83 29 84 30 85 34 86 31 87
REMARK SMILES IDX 33 88 32 89
REMARK H PARENT 3 8 78 26 56 37 10 63 23 76
REMARK Flexibility Score: inf
ROOT
ATOM      1  C   UNL     1       4.223   3.333  -3.180  1.00  0.00     0.002 C 
ENDROOT
BRANCH   1   2
ATOM      2  C   UNL     1       3.710   1.953  -3.603  1.00  0.00     0.002 C 
BRANCH   2   3
ATOM      3  C   UNL     1       4.292   0.758  -2.847  1.00  0.00     0.021 C 
BRANCH   3   4
ATOM      4  C   UNL     1       4.178   0.825  -1.331  1.00  0.00     0.116 C 
BRANCH   4   5
ATOM      5  N   UNL     1       2.804   0.797  -0.863  1.00  0.00    -0.352 N 
ATOM      6  O   UNL     1       1.006  -0.012   0.238  1.00  0.00    -0.269 OA
ATOM      7  C   UNL     1       2.220  -0.041   0.055  1.00  0.00     0.251 C 
ATOM      8  H   UNL     1       2.208   1.473  -1.259  1.00  0.00     0.163 HD
BRANCH   7   9
ATOM      9  C   UNL     1       3.056  -1.000   0.808  1.00  0.00     0.039 A 
ATOM     10  C   UNL     1       4.262  -0.593   1.384  1.00  0.00     0.014 A 
ATOM     11  C   UNL     1       2.623  -2.322   0.948  1.00  0.00     0.014 A 
ATOM     12  C   UNL     1       5.094  -1.533   1.978  1.00  0.00     0.010 A 
ATOM     13  C   UNL     1       3.421  -3.248   1.627  1.00  0.00     0.010 A 
ATOM     14  C   UNL     1       4.673  -2.866   2.128  1.00  0.00    -0.014 A 
BRANCH  14  15
ATOM     15  C   UNL     1       5.533  -3.800   2.897  1.00  0.00     0.031 A 
ATOM     16  C   UNL     1       6.192  -4.984   2.248  1.00  0.00     0.074 A 
ATOM     17  C   UNL     1       5.759  -3.526   4.197  1.00  0.00     0.049 A 
ATOM     18  N   UNL     1       7.044  -5.833   2.768  1.00  0.00    -0.248 NA
ATOM     19  C   UNL     1       5.857  -5.257   0.842  1.00  0.00     0.031 C 
ATOM     20  C   UNL     1       5.154  -2.416   4.940  1.00  0.00     0.029 A 
ATOM     21  N   UNL     1       6.581  -4.129   5.112  1.00  0.00    -0.354 N 
ATOM     22  C   UNL     1       7.335  -6.746   1.764  1.00  0.00     0.074 A 
ATOM     23  C   UNL     1       6.555  -6.361   0.607  1.00  0.00     0.031 C 
ATOM     24  C   UNL     1       5.677  -2.376   6.173  1.00  0.00     0.029 A 
ATOM     25  C   UNL     1       6.604  -3.490   6.328  1.00  0.00     0.049 A 
ATOM     26  H   UNL     1       7.104  -4.940   4.918  1.00  0.00     0.167 HD
ATOM     27  C   UNL     1       8.179  -7.805   1.803  1.00  0.00     0.031 A 
ATOM     28  C   UNL     1       7.290  -3.768   7.450  1.00  0.00     0.031 A 
ATOM     29  C   UNL     1       8.946  -8.193   2.959  1.00  0.00     0.049 A 
ATOM     30  C   UNL     1       8.214  -4.948   7.462  1.00  0.00     0.074 A 
ATOM     31  C   UNL     1       9.835  -9.247   3.092  1.00  0.00     0.029 A 
ATOM     32  N   UNL     1       8.914  -7.543   4.184  1.00  0.00    -0.354 N 
ATOM     33  N   UNL     1       8.498  -5.782   6.491  1.00  0.00    -0.248 NA
ATOM     34  C   UNL     1       8.913  -5.223   8.724  1.00  0.00     0.031 C 
ATOM     35  C   UNL     1      10.310  -9.258   4.408  1.00  0.00     0.029 A 
ATOM     36  C   UNL     1       9.755  -8.182   5.081  1.00  0.00     0.049 A 
ATOM     37  H   UNL     1       8.373  -6.746   4.386  1.00  0.00     0.167 HD
ATOM     38  C   UNL     1       9.407  -6.683   7.025  1.00  0.00     0.074 A 
ATOM     39  C   UNL     1       9.657  -6.269   8.391  1.00  0.00     0.031 C 
ATOM     40  C   UNL     1       9.975  -7.766   6.441  1.00  0.00     0.031 A 
BRANCH  27  41
ATOM     41  C   UNL     1       8.312  -8.636   0.557  1.00  0.00    -0.014 A 
ATOM     42  C   UNL     1       9.031  -8.165  -0.553  1.00  0.00     0.009 A 
ATOM     43  C   UNL     1       7.769  -9.930   0.516  1.00  0.00     0.009 A 
ATOM     44  C   UNL     1       9.187  -8.966  -1.687  1.00  0.00     0.001 A 
ATOM     45  C   UNL     1       7.944 -10.736  -0.611  1.00  0.00     0.001 A 
ATOM     46  C   UNL     1       8.648 -10.252  -1.713  1.00  0.00     0.000 A 
ENDBRANCH  27  41
BRANCH  28  47
ATOM     47  C   UNL     1       7.112  -2.920   8.656  1.00  0.00    -0.014 A 
ATOM     48  C   UNL     1       8.145  -2.083   9.105  1.00  0.00     0.009 A 
ATOM     49  C   UNL     1       5.896  -2.937   9.358  1.00  0.00     0.009 A 
ATOM     50  C   UNL     1       7.970  -1.297  10.246  1.00  0.00     0.001 A 
ATOM     51  C   UNL     1       5.713  -2.127  10.479  1.00  0.00     0.001 A 
ATOM     52  C   UNL     1       6.753  -1.315  10.928  1.00  0.00     0.000 A 
ENDBRANCH  28  47
BRANCH  40  53
ATOM     53  C   UNL     1      10.923  -8.564   7.288  1.00  0.00    -0.014 A 
ATOM     54  C   UNL     1      10.450  -9.380   8.328  1.00  0.00     0.009 A 
ATOM     55  C   UNL     1      12.303  -8.498   7.045  1.00  0.00     0.009 A 
ATOM     56  C   UNL     1      11.345 -10.080   9.137  1.00  0.00     0.001 A 
ATOM     57  C   UNL     1      13.194  -9.220   7.839  1.00  0.00     0.001 A 
ATOM     58  C   UNL     1      12.716 -10.001   8.891  1.00  0.00     0.000 A 
ENDBRANCH  40  53
ENDBRANCH  14  15
ENDBRANCH   7   9
ENDBRANCH   4   5
ENDBRANCH   3   4
ENDBRANCH   2   3
ENDBRANCH   1   2
BRANCH   1  59
ATOM     59  C   UNL     1       5.737   3.470  -3.017  1.00  0.00     0.021 C 
BRANCH  59  60
ATOM     60  C   UNL     1       6.564   3.087  -4.239  1.00  0.00     0.116 C 
BRANCH  60  61
ATOM     61  N   UNL     1       6.612   4.135  -5.230  1.00  0.00    -0.356 N 
ATOM     62  C   UNL     1       7.618   4.797  -5.846  1.00  0.00     0.224 C 
ATOM     63  H   UNL     1       5.719   4.432  -5.521  1.00  0.00     0.163 HD
ATOM     64  O   UNL     1       7.252   5.647  -6.670  1.00  0.00    -0.275 OA
BRANCH  62  65
ATOM     65  C   UNL     1       9.116   4.660  -5.544  1.00  0.00     0.094 C 
ATOM     66  C   UNL     1       9.573   5.695  -4.477  1.00  0.00     0.002 C 
ATOM     67  C   UNL     1       9.729   3.256  -5.255  1.00  0.00     0.094 C 
ATOM     68  C   UNL     1       9.176   5.242  -3.068  1.00  0.00     0.005 C 
ATOM     69  C   UNL     1      11.114   5.784  -4.529  1.00  0.00     0.005 C 
ATOM     70  C   UNL     1      10.618   3.386  -3.971  1.00  0.00     0.002 C 
ATOM     71  C   UNL     1       9.791   3.876  -2.767  1.00  0.00     0.005 C 
ATOM     72  C   UNL     1      11.732   4.418  -4.212  1.00  0.00     0.005 C 
BRANCH  67  73
ATOM     73  C   UNL     1      10.505   2.719  -6.483  1.00  0.00     0.228 C 
ATOM     74  O   UNL     1      10.527   3.318  -7.561  1.00  0.00    -0.274 OA
ATOM     75  N   UNL     1      11.229   1.559  -6.420  1.00  0.00    -0.326 N 
ATOM     76  H   UNL     1      11.719   1.323  -7.240  1.00  0.00     0.169 HD
BRANCH  75  77
ATOM     77  C   UNL     1      11.373   0.663  -5.360  1.00  0.00     0.041 A 
ATOM     78  C   UNL     1      12.671   0.394  -4.935  1.00  0.00     0.026 A 
ATOM     79  C   UNL     1      10.285   0.110  -4.683  1.00  0.00     0.026 A 
ATOM     80  C   UNL     1      12.876  -0.304  -3.748  1.00  0.00     0.006 A 
ATOM     81  C   UNL     1      10.496  -0.643  -3.524  1.00  0.00     0.006 A 
ATOM     82  C   UNL     1      11.793  -0.821  -3.020  1.00  0.00    -0.043 A 
BRANCH  82  83
ATOM     83  C   UNL     1      12.029  -1.534  -1.706  1.00  0.00     0.071 C 
BRANCH  83  84
ATOM     84  C   UNL     1      12.563  -2.938  -1.850  1.00  0.00    -0.041 A 
ATOM     85  C   UNL     1      13.891  -3.170  -2.224  1.00  0.00     0.024 A 
ATOM     86  C   UNL     1      11.744  -4.044  -1.612  1.00  0.00     0.024 A 
ATOM     87  C   UNL     1      14.329  -4.476  -2.371  1.00  0.00     0.111 A 
ATOM     88  C   UNL     1      12.281  -5.314  -1.767  1.00  0.00     0.111 A 
ATOM     89  N   UNL     1      13.552  -5.554  -2.151  1.00  0.00    -0.265 NA
ENDBRANCH  83  84
ENDBRANCH  82  83
ENDBRANCH  75  77
ENDBRANCH  67  73
ENDBRANCH  62  65
ENDBRANCH  60  61
ENDBRANCH  59  60
ENDBRANCH   1  59
TORSDOF 17
