REMARK SMILES O=C(NCCCCCCNC(=O)c1cc(-c2ccn(C(F)F)c(=O)c2)ccc1O)c1ccc(-c2c3nc(c(-c4ccccc4)c4ccc([nH]4)c(-c4ccccc4)c4nc(c(-c5ccccc5)c5ccc2[nH]5)C=C4)C=C3)cc1
REMARK SMILES IDX 6 1 5 2 4 3 3 4 1 5 2 6 30 8 31 9 77 10 32 11 76 12 33 13
REMARK SMILES IDX 34 14 35 15 70 16 36 17 75 18 69 19 71 20 37 21 74 22 68 23
REMARK SMILES IDX 67 24 38 26 60 27 45 28 59 29 46 30 49 31 58 32 72 33 47 34
REMARK SMILES IDX 48 35 57 37 73 38 50 39 39 40 40 41 44 42 41 43 43 44 42 45
REMARK SMILES IDX 61 46 62 47 66 48 63 49 65 50 64 51 51 52 52 53 56 54 53 55
REMARK SMILES IDX 55 56 54 57 7 58 8 59 9 60 10 61 11 62 12 64 13 65 14 66
REMARK SMILES IDX 28 67 15 68 27 69 26 70 29 71 16 73 17 74 25 75 18 76 23 77
REMARK SMILES IDX 19 78 24 79 20 80 21 81 22 82
REMARK H PARENT 3 7 71 25 49 36 10 63 29 72
REMARK Flexibility Score: inf
ROOT
ATOM      1  C   UNL     1       4.289   3.808   0.219  1.00  0.00     0.002 C 
ENDROOT
BRANCH   1   2
ATOM      2  C   UNL     1       4.776   2.554  -0.511  1.00  0.00     0.021 C 
BRANCH   2   3
ATOM      3  C   UNL     1       4.484   1.232   0.190  1.00  0.00     0.116 C 
BRANCH   3   4
ATOM      4  N   UNL     1       3.062   0.997   0.365  1.00  0.00    -0.352 N 
ATOM      5  O   UNL     1       1.093  -0.073   0.171  1.00  0.00    -0.269 OA
ATOM      6  C   UNL     1       2.321  -0.124   0.100  1.00  0.00     0.251 C 
ATOM      7  H   UNL     1       2.554   1.758   0.729  1.00  0.00     0.163 HD
BRANCH   6   8
ATOM      8  C   UNL     1       2.973  -1.397  -0.280  1.00  0.00     0.039 A 
ATOM      9  C   UNL     1       2.375  -2.182  -1.271  1.00  0.00     0.014 A 
ATOM     10  C   UNL     1       4.118  -1.859   0.377  1.00  0.00     0.014 A 
ATOM     11  C   UNL     1       2.928  -3.418  -1.613  1.00  0.00     0.010 A 
ATOM     12  C   UNL     1       4.705  -3.063  -0.007  1.00  0.00     0.010 A 
ATOM     13  C   UNL     1       4.099  -3.867  -0.985  1.00  0.00    -0.014 A 
BRANCH  13  14
ATOM     14  C   UNL     1       4.662  -5.206  -1.288  1.00  0.00     0.031 A 
ATOM     15  C   UNL     1       4.634  -6.282  -0.238  1.00  0.00     0.074 A 
ATOM     16  C   UNL     1       5.216  -5.452  -2.489  1.00  0.00     0.049 A 
ATOM     17  N   UNL     1       5.107  -7.502  -0.293  1.00  0.00    -0.248 NA
ATOM     18  C   UNL     1       4.011  -5.938   1.051  1.00  0.00     0.031 C 
ATOM     19  C   UNL     1       5.312  -4.491  -3.588  1.00  0.00     0.029 A 
ATOM     20  N   UNL     1       5.801  -6.590  -2.986  1.00  0.00    -0.354 N 
ATOM     21  C   UNL     1       4.854  -8.060   0.953  1.00  0.00     0.074 A 
ATOM     22  C   UNL     1       4.230  -7.035   1.760  1.00  0.00     0.031 C 
ATOM     23  C   UNL     1       5.891  -5.090  -4.642  1.00  0.00     0.029 A 
ATOM     24  C   UNL     1       6.240  -6.462  -4.281  1.00  0.00     0.049 A 
ATOM     25  H   UNL     1       5.896  -7.419  -2.464  1.00  0.00     0.167 HD
ATOM     26  C   UNL     1       5.101  -9.320   1.382  1.00  0.00     0.031 A 
ATOM     27  C   UNL     1       6.854  -7.348  -5.089  1.00  0.00     0.031 A 
ATOM     28  C   UNL     1       5.697 -10.347   0.572  1.00  0.00     0.049 A 
ATOM     29  C   UNL     1       7.138  -8.735  -4.587  1.00  0.00     0.074 A 
ATOM     30  C   UNL     1       5.932 -11.670   0.900  1.00  0.00     0.029 A 
ATOM     31  N   UNL     1       6.151 -10.166  -0.725  1.00  0.00    -0.354 N 
ATOM     32  N   UNL     1       6.857  -9.261  -3.419  1.00  0.00    -0.248 NA
ATOM     33  C   UNL     1       7.819  -9.653  -5.512  1.00  0.00     0.031 C 
ATOM     34  C   UNL     1       6.578 -12.277  -0.179  1.00  0.00     0.029 A 
ATOM     35  C   UNL     1       6.691 -11.348  -1.201  1.00  0.00     0.049 A 
ATOM     36  H   UNL     1       6.097  -9.324  -1.231  1.00  0.00     0.167 HD
ATOM     37  C   UNL     1       7.310 -10.573  -3.474  1.00  0.00     0.074 A 
ATOM     38  C   UNL     1       7.873 -10.768  -4.794  1.00  0.00     0.031 C 
ATOM     39  C   UNL     1       7.258 -11.528  -2.514  1.00  0.00     0.031 A 
BRANCH  26  40
ATOM     40  C   UNL     1       4.725  -9.663   2.796  1.00  0.00    -0.014 A 
ATOM     41  C   UNL     1       5.729  -9.926   3.741  1.00  0.00     0.009 A 
ATOM     42  C   UNL     1       3.381  -9.786   3.183  1.00  0.00     0.009 A 
ATOM     43  C   UNL     1       5.397 -10.305   5.043  1.00  0.00     0.001 A 
ATOM     44  C   UNL     1       3.051 -10.136   4.494  1.00  0.00     0.001 A 
ATOM     45  C   UNL     1       4.058 -10.402   5.420  1.00  0.00     0.000 A 
ENDBRANCH  26  40
BRANCH  27  46
ATOM     46  C   UNL     1       7.203  -6.943  -6.475  1.00  0.00    -0.014 A 
ATOM     47  C   UNL     1       8.241  -6.028  -6.715  1.00  0.00     0.009 A 
ATOM     48  C   UNL     1       6.453  -7.420  -7.561  1.00  0.00     0.009 A 
ATOM     49  C   UNL     1       8.504  -5.580  -8.011  1.00  0.00     0.001 A 
ATOM     50  C   UNL     1       6.734  -6.987  -8.859  1.00  0.00     0.001 A 
ATOM     51  C   UNL     1       7.752  -6.060  -9.082  1.00  0.00     0.000 A 
ENDBRANCH  27  46
BRANCH  39  52
ATOM     52  C   UNL     1       7.820 -12.883  -2.837  1.00  0.00    -0.014 A 
ATOM     53  C   UNL     1       6.954 -13.979  -2.986  1.00  0.00     0.009 A 
ATOM     54  C   UNL     1       9.205 -13.099  -2.877  1.00  0.00     0.009 A 
ATOM     55  C   UNL     1       7.464 -15.267  -3.148  1.00  0.00     0.001 A 
ATOM     56  C   UNL     1       9.712 -14.386  -3.066  1.00  0.00     0.001 A 
ATOM     57  C   UNL     1       8.842 -15.470  -3.191  1.00  0.00     0.000 A 
ENDBRANCH  39  52
ENDBRANCH  13  14
ENDBRANCH   6   8
ENDBRANCH   3   4
ENDBRANCH   2   3
ENDBRANCH   1   2
BRANCH   1  58
ATOM     58  C   UNL     1       4.775   3.971   1.662  1.00  0.00     0.002 C 
BRANCH  58  59
ATOM     59  C   UNL     1       6.292   3.903   1.865  1.00  0.00     0.021 C 
BRANCH  59  60
ATOM     60  C   UNL     1       7.111   4.873   1.018  1.00  0.00     0.116 C 
BRANCH  60  61
ATOM     61  N   UNL     1       6.810   6.260   1.318  1.00  0.00    -0.352 N 
ATOM     62  C   UNL     1       7.685   7.304   1.475  1.00  0.00     0.255 C 
ATOM     63  H   UNL     1       5.856   6.480   1.421  1.00  0.00     0.163 HD
ATOM     64  O   UNL     1       7.272   8.421   1.784  1.00  0.00    -0.269 OA
BRANCH  62  65
ATOM     65  C   UNL     1       9.139   7.080   1.356  1.00  0.00     0.082 A 
ATOM     66  C   UNL     1       9.928   7.379   2.476  1.00  0.00     0.026 A 
ATOM     67  C   UNL     1       9.738   6.625   0.175  1.00  0.00     0.128 A 
ATOM     68  C   UNL     1      11.312   7.176   2.433  1.00  0.00    -0.017 A 
ATOM     69  C   UNL     1      11.114   6.414   0.129  1.00  0.00     0.047 A 
ATOM     70  C   UNL     1      11.894   6.682   1.256  1.00  0.00     0.012 A 
BRANCH  67  71
ATOM     71  O   UNL     1       8.984   6.383  -0.939  1.00  0.00    -0.507 OA
ATOM     72  H   UNL     1       8.058   6.523  -0.917  1.00  0.00     0.293 HD
ENDBRANCH  67  71
BRANCH  68  73
ATOM     73  C   UNL     1      12.171   7.491   3.590  1.00  0.00    -0.011 A 
ATOM     74  C   UNL     1      13.217   8.494   3.525  1.00  0.00     0.027 A 
ATOM     75  C   UNL     1      12.006   6.795   4.729  1.00  0.00     0.080 A 
ATOM     76  C   UNL     1      14.029   8.701   4.567  1.00  0.00     0.095 A 
ATOM     77  C   UNL     1      12.896   7.023   5.902  1.00  0.00     0.255 A 
ATOM     78  N   UNL     1      13.886   7.977   5.736  1.00  0.00    -0.258 N 
ATOM     79  O   UNL     1      12.710   6.354   6.915  1.00  0.00    -0.269 OA
BRANCH  78  80
ATOM     80  C   UNL     1      14.790   8.184   6.838  1.00  0.00     0.451 C 
ATOM     81  F   UNL     1      14.124   8.560   7.957  1.00  0.00    -0.185 F 
ATOM     82  F   UNL     1      15.478   7.050   7.118  1.00  0.00    -0.185 F 
ENDBRANCH  78  80
ENDBRANCH  68  73
ENDBRANCH  62  65
ENDBRANCH  60  61
ENDBRANCH  59  60
ENDBRANCH  58  59
ENDBRANCH   1  58
TORSDOF 16
