REMARK SMILES Cc1n[nH]c(S[C@H]2CC[C@]([NH3+])(C(=O)NCCCCCCNC(=O)c3ccc(-c4c5nc(c(-c6ccccc6)c6ccc([nH]6)c(-c6ccccc6)c6nc(c(-c7ccccc7)c7ccc4[nH]7)C=C6)C=C5)cc3)C2)n1
REMARK SMILES IDX 17 1 16 2 15 3 14 4 12 5 13 6 10 8 7 9 8 10 72 11 9 12 6 13
REMARK SMILES IDX 5 14 1 15 2 16 3 17 73 18 4 19 11 21 18 25 19 26 20 27 21 28
REMARK SMILES IDX 22 29 23 31 24 32 25 33 71 34 26 35 70 36 27 37 28 38 29 39
REMARK SMILES IDX 64 40 30 41 69 42 63 43 65 44 31 45 68 46 62 47 61 48 32 50
REMARK SMILES IDX 54 51 39 52 53 53 40 54 43 55 52 56 66 57 41 58 42 59 51 61
REMARK SMILES IDX 67 62 44 63 33 64 34 65 38 66 35 67 37 68 36 69 55 70 56 71
REMARK SMILES IDX 60 72 57 73 59 74 58 75 45 76 46 77 50 78 47 79 49 80 48 81
REMARK H PARENT 14 7 4 20 11 22 11 23 11 24 21 30 65 49 43 60
REMARK Flexibility Score: inf
ROOT
ATOM      1  C   UNL     1       3.944  -7.061  -2.572  1.00  0.00     0.002 C 
ENDROOT
BRANCH   1   2
ATOM      2  C   UNL     1       2.990  -6.711  -1.426  1.00  0.00     0.021 C 
BRANCH   2   3
ATOM      3  C   UNL     1       1.523  -6.577  -1.818  1.00  0.00     0.116 C 
BRANCH   3   4
ATOM      4  N   UNL     1       0.975  -7.800  -2.367  1.00  0.00    -0.351 N 
ATOM      5  C   UNL     1      -0.230  -8.407  -2.187  1.00  0.00     0.281 C 
ATOM      6  O   UNL     1      -0.485  -9.352  -2.943  1.00  0.00    -0.268 OA
ATOM      7  H   UNL     1       1.581  -8.277  -2.978  1.00  0.00     0.163 HD
BRANCH   5   8
ATOM      8  C   UNL     1      -1.260  -7.933  -1.118  1.00  0.00     0.175 C 
ATOM      9  C   UNL     1      -2.126  -5.954   0.036  1.00  0.00     0.062 C 
ATOM     10  C   UNL     1      -1.152  -6.656   0.986  1.00  0.00     0.022 C 
ATOM     11  C   UNL     1      -1.748  -6.492  -1.350  1.00  0.00     0.094 C 
ATOM     12  C   UNL     1      -0.697  -7.950   0.311  1.00  0.00     0.080 C 
BRANCH   9  13
ATOM     13  S   UNL     1      -3.879  -6.305   0.367  1.00  0.00    -0.083 SA
BRANCH  13  14
ATOM     14  C   UNL     1      -4.221  -5.640   1.915  1.00  0.00     0.183 A 
ATOM     15  C   UNL     1      -6.172  -5.047   4.780  1.00  0.00     0.092 C 
ATOM     16  C   UNL     1      -5.136  -5.123   3.732  1.00  0.00     0.148 A 
ATOM     17  N   UNL     1      -3.918  -4.579   3.857  1.00  0.00    -0.158 NA
ATOM     18  N   UNL     1      -5.359  -5.774   2.549  1.00  0.00    -0.206 NA
ATOM     19  N   UNL     1      -3.362  -4.913   2.679  1.00  0.00    -0.254 N 
ATOM     20  H   UNL     1      -2.450  -4.664   2.404  1.00  0.00     0.192 HD
ENDBRANCH  13  14
ENDBRANCH   9  13
BRANCH   8  21
ATOM     21  N   UNL     1      -2.407  -8.871  -1.127  1.00  0.00    -0.345 N 
ATOM     22  H   UNL     1      -3.093  -8.576  -0.432  1.00  0.00     0.345 HD
ATOM     23  H   UNL     1      -2.080  -9.811  -0.904  1.00  0.00     0.345 HD
ATOM     24  H   UNL     1      -2.838  -8.871  -2.051  1.00  0.00     0.345 HD
ENDBRANCH   8  21
ENDBRANCH   5   8
ENDBRANCH   3   4
ENDBRANCH   2   3
ENDBRANCH   1   2
BRANCH   1  25
ATOM     25  C   UNL     1       3.875  -6.163  -3.816  1.00  0.00     0.002 C 
BRANCH  25  26
ATOM     26  C   UNL     1       4.019  -4.652  -3.590  1.00  0.00     0.021 C 
BRANCH  26  27
ATOM     27  C   UNL     1       5.326  -4.237  -2.933  1.00  0.00     0.116 C 
BRANCH  27  28
ATOM     28  N   UNL     1       6.495  -4.485  -3.772  1.00  0.00    -0.352 N 
ATOM     29  C   UNL     1       7.821  -4.206  -3.488  1.00  0.00     0.251 C 
ATOM     30  H   UNL     1       6.319  -4.902  -4.647  1.00  0.00     0.163 HD
ATOM     31  O   UNL     1       8.650  -4.097  -4.375  1.00  0.00    -0.269 OA
BRANCH  29  32
ATOM     32  C   UNL     1       8.218  -4.059  -2.075  1.00  0.00     0.039 A 
ATOM     33  C   UNL     1       9.139  -3.088  -1.666  1.00  0.00     0.014 A 
ATOM     34  C   UNL     1       7.631  -4.917  -1.150  1.00  0.00     0.014 A 
ATOM     35  C   UNL     1       9.403  -2.945  -0.305  1.00  0.00     0.010 A 
ATOM     36  C   UNL     1       7.761  -4.666   0.189  1.00  0.00     0.010 A 
ATOM     37  C   UNL     1       8.696  -3.731   0.618  1.00  0.00    -0.014 A 
BRANCH  37  38
ATOM     38  C   UNL     1       8.799  -3.503   2.055  1.00  0.00     0.031 A 
ATOM     39  C   UNL     1       8.408  -2.127   2.471  1.00  0.00     0.074 A 
ATOM     40  C   UNL     1       8.957  -4.523   2.930  1.00  0.00     0.049 A 
ATOM     41  N   UNL     1       9.145  -1.239   3.049  1.00  0.00    -0.248 NA
ATOM     42  C   UNL     1       7.079  -1.625   2.070  1.00  0.00     0.031 C 
ATOM     43  C   UNL     1       9.021  -5.960   2.629  1.00  0.00     0.029 A 
ATOM     44  N   UNL     1       8.942  -4.516   4.292  1.00  0.00    -0.354 N 
ATOM     45  C   UNL     1       8.313  -0.148   3.284  1.00  0.00     0.074 A 
ATOM     46  C   UNL     1       7.132  -0.359   2.488  1.00  0.00     0.031 C 
ATOM     47  C   UNL     1       8.764  -6.672   3.748  1.00  0.00     0.029 A 
ATOM     48  C   UNL     1       8.680  -5.757   4.871  1.00  0.00     0.049 A 
ATOM     49  H   UNL     1       9.102  -3.702   4.822  1.00  0.00     0.167 HD
ATOM     50  C   UNL     1       8.532   0.686   4.339  1.00  0.00     0.031 A 
ATOM     51  C   UNL     1       8.367  -6.010   6.169  1.00  0.00     0.031 A 
ATOM     52  C   UNL     1       9.859   0.514   4.876  1.00  0.00     0.049 A 
ATOM     53  C   UNL     1       8.764  -4.822   6.957  1.00  0.00     0.074 A 
ATOM     54  C   UNL     1      11.138   0.620   4.367  1.00  0.00     0.029 A 
ATOM     55  N   UNL     1       9.968  -0.233   6.025  1.00  0.00    -0.354 N 
ATOM     56  N   UNL     1      10.001  -4.458   7.129  1.00  0.00    -0.248 NA
ATOM     57  C   UNL     1       7.771  -3.778   7.149  1.00  0.00     0.031 C 
ATOM     58  C   UNL     1      11.855  -0.462   4.958  1.00  0.00     0.029 A 
ATOM     59  C   UNL     1      11.010  -1.105   5.863  1.00  0.00     0.049 A 
ATOM     60  H   UNL     1       9.397  -0.153   6.824  1.00  0.00     0.167 HD
ATOM     61  C   UNL     1       9.980  -3.080   6.976  1.00  0.00     0.074 A 
ATOM     62  C   UNL     1       8.569  -2.708   7.088  1.00  0.00     0.031 C 
ATOM     63  C   UNL     1      11.063  -2.414   6.476  1.00  0.00     0.031 A 
BRANCH  50  64
ATOM     64  C   UNL     1       7.417   1.289   5.165  1.00  0.00    -0.014 A 
ATOM     65  C   UNL     1       7.761   2.118   6.248  1.00  0.00     0.009 A 
ATOM     66  C   UNL     1       6.083   0.841   5.114  1.00  0.00     0.009 A 
ATOM     67  C   UNL     1       6.845   2.401   7.269  1.00  0.00     0.001 A 
ATOM     68  C   UNL     1       5.154   1.157   6.109  1.00  0.00     0.001 A 
ATOM     69  C   UNL     1       5.545   1.911   7.204  1.00  0.00     0.000 A 
ENDBRANCH  50  64
BRANCH  51  70
ATOM     70  C   UNL     1       7.482  -7.055   6.738  1.00  0.00    -0.014 A 
ATOM     71  C   UNL     1       7.488  -7.328   8.118  1.00  0.00     0.009 A 
ATOM     72  C   UNL     1       6.424  -7.585   5.978  1.00  0.00     0.009 A 
ATOM     73  C   UNL     1       6.450  -8.056   8.718  1.00  0.00     0.001 A 
ATOM     74  C   UNL     1       5.389  -8.315   6.576  1.00  0.00     0.001 A 
ATOM     75  C   UNL     1       5.393  -8.536   7.949  1.00  0.00     0.000 A 
ENDBRANCH  51  70
BRANCH  63  76
ATOM     76  C   UNL     1      12.365  -3.168   6.348  1.00  0.00    -0.014 A 
ATOM     77  C   UNL     1      12.528  -4.327   5.567  1.00  0.00     0.009 A 
ATOM     78  C   UNL     1      13.504  -2.601   6.938  1.00  0.00     0.009 A 
ATOM     79  C   UNL     1      13.789  -4.917   5.418  1.00  0.00     0.001 A 
ATOM     80  C   UNL     1      14.764  -3.176   6.770  1.00  0.00     0.001 A 
ATOM     81  C   UNL     1      14.906  -4.339   6.018  1.00  0.00     0.000 A 
ENDBRANCH  63  76
ENDBRANCH  37  38
ENDBRANCH  29  32
ENDBRANCH  27  28
ENDBRANCH  26  27
ENDBRANCH  25  26
ENDBRANCH   1  25
TORSDOF 16
