REMARK SMILES O=C(NCCCCCCNC(=O)[C@@H]1C=C[C@H](NC(=O)c2ccc(Br)cc2)C1)c1ccc(-c2c3nc(c(-c4ccccc4)c4ccc([nH]4)c(-c4ccccc4)c4nc(c(-c5ccccc5)c5ccc2[nH]5)C=C4)C=C3)cc1
REMARK SMILES IDX 6 1 5 2 4 3 3 4 1 5 2 6 28 8 29 9 75 10 30 11 74 12 31 13
REMARK SMILES IDX 32 14 33 15 68 16 34 17 73 18 67 19 69 20 35 21 72 22 66 23
REMARK SMILES IDX 65 24 36 26 58 27 43 28 57 29 44 30 47 31 56 32 70 33 45 34
REMARK SMILES IDX 46 35 55 37 71 38 48 39 37 40 38 41 42 42 39 43 41 44 40 45
REMARK SMILES IDX 59 46 60 47 64 48 61 49 63 50 62 51 49 52 50 53 54 54 51 55
REMARK SMILES IDX 53 56 52 57 7 58 8 59 9 60 10 61 11 62 12 64 13 65 14 66
REMARK SMILES IDX 27 67 15 68 16 69 17 70 18 71 19 73 20 74 21 75 26 76 22 77
REMARK SMILES IDX 25 78 23 79 24 80
REMARK H PARENT 3 7 69 25 47 36 10 63 17 72
REMARK Flexibility Score: inf
ROOT
ATOM      1  C   UNL     1       5.142   4.001   2.295  1.00  0.00     0.002 C 
ENDROOT
BRANCH   1   2
ATOM      2  C   UNL     1       3.691   3.978   2.765  1.00  0.00     0.021 C 
BRANCH   2   3
ATOM      3  C   UNL     1       2.900   5.237   2.458  1.00  0.00     0.116 C 
BRANCH   3   4
ATOM      4  N   UNL     1       2.643   5.409   1.039  1.00  0.00    -0.352 N 
ATOM      5  O   UNL     1       1.359   5.702  -0.799  1.00  0.00    -0.269 OA
ATOM      6  C   UNL     1       1.455   5.724   0.420  1.00  0.00     0.251 C 
ATOM      7  H   UNL     1       3.417   5.283   0.444  1.00  0.00     0.163 HD
BRANCH   6   8
ATOM      8  C   UNL     1       0.279   6.066   1.251  1.00  0.00     0.039 A 
ATOM      9  C   UNL     1       0.395   6.974   2.308  1.00  0.00     0.014 A 
ATOM     10  C   UNL     1      -0.950   5.466   0.968  1.00  0.00     0.014 A 
ATOM     11  C   UNL     1      -0.688   7.194   3.152  1.00  0.00     0.010 A 
ATOM     12  C   UNL     1      -2.058   5.747   1.771  1.00  0.00     0.010 A 
ATOM     13  C   UNL     1      -1.930   6.599   2.879  1.00  0.00    -0.014 A 
BRANCH  13  14
ATOM     14  C   UNL     1      -3.108   6.962   3.702  1.00  0.00     0.031 A 
ATOM     15  C   UNL     1      -3.793   5.953   4.579  1.00  0.00     0.074 A 
ATOM     16  C   UNL     1      -3.562   8.229   3.642  1.00  0.00     0.049 A 
ATOM     17  N   UNL     1      -4.845   6.111   5.342  1.00  0.00    -0.248 NA
ATOM     18  C   UNL     1      -3.233   4.593   4.600  1.00  0.00     0.031 C 
ATOM     19  C   UNL     1      -2.982   9.293   2.818  1.00  0.00     0.029 A 
ATOM     20  N   UNL     1      -4.606   8.839   4.285  1.00  0.00    -0.354 N 
ATOM     21  C   UNL     1      -5.089   4.870   5.916  1.00  0.00     0.074 A 
ATOM     22  C   UNL     1      -4.081   3.965   5.404  1.00  0.00     0.031 C 
ATOM     23  C   UNL     1      -3.659  10.431   3.028  1.00  0.00     0.029 A 
ATOM     24  C   UNL     1      -4.756  10.162   3.949  1.00  0.00     0.049 A 
ATOM     25  H   UNL     1      -5.192   8.375   4.926  1.00  0.00     0.167 HD
ATOM     26  C   UNL     1      -6.066   4.521   6.787  1.00  0.00     0.031 A 
ATOM     27  C   UNL     1      -5.690  11.058   4.316  1.00  0.00     0.031 A 
ATOM     28  C   UNL     1      -7.062   5.428   7.295  1.00  0.00     0.049 A 
ATOM     29  C   UNL     1      -6.781  10.631   5.251  1.00  0.00     0.074 A 
ATOM     30  C   UNL     1      -8.056   5.181   8.227  1.00  0.00     0.029 A 
ATOM     31  N   UNL     1      -7.200   6.751   6.905  1.00  0.00    -0.354 N 
ATOM     32  N   UNL     1      -6.963   9.468   5.826  1.00  0.00    -0.248 NA
ATOM     33  C   UNL     1      -7.798  11.638   5.582  1.00  0.00     0.031 C 
ATOM     34  C   UNL     1      -8.829   6.340   8.360  1.00  0.00     0.029 A 
ATOM     35  C   UNL     1      -8.286   7.322   7.548  1.00  0.00     0.049 A 
ATOM     36  H   UNL     1      -6.613   7.216   6.265  1.00  0.00     0.167 HD
ATOM     37  C   UNL     1      -8.110   9.604   6.594  1.00  0.00     0.074 A 
ATOM     38  C   UNL     1      -8.567  10.969   6.429  1.00  0.00     0.031 C 
ATOM     39  C   UNL     1      -8.732   8.678   7.362  1.00  0.00     0.031 A 
BRANCH  26  40
ATOM     40  C   UNL     1      -6.131   3.087   7.230  1.00  0.00    -0.014 A 
ATOM     41  C   UNL     1      -5.210   2.563   8.150  1.00  0.00     0.009 A 
ATOM     42  C   UNL     1      -7.174   2.267   6.771  1.00  0.00     0.009 A 
ATOM     43  C   UNL     1      -5.320   1.239   8.583  1.00  0.00     0.001 A 
ATOM     44  C   UNL     1      -7.294   0.951   7.222  1.00  0.00     0.001 A 
ATOM     45  C   UNL     1      -6.364   0.437   8.123  1.00  0.00     0.000 A 
ENDBRANCH  26  40
BRANCH  27  46
ATOM     46  C   UNL     1      -5.647  12.434   3.762  1.00  0.00    -0.014 A 
ATOM     47  C   UNL     1      -5.307  13.524   4.576  1.00  0.00     0.009 A 
ATOM     48  C   UNL     1      -5.928  12.660   2.404  1.00  0.00     0.009 A 
ATOM     49  C   UNL     1      -5.266  14.815   4.045  1.00  0.00     0.001 A 
ATOM     50  C   UNL     1      -5.858  13.947   1.870  1.00  0.00     0.001 A 
ATOM     51  C   UNL     1      -5.535  15.024   2.692  1.00  0.00     0.000 A 
ENDBRANCH  27  46
BRANCH  39  52
ATOM     52  C   UNL     1      -9.968   9.120   8.090  1.00  0.00    -0.014 A 
ATOM     53  C   UNL     1     -11.180   9.303   7.408  1.00  0.00     0.009 A 
ATOM     54  C   UNL     1      -9.925   9.327   9.477  1.00  0.00     0.009 A 
ATOM     55  C   UNL     1     -12.322   9.712   8.099  1.00  0.00     0.001 A 
ATOM     56  C   UNL     1     -11.074   9.712  10.169  1.00  0.00     0.001 A 
ATOM     57  C   UNL     1     -12.268   9.912   9.478  1.00  0.00     0.000 A 
ENDBRANCH  39  52
ENDBRANCH  13  14
ENDBRANCH   6   8
ENDBRANCH   3   4
ENDBRANCH   2   3
ENDBRANCH   1   2
BRANCH   1  58
ATOM     58  C   UNL     1       6.008   5.141   2.839  1.00  0.00     0.002 C 
BRANCH  58  59
ATOM     59  C   UNL     1       6.038   5.351   4.359  1.00  0.00     0.021 C 
BRANCH  59  60
ATOM     60  C   UNL     1       6.244   4.112   5.226  1.00  0.00     0.116 C 
BRANCH  60  61
ATOM     61  N   UNL     1       7.304   3.248   4.758  1.00  0.00    -0.356 N 
ATOM     62  C   UNL     1       8.207   2.535   5.486  1.00  0.00     0.227 C 
ATOM     63  H   UNL     1       7.385   3.165   3.780  1.00  0.00     0.163 HD
ATOM     64  O   UNL     1       8.649   1.508   4.972  1.00  0.00    -0.274 OA
BRANCH  62  65
ATOM     65  C   UNL     1       8.575   2.981   6.902  1.00  0.00     0.103 C 
ATOM     66  C   UNL     1       9.133   4.378   6.958  1.00  0.00    -0.016 C 
ATOM     67  C   UNL     1       9.718   2.124   7.490  1.00  0.00     0.047 C 
ATOM     68  C   UNL     1      10.395   4.414   7.394  1.00  0.00    -0.006 C 
ATOM     69  C   UNL     1      10.907   3.062   7.716  1.00  0.00     0.106 C 
BRANCH  69  70
ATOM     70  N   UNL     1      12.134   2.748   7.010  1.00  0.00    -0.346 N 
ATOM     71  C   UNL     1      12.490   2.556   5.703  1.00  0.00     0.251 C 
ATOM     72  H   UNL     1      12.899   2.650   7.621  1.00  0.00     0.164 HD
ATOM     73  O   UNL     1      13.607   2.097   5.463  1.00  0.00    -0.269 OA
BRANCH  71  74
ATOM     74  C   UNL     1      11.614   2.867   4.560  1.00  0.00     0.039 A 
ATOM     75  C   UNL     1      11.194   4.172   4.290  1.00  0.00     0.015 A 
ATOM     76  C   UNL     1      11.366   1.852   3.627  1.00  0.00     0.015 A 
ATOM     77  C   UNL     1      10.455   4.446   3.134  1.00  0.00     0.016 A 
ATOM     78  C   UNL     1      10.637   2.126   2.466  1.00  0.00     0.016 A 
ATOM     79  C   UNL     1      10.178   3.420   2.230  1.00  0.00     0.018 A 
ATOM     80  Br  UNL     1       9.205   3.789   0.651  1.00  0.00    -0.051 Br
ENDBRANCH  71  74
ENDBRANCH  69  70
ENDBRANCH  62  65
ENDBRANCH  60  61
ENDBRANCH  59  60
ENDBRANCH  58  59
ENDBRANCH   1  58
TORSDOF 15
