REMARK SMILES CC[C@H]1CCC[C@H](O[C@@H]2CC[C@]([NH2+]C(C)C)(C(=O)NCCCCCCNC(=O)c3ccc(-c4c5nc(c(-c6ccccc6)c6ccc([nH]6)c(-c6ccccc6)c6nc(c(-c7ccccc7)c7ccc4[nH]7)C=C6)C=C5)cc3)C2)C1
REMARK SMILES IDX 22 1 21 2 20 3 19 4 17 5 18 6 12 8 9 9 10 10 77 11 11 12
REMARK SMILES IDX 8 13 7 14 3 15 4 16 78 17 5 18 6 19 2 20 1 21 13 22 14 25
REMARK SMILES IDX 15 26 16 27 23 28 24 29 25 30 26 31 27 32 28 34 29 35 30 36
REMARK SMILES IDX 76 37 31 38 75 39 32 40 33 41 34 42 69 43 35 44 74 45 68 46
REMARK SMILES IDX 70 47 36 48 73 49 67 50 66 51 37 53 59 54 44 55 58 56 45 57
REMARK SMILES IDX 48 58 57 59 71 60 46 61 47 62 56 64 72 65 49 66 38 67 39 68
REMARK SMILES IDX 43 69 40 70 42 71 41 72 60 73 61 74 65 75 62 76 64 77 63 78
REMARK SMILES IDX 50 79 51 80 55 81 52 82 54 83 53 84
REMARK H PARENT 19 7 13 23 13 24 26 33 70 52 48 63
REMARK Flexibility Score: inf
ROOT
ATOM      1  C   UNL     1       0.525   2.616   3.061  1.00  0.00     0.002 C 
ENDROOT
BRANCH   1   2
ATOM      2  C   UNL     1       0.811   3.471   1.824  1.00  0.00     0.021 C 
BRANCH   2   3
ATOM      3  C   UNL     1       2.020   4.395   1.944  1.00  0.00     0.116 C 
BRANCH   3   4
ATOM      4  N   UNL     1       3.286   3.700   1.872  1.00  0.00    -0.351 N 
ATOM      5  C   UNL     1       4.378   3.904   1.073  1.00  0.00     0.281 C 
ATOM      6  O   UNL     1       5.395   3.272   1.383  1.00  0.00    -0.268 OA
ATOM      7  H   UNL     1       3.377   2.953   2.506  1.00  0.00     0.163 HD
BRANCH   5   8
ATOM      8  C   UNL     1       4.353   4.871  -0.169  1.00  0.00     0.178 C 
ATOM      9  C   UNL     1       3.533   4.933  -2.481  1.00  0.00     0.125 C 
ATOM     10  C   UNL     1       5.026   4.642  -2.583  1.00  0.00     0.039 C 
ATOM     11  C   UNL     1       3.149   4.575  -1.058  1.00  0.00     0.111 C 
ATOM     12  C   UNL     1       5.507   4.434  -1.138  1.00  0.00     0.082 C 
BRANCH   9  13
ATOM     13  O   UNL     1       2.686   4.462  -3.525  1.00  0.00    -0.375 OA
BRANCH  13  14
ATOM     14  C   UNL     1       2.129   3.142  -3.549  1.00  0.00     0.118 C 
ATOM     15  C   UNL     1       0.611   1.481  -2.176  1.00  0.00    -0.009 C 
ATOM     16  C   UNL     1       1.847   0.570  -2.168  1.00  0.00     0.004 C 
ATOM     17  C   UNL     1       0.954   2.937  -2.561  1.00  0.00     0.035 C 
ATOM     18  C   UNL     1       2.629   0.666  -3.468  1.00  0.00     0.003 C 
ATOM     19  C   UNL     1       3.207   2.063  -3.577  1.00  0.00     0.032 C 
BRANCH  15  20
ATOM     20  C   UNL     1      -0.544   0.955  -3.048  1.00  0.00     0.000 C 
ATOM     21  C   UNL     1      -1.006  -0.446  -2.670  1.00  0.00     0.004 C 
ENDBRANCH  15  20
ENDBRANCH  13  14
ENDBRANCH   9  13
BRANCH   8  22
ATOM     22  N   UNL     1       4.609   6.244   0.291  1.00  0.00    -0.332 N 
ATOM     23  H   UNL     1       5.305   6.621  -0.353  1.00  0.00     0.347 HD
ATOM     24  H   UNL     1       4.825   6.073   1.273  1.00  0.00     0.347 HD
BRANCH  22  25
ATOM     25  C   UNL     1       3.599   7.279   0.419  1.00  0.00     0.176 C 
ATOM     26  C   UNL     1       4.141   8.333   1.393  1.00  0.00     0.075 C 
ATOM     27  C   UNL     1       3.239   7.966  -0.896  1.00  0.00     0.075 C 
ENDBRANCH  22  25
ENDBRANCH   8  22
ENDBRANCH   5   8
ENDBRANCH   3   4
ENDBRANCH   2   3
ENDBRANCH   1   2
BRANCH   1  28
ATOM     28  C   UNL     1       0.366   3.388   4.375  1.00  0.00     0.002 C 
BRANCH  28  29
ATOM     29  C   UNL     1      -0.658   4.525   4.359  1.00  0.00     0.021 C 
BRANCH  29  30
ATOM     30  C   UNL     1      -2.084   4.109   4.011  1.00  0.00     0.116 C 
BRANCH  30  31
ATOM     31  N   UNL     1      -2.641   3.179   4.980  1.00  0.00    -0.352 N 
ATOM     32  C   UNL     1      -3.801   3.259   5.710  1.00  0.00     0.251 C 
ATOM     33  H   UNL     1      -2.105   2.368   5.137  1.00  0.00     0.163 HD
ATOM     34  O   UNL     1      -4.015   2.460   6.615  1.00  0.00    -0.269 OA
BRANCH  32  35
ATOM     35  C   UNL     1      -4.790   4.322   5.423  1.00  0.00     0.039 A 
ATOM     36  C   UNL     1      -5.376   5.004   6.493  1.00  0.00     0.014 A 
ATOM     37  C   UNL     1      -5.154   4.635   4.111  1.00  0.00     0.014 A 
ATOM     38  C   UNL     1      -6.280   6.039   6.245  1.00  0.00     0.010 A 
ATOM     39  C   UNL     1      -6.000   5.713   3.863  1.00  0.00     0.010 A 
ATOM     40  C   UNL     1      -6.574   6.426   4.927  1.00  0.00    -0.014 A 
BRANCH  40  41
ATOM     41  C   UNL     1      -7.470   7.577   4.645  1.00  0.00     0.031 A 
ATOM     42  C   UNL     1      -8.772   7.368   3.920  1.00  0.00     0.074 A 
ATOM     43  C   UNL     1      -7.082   8.822   4.984  1.00  0.00     0.049 A 
ATOM     44  N   UNL     1      -9.652   8.256   3.532  1.00  0.00    -0.248 NA
ATOM     45  C   UNL     1      -9.120   5.983   3.564  1.00  0.00     0.031 C 
ATOM     46  C   UNL     1      -5.827   9.167   5.656  1.00  0.00     0.029 A 
ATOM     47  N   UNL     1      -7.702  10.034   4.802  1.00  0.00    -0.354 N 
ATOM     48  C   UNL     1     -10.645   7.542   2.873  1.00  0.00     0.074 A 
ATOM     49  C   UNL     1     -10.238   6.154   2.873  1.00  0.00     0.031 C 
ATOM     50  C   UNL     1      -5.781  10.495   5.850  1.00  0.00     0.029 A 
ATOM     51  C   UNL     1      -6.979  11.101   5.278  1.00  0.00     0.049 A 
ATOM     52  H   UNL     1      -8.582  10.129   4.371  1.00  0.00     0.167 HD
ATOM     53  C   UNL     1     -11.800   7.997   2.332  1.00  0.00     0.031 A 
ATOM     54  C   UNL     1      -7.244  12.421   5.250  1.00  0.00     0.031 A 
ATOM     55  C   UNL     1     -12.212   9.375   2.342  1.00  0.00     0.049 A 
ATOM     56  C   UNL     1      -8.527  12.900   4.628  1.00  0.00     0.074 A 
ATOM     57  C   UNL     1     -13.393   9.924   1.872  1.00  0.00     0.029 A 
ATOM     58  N   UNL     1     -11.456  10.422   2.844  1.00  0.00    -0.354 N 
ATOM     59  N   UNL     1      -9.489  12.202   4.075  1.00  0.00    -0.248 NA
ATOM     60  C   UNL     1      -8.766  14.351   4.638  1.00  0.00     0.031 C 
ATOM     61  C   UNL     1     -13.326  11.311   2.037  1.00  0.00     0.029 A 
ATOM     62  C   UNL     1     -12.133  11.618   2.669  1.00  0.00     0.049 A 
ATOM     63  H   UNL     1     -10.569  10.330   3.262  1.00  0.00     0.167 HD
ATOM     64  C   UNL     1     -10.459  13.123   3.701  1.00  0.00     0.074 A 
ATOM     65  C   UNL     1      -9.977  14.427   4.106  1.00  0.00     0.031 C 
ATOM     66  C   UNL     1     -11.644  12.908   3.080  1.00  0.00     0.031 A 
BRANCH  53  67
ATOM     67  C   UNL     1     -12.704   6.993   1.670  1.00  0.00    -0.014 A 
ATOM     68  C   UNL     1     -13.411   6.041   2.422  1.00  0.00     0.009 A 
ATOM     69  C   UNL     1     -12.895   7.036   0.280  1.00  0.00     0.009 A 
ATOM     70  C   UNL     1     -14.265   5.133   1.792  1.00  0.00     0.001 A 
ATOM     71  C   UNL     1     -13.773   6.147  -0.344  1.00  0.00     0.001 A 
ATOM     72  C   UNL     1     -14.450   5.191   0.412  1.00  0.00     0.000 A 
ENDBRANCH  53  67
BRANCH  54  73
ATOM     73  C   UNL     1      -6.277  13.392   5.829  1.00  0.00    -0.014 A 
ATOM     74  C   UNL     1      -6.596  14.111   6.990  1.00  0.00     0.009 A 
ATOM     75  C   UNL     1      -5.038  13.620   5.209  1.00  0.00     0.009 A 
ATOM     76  C   UNL     1      -5.710  15.064   7.499  1.00  0.00     0.001 A 
ATOM     77  C   UNL     1      -4.141  14.550   5.739  1.00  0.00     0.001 A 
ATOM     78  C   UNL     1      -4.482  15.280   6.875  1.00  0.00     0.000 A 
ENDBRANCH  54  73
BRANCH  66  79
ATOM     79  C   UNL     1     -12.524  14.103   2.838  1.00  0.00    -0.014 A 
ATOM     80  C   UNL     1     -12.198  15.070   1.875  1.00  0.00     0.009 A 
ATOM     81  C   UNL     1     -13.721  14.237   3.560  1.00  0.00     0.009 A 
ATOM     82  C   UNL     1     -13.037  16.166   1.664  1.00  0.00     0.001 A 
ATOM     83  C   UNL     1     -14.573  15.316   3.324  1.00  0.00     0.001 A 
ATOM     84  C   UNL     1     -14.226  16.285   2.384  1.00  0.00     0.000 A 
ENDBRANCH  66  79
ENDBRANCH  40  41
ENDBRANCH  32  35
ENDBRANCH  30  31
ENDBRANCH  29  30
ENDBRANCH  28  29
ENDBRANCH   1  28
TORSDOF 18
