REMARK SMILES CCc1ccc(NC(=O)c2c(C(=O)NCCCCCCNC(=O)c3ccc(-c4c5nc(c(-c6ccccc6)c6ccc([nH]6)c(-c6ccccc6)c6nc(c(-c7ccccc7)c7ccc4[nH]7)C=C6)C=C5)cc3)cnn2C)cc1
REMARK SMILES IDX 17 1 16 2 15 3 14 4 12 5 13 6 11 8 10 9 74 10 72 11 73 12
REMARK SMILES IDX 75 13 8 14 7 15 9 17 6 18 3 19 4 20 77 21 5 22 76 23 2 24
REMARK SMILES IDX 1 25 18 26 19 27 20 28 21 29 22 30 23 32 24 33 25 34 71 35
REMARK SMILES IDX 26 36 70 37 27 38 28 39 29 40 64 41 30 42 69 43 63 44 65 45
REMARK SMILES IDX 31 46 68 47 62 48 61 49 32 51 54 52 39 53 53 54 40 55 43 56
REMARK SMILES IDX 52 57 66 58 41 59 42 60 51 62 67 63 44 64 33 65 34 66 38 67
REMARK SMILES IDX 35 68 37 69 36 70 55 71 56 72 60 73 57 74 59 75 58 76 45 77
REMARK SMILES IDX 46 78 50 79 47 80 49 81 48 82
REMARK H PARENT 14 7 7 16 21 31 65 50 43 61
REMARK Flexibility Score: inf
ROOT
ATOM      1  C   UNL     1      -1.220  -8.082   6.716  1.00  0.00     0.002 C 
ENDROOT
BRANCH   1   2
ATOM      2  C   UNL     1      -0.924  -7.115   5.576  1.00  0.00     0.021 C 
BRANCH   2   3
ATOM      3  C   UNL     1      -0.085  -7.644   4.423  1.00  0.00     0.116 C 
BRANCH   3   4
ATOM      4  N   UNL     1      -0.730  -8.593   3.562  1.00  0.00    -0.352 N 
ATOM      5  C   UNL     1      -0.565  -8.845   2.223  1.00  0.00     0.255 C 
ATOM      6  O   UNL     1      -1.298  -9.727   1.764  1.00  0.00    -0.269 OA
ATOM      7  H   UNL     1      -1.403  -9.158   4.006  1.00  0.00     0.163 HD
BRANCH   5   8
ATOM      8  C   UNL     1       0.353  -8.134   1.328  1.00  0.00     0.090 A 
ATOM      9  C   UNL     1       1.426  -7.248   1.470  1.00  0.00     0.138 A 
ATOM     10  N   UNL     1       1.882  -6.994   0.192  1.00  0.00    -0.262 N 
ATOM     11  C   UNL     1       0.245  -8.273  -0.088  1.00  0.00     0.149 A 
ATOM     12  N   UNL     1       1.142  -7.564  -0.770  1.00  0.00    -0.180 NA
ATOM     13  C   UNL     1       2.979  -6.142  -0.215  1.00  0.00     0.174 C 
BRANCH   9  14
ATOM     14  C   UNL     1       2.064  -6.680   2.620  1.00  0.00     0.274 C 
ATOM     15  N   UNL     1       1.927  -5.334   2.908  1.00  0.00    -0.321 N 
ATOM     16  H   UNL     1       2.377  -5.061   3.740  1.00  0.00     0.170 HD
ATOM     17  O   UNL     1       2.768  -7.351   3.377  1.00  0.00    -0.267 OA
BRANCH  15  18
ATOM     18  C   UNL     1       1.269  -4.275   2.248  1.00  0.00     0.041 A 
ATOM     19  C   UNL     1       0.525  -2.061   0.664  1.00  0.00    -0.048 A 
ATOM     20  C   UNL     1       0.002  -3.333   0.414  1.00  0.00     0.006 A 
ATOM     21  C   UNL     1       1.291  -1.883   1.819  1.00  0.00     0.006 A 
ATOM     22  C   UNL     1       0.345  -4.421   1.219  1.00  0.00     0.026 A 
ATOM     23  C   UNL     1       1.655  -2.981   2.607  1.00  0.00     0.026 A 
BRANCH  19  24
ATOM     24  C   UNL     1       0.278  -0.982  -0.364  1.00  0.00     0.032 C 
ATOM     25  C   UNL     1       0.898   0.380  -0.089  1.00  0.00     0.009 C 
ENDBRANCH  19  24
ENDBRANCH  15  18
ENDBRANCH   9  14
ENDBRANCH   5   8
ENDBRANCH   3   4
ENDBRANCH   2   3
ENDBRANCH   1   2
BRANCH   1  26
ATOM     26  C   UNL     1      -0.017  -8.781   7.353  1.00  0.00     0.002 C 
BRANCH  26  27
ATOM     27  C   UNL     1       1.145  -7.886   7.791  1.00  0.00     0.021 C 
BRANCH  27  28
ATOM     28  C   UNL     1       0.781  -6.713   8.694  1.00  0.00     0.116 C 
BRANCH  28  29
ATOM     29  N   UNL     1       0.120  -7.127   9.919  1.00  0.00    -0.352 N 
ATOM     30  C   UNL     1       0.424  -6.831  11.225  1.00  0.00     0.251 C 
ATOM     31  H   UNL     1      -0.666  -7.707   9.794  1.00  0.00     0.163 HD
ATOM     32  O   UNL     1      -0.163  -7.400  12.137  1.00  0.00    -0.269 OA
BRANCH  30  33
ATOM     33  C   UNL     1       1.477  -5.840  11.536  1.00  0.00     0.039 A 
ATOM     34  C   UNL     1       2.400  -6.134  12.543  1.00  0.00     0.014 A 
ATOM     35  C   UNL     1       1.546  -4.620  10.856  1.00  0.00     0.014 A 
ATOM     36  C   UNL     1       3.426  -5.231  12.829  1.00  0.00     0.010 A 
ATOM     37  C   UNL     1       2.614  -3.757  11.089  1.00  0.00     0.010 A 
ATOM     38  C   UNL     1       3.561  -4.050  12.082  1.00  0.00    -0.014 A 
BRANCH  38  39
ATOM     39  C   UNL     1       4.682  -3.108  12.329  1.00  0.00     0.031 A 
ATOM     40  C   UNL     1       4.406  -1.711  12.816  1.00  0.00     0.074 A 
ATOM     41  C   UNL     1       5.947  -3.492  12.066  1.00  0.00     0.049 A 
ATOM     42  N   UNL     1       5.248  -0.734  13.041  1.00  0.00    -0.248 NA
ATOM     43  C   UNL     1       2.998  -1.359  13.058  1.00  0.00     0.031 C 
ATOM     44  C   UNL     1       6.347  -4.808  11.564  1.00  0.00     0.029 A 
ATOM     45  N   UNL     1       7.131  -2.808  12.184  1.00  0.00    -0.354 N 
ATOM     46  C   UNL     1       4.471   0.347  13.440  1.00  0.00     0.074 A 
ATOM     47  C   UNL     1       3.090  -0.075  13.367  1.00  0.00     0.031 C 
ATOM     48  C   UNL     1       7.684  -4.847  11.451  1.00  0.00     0.029 A 
ATOM     49  C   UNL     1       8.232  -3.548  11.826  1.00  0.00     0.049 A 
ATOM     50  H   UNL     1       7.186  -1.875  12.495  1.00  0.00     0.167 HD
ATOM     51  C   UNL     1       4.871   1.575  13.851  1.00  0.00     0.031 A 
ATOM     52  C   UNL     1       9.536  -3.216  11.796  1.00  0.00     0.031 A 
ATOM     53  C   UNL     1       6.245   1.996  13.922  1.00  0.00     0.049 A 
ATOM     54  C   UNL     1       9.951  -1.832  12.216  1.00  0.00     0.074 A 
ATOM     55  C   UNL     1       6.755   3.204  14.363  1.00  0.00     0.029 A 
ATOM     56  N   UNL     1       7.329   1.221  13.536  1.00  0.00    -0.354 N 
ATOM     57  N   UNL     1       9.209  -0.841  12.646  1.00  0.00    -0.248 NA
ATOM     58  C   UNL     1      11.388  -1.528  12.154  1.00  0.00     0.031 C 
ATOM     59  C   UNL     1       8.143   3.183  14.187  1.00  0.00     0.029 A 
ATOM     60  C   UNL     1       8.503   1.936  13.702  1.00  0.00     0.049 A 
ATOM     61  H   UNL     1       7.271   0.299  13.194  1.00  0.00     0.167 HD
ATOM     62  C   UNL     1      10.091   0.192  12.940  1.00  0.00     0.074 A 
ATOM     63  C   UNL     1      11.423  -0.299  12.652  1.00  0.00     0.031 C 
ATOM     64  C   UNL     1       9.822   1.435  13.410  1.00  0.00     0.031 A 
BRANCH  51  65
ATOM     65  C   UNL     1       3.798   2.555  14.245  1.00  0.00    -0.014 A 
ATOM     66  C   UNL     1       3.015   2.356  15.395  1.00  0.00     0.009 A 
ATOM     67  C   UNL     1       3.582   3.705  13.470  1.00  0.00     0.009 A 
ATOM     68  C   UNL     1       2.009   3.264  15.733  1.00  0.00     0.001 A 
ATOM     69  C   UNL     1       2.599   4.629  13.830  1.00  0.00     0.001 A 
ATOM     70  C   UNL     1       1.806   4.402  14.954  1.00  0.00     0.000 A 
ENDBRANCH  51  65
BRANCH  52  71
ATOM     71  C   UNL     1      10.552  -4.215  11.370  1.00  0.00    -0.014 A 
ATOM     72  C   UNL     1      11.467  -4.739  12.296  1.00  0.00     0.009 A 
ATOM     73  C   UNL     1      10.621  -4.641  10.034  1.00  0.00     0.009 A 
ATOM     74  C   UNL     1      12.449  -5.645  11.888  1.00  0.00     0.001 A 
ATOM     75  C   UNL     1      11.583  -5.573   9.636  1.00  0.00     0.001 A 
ATOM     76  C   UNL     1      12.502  -6.065  10.560  1.00  0.00     0.000 A 
ENDBRANCH  52  71
BRANCH  64  77
ATOM     77  C   UNL     1      10.994   2.337  13.684  1.00  0.00    -0.014 A 
ATOM     78  C   UNL     1      11.759   2.884  12.643  1.00  0.00     0.009 A 
ATOM     79  C   UNL     1      11.312   2.673  15.010  1.00  0.00     0.009 A 
ATOM     80  C   UNL     1      12.841   3.721  12.926  1.00  0.00     0.001 A 
ATOM     81  C   UNL     1      12.373   3.536  15.289  1.00  0.00     0.001 A 
ATOM     82  C   UNL     1      13.143   4.050  14.248  1.00  0.00     0.000 A 
ENDBRANCH  64  77
ENDBRANCH  38  39
ENDBRANCH  30  33
ENDBRANCH  28  29
ENDBRANCH  27  28
ENDBRANCH  26  27
ENDBRANCH   1  26
TORSDOF 16
