REMARK SMILES CC(C)[C@H]1C[N@@H+](CC(=O)NCCCCCCNC(=O)c2ccc(-c3c4nc(c(-c5ccccc5)c5ccc([nH]5)c(-c5ccccc5)c5nc(c(-c6ccccc6)c6ccc3[nH]6)C=C5)C=C4)cc2)C[C@@H]1NC(=O)CN(C)C(N)=O
REMARK SMILES IDX 12 1 11 2 10 3 8 4 9 5 7 7 6 8 4 9 5 10 69 11 68 12 2 14
REMARK SMILES IDX 1 15 3 16 70 17 71 18 72 20 73 21 74 22 75 23 76 24 77 25
REMARK SMILES IDX 78 26 13 29 14 30 15 31 16 32 17 33 18 34 19 36 20 37 21 38
REMARK SMILES IDX 67 39 22 40 66 41 23 42 24 43 25 44 60 45 26 46 65 47 59 48
REMARK SMILES IDX 61 49 27 50 64 51 58 52 57 53 28 55 50 56 35 57 49 58 36 59
REMARK SMILES IDX 39 60 48 61 62 62 37 63 38 64 47 66 63 67 40 68 29 69 30 70
REMARK SMILES IDX 34 71 31 72 33 73 32 74 51 75 52 76 56 77 53 78 55 79 54 80
REMARK SMILES IDX 41 81 42 82 46 83 43 84 45 85 44 86
REMARK H PARENT 10 6 6 13 70 19 77 27 77 28 17 35 61 54 39 65
REMARK Flexibility Score: inf
ROOT
ATOM      1  C   UNL     1       0.053  -2.928   2.107  1.00  0.00     0.021 C 
ENDROOT
BRANCH   1   2
ATOM      2  C   UNL     1      -1.285  -3.464   2.688  1.00  0.00     0.116 C 
BRANCH   2   3
ATOM      3  N   UNL     1      -2.190  -2.597   3.445  1.00  0.00    -0.351 N 
ATOM      4  C   UNL     1      -3.311  -1.870   3.111  1.00  0.00     0.275 C 
ATOM      5  O   UNL     1      -3.981  -1.415   4.046  1.00  0.00    -0.269 OA
ATOM      6  H   UNL     1      -1.945  -2.516   4.395  1.00  0.00     0.163 HD
BRANCH   4   7
ATOM      7  C   UNL     1      -3.728  -1.589   1.653  1.00  0.00     0.363 C 
BRANCH   7   8
ATOM      8  N   UNL     1      -2.971  -0.535   0.965  1.00  0.00    -0.325 N 
ATOM      9  C   UNL     1      -1.464   1.145   1.774  1.00  0.00     0.075 C 
ATOM     10  C   UNL     1      -1.614  -0.314   1.395  1.00  0.00     0.268 C 
ATOM     11  C   UNL     1      -2.362   1.738   0.664  1.00  0.00     0.146 C 
ATOM     12  C   UNL     1      -3.567   0.764   0.670  1.00  0.00     0.288 C 
ATOM     13  H   UNL     1      -3.000  -1.046   0.082  1.00  0.00     0.348 HD
BRANCH   9  14
ATOM     14  C   UNL     1      -1.788   1.560   3.266  1.00  0.00    -0.006 C 
ATOM     15  C   UNL     1      -3.207   2.041   3.570  1.00  0.00     0.008 C 
ATOM     16  C   UNL     1      -1.382   0.597   4.403  1.00  0.00     0.008 C 
ENDBRANCH   9  14
BRANCH  11  17
ATOM     17  N   UNL     1      -1.552   1.854  -0.584  1.00  0.00    -0.346 N 
ATOM     18  C   UNL     1      -1.311   1.078  -1.676  1.00  0.00     0.240 C 
ATOM     19  H   UNL     1      -1.068   2.710  -0.629  1.00  0.00     0.164 HD
ATOM     20  O   UNL     1      -0.193   1.207  -2.199  1.00  0.00    -0.273 OA
BRANCH  18  21
ATOM     21  C   UNL     1      -2.318   0.108  -2.314  1.00  0.00     0.220 C 
BRANCH  21  22
ATOM     22  N   UNL     1      -2.207  -1.320  -1.999  1.00  0.00    -0.319 N 
ATOM     23  C   UNL     1      -3.456  -2.041  -1.816  1.00  0.00     0.149 C 
BRANCH  22  24
ATOM     24  C   UNL     1      -1.109  -2.111  -2.252  1.00  0.00     0.314 C 
ATOM     25  N   UNL     1       0.001  -1.509  -2.719  1.00  0.00    -0.351 N 
ATOM     26  O   UNL     1      -1.095  -3.331  -2.094  1.00  0.00    -0.249 OA
ATOM     27  H   UNL     1       0.012  -0.533  -2.853  1.00  0.00     0.161 HD
ATOM     28  H   UNL     1       0.801  -2.043  -2.927  1.00  0.00     0.161 HD
ENDBRANCH  22  24
ENDBRANCH  21  22
ENDBRANCH  18  21
ENDBRANCH  11  17
ENDBRANCH   7   8
ENDBRANCH   4   7
ENDBRANCH   2   3
ENDBRANCH   1   2
BRANCH   1  29
ATOM     29  C   UNL     1       0.928  -1.882   2.829  1.00  0.00     0.002 C 
BRANCH  29  30
ATOM     30  C   UNL     1       1.563  -2.282   4.154  1.00  0.00     0.002 C 
BRANCH  30  31
ATOM     31  C   UNL     1       2.728  -3.251   3.994  1.00  0.00     0.021 C 
BRANCH  31  32
ATOM     32  C   UNL     1       3.913  -2.690   3.211  1.00  0.00     0.116 C 
BRANCH  32  33
ATOM     33  N   UNL     1       4.737  -1.776   3.993  1.00  0.00    -0.352 N 
ATOM     34  C   UNL     1       6.106  -1.817   4.140  1.00  0.00     0.251 C 
ATOM     35  H   UNL     1       4.265  -1.054   4.467  1.00  0.00     0.163 HD
ATOM     36  O   UNL     1       6.699  -1.080   4.917  1.00  0.00    -0.269 OA
BRANCH  34  37
ATOM     37  C   UNL     1       6.841  -2.815   3.341  1.00  0.00     0.039 A 
ATOM     38  C   UNL     1       7.478  -3.872   3.991  1.00  0.00     0.014 A 
ATOM     39  C   UNL     1       6.727  -2.786   1.947  1.00  0.00     0.014 A 
ATOM     40  C   UNL     1       7.936  -4.955   3.240  1.00  0.00     0.010 A 
ATOM     41  C   UNL     1       7.122  -3.897   1.212  1.00  0.00     0.010 A 
ATOM     42  C   UNL     1       7.716  -4.997   1.853  1.00  0.00    -0.014 A 
BRANCH  42  43
ATOM     43  C   UNL     1       8.068  -6.196   1.051  1.00  0.00     0.031 A 
ATOM     44  C   UNL     1       9.106  -6.093  -0.031  1.00  0.00     0.074 A 
ATOM     45  C   UNL     1       7.390  -7.347   1.233  1.00  0.00     0.049 A 
ATOM     46  N   UNL     1       9.486  -6.997  -0.897  1.00  0.00    -0.248 NA
ATOM     47  C   UNL     1       9.785  -4.795  -0.177  1.00  0.00     0.031 C 
ATOM     48  C   UNL     1       6.323  -7.559   2.215  1.00  0.00     0.029 A 
ATOM     49  N   UNL     1       7.486  -8.554   0.586  1.00  0.00    -0.354 N 
ATOM     50  C   UNL     1      10.429  -6.372  -1.702  1.00  0.00     0.074 A 
ATOM     51  C   UNL     1      10.532  -5.002  -1.251  1.00  0.00     0.031 C 
ATOM     52  C   UNL     1       5.877  -8.822   2.115  1.00  0.00     0.029 A 
ATOM     53  C   UNL     1       6.593  -9.496   1.037  1.00  0.00     0.049 A 
ATOM     54  H   UNL     1       8.135  -8.728  -0.135  1.00  0.00     0.167 HD
ATOM     55  C   UNL     1      11.156  -6.897  -2.715  1.00  0.00     0.031 A 
ATOM     56  C   UNL     1       6.364 -10.756   0.619  1.00  0.00     0.031 A 
ATOM     57  C   UNL     1      11.066  -8.264  -3.149  1.00  0.00     0.049 A 
ATOM     58  C   UNL     1       7.177 -11.309  -0.519  1.00  0.00     0.074 A 
ATOM     59  C   UNL     1      11.824  -8.914  -4.108  1.00  0.00     0.029 A 
ATOM     60  N   UNL     1      10.158  -9.188  -2.658  1.00  0.00    -0.354 N 
ATOM     61  N   UNL     1       8.135 -10.734  -1.205  1.00  0.00    -0.248 NA
ATOM     62  C   UNL     1       6.879 -12.687  -0.939  1.00  0.00     0.031 C 
ATOM     63  C   UNL     1      11.334 -10.217  -4.239  1.00  0.00     0.029 A 
ATOM     64  C   UNL     1      10.308 -10.393  -3.324  1.00  0.00     0.049 A 
ATOM     65  H   UNL     1       9.504  -9.014  -1.943  1.00  0.00     0.167 HD
ATOM     66  C   UNL     1       8.561 -11.680  -2.127  1.00  0.00     0.074 A 
ATOM     67  C   UNL     1       7.777 -12.876  -1.896  1.00  0.00     0.031 C 
ATOM     68  C   UNL     1       9.513 -11.568  -3.085  1.00  0.00     0.031 A 
BRANCH  55  69
ATOM     69  C   UNL     1      12.112  -5.985  -3.431  1.00  0.00    -0.014 A 
ATOM     70  C   UNL     1      13.288  -5.532  -2.812  1.00  0.00     0.009 A 
ATOM     71  C   UNL     1      11.857  -5.613  -4.760  1.00  0.00     0.009 A 
ATOM     72  C   UNL     1      14.173  -4.700  -3.500  1.00  0.00     0.001 A 
ATOM     73  C   UNL     1      12.757  -4.804  -5.454  1.00  0.00     0.001 A 
ATOM     74  C   UNL     1      13.910  -4.342  -4.821  1.00  0.00     0.000 A 
ENDBRANCH  55  69
BRANCH  56  75
ATOM     75  C   UNL     1       5.310 -11.581   1.266  1.00  0.00    -0.014 A 
ATOM     76  C   UNL     1       5.653 -12.688   2.057  1.00  0.00     0.009 A 
ATOM     77  C   UNL     1       3.951 -11.278   1.080  1.00  0.00     0.009 A 
ATOM     78  C   UNL     1       4.659 -13.489   2.626  1.00  0.00     0.001 A 
ATOM     79  C   UNL     1       2.961 -12.062   1.674  1.00  0.00     0.001 A 
ATOM     80  C   UNL     1       3.315 -13.173   2.438  1.00  0.00     0.000 A 
ENDBRANCH  56  75
BRANCH  68  81
ATOM     81  C   UNL     1       9.764 -12.770  -3.950  1.00  0.00    -0.014 A 
ATOM     82  C   UNL     1       8.851 -13.144  -4.947  1.00  0.00     0.009 A 
ATOM     83  C   UNL     1      10.954 -13.499  -3.804  1.00  0.00     0.009 A 
ATOM     84  C   UNL     1       9.114 -14.243  -5.767  1.00  0.00     0.001 A 
ATOM     85  C   UNL     1      11.227 -14.580  -4.644  1.00  0.00     0.001 A 
ATOM     86  C   UNL     1      10.305 -14.954  -5.620  1.00  0.00     0.000 A 
ENDBRANCH  68  81
ENDBRANCH  42  43
ENDBRANCH  34  37
ENDBRANCH  32  33
ENDBRANCH  31  32
ENDBRANCH  30  31
ENDBRANCH  29  30
ENDBRANCH   1  29
TORSDOF 19
