REMARK SMILES Cc1ccc2cc(C[N@H+]3CC[NH2+][C@H](C(=O)NCCCCCCNC(=O)c4ccc(-c5c6nc(c(-c7ccccc7)c7ccc([nH]7)c(-c7ccccc7)c7nc(c(-c8ccccc8)c8ccc5[nH]8)C=C7)C=C6)cc4)C3)c(N3CCOCC3)nc2c1
REMARK SMILES IDX 19 1 18 2 17 3 16 4 14 5 15 6 13 8 9 9 10 10 74 11 11 13
REMARK SMILES IDX 12 14 8 17 7 18 1 19 2 20 3 21 84 22 4 23 83 24 5 25 82 26
REMARK SMILES IDX 6 27 75 28 76 29 77 30 81 31 78 32 80 33 79 34 20 35 21 36
REMARK SMILES IDX 22 37 23 38 24 39 25 41 26 42 27 43 73 44 28 45 72 46 29 47
REMARK SMILES IDX 30 48 31 49 66 50 32 51 71 52 65 53 67 54 33 55 70 56 64 57
REMARK SMILES IDX 63 58 34 60 56 61 41 62 55 63 42 64 45 65 54 66 68 67 43 68
REMARK SMILES IDX 44 69 53 71 69 72 46 73 35 74 36 75 40 76 37 77 39 78 38 79
REMARK SMILES IDX 57 80 58 81 62 82 59 83 61 84 60 85 47 86 48 87 52 88 49 89
REMARK SMILES IDX 51 90 50 91
REMARK H PARENT 16 7 9 12 12 15 12 16 23 40 67 59 45 70
REMARK Flexibility Score: inf
ROOT
ATOM      1  C   UNL     1       4.739  -3.929   2.010  1.00  0.00     0.002 C 
ENDROOT
BRANCH   1   2
ATOM      2  C   UNL     1       3.893  -4.283   3.237  1.00  0.00     0.021 C 
BRANCH   2   3
ATOM      3  C   UNL     1       2.420  -4.616   2.983  1.00  0.00     0.116 C 
BRANCH   3   4
ATOM      4  N   UNL     1       2.160  -5.990   2.533  1.00  0.00    -0.351 N 
ATOM      5  C   UNL     1       0.992  -6.739   2.653  1.00  0.00     0.284 C 
ATOM      6  O   UNL     1       0.951  -7.880   2.192  1.00  0.00    -0.268 OA
ATOM      7  H   UNL     1       2.912  -6.443   2.087  1.00  0.00     0.163 HD
BRANCH   5   8
ATOM      8  C   UNL     1      -0.234  -6.076   3.306  1.00  0.00     0.328 C 
ATOM      9  N   UNL     1      -1.573  -5.499   5.289  1.00  0.00    -0.321 N 
ATOM     10  C   UNL     1      -2.803  -5.427   4.501  1.00  0.00     0.324 C 
ATOM     11  C   UNL     1      -0.629  -6.487   4.717  1.00  0.00     0.339 C 
ATOM     12  H   UNL     1      -1.821  -5.883   6.201  1.00  0.00     0.348 HD
ATOM     13  C   UNL     1      -2.618  -5.407   2.959  1.00  0.00     0.323 C 
ATOM     14  N   UNL     1      -1.397  -6.024   2.369  1.00  0.00    -0.327 N 
ATOM     15  H   UNL     1      -1.126  -5.480   1.550  1.00  0.00     0.347 HD
ATOM     16  H   UNL     1      -1.635  -6.989   2.136  1.00  0.00     0.347 HD
BRANCH   9  17
ATOM     17  C   UNL     1      -1.027  -4.205   5.768  1.00  0.00     0.303 C 
BRANCH  17  18
ATOM     18  C   UNL     1      -0.973  -2.915   4.944  1.00  0.00     0.049 A 
ATOM     19  C   UNL     1       0.698   1.470   0.376  1.00  0.00     0.044 C 
ATOM     20  C   UNL     1       0.225   0.343   1.243  1.00  0.00    -0.049 A 
ATOM     21  C   UNL     1       0.201  -0.928   0.677  1.00  0.00     0.004 A 
ATOM     22  C   UNL     1      -0.124   0.514   2.611  1.00  0.00     0.032 A 
ATOM     23  C   UNL     1      -0.157  -1.995   1.465  1.00  0.00     0.010 A 
ATOM     24  C   UNL     1      -0.481  -0.562   3.448  1.00  0.00     0.073 A 
ATOM     25  C   UNL     1      -0.463  -1.793   2.819  1.00  0.00     0.001 A 
ATOM     26  N   UNL     1      -0.830  -0.491   4.772  1.00  0.00    -0.230 NA
ATOM     27  C   UNL     1      -0.739  -2.904   3.580  1.00  0.00     0.023 A 
ATOM     28  C   UNL     1      -1.064  -1.635   5.505  1.00  0.00     0.138 A 
BRANCH  28  29
ATOM     29  N   UNL     1      -1.575  -1.488   6.772  1.00  0.00    -0.352 N 
ATOM     30  C   UNL     1      -0.844  -1.754   8.006  1.00  0.00     0.146 C 
ATOM     31  C   UNL     1      -2.878  -0.849   6.921  1.00  0.00     0.146 C 
ATOM     32  C   UNL     1      -1.770  -2.466   9.021  1.00  0.00     0.181 C 
ATOM     33  C   UNL     1      -3.709  -1.694   7.900  1.00  0.00     0.181 C 
ATOM     34  O   UNL     1      -3.042  -1.810   9.171  1.00  0.00    -0.378 OA
ENDBRANCH  28  29
ENDBRANCH  17  18
ENDBRANCH   9  17
ENDBRANCH   5   8
ENDBRANCH   3   4
ENDBRANCH   2   3
ENDBRANCH   1   2
BRANCH   1  35
ATOM     35  C   UNL     1       4.417  -2.609   1.297  1.00  0.00     0.002 C 
BRANCH  35  36
ATOM     36  C   UNL     1       4.476  -1.318   2.121  1.00  0.00     0.021 C 
BRANCH  36  37
ATOM     37  C   UNL     1       5.748  -1.051   2.926  1.00  0.00     0.116 C 
BRANCH  37  38
ATOM     38  N   UNL     1       6.967  -0.999   2.132  1.00  0.00    -0.352 N 
ATOM     39  C   UNL     1       8.014  -0.105   2.160  1.00  0.00     0.251 C 
ATOM     40  H   UNL     1       7.057  -1.718   1.466  1.00  0.00     0.163 HD
ATOM     41  O   UNL     1       8.941  -0.231   1.360  1.00  0.00    -0.269 OA
BRANCH  39  42
ATOM     42  C   UNL     1       8.024   1.041   3.103  1.00  0.00     0.039 A 
ATOM     43  C   UNL     1       7.647   0.899   4.438  1.00  0.00     0.014 A 
ATOM     44  C   UNL     1       8.427   2.297   2.631  1.00  0.00     0.014 A 
ATOM     45  C   UNL     1       7.500   2.029   5.244  1.00  0.00     0.010 A 
ATOM     46  C   UNL     1       8.350   3.421   3.463  1.00  0.00     0.010 A 
ATOM     47  C   UNL     1       7.830   3.307   4.761  1.00  0.00    -0.014 A 
BRANCH  47  48
ATOM     48  C   UNL     1       7.591   4.506   5.611  1.00  0.00     0.031 A 
ATOM     49  C   UNL     1       6.555   5.530   5.218  1.00  0.00     0.074 A 
ATOM     50  C   UNL     1       8.257   4.646   6.775  1.00  0.00     0.049 A 
ATOM     51  N   UNL     1       6.185   6.613   5.855  1.00  0.00    -0.248 NA
ATOM     52  C   UNL     1       5.837   5.311   3.951  1.00  0.00     0.031 C 
ATOM     53  C   UNL     1       9.261   3.713   7.288  1.00  0.00     0.029 A 
ATOM     54  N   UNL     1       8.167   5.607   7.752  1.00  0.00    -0.354 N 
ATOM     55  C   UNL     1       5.208   7.208   5.064  1.00  0.00     0.074 A 
ATOM     56  C   UNL     1       5.058   6.383   3.887  1.00  0.00     0.031 C 
ATOM     57  C   UNL     1       9.647   4.112   8.510  1.00  0.00     0.029 A 
ATOM     58  C   UNL     1       8.968   5.362   8.842  1.00  0.00     0.049 A 
ATOM     59  H   UNL     1       7.584   6.397   7.679  1.00  0.00     0.167 HD
ATOM     60  C   UNL     1       4.491   8.331   5.304  1.00  0.00     0.031 A 
ATOM     61  C   UNL     1       9.145   6.062   9.980  1.00  0.00     0.031 A 
ATOM     62  C   UNL     1       4.619   9.142   6.486  1.00  0.00     0.049 A 
ATOM     63  C   UNL     1       8.381   7.340  10.188  1.00  0.00     0.074 A 
ATOM     64  C   UNL     1       3.913  10.286   6.818  1.00  0.00     0.029 A 
ATOM     65  N   UNL     1       5.500   8.897   7.526  1.00  0.00    -0.354 N 
ATOM     66  N   UNL     1       7.457   7.879   9.432  1.00  0.00    -0.248 NA
ATOM     67  C   UNL     1       8.688   8.109  11.404  1.00  0.00     0.031 C 
ATOM     68  C   UNL     1       4.406  10.765   8.033  1.00  0.00     0.029 A 
ATOM     69  C   UNL     1       5.373   9.884   8.488  1.00  0.00     0.049 A 
ATOM     70  H   UNL     1       6.122   8.135   7.574  1.00  0.00     0.167 HD
ATOM     71  C   UNL     1       7.056   9.034  10.090  1.00  0.00     0.074 A 
ATOM     72  C   UNL     1       7.824   9.112  11.314  1.00  0.00     0.031 C 
ATOM     73  C   UNL     1       6.133   9.949   9.708  1.00  0.00     0.031 A 
BRANCH  60  74
ATOM     74  C   UNL     1       3.489   8.776   4.275  1.00  0.00    -0.014 A 
ATOM     75  C   UNL     1       3.726   9.947   3.537  1.00  0.00     0.009 A 
ATOM     76  C   UNL     1       2.256   8.123   4.137  1.00  0.00     0.009 A 
ATOM     77  C   UNL     1       2.739  10.469   2.698  1.00  0.00     0.001 A 
ATOM     78  C   UNL     1       1.279   8.634   3.278  1.00  0.00     0.001 A 
ATOM     79  C   UNL     1       1.517   9.812   2.570  1.00  0.00     0.000 A 
ENDBRANCH  60  74
BRANCH  61  80
ATOM     80  C   UNL     1      10.084   5.561  11.020  1.00  0.00    -0.014 A 
ATOM     81  C   UNL     1      11.466   5.513  10.776  1.00  0.00     0.009 A 
ATOM     82  C   UNL     1       9.601   5.113  12.259  1.00  0.00     0.009 A 
ATOM     83  C   UNL     1      12.341   5.007  11.739  1.00  0.00     0.001 A 
ATOM     84  C   UNL     1      10.482   4.638  13.234  1.00  0.00     0.001 A 
ATOM     85  C   UNL     1      11.849   4.577  12.970  1.00  0.00     0.000 A 
ENDBRANCH  61  80
BRANCH  73  86
ATOM     86  C   UNL     1       5.868  11.111  10.623  1.00  0.00    -0.014 A 
ATOM     87  C   UNL     1       4.635  11.205  11.289  1.00  0.00     0.009 A 
ATOM     88  C   UNL     1       6.786  12.165  10.738  1.00  0.00     0.009 A 
ATOM     89  C   UNL     1       4.319  12.338  12.038  1.00  0.00     0.001 A 
ATOM     90  C   UNL     1       6.479  13.286  11.513  1.00  0.00     0.001 A 
ATOM     91  C   UNL     1       5.242  13.376  12.153  1.00  0.00     0.000 A 
ENDBRANCH  73  86
ENDBRANCH  47  48
ENDBRANCH  39  42
ENDBRANCH  37  38
ENDBRANCH  36  37
ENDBRANCH  35  36
ENDBRANCH   1  35
TORSDOF 16
