REMARK SMILES O=C(COc1ccccc1/C=N/NC(=O)c1cc(-c2ccc(F)cc2)nc2ccccc12)NCCCCCCNC(=O)c1ccc(-c2c3nc(c(-c4ccccc4)c4ccc([nH]4)c(-c4ccccc4)c4nc(c(-c5ccccc5)c5ccc2[nH]5)C=C4)C=C3)cc1
REMARK SMILES IDX 34 1 33 2 1 3 2 4 3 6 4 7 5 8 6 9 10 10 7 11 9 12 8 13 11 14
REMARK SMILES IDX 12 15 13 16 14 17 15 19 16 20 17 21 32 22 18 23 27 24 31 25
REMARK SMILES IDX 26 26 28 27 30 28 29 29 19 30 20 31 25 32 21 33 24 34 22 35
REMARK SMILES IDX 23 36 35 37 36 38 37 39 38 40 39 41 40 42 41 43 42 45 43 46
REMARK SMILES IDX 44 47 90 48 45 49 89 50 46 51 47 52 48 53 83 54 49 55 88 56
REMARK SMILES IDX 82 57 84 58 50 59 87 60 81 61 80 62 51 64 73 65 58 66 72 67
REMARK SMILES IDX 59 68 62 69 71 70 85 71 60 72 61 73 70 75 86 76 63 77 52 78
REMARK SMILES IDX 53 79 57 80 54 81 56 82 55 83 74 84 75 85 79 86 76 87 78 88
REMARK SMILES IDX 77 89 64 90 65 91 69 92 66 93 68 94 67 95
REMARK H PARENT 33 5 13 18 40 44 84 63 62 74
REMARK Flexibility Score: inf
ROOT
ATOM      1  C   UNL     1       3.433   1.083   2.106  1.00  0.00     0.116 C 
ENDROOT
BRANCH   1   2
ATOM      2  N   UNL     1       4.029   0.482   0.947  1.00  0.00    -0.353 N 
ATOM      3  O   UNL     1       3.172  -1.663   1.046  1.00  0.00    -0.271 OA
ATOM      4  C   UNL     1       3.541  -0.708   0.407  1.00  0.00     0.257 C 
ATOM      5  H   UNL     1       4.801   0.920   0.523  1.00  0.00     0.163 HD
BRANCH   4   6
ATOM      6  C   UNL     1       3.477  -0.674  -1.112  1.00  0.00     0.329 C 
BRANCH   6   7
ATOM      7  O   UNL     1       3.844   0.647  -1.499  1.00  0.00    -0.483 OA
BRANCH   7   8
ATOM      8  C   UNL     1       2.917   1.312  -2.240  1.00  0.00     0.128 A 
ATOM      9  C   UNL     1       3.393   1.591  -3.535  1.00  0.00     0.047 A 
ATOM     10  C   UNL     1       1.751   1.927  -1.764  1.00  0.00     0.037 A 
ATOM     11  C   UNL     1       2.743   2.497  -4.366  1.00  0.00     0.004 A 
ATOM     12  C   UNL     1       1.119   2.856  -2.624  1.00  0.00     0.013 A 
ATOM     13  C   UNL     1       1.610   3.143  -3.902  1.00  0.00     0.001 A 
BRANCH  10  14
ATOM     14  C   UNL     1       1.069   1.865  -0.432  1.00  0.00     0.145 C 
ATOM     15  N   UNL     1       0.826   0.862   0.378  1.00  0.00    -0.180 NA
BRANCH  15  16
ATOM     16  N   UNL     1      -0.142   1.228   1.312  1.00  0.00    -0.243 N 
ATOM     17  C   UNL     1      -0.591   0.716   2.524  1.00  0.00     0.272 C 
ATOM     18  H   UNL     1      -0.623   2.046   1.050  1.00  0.00     0.194 HD
ATOM     19  O   UNL     1      -1.631   1.248   2.931  1.00  0.00    -0.267 OA
BRANCH  17  20
ATOM     20  C   UNL     1       0.120  -0.256   3.417  1.00  0.00     0.053 A 
ATOM     21  C   UNL     1       0.942  -1.266   2.908  1.00  0.00     0.043 A 
ATOM     22  C   UNL     1      -0.088  -0.200   4.854  1.00  0.00     0.013 A 
ATOM     23  C   UNL     1       1.746  -1.944   3.812  1.00  0.00     0.072 A 
ATOM     24  C   UNL     1       0.860  -0.875   5.633  1.00  0.00     0.072 A 
ATOM     25  C   UNL     1      -1.160   0.374   5.601  1.00  0.00     0.011 A 
ATOM     26  N   UNL     1       1.824  -1.588   5.111  1.00  0.00    -0.248 NA
ATOM     27  C   UNL     1       0.794  -0.957   7.011  1.00  0.00     0.029 A 
ATOM     28  C   UNL     1      -1.277   0.213   6.993  1.00  0.00     0.001 A 
ATOM     29  C   UNL     1      -0.290  -0.449   7.704  1.00  0.00     0.002 A 
BRANCH  23  30
ATOM     30  C   UNL     1       2.417  -3.249   3.704  1.00  0.00     0.000 A 
ATOM     31  C   UNL     1       1.699  -4.349   4.228  1.00  0.00     0.013 A 
ATOM     32  C   UNL     1       3.823  -3.310   3.715  1.00  0.00     0.013 A 
ATOM     33  C   UNL     1       2.361  -5.367   4.916  1.00  0.00     0.040 A 
ATOM     34  C   UNL     1       4.484  -4.336   4.395  1.00  0.00     0.040 A 
ATOM     35  C   UNL     1       3.743  -5.326   5.027  1.00  0.00     0.123 A 
ATOM     36  F   UNL     1       4.367  -6.220   5.807  1.00  0.00    -0.207 F 
ENDBRANCH  23  30
ENDBRANCH  17  20
ENDBRANCH  15  16
ENDBRANCH  10  14
ENDBRANCH   7   8
ENDBRANCH   6   7
ENDBRANCH   4   6
ENDBRANCH   1   2
BRANCH   1  37
ATOM     37  C   UNL     1       4.069   0.706   3.420  1.00  0.00     0.021 C 
BRANCH  37  38
ATOM     38  C   UNL     1       5.422   1.359   3.650  1.00  0.00     0.002 C 
BRANCH  38  39
ATOM     39  C   UNL     1       5.399   2.889   3.699  1.00  0.00     0.002 C 
BRANCH  39  40
ATOM     40  C   UNL     1       4.382   3.515   4.658  1.00  0.00     0.021 C 
BRANCH  40  41
ATOM     41  C   UNL     1       4.372   2.943   6.073  1.00  0.00     0.116 C 
BRANCH  41  42
ATOM     42  N   UNL     1       5.703   2.887   6.652  1.00  0.00    -0.352 N 
ATOM     43  C   UNL     1       6.203   3.457   7.788  1.00  0.00     0.251 C 
ATOM     44  H   UNL     1       6.351   2.350   6.142  1.00  0.00     0.163 HD
ATOM     45  O   UNL     1       7.412   3.441   8.001  1.00  0.00    -0.269 OA
BRANCH  43  46
ATOM     46  C   UNL     1       5.298   4.110   8.753  1.00  0.00     0.039 A 
ATOM     47  C   UNL     1       5.697   5.326   9.313  1.00  0.00     0.014 A 
ATOM     48  C   UNL     1       4.091   3.517   9.136  1.00  0.00     0.014 A 
ATOM     49  C   UNL     1       4.865   5.969  10.227  1.00  0.00     0.010 A 
ATOM     50  C   UNL     1       3.229   4.195   9.993  1.00  0.00     0.010 A 
ATOM     51  C   UNL     1       3.614   5.420  10.556  1.00  0.00    -0.014 A 
BRANCH  51  52
ATOM     52  C   UNL     1       2.706   6.129  11.488  1.00  0.00     0.031 A 
ATOM     53  C   UNL     1       2.379   5.540  12.830  1.00  0.00     0.074 A 
ATOM     54  C   UNL     1       2.154   7.296  11.106  1.00  0.00     0.049 A 
ATOM     55  N   UNL     1       1.635   6.035  13.787  1.00  0.00    -0.248 NA
ATOM     56  C   UNL     1       2.941   4.214  13.130  1.00  0.00     0.031 C 
ATOM     57  C   UNL     1       2.360   7.947   9.810  1.00  0.00     0.029 A 
ATOM     58  N   UNL     1       1.313   8.147  11.776  1.00  0.00    -0.354 N 
ATOM     59  C   UNL     1       1.625   5.076  14.792  1.00  0.00     0.074 A 
ATOM     60  C   UNL     1       2.398   3.952  14.310  1.00  0.00     0.031 C 
ATOM     61  C   UNL     1       1.704   9.118   9.799  1.00  0.00     0.029 A 
ATOM     62  C   UNL     1       1.005   9.283  11.069  1.00  0.00     0.049 A 
ATOM     63  H   UNL     1       0.964   7.961  12.678  1.00  0.00     0.167 HD
ATOM     64  C   UNL     1       1.040   5.132  16.012  1.00  0.00     0.031 A 
ATOM     65  C   UNL     1       0.253  10.344  11.411  1.00  0.00     0.031 A 
ATOM     66  C   UNL     1       0.279   6.255  16.492  1.00  0.00     0.049 A 
ATOM     67  C   UNL     1      -0.386  10.382  12.769  1.00  0.00     0.074 A 
ATOM     68  C   UNL     1      -0.292   6.441  17.739  1.00  0.00     0.029 A 
ATOM     69  N   UNL     1      -0.024   7.380  15.741  1.00  0.00    -0.354 N 
ATOM     70  N   UNL     1      -0.314   9.505  13.742  1.00  0.00    -0.248 NA
ATOM     71  C   UNL     1      -1.200  11.565  13.079  1.00  0.00     0.031 C 
ATOM     72  C   UNL     1      -0.988   7.656  17.723  1.00  0.00     0.029 A 
ATOM     73  C   UNL     1      -0.802   8.251  16.485  1.00  0.00     0.049 A 
ATOM     74  H   UNL     1       0.270   7.537  14.814  1.00  0.00     0.167 HD
ATOM     75  C   UNL     1      -1.052  10.041  14.788  1.00  0.00     0.074 A 
ATOM     76  C   UNL     1      -1.546  11.327  14.336  1.00  0.00     0.031 C 
ATOM     77  C   UNL     1      -1.299   9.518  16.014  1.00  0.00     0.031 A 
BRANCH  64  78
ATOM     78  C   UNL     1       1.190   3.930  16.904  1.00  0.00    -0.014 A 
ATOM     79  C   UNL     1       2.428   3.589  17.472  1.00  0.00     0.009 A 
ATOM     80  C   UNL     1       0.070   3.133  17.191  1.00  0.00     0.009 A 
ATOM     81  C   UNL     1       2.550   2.451  18.274  1.00  0.00     0.001 A 
ATOM     82  C   UNL     1       0.189   2.014  18.017  1.00  0.00     0.001 A 
ATOM     83  C   UNL     1       1.430   1.667  18.548  1.00  0.00     0.000 A 
ENDBRANCH  64  78
BRANCH  65  84
ATOM     84  C   UNL     1       0.100  11.480  10.467  1.00  0.00    -0.014 A 
ATOM     85  C   UNL     1       0.734  12.704  10.726  1.00  0.00     0.009 A 
ATOM     86  C   UNL     1      -0.674  11.347   9.303  1.00  0.00     0.009 A 
ATOM     87  C   UNL     1       0.578  13.781   9.851  1.00  0.00     0.001 A 
ATOM     88  C   UNL     1      -0.806  12.418   8.416  1.00  0.00     0.001 A 
ATOM     89  C   UNL     1      -0.187  13.636   8.695  1.00  0.00     0.000 A 
ENDBRANCH  65  84
BRANCH  77  90
ATOM     90  C   UNL     1      -2.122  10.353  16.954  1.00  0.00    -0.014 A 
ATOM     91  C   UNL     1      -3.498  10.543  16.745  1.00  0.00     0.009 A 
ATOM     92  C   UNL     1      -1.514  10.949  18.070  1.00  0.00     0.009 A 
ATOM     93  C   UNL     1      -4.238  11.351  17.611  1.00  0.00     0.001 A 
ATOM     94  C   UNL     1      -2.263  11.730  18.951  1.00  0.00     0.001 A 
ATOM     95  C   UNL     1      -3.621  11.940  18.714  1.00  0.00     0.000 A 
ENDBRANCH  77  90
ENDBRANCH  51  52
ENDBRANCH  43  46
ENDBRANCH  41  42
ENDBRANCH  40  41
ENDBRANCH  39  40
ENDBRANCH  38  39
ENDBRANCH  37  38
ENDBRANCH   1  37
TORSDOF 19
