REMARK SMILES CCc1ccc2c(CC(=O)NCCCCCCNC(=O)c3ccc(-c4c5nc(c(-c6ccccc6)c6ccc([nH]6)c(-c6ccccc6)c6nc(c(-c7ccccc7)c7ccc4[nH]7)C=C6)C=C5)cc3)c(C(=O)c3cc(C)ccn3)[nH]c2c1
REMARK SMILES IDX 14 1 13 2 12 3 11 4 9 5 10 6 8 8 7 9 3 10 4 11 81 12 5 13
REMARK SMILES IDX 80 14 6 15 79 16 69 17 2 19 1 20 70 21 71 22 72 23 73 24
REMARK SMILES IDX 78 25 74 26 77 27 75 28 76 29 15 30 16 31 17 32 18 33 19 34
REMARK SMILES IDX 20 36 21 37 22 38 68 39 23 40 67 41 24 42 25 43 26 44 61 45
REMARK SMILES IDX 27 46 66 47 60 48 62 49 28 50 65 51 59 52 58 53 29 55 51 56
REMARK SMILES IDX 36 57 50 58 37 59 40 60 49 61 63 62 38 63 39 64 48 66 64 67
REMARK SMILES IDX 41 68 30 69 31 70 35 71 32 72 34 73 33 74 52 75 53 76 57 77
REMARK SMILES IDX 54 78 56 79 55 80 42 81 43 82 47 83 44 84 46 85 45 86
REMARK H PARENT 11 7 79 18 18 35 62 54 40 65
REMARK Flexibility Score: inf
ROOT
ATOM      1  C   UNL     1      -1.864  -5.554   5.227  1.00  0.00     0.002 C 
ENDROOT
BRANCH   1   2
ATOM      2  C   UNL     1      -0.814  -5.080   4.213  1.00  0.00     0.021 C 
BRANCH   2   3
ATOM      3  C   UNL     1       0.604  -4.987   4.774  1.00  0.00     0.116 C 
BRANCH   3   4
ATOM      4  N   UNL     1       1.166  -6.288   5.058  1.00  0.00    -0.356 N 
ATOM      5  C   UNL     1       2.163  -6.973   4.424  1.00  0.00     0.224 C 
ATOM      6  O   UNL     1       2.571  -7.997   4.982  1.00  0.00    -0.275 OA
ATOM      7  H   UNL     1       0.768  -6.754   5.828  1.00  0.00     0.163 HD
BRANCH   5   8
ATOM      8  C   UNL     1       2.849  -6.426   3.178  1.00  0.00     0.138 C 
BRANCH   8   9
ATOM      9  C   UNL     1       1.943  -6.066   2.028  1.00  0.00    -0.002 A 
ATOM     10  C   UNL     1       0.923  -2.433   0.095  1.00  0.00    -0.046 A 
ATOM     11  C   UNL     1       1.931  -2.354   1.061  1.00  0.00     0.004 A 
ATOM     12  C   UNL     1       0.360  -3.688  -0.207  1.00  0.00     0.030 A 
ATOM     13  C   UNL     1       2.366  -3.492   1.754  1.00  0.00     0.011 A 
ATOM     14  C   UNL     1       0.807  -4.814   0.497  1.00  0.00     0.046 A 
ATOM     15  C   UNL     1       1.785  -4.747   1.480  1.00  0.00     0.004 A 
ATOM     16  N   UNL     1       0.422  -6.128   0.406  1.00  0.00    -0.352 N 
ATOM     17  C   UNL     1       1.150  -6.926   1.266  1.00  0.00     0.093 A 
ATOM     18  H   UNL     1      -0.283  -6.460  -0.196  1.00  0.00     0.167 HD
BRANCH  10  19
ATOM     19  C   UNL     1       0.427  -1.228  -0.677  1.00  0.00     0.032 C 
ATOM     20  C   UNL     1       0.817   0.142  -0.134  1.00  0.00     0.009 C 
ENDBRANCH  10  19
BRANCH  17  21
ATOM     21  C   UNL     1       1.053  -8.380   1.341  1.00  0.00     0.227 C 
ATOM     22  O   UNL     1       1.695  -9.062   2.137  1.00  0.00    -0.285 OA
BRANCH  21  23
ATOM     23  C   UNL     1       0.182  -9.091   0.368  1.00  0.00     0.113 A 
ATOM     24  C   UNL     1       0.502  -9.070  -0.987  1.00  0.00     0.036 A 
ATOM     25  N   UNL     1      -0.903  -9.724   0.880  1.00  0.00    -0.253 NA
ATOM     26  C   UNL     1      -0.341  -9.738  -1.877  1.00  0.00    -0.047 A 
ATOM     27  C   UNL     1      -1.679 -10.391   0.004  1.00  0.00     0.112 A 
ATOM     28  C   UNL     1      -0.070  -9.744  -3.351  1.00  0.00     0.044 C 
ATOM     29  C   UNL     1      -1.447 -10.421  -1.364  1.00  0.00     0.023 A 
ENDBRANCH  21  23
ENDBRANCH  17  21
ENDBRANCH   8   9
ENDBRANCH   5   8
ENDBRANCH   3   4
ENDBRANCH   2   3
ENDBRANCH   1   2
BRANCH   1  30
ATOM     30  C   UNL     1      -1.982  -4.709   6.501  1.00  0.00     0.002 C 
BRANCH  30  31
ATOM     31  C   UNL     1      -2.229  -3.214   6.278  1.00  0.00     0.021 C 
BRANCH  31  32
ATOM     32  C   UNL     1      -3.515  -2.880   5.528  1.00  0.00     0.116 C 
BRANCH  32  33
ATOM     33  N   UNL     1      -4.704  -3.268   6.271  1.00  0.00    -0.352 N 
ATOM     34  C   UNL     1      -5.788  -2.514   6.647  1.00  0.00     0.251 C 
ATOM     35  H   UNL     1      -4.736  -4.213   6.545  1.00  0.00     0.163 HD
ATOM     36  O   UNL     1      -6.617  -2.974   7.428  1.00  0.00    -0.269 OA
BRANCH  34  37
ATOM     37  C   UNL     1      -5.956  -1.139   6.131  1.00  0.00     0.039 A 
ATOM     38  C   UNL     1      -6.320  -0.124   7.021  1.00  0.00     0.014 A 
ATOM     39  C   UNL     1      -5.781  -0.852   4.774  1.00  0.00     0.014 A 
ATOM     40  C   UNL     1      -6.443   1.190   6.564  1.00  0.00     0.010 A 
ATOM     41  C   UNL     1      -5.848   0.467   4.330  1.00  0.00     0.010 A 
ATOM     42  C   UNL     1      -6.175   1.501   5.221  1.00  0.00    -0.014 A 
BRANCH  42  43
ATOM     43  C   UNL     1      -6.213   2.902   4.733  1.00  0.00     0.031 A 
ATOM     44  C   UNL     1      -7.247   3.329   3.728  1.00  0.00     0.074 A 
ATOM     45  C   UNL     1      -5.269   3.773   5.138  1.00  0.00     0.049 A 
ATOM     46  N   UNL     1      -7.382   4.482   3.123  1.00  0.00    -0.248 NA
ATOM     47  C   UNL     1      -8.245   2.322   3.336  1.00  0.00     0.031 C 
ATOM     48  C   UNL     1      -4.191   3.476   6.084  1.00  0.00     0.029 A 
ATOM     49  N   UNL     1      -5.058   5.084   4.794  1.00  0.00    -0.354 N 
ATOM     50  C   UNL     1      -8.466   4.334   2.268  1.00  0.00     0.074 A 
ATOM     51  C   UNL     1      -8.930   2.970   2.404  1.00  0.00     0.031 C 
ATOM     52  C   UNL     1      -3.443   4.578   6.256  1.00  0.00     0.029 A 
ATOM     53  C   UNL     1      -3.963   5.644   5.406  1.00  0.00     0.049 A 
ATOM     54  H   UNL     1      -5.636   5.577   4.167  1.00  0.00     0.167 HD
ATOM     55  C   UNL     1      -9.034   5.255   1.452  1.00  0.00     0.031 A 
ATOM     56  C   UNL     1      -3.429   6.874   5.289  1.00  0.00     0.031 A 
ATOM     57  C   UNL     1      -8.584   6.615   1.323  1.00  0.00     0.049 A 
ATOM     58  C   UNL     1      -4.070   7.872   4.367  1.00  0.00     0.074 A 
ATOM     59  C   UNL     1      -9.131   7.636   0.565  1.00  0.00     0.029 A 
ATOM     60  N   UNL     1      -7.478   7.144   1.969  1.00  0.00    -0.354 N 
ATOM     61  N   UNL     1      -5.129   7.732   3.607  1.00  0.00    -0.248 NA
ATOM     62  C   UNL     1      -3.444   9.200   4.292  1.00  0.00     0.031 C 
ATOM     63  C   UNL     1      -8.329   8.772   0.718  1.00  0.00     0.029 A 
ATOM     64  C   UNL     1      -7.311   8.471   1.607  1.00  0.00     0.049 A 
ATOM     65  H   UNL     1      -6.896   6.651   2.591  1.00  0.00     0.167 HD
ATOM     66  C   UNL     1      -5.309   8.959   2.982  1.00  0.00     0.074 A 
ATOM     67  C   UNL     1      -4.260   9.835   3.463  1.00  0.00     0.031 C 
ATOM     68  C   UNL     1      -6.260   9.328   2.090  1.00  0.00     0.031 A 
BRANCH  55  69
ATOM     69  C   UNL     1     -10.206   4.813   0.623  1.00  0.00    -0.014 A 
ATOM     70  C   UNL     1     -11.460   4.572   1.208  1.00  0.00     0.009 A 
ATOM     71  C   UNL     1     -10.066   4.675  -0.767  1.00  0.00     0.009 A 
ATOM     72  C   UNL     1     -12.540   4.168   0.421  1.00  0.00     0.001 A 
ATOM     73  C   UNL     1     -11.155   4.295  -1.554  1.00  0.00     0.001 A 
ATOM     74  C   UNL     1     -12.389   4.034  -0.959  1.00  0.00     0.000 A 
ENDBRANCH  55  69
BRANCH  56  75
ATOM     75  C   UNL     1      -2.221   7.237   6.072  1.00  0.00    -0.014 A 
ATOM     76  C   UNL     1      -2.316   8.123   7.155  1.00  0.00     0.009 A 
ATOM     77  C   UNL     1      -0.966   6.704   5.737  1.00  0.00     0.009 A 
ATOM     78  C   UNL     1      -1.175   8.488   7.873  1.00  0.00     0.001 A 
ATOM     79  C   UNL     1       0.169   7.051   6.472  1.00  0.00     0.001 A 
ATOM     80  C   UNL     1       0.065   7.949   7.534  1.00  0.00     0.000 A 
ENDBRANCH  56  75
BRANCH  68  81
ATOM     81  C   UNL     1      -6.224  10.746   1.598  1.00  0.00    -0.014 A 
ATOM     82  C   UNL     1      -5.254  11.169   0.676  1.00  0.00     0.009 A 
ATOM     83  C   UNL     1      -7.194  11.660   2.037  1.00  0.00     0.009 A 
ATOM     84  C   UNL     1      -5.239  12.492   0.228  1.00  0.00     0.001 A 
ATOM     85  C   UNL     1      -7.192  12.973   1.567  1.00  0.00     0.001 A 
ATOM     86  C   UNL     1      -6.210  13.390   0.669  1.00  0.00     0.000 A 
ENDBRANCH  68  81
ENDBRANCH  42  43
ENDBRANCH  34  37
ENDBRANCH  32  33
ENDBRANCH  31  32
ENDBRANCH  30  31
ENDBRANCH   1  30
TORSDOF 17
