REMARK SMILES CC(C)C[C@H](NC(=O)CNC(=O)[C@@H]([NH3+])C(C)C)C(=O)NCCCCCCNC(=O)c1ccc(-c2c3nc(c(-c4ccccc4)c4ccc([nH]4)c(-c4ccccc4)c4nc(c(-c5ccccc5)c5ccc2[nH]5)C=C4)C=C3)cc1
REMARK SMILES IDX 22 1 21 2 20 3 18 4 19 5 5 7 4 8 2 9 1 10 3 11 6 12 7 13
REMARK SMILES IDX 8 15 9 16 10 17 11 18 12 20 13 21 14 22 15 26 16 27 17 28
REMARK SMILES IDX 23 29 24 30 25 31 26 32 27 33 28 34 29 36 30 37 31 38 77 39
REMARK SMILES IDX 32 40 76 41 33 42 34 43 35 44 70 45 36 46 75 47 69 48 71 49
REMARK SMILES IDX 37 50 74 51 68 52 67 53 38 55 60 56 45 57 59 58 46 59 49 60
REMARK SMILES IDX 58 61 72 62 47 63 48 64 57 66 73 67 50 68 39 69 40 70 44 71
REMARK SMILES IDX 41 72 43 73 42 74 61 75 62 76 66 77 63 78 65 79 64 80 51 81
REMARK SMILES IDX 52 82 56 83 53 84 55 85 54 86
REMARK H PARENT 20 6 6 14 10 19 14 23 14 24 14 25 27 35 71 54 49 65
REMARK Flexibility Score: inf
ROOT
ATOM      1  C   UNL     1      -3.777  -3.845  -1.684  1.00  0.00     0.021 C 
ENDROOT
BRANCH   1   2
ATOM      2  C   UNL     1      -3.154  -2.749  -2.538  1.00  0.00     0.116 C 
BRANCH   2   3
ATOM      3  N   UNL     1      -3.604  -1.442  -2.115  1.00  0.00    -0.354 N 
ATOM      4  C   UNL     1      -2.902  -0.306  -1.865  1.00  0.00     0.242 C 
ATOM      5  O   UNL     1      -3.546   0.730  -1.667  1.00  0.00    -0.273 OA
ATOM      6  H   UNL     1      -4.577  -1.362  -1.988  1.00  0.00     0.163 HD
BRANCH   4   7
ATOM      7  C   UNL     1      -1.365  -0.268  -1.965  1.00  0.00     0.171 C 
BRANCH   7   8
ATOM      8  C   UNL     1      -0.874  -0.399  -3.414  1.00  0.00     0.038 C 
BRANCH   8   9
ATOM      9  C   UNL     1      -1.434   0.676  -4.376  1.00  0.00    -0.015 C 
ATOM     10  C   UNL     1      -1.007   2.093  -3.999  1.00  0.00     0.007 C 
ATOM     11  C   UNL     1      -0.973   0.383  -5.804  1.00  0.00     0.007 C 
ENDBRANCH   8   9
ENDBRANCH   7   8
BRANCH   7  12
ATOM     12  N   UNL     1      -0.712  -1.212  -1.058  1.00  0.00    -0.343 N 
ATOM     13  C   UNL     1       0.069  -0.982   0.033  1.00  0.00     0.240 C 
ATOM     14  H   UNL     1      -0.861  -2.162  -1.269  1.00  0.00     0.164 HD
ATOM     15  O   UNL     1       0.303  -1.958   0.755  1.00  0.00    -0.273 OA
BRANCH  13  16
ATOM     16  C   UNL     1       0.530   0.421   0.455  1.00  0.00     0.216 C 
BRANCH  16  17
ATOM     17  N   UNL     1       0.980   1.288  -0.620  1.00  0.00    -0.342 N 
ATOM     18  C   UNL     1       0.573   2.537  -0.975  1.00  0.00     0.278 C 
ATOM     19  H   UNL     1       1.695   0.911  -1.183  1.00  0.00     0.164 HD
ATOM     20  O   UNL     1       1.191   3.079  -1.898  1.00  0.00    -0.268 OA
BRANCH  18  21
ATOM     21  C   UNL     1      -0.567   3.301  -0.246  1.00  0.00     0.273 C 
BRANCH  21  22
ATOM     22  N   UNL     1      -1.735   2.437   0.022  1.00  0.00    -0.347 N 
ATOM     23  H   UNL     1      -1.461   1.679   0.647  1.00  0.00     0.345 HD
ATOM     24  H   UNL     1      -2.078   2.046  -0.856  1.00  0.00     0.345 HD
ATOM     25  H   UNL     1      -2.473   2.989   0.459  1.00  0.00     0.345 HD
ENDBRANCH  21  22
BRANCH  21  26
ATOM     26  C   UNL     1      -0.036   3.984   1.033  1.00  0.00     0.051 C 
ATOM     27  C   UNL     1       1.058   5.002   0.681  1.00  0.00     0.014 C 
ATOM     28  C   UNL     1      -1.149   4.708   1.802  1.00  0.00     0.014 C 
ENDBRANCH  21  26
ENDBRANCH  18  21
ENDBRANCH  16  17
ENDBRANCH  13  16
ENDBRANCH   7  12
ENDBRANCH   4   7
ENDBRANCH   2   3
ENDBRANCH   1   2
BRANCH   1  29
ATOM     29  C   UNL     1      -5.289  -3.999  -1.882  1.00  0.00     0.002 C 
BRANCH  29  30
ATOM     30  C   UNL     1      -5.734  -4.170  -3.339  1.00  0.00     0.002 C 
BRANCH  30  31
ATOM     31  C   UNL     1      -5.006  -5.274  -4.109  1.00  0.00     0.021 C 
BRANCH  31  32
ATOM     32  C   UNL     1      -5.072  -6.646  -3.451  1.00  0.00     0.116 C 
BRANCH  32  33
ATOM     33  N   UNL     1      -6.438  -7.122  -3.324  1.00  0.00    -0.352 N 
ATOM     34  C   UNL     1      -6.981  -8.304  -3.754  1.00  0.00     0.251 C 
ATOM     35  H   UNL     1      -7.060  -6.511  -2.866  1.00  0.00     0.163 HD
ATOM     36  O   UNL     1      -8.199  -8.466  -3.755  1.00  0.00    -0.269 OA
BRANCH  34  37
ATOM     37  C   UNL     1      -6.091  -9.374  -4.243  1.00  0.00     0.039 A 
ATOM     38  C   UNL     1      -6.411 -10.023  -5.437  1.00  0.00     0.014 A 
ATOM     39  C   UNL     1      -4.935  -9.719  -3.536  1.00  0.00     0.014 A 
ATOM     40  C   UNL     1      -5.535 -10.976  -5.956  1.00  0.00     0.010 A 
ATOM     41  C   UNL     1      -4.026 -10.611  -4.094  1.00  0.00     0.010 A 
ATOM     42  C   UNL     1      -4.317 -11.248  -5.309  1.00  0.00    -0.014 A 
BRANCH  42  43
ATOM     43  C   UNL     1      -3.327 -12.175  -5.908  1.00  0.00     0.031 A 
ATOM     44  C   UNL     1      -2.949 -13.445  -5.204  1.00  0.00     0.074 A 
ATOM     45  C   UNL     1      -2.721 -11.836  -7.062  1.00  0.00     0.049 A 
ATOM     46  N   UNL     1      -2.078 -14.356  -5.558  1.00  0.00    -0.248 NA
ATOM     47  C   UNL     1      -3.617 -13.716  -3.921  1.00  0.00     0.031 C 
ATOM     48  C   UNL     1      -2.967 -10.606  -7.817  1.00  0.00     0.029 A 
ATOM     49  N   UNL     1      -1.768 -12.494  -7.798  1.00  0.00    -0.354 N 
ATOM     50  C   UNL     1      -2.089 -15.303  -4.542  1.00  0.00     0.074 A 
ATOM     51  C   UNL     1      -3.006 -14.824  -3.530  1.00  0.00     0.031 C 
ATOM     52  C   UNL     1      -2.204 -10.609  -8.921  1.00  0.00     0.029 A 
ATOM     53  C   UNL     1      -1.385 -11.816  -8.929  1.00  0.00     0.049 A 
ATOM     54  H   UNL     1      -1.396 -13.368  -7.539  1.00  0.00     0.167 HD
ATOM     55  C   UNL     1      -1.414 -16.475  -4.467  1.00  0.00     0.031 A 
ATOM     56  C   UNL     1      -0.466 -12.123  -9.863  1.00  0.00     0.031 A 
ATOM     57  C   UNL     1      -0.489 -16.939  -5.467  1.00  0.00     0.049 A 
ATOM     58  C   UNL     1       0.299 -13.411  -9.744  1.00  0.00     0.074 A 
ATOM     59  C   UNL     1       0.210 -18.133  -5.509  1.00  0.00     0.029 A 
ATOM     60  N   UNL     1      -0.122 -16.222  -6.596  1.00  0.00    -0.354 N 
ATOM     61  N   UNL     1       0.218 -14.335  -8.817  1.00  0.00    -0.248 NA
ATOM     62  C   UNL     1       1.273 -13.701 -10.803  1.00  0.00     0.031 C 
ATOM     63  C   UNL     1       1.049 -18.108  -6.628  1.00  0.00     0.029 A 
ATOM     64  C   UNL     1       0.822 -16.930  -7.322  1.00  0.00     0.049 A 
ATOM     65  H   UNL     1      -0.480 -15.339  -6.846  1.00  0.00     0.167 HD
ATOM     66  C   UNL     1       1.119 -15.324  -9.189  1.00  0.00     0.074 A 
ATOM     67  C   UNL     1       1.716 -14.897 -10.439  1.00  0.00     0.031 C 
ATOM     68  C   UNL     1       1.424 -16.482  -8.553  1.00  0.00     0.031 A 
BRANCH  55  69
ATOM     69  C   UNL     1      -1.644 -17.321  -3.243  1.00  0.00    -0.014 A 
ATOM     70  C   UNL     1      -2.887 -17.927  -2.997  1.00  0.00     0.009 A 
ATOM     71  C   UNL     1      -0.602 -17.521  -2.324  1.00  0.00     0.009 A 
ATOM     72  C   UNL     1      -3.097 -18.669  -1.832  1.00  0.00     0.001 A 
ATOM     73  C   UNL     1      -0.804 -18.293  -1.178  1.00  0.00     0.001 A 
ATOM     74  C   UNL     1      -2.055 -18.854  -0.926  1.00  0.00     0.000 A 
ENDBRANCH  55  69
BRANCH  56  75
ATOM     75  C   UNL     1      -0.225 -11.186 -10.991  1.00  0.00    -0.014 A 
ATOM     76  C   UNL     1      -0.632 -11.511 -12.293  1.00  0.00     0.009 A 
ATOM     77  C   UNL     1       0.390  -9.944 -10.761  1.00  0.00     0.009 A 
ATOM     78  C   UNL     1      -0.414 -10.618 -13.345  1.00  0.00     0.001 A 
ATOM     79  C   UNL     1       0.578  -9.041 -11.809  1.00  0.00     0.001 A 
ATOM     80  C   UNL     1       0.183  -9.382 -13.101  1.00  0.00     0.000 A 
ENDBRANCH  56  75
BRANCH  68  81
ATOM     81  C   UNL     1       2.446 -17.374  -9.204  1.00  0.00    -0.014 A 
ATOM     82  C   UNL     1       3.804 -17.019  -9.243  1.00  0.00     0.009 A 
ATOM     83  C   UNL     1       2.049 -18.604  -9.752  1.00  0.00     0.009 A 
ATOM     84  C   UNL     1       4.737 -17.863  -9.847  1.00  0.00     0.001 A 
ATOM     85  C   UNL     1       2.990 -19.460 -10.326  1.00  0.00     0.001 A 
ATOM     86  C   UNL     1       4.331 -19.085 -10.382  1.00  0.00     0.000 A 
ENDBRANCH  68  81
ENDBRANCH  42  43
ENDBRANCH  34  37
ENDBRANCH  32  33
ENDBRANCH  31  32
ENDBRANCH  30  31
ENDBRANCH  29  30
ENDBRANCH   1  29
TORSDOF 21
