REMARK SMILES C[C@@H]1C[C@H](C)C[C@H]([N@@H+]2[C@@H](C(=O)NCCCCCCNC(=O)c3ccc(-c4c5nc(c(-c6ccccc6)c6ccc([nH]6)c(-c6ccccc6)c6nc(c(-c7ccccc7)c7ccc4[nH]7)C=C6)C=C5)cc3)CC[C@@H]3CCCC[C@@H]32)C1
REMARK SMILES IDX 16 1 15 2 14 3 13 4 12 5 10 6 11 7 9 9 8 10 77 11 70 13
REMARK SMILES IDX 72 14 76 15 71 16 73 17 75 18 74 19 7 20 5 21 4 22 6 23 3 24
REMARK SMILES IDX 2 25 78 26 1 27 17 28 18 29 19 30 20 31 21 33 22 34 23 35
REMARK SMILES IDX 69 36 24 37 68 38 25 39 26 40 27 41 62 42 28 43 67 44 61 45
REMARK SMILES IDX 63 46 29 47 66 48 60 49 59 50 30 52 52 53 37 54 51 55 38 56
REMARK SMILES IDX 41 57 50 58 64 59 39 60 40 61 49 63 65 64 42 65 31 66 32 67
REMARK SMILES IDX 36 68 33 69 35 70 34 71 53 72 54 73 58 74 55 75 57 76 56 77
REMARK SMILES IDX 43 78 44 79 48 80 45 81 47 82 46 83
REMARK H PARENT 12 8 8 12 19 32 63 51 41 62
REMARK Flexibility Score: inf
ROOT
ATOM      1  C   UNL     1       1.073   1.428   6.566  1.00  0.00     0.002 C 
ENDROOT
BRANCH   1   2
ATOM      2  C   UNL     1       0.177   1.099   5.376  1.00  0.00     0.002 C 
BRANCH   2   3
ATOM      3  C   UNL     1       0.921   0.815   4.071  1.00  0.00     0.021 C 
BRANCH   3   4
ATOM      4  C   UNL     1       1.738  -0.474   4.037  1.00  0.00     0.116 C 
BRANCH   4   5
ATOM      5  N   UNL     1       0.910  -1.666   3.986  1.00  0.00    -0.351 N 
ATOM      6  C   UNL     1       0.784  -2.641   3.047  1.00  0.00     0.278 C 
ATOM      7  O   UNL     1       0.756  -3.786   3.535  1.00  0.00    -0.268 OA
ATOM      8  H   UNL     1       0.335  -1.790   4.775  1.00  0.00     0.163 HD
BRANCH   6   9
ATOM      9  C   UNL     1       0.438  -2.485   1.530  1.00  0.00     0.274 C 
ATOM     10  N   UNL     1       1.444  -1.816   0.624  1.00  0.00    -0.320 N 
ATOM     11  C   UNL     1       1.203  -0.340   0.606  1.00  0.00     0.188 C 
ATOM     12  H   UNL     1       2.416  -1.738   0.921  1.00  0.00     0.349 HD
ATOM     13  C   UNL     1      -1.008  -2.074   1.266  1.00  0.00     0.076 C 
ATOM     14  C   UNL     1      -0.206   0.295   0.733  1.00  0.00     0.048 C 
ATOM     15  C   UNL     1       2.227   0.706   0.119  1.00  0.00     0.065 C 
ATOM     16  C   UNL     1      -1.272  -0.593   1.381  1.00  0.00     0.016 C 
ATOM     17  C   UNL     1      -0.735   1.063  -0.465  1.00  0.00     0.010 C 
ATOM     18  C   UNL     1       1.752   1.870  -0.762  1.00  0.00     0.006 C 
ATOM     19  C   UNL     1       0.269   2.020  -1.100  1.00  0.00     0.001 C 
BRANCH  10  20
ATOM     20  C   UNL     1       1.752  -2.714  -0.552  1.00  0.00     0.185 C 
ATOM     21  C   UNL     1       1.027  -0.568  -2.875  1.00  0.00     0.008 C 
ATOM     22  C   UNL     1       1.319  -2.032  -3.027  1.00  0.00    -0.008 C 
ATOM     23  C   UNL     1       0.846  -2.795  -1.792  1.00  0.00     0.068 C 
ATOM     24  C   UNL     1       2.793  -2.248  -3.382  1.00  0.00     0.007 C 
ATOM     25  C   UNL     1       3.788  -2.375  -2.214  1.00  0.00    -0.008 C 
ATOM     26  C   UNL     1       3.216  -3.022  -0.952  1.00  0.00     0.068 C 
ATOM     27  C   UNL     1       4.580  -1.112  -1.885  1.00  0.00     0.008 C 
ENDBRANCH  10  20
ENDBRANCH   6   9
ENDBRANCH   4   5
ENDBRANCH   3   4
ENDBRANCH   2   3
ENDBRANCH   1   2
BRANCH   1  28
ATOM     28  C   UNL     1       2.108   2.524   6.306  1.00  0.00     0.021 C 
BRANCH  28  29
ATOM     29  C   UNL     1       1.526   3.831   5.775  1.00  0.00     0.116 C 
BRANCH  29  30
ATOM     30  N   UNL     1       0.643   4.459   6.744  1.00  0.00    -0.352 N 
ATOM     31  C   UNL     1       0.797   5.659   7.395  1.00  0.00     0.251 C 
ATOM     32  H   UNL     1      -0.175   3.957   6.963  1.00  0.00     0.163 HD
ATOM     33  O   UNL     1       0.110   5.939   8.367  1.00  0.00    -0.269 OA
BRANCH  31  34
ATOM     34  C   UNL     1       1.815   6.610   6.906  1.00  0.00     0.039 A 
ATOM     35  C   UNL     1       2.689   7.203   7.818  1.00  0.00     0.014 A 
ATOM     36  C   UNL     1       1.903   6.906   5.542  1.00  0.00     0.014 A 
ATOM     37  C   UNL     1       3.687   8.061   7.353  1.00  0.00     0.010 A 
ATOM     38  C   UNL     1       2.945   7.697   5.074  1.00  0.00     0.010 A 
ATOM     39  C   UNL     1       3.839   8.293   5.976  1.00  0.00    -0.014 A 
BRANCH  39  40
ATOM     40  C   UNL     1       4.915   9.172   5.458  1.00  0.00     0.031 A 
ATOM     41  C   UNL     1       4.566  10.450   4.746  1.00  0.00     0.074 A 
ATOM     42  C   UNL     1       6.202   8.798   5.584  1.00  0.00     0.049 A 
ATOM     43  N   UNL     1       5.359  11.333   4.195  1.00  0.00    -0.248 NA
ATOM     44  C   UNL     1       3.134  10.764   4.615  1.00  0.00     0.031 C 
ATOM     45  C   UNL     1       6.670   7.570   6.230  1.00  0.00     0.029 A 
ATOM     46  N   UNL     1       7.355   9.418   5.173  1.00  0.00    -0.354 N 
ATOM     47  C   UNL     1       4.524  12.296   3.644  1.00  0.00     0.074 A 
ATOM     48  C   UNL     1       3.164  11.857   3.870  1.00  0.00     0.031 C 
ATOM     49  C   UNL     1       8.012   7.549   6.211  1.00  0.00     0.029 A 
ATOM     50  C   UNL     1       8.497   8.735   5.512  1.00  0.00     0.049 A 
ATOM     51  H   UNL     1       7.363  10.272   4.683  1.00  0.00     0.167 HD
ATOM     52  C   UNL     1       4.855  13.455   3.025  1.00  0.00     0.031 A 
ATOM     53  C   UNL     1       9.790   9.031   5.285  1.00  0.00     0.031 A 
ATOM     54  C   UNL     1       6.208  13.886   2.794  1.00  0.00     0.049 A 
ATOM     55  C   UNL     1      10.133  10.297   4.549  1.00  0.00     0.074 A 
ATOM     56  C   UNL     1       6.653  15.061   2.214  1.00  0.00     0.029 A 
ATOM     57  N   UNL     1       7.336  13.151   3.127  1.00  0.00    -0.354 N 
ATOM     58  N   UNL     1       9.334  11.231   4.091  1.00  0.00    -0.248 NA
ATOM     59  C   UNL     1      11.560  10.553   4.309  1.00  0.00     0.031 C 
ATOM     60  C   UNL     1       8.049  15.009   2.140  1.00  0.00     0.029 A 
ATOM     61  C   UNL     1       8.476  13.833   2.737  1.00  0.00     0.049 A 
ATOM     62  H   UNL     1       7.327  12.275   3.575  1.00  0.00     0.167 HD
ATOM     63  C   UNL     1      10.162  12.200   3.540  1.00  0.00     0.074 A 
ATOM     64  C   UNL     1      11.524  11.746   3.733  1.00  0.00     0.031 C 
ATOM     65  C   UNL     1       9.825  13.365   2.933  1.00  0.00     0.031 A 
BRANCH  52  66
ATOM     66  C   UNL     1       3.723  14.322   2.542  1.00  0.00    -0.014 A 
ATOM     67  C   UNL     1       2.853  14.958   3.444  1.00  0.00     0.009 A 
ATOM     68  C   UNL     1       3.522  14.508   1.166  1.00  0.00     0.009 A 
ATOM     69  C   UNL     1       1.776  15.714   2.978  1.00  0.00     0.001 A 
ATOM     70  C   UNL     1       2.465  15.294   0.703  1.00  0.00     0.001 A 
ATOM     71  C   UNL     1       1.584  15.884   1.608  1.00  0.00     0.000 A 
ENDBRANCH  52  66
BRANCH  53  72
ATOM     72  C   UNL     1      10.861   8.131   5.786  1.00  0.00    -0.014 A 
ATOM     73  C   UNL     1      11.697   8.543   6.836  1.00  0.00     0.009 A 
ATOM     74  C   UNL     1      11.058   6.861   5.222  1.00  0.00     0.009 A 
ATOM     75  C   UNL     1      12.722   7.712   7.294  1.00  0.00     0.001 A 
ATOM     76  C   UNL     1      12.065   6.020   5.703  1.00  0.00     0.001 A 
ATOM     77  C   UNL     1      12.902   6.450   6.731  1.00  0.00     0.000 A 
ENDBRANCH  53  72
BRANCH  65  78
ATOM     78  C   UNL     1      10.950  14.249   2.470  1.00  0.00    -0.014 A 
ATOM     79  C   UNL     1      11.754  13.901   1.374  1.00  0.00     0.009 A 
ATOM     80  C   UNL     1      11.184  15.470   3.123  1.00  0.00     0.009 A 
ATOM     81  C   UNL     1      12.792  14.742   0.964  1.00  0.00     0.001 A 
ATOM     82  C   UNL     1      12.200  16.323   2.691  1.00  0.00     0.001 A 
ATOM     83  C   UNL     1      13.010  15.954   1.619  1.00  0.00     0.000 A 
ENDBRANCH  65  78
ENDBRANCH  39  40
ENDBRANCH  31  34
ENDBRANCH  29  30
ENDBRANCH  28  29
ENDBRANCH   1  28
TORSDOF 14
