REMARK SMILES Cc1cc(C(=O)NCCCCCCNC(=O)c2ccc(-c3c4nc(c(-c5ccccc5)c5ccc([nH]5)c(-c5ccccc5)c5nc(c(-c6ccccc6)c6ccc3[nH]6)C=C5)C=C4)cc2)ccc1NS(=O)(=O)c1ccc(C#N)cc1C
REMARK SMILES IDX 9 1 8 2 7 3 5 4 6 5 4 7 1 8 2 9 3 10 67 11 66 12 65 13 68 14
REMARK SMILES IDX 69 16 70 17 71 18 72 19 73 20 79 21 74 22 78 23 80 24 75 25
REMARK SMILES IDX 76 26 77 27 10 28 11 29 12 30 13 31 14 32 15 33 16 35 17 36
REMARK SMILES IDX 18 37 64 38 19 39 63 40 20 41 21 42 22 43 57 44 23 45 62 46
REMARK SMILES IDX 56 47 58 48 24 49 61 50 55 51 54 52 25 54 47 55 32 56 46 57
REMARK SMILES IDX 33 58 36 59 45 60 59 61 34 62 35 63 44 65 60 66 37 67 26 68
REMARK SMILES IDX 27 69 31 70 28 71 30 72 29 73 48 74 49 75 53 76 50 77 52 78
REMARK SMILES IDX 51 79 38 80 39 81 43 82 40 83 42 84 41 85
REMARK H PARENT 7 6 68 15 14 34 58 53 36 64
REMARK Flexibility Score: inf
ROOT
ATOM      1  C   UNL     1      -4.806  -1.479  -1.055  1.00  0.00     0.021 C 
ENDROOT
BRANCH   1   2
ATOM      2  C   UNL     1      -3.879  -1.545   0.161  1.00  0.00     0.116 C 
BRANCH   2   3
ATOM      3  N   UNL     1      -2.909  -2.614   0.025  1.00  0.00    -0.352 N 
ATOM      4  C   UNL     1      -1.557  -2.588  -0.215  1.00  0.00     0.251 C 
ATOM      5  O   UNL     1      -0.928  -3.641  -0.136  1.00  0.00    -0.269 OA
ATOM      6  H   UNL     1      -3.287  -3.518   0.123  1.00  0.00     0.163 HD
BRANCH   4   7
ATOM      7  C   UNL     1      -0.825  -1.319  -0.477  1.00  0.00     0.040 A 
ATOM      8  C   UNL     1       2.633   0.026   0.264  1.00  0.00     0.046 C 
ATOM      9  C   UNL     1       1.158   0.024  -0.031  1.00  0.00    -0.026 A 
ATOM     10  C   UNL     1       0.486  -1.211  -0.006  1.00  0.00     0.019 A 
ATOM     11  C   UNL     1       0.454   1.171  -0.435  1.00  0.00     0.052 A 
ATOM     12  C   UNL     1      -0.718   1.000  -1.168  1.00  0.00     0.028 A 
ATOM     13  C   UNL     1      -1.359  -0.244  -1.185  1.00  0.00     0.016 A 
BRANCH  11  14
ATOM     14  N   UNL     1       0.714   2.385   0.278  1.00  0.00    -0.279 N 
ATOM     15  H   UNL     1       1.390   2.324   0.990  1.00  0.00     0.180 HD
BRANCH  14  16
ATOM     16  S   UNL     1       0.022   3.892   0.063  1.00  0.00     0.262 S 
ATOM     17  O   UNL     1       0.582   4.705   1.124  1.00  0.00    -0.201 OA
ATOM     18  O   UNL     1       0.184   4.251  -1.329  1.00  0.00    -0.201 OA
BRANCH  16  19
ATOM     19  C   UNL     1      -1.751   3.830   0.379  1.00  0.00     0.090 A 
ATOM     20  C   UNL     1      -2.371   2.641   0.779  1.00  0.00     0.024 A 
ATOM     21  C   UNL     1      -2.551   4.942   0.028  1.00  0.00    -0.029 A 
ATOM     22  C   UNL     1      -3.756   2.485   0.634  1.00  0.00     0.021 A 
ATOM     23  C   UNL     1      -3.946   4.771  -0.096  1.00  0.00     0.024 A 
ATOM     24  C   UNL     1      -2.018   6.341  -0.142  1.00  0.00     0.046 C 
ATOM     25  C   UNL     1      -4.540   3.532   0.150  1.00  0.00     0.052 A 
BRANCH  25  26
ATOM     26  C   UNL     1      -5.942   3.322  -0.109  1.00  0.00     0.099 C 
ATOM     27  N   UNL     1      -7.051   3.105  -0.341  1.00  0.00    -0.192 NA
ENDBRANCH  25  26
ENDBRANCH  16  19
ENDBRANCH  14  16
ENDBRANCH  11  14
ENDBRANCH   4   7
ENDBRANCH   2   3
ENDBRANCH   1   2
BRANCH   1  28
ATOM     28  C   UNL     1      -5.874  -2.581  -1.088  1.00  0.00     0.002 C 
BRANCH  28  29
ATOM     29  C   UNL     1      -6.780  -2.669   0.149  1.00  0.00     0.002 C 
BRANCH  29  30
ATOM     30  C   UNL     1      -7.407  -1.350   0.595  1.00  0.00     0.021 C 
BRANCH  30  31
ATOM     31  C   UNL     1      -8.462  -0.828  -0.360  1.00  0.00     0.116 C 
BRANCH  31  32
ATOM     32  N   UNL     1      -9.761  -1.455  -0.172  1.00  0.00    -0.352 N 
ATOM     33  C   UNL     1     -11.010  -1.083  -0.633  1.00  0.00     0.251 C 
ATOM     34  H   UNL     1      -9.749  -2.277   0.370  1.00  0.00     0.163 HD
ATOM     35  O   UNL     1     -12.003  -1.655  -0.188  1.00  0.00    -0.269 OA
BRANCH  33  36
ATOM     36  C   UNL     1     -11.147  -0.185  -1.813  1.00  0.00     0.039 A 
ATOM     37  C   UNL     1     -12.126  -0.575  -2.740  1.00  0.00     0.014 A 
ATOM     38  C   UNL     1     -10.077   0.591  -2.226  1.00  0.00     0.014 A 
ATOM     39  C   UNL     1     -11.821  -0.534  -4.089  1.00  0.00     0.010 A 
ATOM     40  C   UNL     1      -9.677   0.458  -3.523  1.00  0.00     0.010 A 
ATOM     41  C   UNL     1     -10.528  -0.169  -4.431  1.00  0.00    -0.014 A 
BRANCH  41  42
ATOM     42  C   UNL     1      -9.994  -0.183  -5.767  1.00  0.00     0.031 A 
ATOM     43  C   UNL     1     -10.253   1.043  -6.528  1.00  0.00     0.074 A 
ATOM     44  C   UNL     1      -9.139  -1.179  -6.084  1.00  0.00     0.049 A 
ATOM     45  N   UNL     1     -10.144   1.134  -7.796  1.00  0.00    -0.248 NA
ATOM     46  C   UNL     1     -10.727   2.287  -5.907  1.00  0.00     0.031 C 
ATOM     47  C   UNL     1      -8.187  -1.298  -7.180  1.00  0.00     0.029 A 
ATOM     48  N   UNL     1      -9.139  -2.454  -5.514  1.00  0.00    -0.354 N 
ATOM     49  C   UNL     1     -10.161   2.477  -8.100  1.00  0.00     0.074 A 
ATOM     50  C   UNL     1     -10.669   3.142  -6.931  1.00  0.00     0.031 C 
ATOM     51  C   UNL     1      -7.950  -2.607  -7.408  1.00  0.00     0.029 A 
ATOM     52  C   UNL     1      -8.858  -3.362  -6.556  1.00  0.00     0.049 A 
ATOM     53  H   UNL     1      -9.304  -2.676  -4.569  1.00  0.00     0.167 HD
ATOM     54  C   UNL     1      -9.569   2.859  -9.260  1.00  0.00     0.031 A 
ATOM     55  C   UNL     1      -9.870  -4.174  -6.999  1.00  0.00     0.031 A 
ATOM     56  C   UNL     1      -9.116   1.675  -9.990  1.00  0.00     0.049 A 
ATOM     57  C   UNL     1     -10.360  -3.771  -8.382  1.00  0.00     0.074 A 
ATOM     58  C   UNL     1      -7.904   1.009 -10.058  1.00  0.00     0.029 A 
ATOM     59  N   UNL     1     -10.080   0.767 -10.385  1.00  0.00    -0.354 N 
ATOM     60  N   UNL     1     -10.070  -2.635  -8.959  1.00  0.00    -0.248 NA
ATOM     61  C   UNL     1     -11.244  -4.594  -9.203  1.00  0.00     0.031 C 
ATOM     62  C   UNL     1      -8.173  -0.336 -10.464  1.00  0.00     0.029 A 
ATOM     63  C   UNL     1      -9.536  -0.468 -10.666  1.00  0.00     0.049 A 
ATOM     64  H   UNL     1     -11.039   0.977 -10.457  1.00  0.00     0.167 HD
ATOM     65  C   UNL     1     -10.646  -2.575 -10.195  1.00  0.00     0.074 A 
ATOM     66  C   UNL     1     -11.429  -3.800 -10.273  1.00  0.00     0.031 C 
ATOM     67  C   UNL     1     -10.440  -1.537 -11.063  1.00  0.00     0.031 A 
BRANCH  54  68
ATOM     68  C   UNL     1      -9.193   4.259  -9.646  1.00  0.00    -0.014 A 
ATOM     69  C   UNL     1      -8.262   4.425 -10.689  1.00  0.00     0.009 A 
ATOM     70  C   UNL     1      -9.670   5.437  -9.047  1.00  0.00     0.009 A 
ATOM     71  C   UNL     1      -7.809   5.683 -11.094  1.00  0.00     0.001 A 
ATOM     72  C   UNL     1      -9.213   6.704  -9.442  1.00  0.00     0.001 A 
ATOM     73  C   UNL     1      -8.282   6.826 -10.466  1.00  0.00     0.000 A 
ENDBRANCH  54  68
BRANCH  55  74
ATOM     74  C   UNL     1     -10.742  -4.618  -5.854  1.00  0.00    -0.014 A 
ATOM     75  C   UNL     1     -10.091  -5.271  -4.777  1.00  0.00     0.009 A 
ATOM     76  C   UNL     1     -11.956  -3.967  -5.597  1.00  0.00     0.009 A 
ATOM     77  C   UNL     1     -10.486  -5.030  -3.458  1.00  0.00     0.001 A 
ATOM     78  C   UNL     1     -12.383  -3.792  -4.273  1.00  0.00     0.001 A 
ATOM     79  C   UNL     1     -11.607  -4.248  -3.206  1.00  0.00     0.000 A 
ENDBRANCH  55  74
BRANCH  67  80
ATOM     80  C   UNL     1     -11.133  -1.421 -12.394  1.00  0.00    -0.014 A 
ATOM     81  C   UNL     1     -11.393  -2.525 -13.208  1.00  0.00     0.009 A 
ATOM     82  C   UNL     1     -11.492  -0.155 -12.909  1.00  0.00     0.009 A 
ATOM     83  C   UNL     1     -12.107  -2.386 -14.403  1.00  0.00     0.001 A 
ATOM     84  C   UNL     1     -12.171  -0.005 -14.114  1.00  0.00     0.001 A 
ATOM     85  C   UNL     1     -12.510  -1.129 -14.847  1.00  0.00     0.000 A 
ENDBRANCH  67  80
ENDBRANCH  41  42
ENDBRANCH  33  36
ENDBRANCH  31  32
ENDBRANCH  30  31
ENDBRANCH  29  30
ENDBRANCH  28  29
ENDBRANCH   1  28
TORSDOF 17
