REMARK SMILES Cc1c(CC(=O)NCCCCCCNC(=O)c2ccc(-c3c4nc(c(-c5ccccc5)c5ccc([nH]5)c(-c5ccccc5)c5nc(c(-c6ccccc6)c6ccc3[nH]6)C=C5)C=C4)cc2)cc(-c2ccc(S(C)(=O)=O)cc2)n1-c1ccccc1
REMARK SMILES IDX 10 1 9 2 8 3 7 4 5 5 6 6 4 8 3 9 1 10 2 11 77 12 65 13 66 14
REMARK SMILES IDX 78 15 79 16 83 17 80 18 82 19 81 20 67 21 68 22 76 23 69 24
REMARK SMILES IDX 75 25 70 26 71 27 72 28 73 29 74 30 11 31 12 32 13 33 14 34
REMARK SMILES IDX 15 35 16 37 17 38 18 39 64 40 19 41 63 42 20 43 21 44 22 45
REMARK SMILES IDX 57 46 23 47 62 48 56 49 58 50 24 51 61 52 55 53 54 54 25 56
REMARK SMILES IDX 47 57 32 58 46 59 33 60 36 61 45 62 59 63 34 64 35 65 44 67
REMARK SMILES IDX 60 68 37 69 26 70 27 71 31 72 28 73 30 74 29 75 48 76 49 77
REMARK SMILES IDX 53 78 50 79 52 80 51 81 38 82 39 83 43 84 40 85 42 86 41 87
REMARK H PARENT 7 7 14 36 58 55 36 66
REMARK Flexibility Score: inf
ROOT
ATOM      1  C   UNL     1       4.642  -0.756  -3.977  1.00  0.00     0.002 C 
ENDROOT
BRANCH   1   2
ATOM      2  C   UNL     1       3.145  -0.430  -3.913  1.00  0.00     0.021 C 
BRANCH   2   3
ATOM      3  C   UNL     1       2.221  -1.613  -4.210  1.00  0.00     0.116 C 
BRANCH   3   4
ATOM      4  N   UNL     1       2.104  -2.502  -3.068  1.00  0.00    -0.356 N 
ATOM      5  C   UNL     1       1.106  -2.586  -2.138  1.00  0.00     0.224 C 
ATOM      6  O   UNL     1       1.244  -3.384  -1.207  1.00  0.00    -0.275 OA
ATOM      7  H   UNL     1       2.850  -3.133  -2.947  1.00  0.00     0.163 HD
BRANCH   5   8
ATOM      8  C   UNL     1      -0.163  -1.765  -2.286  1.00  0.00     0.137 C 
BRANCH   8   9
ATOM      9  C   UNL     1       0.052  -0.292  -2.144  1.00  0.00    -0.017 A 
ATOM     10  C   UNL     1       1.059  -0.119   0.238  1.00  0.00     0.065 C 
ATOM     11  C   UNL     1       0.619   0.411  -1.086  1.00  0.00     0.024 A 
ATOM     12  N   UNL     1       0.657   1.764  -1.421  1.00  0.00    -0.314 N 
ATOM     13  C   UNL     1      -0.337   0.663  -3.107  1.00  0.00     0.033 A 
ATOM     14  C   UNL     1       0.067   1.907  -2.675  1.00  0.00     0.053 A 
BRANCH  12  15
ATOM     15  C   UNL     1       1.221   2.823  -0.645  1.00  0.00     0.046 A 
ATOM     16  C   UNL     1       0.528   4.033  -0.494  1.00  0.00     0.026 A 
ATOM     17  C   UNL     1       2.506   2.687  -0.108  1.00  0.00     0.026 A 
ATOM     18  C   UNL     1       1.124   5.104   0.175  1.00  0.00     0.002 A 
ATOM     19  C   UNL     1       3.098   3.765   0.554  1.00  0.00     0.002 A 
ATOM     20  C   UNL     1       2.410   4.971   0.693  1.00  0.00     0.000 A 
ENDBRANCH  12  15
BRANCH  14  21
ATOM     21  C   UNL     1      -0.033   3.145  -3.429  1.00  0.00    -0.001 A 
ATOM     22  C   UNL     1       1.108   3.906  -3.714  1.00  0.00     0.011 A 
ATOM     23  C   UNL     1      -1.298   3.567  -3.858  1.00  0.00     0.011 A 
ATOM     24  C   UNL     1       0.970   5.128  -4.350  1.00  0.00     0.021 A 
ATOM     25  C   UNL     1      -1.443   4.784  -4.498  1.00  0.00     0.021 A 
ATOM     26  C   UNL     1      -0.312   5.563  -4.702  1.00  0.00     0.067 A 
BRANCH  26  27
ATOM     27  S   UNL     1      -0.512   7.148  -5.428  1.00  0.00     0.175 S 
ATOM     28  C   UNL     1       0.194   8.220  -4.181  1.00  0.00     0.163 C 
ATOM     29  O   UNL     1       0.318   7.082  -6.622  1.00  0.00    -0.224 OA
ATOM     30  O   UNL     1      -1.915   7.449  -5.520  1.00  0.00    -0.224 OA
ENDBRANCH  26  27
ENDBRANCH  14  21
ENDBRANCH   8   9
ENDBRANCH   5   8
ENDBRANCH   3   4
ENDBRANCH   2   3
ENDBRANCH   1   2
BRANCH   1  31
ATOM     31  C   UNL     1       5.209  -1.077  -5.367  1.00  0.00     0.002 C 
BRANCH  31  32
ATOM     32  C   UNL     1       4.783  -0.168  -6.535  1.00  0.00     0.021 C 
BRANCH  32  33
ATOM     33  C   UNL     1       4.822   1.355  -6.306  1.00  0.00     0.116 C 
BRANCH  33  34
ATOM     34  N   UNL     1       5.991   2.005  -6.861  1.00  0.00    -0.352 N 
ATOM     35  C   UNL     1       6.180   3.347  -7.128  1.00  0.00     0.251 C 
ATOM     36  H   UNL     1       6.748   1.414  -7.077  1.00  0.00     0.163 HD
ATOM     37  O   UNL     1       7.315   3.738  -7.393  1.00  0.00    -0.269 OA
BRANCH  35  38
ATOM     38  C   UNL     1       5.048   4.329  -7.154  1.00  0.00     0.039 A 
ATOM     39  C   UNL     1       4.215   4.360  -8.264  1.00  0.00     0.014 A 
ATOM     40  C   UNL     1       4.976   5.406  -6.252  1.00  0.00     0.014 A 
ATOM     41  C   UNL     1       3.340   5.454  -8.458  1.00  0.00     0.010 A 
ATOM     42  C   UNL     1       4.127   6.542  -6.482  1.00  0.00     0.010 A 
ATOM     43  C   UNL     1       3.315   6.620  -7.622  1.00  0.00    -0.014 A 
BRANCH  43  44
ATOM     44  C   UNL     1       2.835   7.925  -8.317  1.00  0.00     0.031 A 
ATOM     45  C   UNL     1       3.595   7.984  -9.588  1.00  0.00     0.074 A 
ATOM     46  C   UNL     1       2.109   9.068  -8.072  1.00  0.00     0.049 A 
ATOM     47  N   UNL     1       4.897   7.970  -9.563  1.00  0.00    -0.248 NA
ATOM     48  C   UNL     1       2.989   7.772 -10.897  1.00  0.00     0.031 C 
ATOM     49  C   UNL     1       1.551   9.516  -6.802  1.00  0.00     0.029 A 
ATOM     50  N   UNL     1       1.645  10.092  -8.921  1.00  0.00    -0.354 N 
ATOM     51  C   UNL     1       5.284   8.072 -10.872  1.00  0.00     0.074 A 
ATOM     52  C   UNL     1       4.099   7.713 -11.639  1.00  0.00     0.031 C 
ATOM     53  C   UNL     1       0.635  10.504  -6.973  1.00  0.00     0.029 A 
ATOM     54  C   UNL     1       0.635  10.924  -8.363  1.00  0.00     0.049 A 
ATOM     55  H   UNL     1       1.994  10.222  -9.832  1.00  0.00     0.167 HD
ATOM     56  C   UNL     1       6.221   9.019 -11.158  1.00  0.00     0.031 A 
ATOM     57  C   UNL     1      -0.088  11.948  -8.922  1.00  0.00     0.031 A 
ATOM     58  C   UNL     1       5.670  10.123 -11.894  1.00  0.00     0.049 A 
ATOM     59  C   UNL     1       0.740  12.506  -9.997  1.00  0.00     0.074 A 
ATOM     60  C   UNL     1       4.886  10.229 -13.023  1.00  0.00     0.029 A 
ATOM     61  N   UNL     1       5.545  11.316 -11.212  1.00  0.00    -0.354 N 
ATOM     62  N   UNL     1       1.729  13.305  -9.733  1.00  0.00    -0.248 NA
ATOM     63  C   UNL     1       0.472  12.282 -11.410  1.00  0.00     0.031 C 
ATOM     64  C   UNL     1       3.995  11.302 -12.772  1.00  0.00     0.029 A 
ATOM     65  C   UNL     1       4.391  11.959 -11.614  1.00  0.00     0.049 A 
ATOM     66  H   UNL     1       6.181  11.656 -10.543  1.00  0.00     0.167 HD
ATOM     67  C   UNL     1       2.494  13.218 -10.855  1.00  0.00     0.074 A 
ATOM     68  C   UNL     1       1.567  12.860 -11.911  1.00  0.00     0.031 C 
ATOM     69  C   UNL     1       3.812  12.925 -10.704  1.00  0.00     0.031 A 
BRANCH  56  70
ATOM     70  C   UNL     1       7.327   9.155 -10.146  1.00  0.00    -0.014 A 
ATOM     71  C   UNL     1       8.613   8.721 -10.484  1.00  0.00     0.009 A 
ATOM     72  C   UNL     1       7.093   9.588  -8.824  1.00  0.00     0.009 A 
ATOM     73  C   UNL     1       9.620   8.670  -9.513  1.00  0.00     0.001 A 
ATOM     74  C   UNL     1       8.090   9.512  -7.851  1.00  0.00     0.001 A 
ATOM     75  C   UNL     1       9.353   9.044  -8.195  1.00  0.00     0.000 A 
ENDBRANCH  56  70
BRANCH  57  76
ATOM     76  C   UNL     1      -1.272  12.838  -8.628  1.00  0.00    -0.014 A 
ATOM     77  C   UNL     1      -1.197  14.219  -8.969  1.00  0.00     0.009 A 
ATOM     78  C   UNL     1      -2.556  12.324  -8.418  1.00  0.00     0.009 A 
ATOM     79  C   UNL     1      -2.329  15.006  -9.216  1.00  0.00     0.001 A 
ATOM     80  C   UNL     1      -3.700  13.129  -8.633  1.00  0.00     0.001 A 
ATOM     81  C   UNL     1      -3.588  14.452  -9.066  1.00  0.00     0.000 A 
ENDBRANCH  57  76
BRANCH  69  82
ATOM     82  C   UNL     1       4.511  13.419  -9.436  1.00  0.00    -0.014 A 
ATOM     83  C   UNL     1       3.978  13.347  -8.128  1.00  0.00     0.009 A 
ATOM     84  C   UNL     1       5.773  14.016  -9.565  1.00  0.00     0.009 A 
ATOM     85  C   UNL     1       4.626  13.921  -7.027  1.00  0.00     0.001 A 
ATOM     86  C   UNL     1       6.450  14.543  -8.456  1.00  0.00     0.001 A 
ATOM     87  C   UNL     1       5.867  14.518  -7.192  1.00  0.00     0.000 A 
ENDBRANCH  69  82
ENDBRANCH  43  44
ENDBRANCH  35  38
ENDBRANCH  33  34
ENDBRANCH  32  33
ENDBRANCH  31  32
ENDBRANCH   1  31
TORSDOF 17
