REMARK SMILES CN(CC(=O)NCC(=O)NCCCCCCNC(=O)c1ccc(-c2c3nc(c(-c4ccccc4)c4ccc([nH]4)c(-c4ccccc4)c4nc(c(-c5ccccc5)c5ccc2[nH]5)C=C4)C=C3)cc1)c1ncccn1
REMARK SMILES IDX 12 1 11 2 10 3 8 4 9 5 7 7 6 8 4 9 5 10 3 12 2 13 1 14 68 15
REMARK SMILES IDX 69 16 73 17 70 18 72 19 71 20 13 21 14 22 15 23 16 24 17 25
REMARK SMILES IDX 18 26 19 28 20 29 21 30 67 31 22 32 66 33 23 34 24 35 25 36
REMARK SMILES IDX 60 37 26 38 65 39 59 40 61 41 27 42 64 43 58 44 57 45 28 47
REMARK SMILES IDX 50 48 35 49 49 50 36 51 39 52 48 53 62 54 37 55 38 56 47 58
REMARK SMILES IDX 63 59 40 60 29 61 30 62 34 63 31 64 33 65 32 66 51 67 52 68
REMARK SMILES IDX 56 69 53 70 55 71 54 72 41 73 42 74 46 75 43 76 45 77 44 78
REMARK H PARENT 10 6 6 11 17 27 61 46 39 57
REMARK Flexibility Score: inf
ROOT
ATOM      1  C   UNL     1      -1.039  -1.064   4.223  1.00  0.00     0.021 C 
ENDROOT
BRANCH   1   2
ATOM      2  C   UNL     1      -0.612  -1.246   2.770  1.00  0.00     0.116 C 
BRANCH   2   3
ATOM      3  N   UNL     1      -1.549  -2.043   2.007  1.00  0.00    -0.355 N 
ATOM      4  C   UNL     1      -2.196  -1.722   0.848  1.00  0.00     0.239 C 
ATOM      5  O   UNL     1      -2.783  -2.626   0.247  1.00  0.00    -0.273 OA
ATOM      6  H   UNL     1      -1.747  -2.935   2.373  1.00  0.00     0.163 HD
BRANCH   4   7
ATOM      7  C   UNL     1      -2.057  -0.327   0.220  1.00  0.00     0.216 C 
BRANCH   7   8
ATOM      8  N   UNL     1      -2.316   0.781   1.123  1.00  0.00    -0.345 N 
ATOM      9  C   UNL     1      -1.625   1.953   1.275  1.00  0.00     0.240 C 
ATOM     10  O   UNL     1      -2.111   2.801   2.028  1.00  0.00    -0.273 OA
ATOM     11  H   UNL     1      -3.099   0.674   1.709  1.00  0.00     0.164 HD
BRANCH   9  12
ATOM     12  C   UNL     1      -0.343   2.215   0.464  1.00  0.00     0.219 C 
BRANCH  12  13
ATOM     13  N   UNL     1       0.800   1.385   0.855  1.00  0.00    -0.335 N 
ATOM     14  C   UNL     1       1.499   0.573  -0.117  1.00  0.00     0.147 C 
BRANCH  13  15
ATOM     15  C   UNL     1       1.425   1.621   2.063  1.00  0.00     0.225 A 
ATOM     16  N   UNL     1       0.798   2.365   2.984  1.00  0.00    -0.221 NA
ATOM     17  N   UNL     1       2.631   1.073   2.291  1.00  0.00    -0.221 NA
ATOM     18  C   UNL     1       1.420   2.586   4.157  1.00  0.00     0.117 A 
ATOM     19  C   UNL     1       3.235   1.340   3.466  1.00  0.00     0.117 A 
ATOM     20  C   UNL     1       2.665   2.100   4.454  1.00  0.00     0.040 A 
ENDBRANCH  13  15
ENDBRANCH  12  13
ENDBRANCH   9  12
ENDBRANCH   7   8
ENDBRANCH   4   7
ENDBRANCH   2   3
ENDBRANCH   1   2
BRANCH   1  21
ATOM     21  C   UNL     1      -0.741  -2.261   5.133  1.00  0.00     0.002 C 
BRANCH  21  22
ATOM     22  C   UNL     1       0.726  -2.710   5.199  1.00  0.00     0.002 C 
BRANCH  22  23
ATOM     23  C   UNL     1       1.762  -1.604   5.420  1.00  0.00     0.021 C 
BRANCH  23  24
ATOM     24  C   UNL     1       1.627  -0.820   6.724  1.00  0.00     0.116 C 
BRANCH  24  25
ATOM     25  N   UNL     1       1.976  -1.619   7.885  1.00  0.00    -0.352 N 
ATOM     26  C   UNL     1       2.865  -1.380   8.901  1.00  0.00     0.251 C 
ATOM     27  H   UNL     1       1.494  -2.475   7.954  1.00  0.00     0.163 HD
ATOM     28  O   UNL     1       3.122  -2.288   9.693  1.00  0.00    -0.269 OA
BRANCH  26  29
ATOM     29  C   UNL     1       3.539  -0.067   9.070  1.00  0.00     0.039 A 
ATOM     30  C   UNL     1       4.865  -0.062   9.522  1.00  0.00     0.014 A 
ATOM     31  C   UNL     1       2.876   1.150   8.886  1.00  0.00     0.014 A 
ATOM     32  C   UNL     1       5.529   1.147   9.757  1.00  0.00     0.010 A 
ATOM     33  C   UNL     1       3.557   2.359   9.070  1.00  0.00     0.010 A 
ATOM     34  C   UNL     1       4.888   2.371   9.518  1.00  0.00    -0.014 A 
BRANCH  34  35
ATOM     35  C   UNL     1       5.596   3.659   9.752  1.00  0.00     0.031 A 
ATOM     36  C   UNL     1       5.165   4.587  10.858  1.00  0.00     0.074 A 
ATOM     37  C   UNL     1       6.623   4.017   8.956  1.00  0.00     0.049 A 
ATOM     38  N   UNL     1       5.651   5.757  11.191  1.00  0.00    -0.248 NA
ATOM     39  C   UNL     1       4.032   4.148  11.687  1.00  0.00     0.031 C 
ATOM     40  C   UNL     1       7.146   3.228   7.840  1.00  0.00     0.029 A 
ATOM     41  N   UNL     1       7.411   5.143   8.966  1.00  0.00    -0.354 N 
ATOM     42  C   UNL     1       4.878   6.200  12.257  1.00  0.00     0.074 A 
ATOM     43  C   UNL     1       3.867   5.190  12.490  1.00  0.00     0.031 C 
ATOM     44  C   UNL     1       8.180   3.882   7.287  1.00  0.00     0.029 A 
ATOM     45  C   UNL     1       8.373   5.150   7.985  1.00  0.00     0.049 A 
ATOM     46  H   UNL     1       7.297   5.874   9.614  1.00  0.00     0.167 HD
ATOM     47  C   UNL     1       5.002   7.335  12.988  1.00  0.00     0.031 A 
ATOM     48  C   UNL     1       9.305   6.072   7.676  1.00  0.00     0.031 A 
ATOM     49  C   UNL     1       6.008   8.342  12.776  1.00  0.00     0.049 A 
ATOM     50  C   UNL     1       9.406   7.335   8.485  1.00  0.00     0.074 A 
ATOM     51  C   UNL     1       6.235   9.500  13.502  1.00  0.00     0.029 A 
ATOM     52  N   UNL     1       6.953   8.315  11.764  1.00  0.00    -0.354 N 
ATOM     53  N   UNL     1       8.698   7.711   9.520  1.00  0.00    -0.248 NA
ATOM     54  C   UNL     1      10.446   8.295   8.084  1.00  0.00     0.031 C 
ATOM     55  C   UNL     1       7.291  10.195  12.902  1.00  0.00     0.029 A 
ATOM     56  C   UNL     1       7.751   9.446  11.832  1.00  0.00     0.049 A 
ATOM     57  H   UNL     1       7.045   7.598  11.095  1.00  0.00     0.167 HD
ATOM     58  C   UNL     1       9.223   8.937   9.911  1.00  0.00     0.074 A 
ATOM     59  C   UNL     1      10.315   9.235   9.009  1.00  0.00     0.031 C 
ATOM     60  C   UNL     1       8.834   9.739  10.931  1.00  0.00     0.031 A 
BRANCH  47  61
ATOM     61  C   UNL     1       4.006   7.557  14.091  1.00  0.00    -0.014 A 
ATOM     62  C   UNL     1       4.059   6.809  15.278  1.00  0.00     0.009 A 
ATOM     63  C   UNL     1       3.028   8.555  13.959  1.00  0.00     0.009 A 
ATOM     64  C   UNL     1       3.129   7.033  16.296  1.00  0.00     0.001 A 
ATOM     65  C   UNL     1       2.116   8.794  14.988  1.00  0.00     0.001 A 
ATOM     66  C   UNL     1       2.162   8.027  16.152  1.00  0.00     0.000 A 
ENDBRANCH  47  61
BRANCH  48  67
ATOM     67  C   UNL     1      10.238   5.830   6.546  1.00  0.00    -0.014 A 
ATOM     68  C   UNL     1      11.585   5.525   6.790  1.00  0.00     0.009 A 
ATOM     69  C   UNL     1       9.786   5.911   5.220  1.00  0.00     0.009 A 
ATOM     70  C   UNL     1      12.468   5.327   5.726  1.00  0.00     0.001 A 
ATOM     71  C   UNL     1      10.666   5.688   4.159  1.00  0.00     0.001 A 
ATOM     72  C   UNL     1      12.007   5.404   4.413  1.00  0.00     0.000 A 
ENDBRANCH  48  67
BRANCH  60  73
ATOM     73  C   UNL     1       9.615  11.004  11.149  1.00  0.00    -0.014 A 
ATOM     74  C   UNL     1       9.477  12.104  10.289  1.00  0.00     0.009 A 
ATOM     75  C   UNL     1      10.477  11.107  12.253  1.00  0.00     0.009 A 
ATOM     76  C   UNL     1      10.209  13.272  10.513  1.00  0.00     0.001 A 
ATOM     77  C   UNL     1      11.188  12.285  12.489  1.00  0.00     0.001 A 
ATOM     78  C   UNL     1      11.060  13.363  11.614  1.00  0.00     0.000 A 
ENDBRANCH  60  73
ENDBRANCH  34  35
ENDBRANCH  26  29
ENDBRANCH  24  25
ENDBRANCH  23  24
ENDBRANCH  22  23
ENDBRANCH  21  22
ENDBRANCH   1  21
TORSDOF 17
