REMARK SMILES O=C(Cc1ccc(=O)n(C(F)F)c1)NCCCCCCNC(=O)c1ccc(-c2c3nc(c(-c4ccccc4)c4ccc([nH]4)c(-c4ccccc4)c4nc(c(-c5ccccc5)c5ccc2[nH]5)C=C4)C=C3)cc1
REMARK SMILES IDX 17 1 16 2 15 3 14 4 1 5 2 6 3 8 4 9 5 10 13 11 6 12 9 13
REMARK SMILES IDX 7 14 8 15 10 16 11 17 12 18 18 19 19 20 20 21 21 22 22 23
REMARK SMILES IDX 23 25 24 26 25 27 71 28 26 29 70 30 27 31 28 32 29 33 64 34
REMARK SMILES IDX 30 35 69 36 63 37 65 38 31 39 68 40 62 41 61 42 32 44 54 45
REMARK SMILES IDX 39 46 53 47 40 48 43 49 52 50 66 51 41 52 42 53 51 55 67 56
REMARK SMILES IDX 44 57 33 58 34 59 38 60 35 61 37 62 36 63 55 64 56 65 60 66
REMARK SMILES IDX 57 67 59 68 58 69 45 70 46 71 50 72 47 73 49 74 48 75
REMARK H PARENT 14 7 21 24 65 43 43 54
REMARK Flexibility Score: inf
ROOT
ATOM      1  C   UNL     1       4.229  -2.123  -3.130  1.00  0.00     0.002 C 
ENDROOT
BRANCH   1   2
ATOM      2  C   UNL     1       2.719  -1.857  -3.066  1.00  0.00     0.021 C 
BRANCH   2   3
ATOM      3  C   UNL     1       2.124  -1.790  -1.662  1.00  0.00     0.116 C 
BRANCH   3   4
ATOM      4  N   UNL     1       2.728  -0.750  -0.857  1.00  0.00    -0.356 N 
ATOM      5  O   UNL     1       0.808  -0.169   0.267  1.00  0.00    -0.275 OA
ATOM      6  C   UNL     1       2.013  -0.036   0.083  1.00  0.00     0.224 C 
ATOM      7  H   UNL     1       3.683  -0.545  -0.984  1.00  0.00     0.163 HD
BRANCH   6   8
ATOM      8  C   UNL     1       2.876   0.892   0.930  1.00  0.00     0.137 C 
BRANCH   8   9
ATOM      9  C   UNL     1       3.745   0.163   1.932  1.00  0.00    -0.022 A 
ATOM     10  C   UNL     1       4.749   0.962   2.611  1.00  0.00     0.011 A 
ATOM     11  C   UNL     1       3.675  -1.149   2.221  1.00  0.00     0.099 A 
ATOM     12  C   UNL     1       5.611   0.404   3.471  1.00  0.00     0.072 A 
ATOM     13  N   UNL     1       4.556  -1.753   3.101  1.00  0.00    -0.258 N 
ATOM     14  C   UNL     1       5.564  -1.057   3.748  1.00  0.00     0.254 A 
ATOM     15  O   UNL     1       6.398  -1.539   4.506  1.00  0.00    -0.269 OA
BRANCH  13  16
ATOM     16  C   UNL     1       4.496  -3.175   3.326  1.00  0.00     0.451 C 
ATOM     17  F   UNL     1       5.605  -3.784   2.838  1.00  0.00    -0.185 F 
ATOM     18  F   UNL     1       4.400  -3.467   4.644  1.00  0.00    -0.185 F 
ENDBRANCH  13  16
ENDBRANCH   8   9
ENDBRANCH   6   8
ENDBRANCH   3   4
ENDBRANCH   2   3
ENDBRANCH   1   2
BRANCH   1  19
ATOM     19  C   UNL     1       4.714  -3.411  -2.457  1.00  0.00     0.002 C 
BRANCH  19  20
ATOM     20  C   UNL     1       4.058  -4.702  -2.945  1.00  0.00     0.021 C 
BRANCH  20  21
ATOM     21  C   UNL     1       4.118  -4.942  -4.449  1.00  0.00     0.116 C 
BRANCH  21  22
ATOM     22  N   UNL     1       5.468  -5.130  -4.960  1.00  0.00    -0.352 N 
ATOM     23  C   UNL     1       5.907  -6.028  -5.907  1.00  0.00     0.251 C 
ATOM     24  H   UNL     1       6.156  -4.538  -4.579  1.00  0.00     0.163 HD
ATOM     25  O   UNL     1       7.101  -6.124  -6.174  1.00  0.00    -0.269 OA
BRANCH  23  26
ATOM     26  C   UNL     1       4.927  -6.920  -6.564  1.00  0.00     0.039 A 
ATOM     27  C   UNL     1       3.746  -6.403  -7.100  1.00  0.00     0.014 A 
ATOM     28  C   UNL     1       5.163  -8.298  -6.575  1.00  0.00     0.014 A 
ATOM     29  C   UNL     1       2.728  -7.271  -7.479  1.00  0.00     0.010 A 
ATOM     30  C   UNL     1       4.166  -9.167  -7.028  1.00  0.00     0.010 A 
ATOM     31  C   UNL     1       2.917  -8.663  -7.425  1.00  0.00    -0.014 A 
BRANCH  31  32
ATOM     32  C   UNL     1       1.784  -9.566  -7.751  1.00  0.00     0.031 A 
ATOM     33  C   UNL     1       1.153 -10.422  -6.684  1.00  0.00     0.074 A 
ATOM     34  C   UNL     1       1.268  -9.559  -8.995  1.00  0.00     0.049 A 
ATOM     35  N   UNL     1       0.123 -11.227  -6.778  1.00  0.00    -0.248 NA
ATOM     36  C   UNL     1       1.749 -10.370  -5.339  1.00  0.00     0.031 C 
ATOM     37  C   UNL     1       1.771  -8.755 -10.110  1.00  0.00     0.029 A 
ATOM     38  N   UNL     1       0.188 -10.223  -9.521  1.00  0.00    -0.354 N 
ATOM     39  C   UNL     1      -0.039 -11.787  -5.517  1.00  0.00     0.074 A 
ATOM     40  C   UNL     1       1.010 -11.251  -4.678  1.00  0.00     0.031 C 
ATOM     41  C   UNL     1       0.966  -8.925 -11.169  1.00  0.00     0.029 A 
ATOM     42  C   UNL     1      -0.073  -9.892 -10.828  1.00  0.00     0.049 A 
ATOM     43  H   UNL     1      -0.347 -10.872  -9.011  1.00  0.00     0.167 HD
ATOM     44  C   UNL     1      -0.983 -12.660  -5.092  1.00  0.00     0.031 A 
ATOM     45  C   UNL     1      -1.037 -10.319 -11.666  1.00  0.00     0.031 A 
ATOM     46  C   UNL     1      -2.038 -13.184  -5.918  1.00  0.00     0.049 A 
ATOM     47  C   UNL     1      -2.045 -11.320 -11.183  1.00  0.00     0.074 A 
ATOM     48  C   UNL     1      -3.048 -14.062  -5.566  1.00  0.00     0.029 A 
ATOM     49  N   UNL     1      -2.221 -12.878  -7.257  1.00  0.00    -0.354 N 
ATOM     50  N   UNL     1      -2.181 -11.838  -9.987  1.00  0.00    -0.248 NA
ATOM     51  C   UNL     1      -3.028 -11.800 -12.165  1.00  0.00     0.031 C 
ATOM     52  C   UNL     1      -3.816 -14.324  -6.704  1.00  0.00     0.029 A 
ATOM     53  C   UNL     1      -3.315 -13.567  -7.750  1.00  0.00     0.049 A 
ATOM     54  H   UNL     1      -1.657 -12.262  -7.779  1.00  0.00     0.167 HD
ATOM     55  C   UNL     1      -3.267 -12.700 -10.070  1.00  0.00     0.074 A 
ATOM     56  C   UNL     1      -3.766 -12.620 -11.427  1.00  0.00     0.031 C 
ATOM     57  C   UNL     1      -3.798 -13.487  -9.104  1.00  0.00     0.031 A 
BRANCH  44  58
ATOM     58  C   UNL     1      -0.922 -13.124  -3.664  1.00  0.00    -0.014 A 
ATOM     59  C   UNL     1      -0.542 -14.445  -3.377  1.00  0.00     0.009 A 
ATOM     60  C   UNL     1      -1.324 -12.287  -2.612  1.00  0.00     0.009 A 
ATOM     61  C   UNL     1      -0.573 -14.922  -2.066  1.00  0.00     0.001 A 
ATOM     62  C   UNL     1      -1.332 -12.761  -1.298  1.00  0.00     0.001 A 
ATOM     63  C   UNL     1      -0.964 -14.079  -1.027  1.00  0.00     0.000 A 
ENDBRANCH  44  58
BRANCH  45  64
ATOM     64  C   UNL     1      -1.086  -9.783 -13.050  1.00  0.00    -0.014 A 
ATOM     65  C   UNL     1      -0.096 -10.131 -13.983  1.00  0.00     0.009 A 
ATOM     66  C   UNL     1      -2.090  -8.880 -13.428  1.00  0.00     0.009 A 
ATOM     67  C   UNL     1      -0.096  -9.565 -15.259  1.00  0.00     0.001 A 
ATOM     68  C   UNL     1      -2.101  -8.335 -14.714  1.00  0.00     0.001 A 
ATOM     69  C   UNL     1      -1.100  -8.670 -15.624  1.00  0.00     0.000 A 
ENDBRANCH  45  64
BRANCH  57  70
ATOM     70  C   UNL     1      -4.985 -14.331  -9.465  1.00  0.00    -0.014 A 
ATOM     71  C   UNL     1      -6.253 -14.005  -8.959  1.00  0.00     0.009 A 
ATOM     72  C   UNL     1      -4.833 -15.501 -10.225  1.00  0.00     0.009 A 
ATOM     73  C   UNL     1      -7.345 -14.841  -9.197  1.00  0.00     0.001 A 
ATOM     74  C   UNL     1      -5.932 -16.322 -10.481  1.00  0.00     0.001 A 
ATOM     75  C   UNL     1      -7.184 -15.997  -9.960  1.00  0.00     0.000 A 
ENDBRANCH  57  70
ENDBRANCH  31  32
ENDBRANCH  23  26
ENDBRANCH  21  22
ENDBRANCH  20  21
ENDBRANCH  19  20
ENDBRANCH   1  19
TORSDOF 15
