REMARK SMILES Cc1cc(C)c(S(=O)(=O)Nc2ccc(N3CC[NH+](C)CC3)c(C(=O)NCCCCCCNC(=O)c3ccc(-c4c5nc(c(-c6ccccc6)c6ccc([nH]6)c(-c6ccccc6)c6nc(c(-c7ccccc7)c7ccc4[nH]7)C=C6)C=C5)cc3)c2)c(C)c1
REMARK SMILES IDX 28 1 27 2 26 3 25 4 23 5 24 6 22 8 11 9 12 10 83 11 13 12
REMARK SMILES IDX 14 13 10 14 7 16 8 17 9 18 6 19 1 20 2 21 3 22 86 23 4 24
REMARK SMILES IDX 84 25 5 26 85 27 15 28 16 29 21 30 17 31 20 32 18 33 19 34
REMARK SMILES IDX 29 36 30 37 31 38 32 39 33 40 34 42 35 43 36 44 82 45 37 46
REMARK SMILES IDX 81 47 38 48 39 49 40 50 75 51 41 52 80 53 74 54 76 55 42 56
REMARK SMILES IDX 79 57 73 58 72 59 43 61 65 62 50 63 64 64 51 65 54 66 63 67
REMARK SMILES IDX 77 68 52 69 53 70 62 72 78 73 55 74 44 75 45 76 49 77 46 78
REMARK SMILES IDX 48 79 47 80 66 81 67 82 71 83 68 84 70 85 69 86 56 87 57 88
REMARK SMILES IDX 61 89 58 90 60 91 59 92
REMARK H PARENT 25 7 10 15 18 35 32 41 76 60 54 71
REMARK Flexibility Score: inf
ROOT
ATOM      1  C   UNL     1       0.735  -0.573   5.189  1.00  0.00     0.002 C 
ENDROOT
BRANCH   1   2
ATOM      2  C   UNL     1       0.179  -1.339   3.982  1.00  0.00     0.021 C 
BRANCH   2   3
ATOM      3  C   UNL     1       1.033  -1.160   2.724  1.00  0.00     0.116 C 
BRANCH   3   4
ATOM      4  N   UNL     1       2.236  -1.953   2.846  1.00  0.00    -0.352 N 
ATOM      5  C   UNL     1       2.550  -3.240   2.485  1.00  0.00     0.253 C 
ATOM      6  O   UNL     1       3.506  -3.723   3.091  1.00  0.00    -0.269 OA
ATOM      7  H   UNL     1       2.981  -1.473   3.274  1.00  0.00     0.163 HD
BRANCH   5   8
ATOM      8  C   UNL     1       1.816  -4.015   1.427  1.00  0.00     0.065 A 
ATOM      9  C   UNL     1      -0.220  -4.380   0.155  1.00  0.00     0.050 A 
ATOM     10  C   UNL     1       0.424  -5.332  -0.626  1.00  0.00     0.029 A 
ATOM     11  C   UNL     1       0.423  -3.876   1.281  1.00  0.00     0.042 A 
ATOM     12  C   UNL     1       1.784  -5.556  -0.447  1.00  0.00     0.029 A 
ATOM     13  C   UNL     1       2.528  -4.820   0.493  1.00  0.00     0.050 A 
BRANCH   9  14
ATOM     14  N   UNL     1      -1.461  -3.902  -0.341  1.00  0.00    -0.280 N 
ATOM     15  H   UNL     1      -1.967  -4.515  -0.922  1.00  0.00     0.180 HD
BRANCH  14  16
ATOM     16  S   UNL     1      -2.156  -2.411  -0.047  1.00  0.00     0.262 S 
ATOM     17  O   UNL     1      -2.402  -2.352   1.385  1.00  0.00    -0.201 OA
ATOM     18  O   UNL     1      -3.245  -2.318  -0.993  1.00  0.00    -0.201 OA
BRANCH  16  19
ATOM     19  C   UNL     1      -1.055  -1.029  -0.422  1.00  0.00     0.093 A 
ATOM     20  C   UNL     1       1.860   2.164  -0.114  1.00  0.00     0.044 C 
ATOM     21  C   UNL     1       0.834   1.081  -0.264  1.00  0.00    -0.051 A 
ATOM     22  C   UNL     1      -0.465   1.265   0.200  1.00  0.00     0.008 A 
ATOM     23  C   UNL     1       1.128  -0.099  -0.948  1.00  0.00     0.008 A 
ATOM     24  C   UNL     1      -1.419   0.231   0.130  1.00  0.00    -0.030 A 
ATOM     25  C   UNL     1       0.182  -1.142  -1.086  1.00  0.00    -0.030 A 
ATOM     26  C   UNL     1      -2.818   0.604   0.557  1.00  0.00     0.046 C 
ATOM     27  C   UNL     1       0.595  -2.252  -2.005  1.00  0.00     0.046 C 
ENDBRANCH  16  19
ENDBRANCH  14  16
ENDBRANCH   9  14
BRANCH  13  28
ATOM     28  N   UNL     1       3.905  -4.800   0.346  1.00  0.00    -0.360 N 
ATOM     29  C   UNL     1       4.798  -5.484   1.289  1.00  0.00     0.178 C 
ATOM     30  C   UNL     1       4.499  -4.590  -0.981  1.00  0.00     0.178 C 
ATOM     31  C   UNL     1       6.106  -4.664   1.417  1.00  0.00     0.283 C 
ATOM     32  C   UNL     1       5.833  -3.825  -0.843  1.00  0.00     0.283 C 
ATOM     33  N   UNL     1       6.779  -4.460   0.104  1.00  0.00    -0.334 N 
ATOM     34  C   UNL     1       7.965  -3.620   0.264  1.00  0.00     0.332 C 
ATOM     35  H   UNL     1       7.071  -5.366  -0.263  1.00  0.00     0.347 HD
ENDBRANCH  13  28
ENDBRANCH   5   8
ENDBRANCH   3   4
ENDBRANCH   2   3
ENDBRANCH   1   2
BRANCH   1  36
ATOM     36  C   UNL     1       0.721   0.952   5.032  1.00  0.00     0.002 C 
BRANCH  36  37
ATOM     37  C   UNL     1      -0.650   1.550   4.705  1.00  0.00     0.021 C 
BRANCH  37  38
ATOM     38  C   UNL     1      -1.740   1.221   5.722  1.00  0.00     0.116 C 
BRANCH  38  39
ATOM     39  N   UNL     1      -1.435   1.763   7.037  1.00  0.00    -0.352 N 
ATOM     40  C   UNL     1      -2.242   2.475   7.885  1.00  0.00     0.251 C 
ATOM     41  H   UNL     1      -0.521   1.595   7.363  1.00  0.00     0.163 HD
ATOM     42  O   UNL     1      -1.775   3.017   8.881  1.00  0.00    -0.269 OA
BRANCH  40  43
ATOM     43  C   UNL     1      -3.682   2.603   7.585  1.00  0.00     0.039 A 
ATOM     44  C   UNL     1      -4.278   3.863   7.672  1.00  0.00     0.014 A 
ATOM     45  C   UNL     1      -4.442   1.481   7.237  1.00  0.00     0.014 A 
ATOM     46  C   UNL     1      -5.631   4.009   7.365  1.00  0.00     0.010 A 
ATOM     47  C   UNL     1      -5.778   1.637   6.881  1.00  0.00     0.010 A 
ATOM     48  C   UNL     1      -6.384   2.900   6.949  1.00  0.00    -0.014 A 
BRANCH  48  49
ATOM     49  C   UNL     1      -7.814   3.041   6.588  1.00  0.00     0.031 A 
ATOM     50  C   UNL     1      -8.874   2.418   7.449  1.00  0.00     0.074 A 
ATOM     51  C   UNL     1      -8.152   3.668   5.447  1.00  0.00     0.049 A 
ATOM     52  N   UNL     1     -10.170   2.389   7.270  1.00  0.00    -0.248 NA
ATOM     53  C   UNL     1      -8.414   1.716   8.657  1.00  0.00     0.031 C 
ATOM     54  C   UNL     1      -7.212   4.270   4.499  1.00  0.00     0.029 A 
ATOM     55  N   UNL     1      -9.383   3.890   4.885  1.00  0.00    -0.354 N 
ATOM     56  C   UNL     1     -10.678   1.645   8.326  1.00  0.00     0.074 A 
ATOM     57  C   UNL     1      -9.549   1.214   9.123  1.00  0.00     0.031 C 
ATOM     58  C   UNL     1      -7.902   4.802   3.478  1.00  0.00     0.029 A 
ATOM     59  C   UNL     1      -9.326   4.558   3.688  1.00  0.00     0.049 A 
ATOM     60  H   UNL     1     -10.226   3.598   5.300  1.00  0.00     0.167 HD
ATOM     61  C   UNL     1     -11.969   1.356   8.616  1.00  0.00     0.031 A 
ATOM     62  C   UNL     1     -10.310   4.930   2.849  1.00  0.00     0.031 A 
ATOM     63  C   UNL     1     -13.092   1.797   7.835  1.00  0.00     0.049 A 
ATOM     64  C   UNL     1     -11.736   4.624   3.202  1.00  0.00     0.074 A 
ATOM     65  C   UNL     1     -14.442   1.620   8.087  1.00  0.00     0.029 A 
ATOM     66  N   UNL     1     -12.995   2.501   6.645  1.00  0.00    -0.354 N 
ATOM     67  N   UNL     1     -12.207   3.985   4.246  1.00  0.00    -0.248 NA
ATOM     68  C   UNL     1     -12.766   5.101   2.269  1.00  0.00     0.031 C 
ATOM     69  C   UNL     1     -15.161   2.187   7.029  1.00  0.00     0.029 A 
ATOM     70  C   UNL     1     -14.260   2.749   6.139  1.00  0.00     0.049 A 
ATOM     71  H   UNL     1     -12.152   2.782   6.223  1.00  0.00     0.167 HD
ATOM     72  C   UNL     1     -13.588   3.995   4.103  1.00  0.00     0.074 A 
ATOM     73  C   UNL     1     -13.878   4.716   2.880  1.00  0.00     0.031 C 
ATOM     74  C   UNL     1     -14.530   3.458   4.915  1.00  0.00     0.031 A 
BRANCH  61  75
ATOM     75  C   UNL     1     -12.222   0.508   9.829  1.00  0.00    -0.014 A 
ATOM     76  C   UNL     1     -12.050   1.023  11.124  1.00  0.00     0.009 A 
ATOM     77  C   UNL     1     -12.638  -0.823   9.675  1.00  0.00     0.009 A 
ATOM     78  C   UNL     1     -12.248   0.208  12.240  1.00  0.00     0.001 A 
ATOM     79  C   UNL     1     -12.860  -1.628  10.794  1.00  0.00     0.001 A 
ATOM     80  C   UNL     1     -12.654  -1.115  12.074  1.00  0.00     0.000 A 
ENDBRANCH  61  75
BRANCH  62  81
ATOM     81  C   UNL     1      -9.971   5.657   1.602  1.00  0.00    -0.014 A 
ATOM     82  C   UNL     1     -10.167   7.043   1.515  1.00  0.00     0.009 A 
ATOM     83  C   UNL     1      -9.418   4.975   0.508  1.00  0.00     0.009 A 
ATOM     84  C   UNL     1      -9.825   7.732   0.349  1.00  0.00     0.001 A 
ATOM     85  C   UNL     1      -9.060   5.670  -0.649  1.00  0.00     0.001 A 
ATOM     86  C   UNL     1      -9.268   7.046  -0.729  1.00  0.00     0.000 A 
ENDBRANCH  62  81
BRANCH  74  87
ATOM     87  C   UNL     1     -15.963   3.641   4.511  1.00  0.00    -0.014 A 
ATOM     88  C   UNL     1     -16.525   2.877   3.478  1.00  0.00     0.009 A 
ATOM     89  C   UNL     1     -16.769   4.561   5.199  1.00  0.00     0.009 A 
ATOM     90  C   UNL     1     -17.864   3.051   3.123  1.00  0.00     0.001 A 
ATOM     91  C   UNL     1     -18.112   4.718   4.855  1.00  0.00     0.001 A 
ATOM     92  C   UNL     1     -18.657   3.968   3.814  1.00  0.00     0.000 A 
ENDBRANCH  74  87
ENDBRANCH  48  49
ENDBRANCH  40  43
ENDBRANCH  38  39
ENDBRANCH  37  38
ENDBRANCH  36  37
ENDBRANCH   1  36
TORSDOF 17
