REMARK SMILES CCOc1cc2nccc(Nc3ccc(C(=O)NCCCCCCNC(=O)c4ccc(-c5c6nc(c(-c7ccccc7)c7ccc([nH]7)c(-c7ccccc7)c7nc(c(-c8ccccc8)c8ccc5[nH]8)C=C7)C=C6)cc4)cc3)c2cc1OCC
REMARK SMILES IDX 20 1 19 2 18 3 16 4 17 5 15 7 12 8 13 9 77 10 14 11 76 12
REMARK SMILES IDX 11 13 10 15 4 16 5 17 80 18 6 19 79 20 7 21 78 22 8 23 9 24
REMARK SMILES IDX 3 25 2 26 1 27 81 28 82 29 83 30 21 31 22 32 23 33 24 34
REMARK SMILES IDX 25 35 26 36 27 38 28 39 29 40 75 41 30 42 74 43 31 44 32 45
REMARK SMILES IDX 33 46 68 47 34 48 73 49 67 50 69 51 35 52 72 53 66 54 65 55
REMARK SMILES IDX 36 57 58 58 43 59 57 60 44 61 47 62 56 63 70 64 45 65 46 66
REMARK SMILES IDX 55 68 71 69 48 70 37 71 38 72 42 73 39 74 41 75 40 76 59 77
REMARK SMILES IDX 60 78 64 79 61 80 63 81 62 82 49 83 50 84 54 85 51 86 53 87
REMARK SMILES IDX 52 88
REMARK H PARENT 18 6 11 14 25 37 69 56 47 67
REMARK Flexibility Score: inf
ROOT
ATOM      1  C   UNL     1      13.902   1.329   3.811  1.00  0.00     0.021 C 
ENDROOT
BRANCH   1   2
ATOM      2  C   UNL     1      13.385   2.706   3.394  1.00  0.00     0.116 C 
BRANCH   2   3
ATOM      3  N   UNL     1      13.758   2.958   2.018  1.00  0.00    -0.352 N 
ATOM      4  C   UNL     1      13.048   2.890   0.851  1.00  0.00     0.251 C 
ATOM      5  O   UNL     1      13.649   3.087  -0.204  1.00  0.00    -0.269 OA
ATOM      6  H   UNL     1      14.697   3.227   1.900  1.00  0.00     0.163 HD
BRANCH   4   7
ATOM      7  C   UNL     1      11.576   2.692   0.823  1.00  0.00     0.039 A 
ATOM      8  C   UNL     1       8.765   2.625   0.724  1.00  0.00     0.038 A 
ATOM      9  C   UNL     1       9.495   3.328  -0.240  1.00  0.00     0.027 A 
ATOM     10  C   UNL     1       9.453   1.914   1.707  1.00  0.00     0.027 A 
ATOM     11  C   UNL     1      10.885   3.371  -0.186  1.00  0.00     0.016 A 
ATOM     12  C   UNL     1      10.853   1.903   1.722  1.00  0.00     0.016 A 
BRANCH   8  13
ATOM     13  N   UNL     1       7.370   2.682   0.678  1.00  0.00    -0.355 N 
ATOM     14  H   UNL     1       6.990   2.456  -0.201  1.00  0.00     0.167 HD
BRANCH  13  15
ATOM     15  C   UNL     1       6.401   3.002   1.656  1.00  0.00     0.050 A 
ATOM     16  C   UNL     1       2.357   2.042   0.919  1.00  0.00     0.163 A 
ATOM     17  C   UNL     1       2.725   2.802   2.040  1.00  0.00     0.079 A 
ATOM     18  C   UNL     1       3.349   1.519   0.093  1.00  0.00     0.161 A 
ATOM     19  C   UNL     1       4.062   3.087   2.331  1.00  0.00     0.076 A 
ATOM     20  C   UNL     1       4.677   1.826   0.349  1.00  0.00     0.063 A 
ATOM     21  N   UNL     1       4.380   3.809   3.422  1.00  0.00    -0.256 NA
ATOM     22  C   UNL     1       5.053   2.630   1.439  1.00  0.00     0.028 A 
ATOM     23  C   UNL     1       5.686   4.088   3.647  1.00  0.00     0.114 A 
ATOM     24  C   UNL     1       6.720   3.706   2.811  1.00  0.00     0.047 A 
BRANCH  16  25
ATOM     25  O   UNL     1       1.056   1.915   0.524  1.00  0.00    -0.490 OA
BRANCH  25  26
ATOM     26  C   UNL     1       0.168   1.362   1.498  1.00  0.00     0.226 C 
ATOM     27  C   UNL     1      -0.901   0.590   0.735  1.00  0.00     0.049 C 
ENDBRANCH  25  26
ENDBRANCH  16  25
BRANCH  18  28
ATOM     28  O   UNL     1       3.185   0.727  -1.007  1.00  0.00    -0.490 OA
BRANCH  28  29
ATOM     29  C   UNL     1       2.244  -0.341  -0.907  1.00  0.00     0.226 C 
ATOM     30  C   UNL     1       2.470  -1.268   0.282  1.00  0.00     0.049 C 
ENDBRANCH  28  29
ENDBRANCH  18  28
ENDBRANCH  13  15
ENDBRANCH   8  13
ENDBRANCH   4   7
ENDBRANCH   2   3
ENDBRANCH   1   2
BRANCH   1  31
ATOM     31  C   UNL     1      15.402   1.337   4.133  1.00  0.00     0.002 C 
BRANCH  31  32
ATOM     32  C   UNL     1      15.785   2.211   5.335  1.00  0.00     0.002 C 
BRANCH  32  33
ATOM     33  C   UNL     1      15.038   1.877   6.628  1.00  0.00     0.021 C 
BRANCH  33  34
ATOM     34  C   UNL     1      15.265   0.454   7.123  1.00  0.00     0.116 C 
BRANCH  34  35
ATOM     35  N   UNL     1      16.654   0.234   7.492  1.00  0.00    -0.352 N 
ATOM     36  C   UNL     1      17.174  -0.217   8.677  1.00  0.00     0.251 C 
ATOM     37  H   UNL     1      17.315   0.439   6.791  1.00  0.00     0.163 HD
ATOM     38  O   UNL     1      18.374  -0.114   8.905  1.00  0.00    -0.269 OA
BRANCH  36  39
ATOM     39  C   UNL     1      16.281  -0.827   9.683  1.00  0.00     0.039 A 
ATOM     40  C   UNL     1      16.461  -0.504  11.030  1.00  0.00     0.014 A 
ATOM     41  C   UNL     1      15.292  -1.739   9.303  1.00  0.00     0.014 A 
ATOM     42  C   UNL     1      15.628  -1.074  11.993  1.00  0.00     0.010 A 
ATOM     43  C   UNL     1      14.414  -2.247  10.255  1.00  0.00     0.010 A 
ATOM     44  C   UNL     1      14.587  -1.936  11.611  1.00  0.00    -0.014 A 
BRANCH  44  45
ATOM     45  C   UNL     1      13.697  -2.555  12.624  1.00  0.00     0.031 A 
ATOM     46  C   UNL     1      13.710  -4.047  12.824  1.00  0.00     0.074 A 
ATOM     47  C   UNL     1      12.854  -1.783  13.336  1.00  0.00     0.049 A 
ATOM     48  N   UNL     1      12.989  -4.778  13.637  1.00  0.00    -0.248 NA
ATOM     49  C   UNL     1      14.639  -4.822  11.985  1.00  0.00     0.031 C 
ATOM     50  C   UNL     1      12.724  -0.330  13.213  1.00  0.00     0.029 A 
ATOM     51  N   UNL     1      11.947  -2.118  14.309  1.00  0.00    -0.354 N 
ATOM     52  C   UNL     1      13.370  -6.093  13.398  1.00  0.00     0.074 A 
ATOM     53  C   UNL     1      14.339  -6.066  12.325  1.00  0.00     0.031 C 
ATOM     54  C   UNL     1      11.817   0.106  14.102  1.00  0.00     0.029 A 
ATOM     55  C   UNL     1      11.276  -1.038  14.830  1.00  0.00     0.049 A 
ATOM     56  H   UNL     1      11.792  -3.043  14.607  1.00  0.00     0.167 HD
ATOM     57  C   UNL     1      12.970  -7.221  14.032  1.00  0.00     0.031 A 
ATOM     58  C   UNL     1      10.333  -0.978  15.788  1.00  0.00     0.031 A 
ATOM     59  C   UNL     1      12.012  -7.248  15.104  1.00  0.00     0.049 A 
ATOM     60  C   UNL     1       9.893  -2.248  16.462  1.00  0.00     0.074 A 
ATOM     61  C   UNL     1      11.563  -8.335  15.833  1.00  0.00     0.029 A 
ATOM     62  N   UNL     1      11.358  -6.133  15.603  1.00  0.00    -0.354 N 
ATOM     63  N   UNL     1      10.301  -3.478  16.262  1.00  0.00    -0.248 NA
ATOM     64  C   UNL     1       8.871  -2.116  17.511  1.00  0.00     0.031 C 
ATOM     65  C   UNL     1      10.604  -7.882  16.745  1.00  0.00     0.029 A 
ATOM     66  C   UNL     1      10.500  -6.506  16.623  1.00  0.00     0.049 A 
ATOM     67  H   UNL     1      11.485  -5.211  15.280  1.00  0.00     0.167 HD
ATOM     68  C   UNL     1       9.618  -4.259  17.185  1.00  0.00     0.074 A 
ATOM     69  C   UNL     1       8.779  -3.362  17.953  1.00  0.00     0.031 C 
ATOM     70  C   UNL     1       9.680  -5.598  17.382  1.00  0.00     0.031 A 
BRANCH  57  71
ATOM     71  C   UNL     1      13.576  -8.520  13.575  1.00  0.00    -0.014 A 
ATOM     72  C   UNL     1      14.930  -8.812  13.812  1.00  0.00     0.009 A 
ATOM     73  C   UNL     1      12.782  -9.473  12.921  1.00  0.00     0.009 A 
ATOM     74  C   UNL     1      15.483 -10.015  13.369  1.00  0.00     0.001 A 
ATOM     75  C   UNL     1      13.331 -10.689  12.506  1.00  0.00     0.001 A 
ATOM     76  C   UNL     1      14.683 -10.954  12.721  1.00  0.00     0.000 A 
ENDBRANCH  57  71
BRANCH  58  77
ATOM     77  C   UNL     1       9.756   0.331  16.193  1.00  0.00    -0.014 A 
ATOM     78  C   UNL     1      10.038   0.871  17.457  1.00  0.00     0.009 A 
ATOM     79  C   UNL     1       8.903   1.035  15.330  1.00  0.00     0.009 A 
ATOM     80  C   UNL     1       9.448   2.069  17.864  1.00  0.00     0.001 A 
ATOM     81  C   UNL     1       8.339   2.249  15.727  1.00  0.00     0.001 A 
ATOM     82  C   UNL     1       8.601   2.759  16.997  1.00  0.00     0.000 A 
ENDBRANCH  58  77
BRANCH  70  83
ATOM     83  C   UNL     1       8.862  -6.163  18.510  1.00  0.00    -0.014 A 
ATOM     84  C   UNL     1       7.462  -6.233  18.440  1.00  0.00     0.009 A 
ATOM     85  C   UNL     1       9.512  -6.654  19.654  1.00  0.00     0.009 A 
ATOM     86  C   UNL     1       6.728  -6.744  19.512  1.00  0.00     0.001 A 
ATOM     87  C   UNL     1       8.777  -7.193  20.710  1.00  0.00     0.001 A 
ATOM     88  C   UNL     1       7.385  -7.226  20.643  1.00  0.00     0.000 A 
ENDBRANCH  70  83
ENDBRANCH  44  45
ENDBRANCH  36  39
ENDBRANCH  34  35
ENDBRANCH  33  34
ENDBRANCH  32  33
ENDBRANCH  31  32
ENDBRANCH   1  31
TORSDOF 19
