REMARK SMILES Cc1c(CC(=O)NCCCCCCNC(=O)c2ccc(-c3c4nc(c(-c5ccccc5)c5ccc([nH]5)c(-c5ccccc5)c5nc(c(-c6ccccc6)c6ccc3[nH]6)C=C5)C=C4)cc2)c2ccccc2n1C(=O)c1ccc(Cl)cc1
REMARK SMILES IDX 10 1 9 2 8 3 7 4 5 5 6 6 4 8 3 9 1 10 2 11 71 12 65 13 70 14
REMARK SMILES IDX 66 15 69 16 67 17 68 18 72 19 73 20 74 21 75 22 80 23 76 24
REMARK SMILES IDX 79 25 77 26 78 27 11 28 12 29 13 30 14 31 15 32 16 34 17 35
REMARK SMILES IDX 18 36 64 37 19 38 63 39 20 40 21 41 22 42 57 43 23 44 62 45
REMARK SMILES IDX 56 46 58 47 24 48 61 49 55 50 54 51 25 53 47 54 32 55 46 56
REMARK SMILES IDX 33 57 36 58 45 59 59 60 34 61 35 62 44 64 60 65 37 66 26 67
REMARK SMILES IDX 27 68 31 69 28 70 30 71 29 72 48 73 49 74 53 75 50 76 52 77
REMARK SMILES IDX 51 78 38 79 39 80 43 81 40 82 42 83 41 84
REMARK H PARENT 7 7 14 33 58 52 36 63
REMARK Flexibility Score: inf
ROOT
ATOM      1  C   UNL     1       5.332  -1.397   2.994  1.00  0.00     0.002 C 
ENDROOT
BRANCH   1   2
ATOM      2  C   UNL     1       3.962  -1.116   2.367  1.00  0.00     0.021 C 
BRANCH   2   3
ATOM      3  C   UNL     1       3.871  -1.544   0.903  1.00  0.00     0.116 C 
BRANCH   3   4
ATOM      4  N   UNL     1       3.739  -2.982   0.783  1.00  0.00    -0.356 N 
ATOM      5  C   UNL     1       2.630  -3.705   0.450  1.00  0.00     0.224 C 
ATOM      6  O   UNL     1       2.708  -4.936   0.458  1.00  0.00    -0.275 OA
ATOM      7  H   UNL     1       4.553  -3.504   0.966  1.00  0.00     0.163 HD
BRANCH   5   8
ATOM      8  C   UNL     1       1.355  -2.992   0.024  1.00  0.00     0.138 C 
BRANCH   8   9
ATOM      9  C   UNL     1       0.695  -2.220   1.133  1.00  0.00    -0.010 A 
ATOM     10  C   UNL     1       0.491   0.113   0.013  1.00  0.00     0.065 C 
ATOM     11  C   UNL     1       0.339  -0.877   1.127  1.00  0.00     0.028 A 
ATOM     12  N   UNL     1      -0.162  -0.537   2.393  1.00  0.00    -0.280 N 
ATOM     13  C   UNL     1       0.278  -2.758   2.382  1.00  0.00     0.004 A 
ATOM     14  C   UNL     1      -0.334  -1.732   3.111  1.00  0.00     0.056 A 
ATOM     15  C   UNL     1       0.352  -4.056   2.939  1.00  0.00     0.010 A 
ATOM     16  C   UNL     1      -0.947  -2.023   4.350  1.00  0.00     0.027 A 
ATOM     17  C   UNL     1      -0.187  -4.313   4.199  1.00  0.00     0.001 A 
ATOM     18  C   UNL     1      -0.842  -3.308   4.889  1.00  0.00     0.002 A 
BRANCH  12  19
ATOM     19  C   UNL     1      -0.422   0.791   2.850  1.00  0.00     0.262 C 
ATOM     20  O   UNL     1      -0.174   1.735   2.113  1.00  0.00    -0.268 OA
BRANCH  19  21
ATOM     21  C   UNL     1      -0.967   1.143   4.173  1.00  0.00     0.040 A 
ATOM     22  C   UNL     1      -0.215   0.945   5.336  1.00  0.00     0.015 A 
ATOM     23  C   UNL     1      -2.261   1.671   4.236  1.00  0.00     0.015 A 
ATOM     24  C   UNL     1      -0.803   1.193   6.579  1.00  0.00     0.021 A 
ATOM     25  C   UNL     1      -2.838   1.928   5.480  1.00  0.00     0.021 A 
ATOM     26  C   UNL     1      -2.115   1.669   6.645  1.00  0.00     0.041 A 
ATOM     27  Cl  UNL     1      -2.854   1.919   8.178  1.00  0.00    -0.084 Cl
ENDBRANCH  19  21
ENDBRANCH  12  19
ENDBRANCH   8   9
ENDBRANCH   5   8
ENDBRANCH   3   4
ENDBRANCH   2   3
ENDBRANCH   1   2
BRANCH   1  28
ATOM     28  C   UNL     1       6.499  -0.636   2.351  1.00  0.00     0.002 C 
BRANCH  28  29
ATOM     29  C   UNL     1       6.355   0.892   2.343  1.00  0.00     0.021 C 
BRANCH  29  30
ATOM     30  C   UNL     1       6.136   1.500   3.729  1.00  0.00     0.116 C 
BRANCH  30  31
ATOM     31  N   UNL     1       7.185   1.148   4.664  1.00  0.00    -0.352 N 
ATOM     32  C   UNL     1       8.398   1.671   5.003  1.00  0.00     0.251 C 
ATOM     33  H   UNL     1       6.971   0.337   5.178  1.00  0.00     0.163 HD
ATOM     34  O   UNL     1       9.005   1.085   5.902  1.00  0.00    -0.269 OA
BRANCH  32  35
ATOM     35  C   UNL     1       9.054   2.832   4.343  1.00  0.00     0.039 A 
ATOM     36  C   UNL     1       8.530   3.582   3.290  1.00  0.00     0.014 A 
ATOM     37  C   UNL     1      10.355   3.129   4.794  1.00  0.00     0.014 A 
ATOM     38  C   UNL     1       9.324   4.512   2.626  1.00  0.00     0.010 A 
ATOM     39  C   UNL     1      11.144   4.072   4.149  1.00  0.00     0.010 A 
ATOM     40  C   UNL     1      10.649   4.709   3.019  1.00  0.00    -0.014 A 
BRANCH  40  41
ATOM     41  C   UNL     1      11.477   5.595   2.207  1.00  0.00     0.031 A 
ATOM     42  C   UNL     1      10.999   7.002   2.072  1.00  0.00     0.074 A 
ATOM     43  C   UNL     1      12.642   5.199   1.657  1.00  0.00     0.049 A 
ATOM     44  N   UNL     1      10.694   7.647   0.993  1.00  0.00    -0.248 NA
ATOM     45  C   UNL     1      10.759   7.758   3.311  1.00  0.00     0.031 C 
ATOM     46  C   UNL     1      13.399   3.965   1.893  1.00  0.00     0.029 A 
ATOM     47  N   UNL     1      13.456   5.897   0.820  1.00  0.00    -0.354 N 
ATOM     48  C   UNL     1      10.336   8.934   1.393  1.00  0.00     0.074 A 
ATOM     49  C   UNL     1      10.312   8.921   2.835  1.00  0.00     0.031 C 
ATOM     50  C   UNL     1      14.657   4.114   1.418  1.00  0.00     0.029 A 
ATOM     51  C   UNL     1      14.735   5.374   0.702  1.00  0.00     0.049 A 
ATOM     52  H   UNL     1      13.162   6.705   0.339  1.00  0.00     0.167 HD
ATOM     53  C   UNL     1      10.210   9.973   0.520  1.00  0.00     0.031 A 
ATOM     54  C   UNL     1      15.797   5.974   0.113  1.00  0.00     0.031 A 
ATOM     55  C   UNL     1      10.079   9.529  -0.839  1.00  0.00     0.049 A 
ATOM     56  C   UNL     1      15.270   7.008  -0.807  1.00  0.00     0.074 A 
ATOM     57  C   UNL     1       9.119   8.829  -1.540  1.00  0.00     0.029 A 
ATOM     58  N   UNL     1      11.206   9.506  -1.621  1.00  0.00    -0.354 N 
ATOM     59  N   UNL     1      14.574   6.734  -1.874  1.00  0.00    -0.248 NA
ATOM     60  C   UNL     1      15.141   8.366  -0.305  1.00  0.00     0.031 C 
ATOM     61  C   UNL     1       9.856   8.007  -2.440  1.00  0.00     0.029 A 
ATOM     62  C   UNL     1      11.211   8.299  -2.271  1.00  0.00     0.049 A 
ATOM     63  H   UNL     1      11.881  10.219  -1.701  1.00  0.00     0.167 HD
ATOM     64  C   UNL     1      13.612   7.731  -1.935  1.00  0.00     0.074 A 
ATOM     65  C   UNL     1      14.066   8.755  -0.996  1.00  0.00     0.031 C 
ATOM     66  C   UNL     1      12.401   7.516  -2.530  1.00  0.00     0.031 A 
BRANCH  53  67
ATOM     67  C   UNL     1      10.483  11.411   0.868  1.00  0.00    -0.014 A 
ATOM     68  C   UNL     1      11.236  11.790   1.995  1.00  0.00     0.009 A 
ATOM     69  C   UNL     1      10.211  12.415  -0.079  1.00  0.00     0.009 A 
ATOM     70  C   UNL     1      11.700  13.097   2.170  1.00  0.00     0.001 A 
ATOM     71  C   UNL     1      10.706  13.717   0.075  1.00  0.00     0.001 A 
ATOM     72  C   UNL     1      11.454  14.056   1.198  1.00  0.00     0.000 A 
ENDBRANCH  53  67
BRANCH  54  73
ATOM     73  C   UNL     1      17.178   6.022   0.643  1.00  0.00    -0.014 A 
ATOM     74  C   UNL     1      17.395   5.988   2.034  1.00  0.00     0.009 A 
ATOM     75  C   UNL     1      18.252   6.396  -0.178  1.00  0.00     0.009 A 
ATOM     76  C   UNL     1      18.625   6.352   2.588  1.00  0.00     0.001 A 
ATOM     77  C   UNL     1      19.487   6.758   0.378  1.00  0.00     0.001 A 
ATOM     78  C   UNL     1      19.668   6.751   1.760  1.00  0.00     0.000 A 
ENDBRANCH  54  73
BRANCH  66  79
ATOM     79  C   UNL     1      12.181   6.216  -3.270  1.00  0.00    -0.014 A 
ATOM     80  C   UNL     1      11.699   6.270  -4.587  1.00  0.00     0.009 A 
ATOM     81  C   UNL     1      12.216   4.966  -2.626  1.00  0.00     0.009 A 
ATOM     82  C   UNL     1      11.240   5.118  -5.231  1.00  0.00     0.001 A 
ATOM     83  C   UNL     1      11.777   3.808  -3.279  1.00  0.00     0.001 A 
ATOM     84  C   UNL     1      11.276   3.888  -4.577  1.00  0.00     0.000 A 
ENDBRANCH  66  79
ENDBRANCH  40  41
ENDBRANCH  32  35
ENDBRANCH  30  31
ENDBRANCH  29  30
ENDBRANCH  28  29
ENDBRANCH   1  28
TORSDOF 16
