REMARK SMILES COc1ccc(N2C(=O)/C(=C/c3c(C(=O)NCCCCCCNC(=O)c4ccc(-c5c6nc(c(-c7ccccc7)c7ccc([nH]7)c(-c7ccccc7)c7nc(c(-c8ccccc8)c8ccc5[nH]8)C=C7)C=C6)cc4)[nH]c4cc(OC)ccc34)SC2=S)cc1
REMARK SMILES IDX 19 1 18 2 17 3 16 4 14 5 15 6 13 8 12 9 82 10 74 11 75 12
REMARK SMILES IDX 81 13 76 15 80 16 77 17 11 18 7 19 8 20 84 21 9 22 10 23
REMARK SMILES IDX 83 24 85 25 6 26 3 27 4 28 87 29 5 30 86 31 2 32 1 33 78 34
REMARK SMILES IDX 79 35 20 36 21 37 22 38 23 39 24 40 25 42 26 43 27 44 73 45
REMARK SMILES IDX 28 46 72 47 29 48 30 49 31 50 66 51 32 52 71 53 65 54 67 55
REMARK SMILES IDX 33 56 70 57 64 58 63 59 34 61 56 62 41 63 55 64 42 65 45 66
REMARK SMILES IDX 54 67 68 68 43 69 44 70 53 72 69 73 46 74 35 75 36 76 40 77
REMARK SMILES IDX 37 78 39 79 38 80 57 81 58 82 62 83 59 84 61 85 60 86 47 87
REMARK SMILES IDX 48 88 52 89 49 90 51 91 50 92
REMARK H PARENT 16 7 74 14 23 41 67 60 45 71
REMARK Flexibility Score: inf
ROOT
ATOM      1  C   UNL     1      -0.199   3.153  -6.318  1.00  0.00     0.002 C 
ENDROOT
BRANCH   1   2
ATOM      2  C   UNL     1      -0.523   4.228  -7.361  1.00  0.00     0.021 C 
BRANCH   2   3
ATOM      3  C   UNL     1       0.674   5.039  -7.860  1.00  0.00     0.116 C 
BRANCH   3   4
ATOM      4  N   UNL     1       1.726   4.229  -8.454  1.00  0.00    -0.351 N 
ATOM      5  C   UNL     1       2.773   4.651  -9.240  1.00  0.00     0.268 C 
ATOM      6  O   UNL     1       3.405   3.808  -9.872  1.00  0.00    -0.268 OA
ATOM      7  H   UNL     1       1.685   3.263  -8.270  1.00  0.00     0.163 HD
BRANCH   5   8
ATOM      8  C   UNL     1       3.025   6.065  -9.365  1.00  0.00     0.112 A 
ATOM      9  C   UNL     1       3.137   7.112  -8.447  1.00  0.00     0.014 A 
ATOM     10  C   UNL     1       2.839   8.302  -9.204  1.00  0.00     0.008 A 
ATOM     11  N   UNL     1       3.304   6.618 -10.587  1.00  0.00    -0.350 N 
ATOM     12  C   UNL     1       2.974   7.946 -10.550  1.00  0.00     0.050 A 
ATOM     13  C   UNL     1       2.448   9.637  -8.943  1.00  0.00     0.015 A 
ATOM     14  H   UNL     1       3.679   6.141 -11.362  1.00  0.00     0.167 HD
ATOM     15  C   UNL     1       2.767   8.817 -11.619  1.00  0.00     0.073 A 
ATOM     16  C   UNL     1       2.157  10.514 -10.022  1.00  0.00     0.047 A 
ATOM     17  C   UNL     1       2.321  10.107 -11.346  1.00  0.00     0.120 A 
BRANCH   9  18
ATOM     18  C   UNL     1       3.280   6.867  -7.027  1.00  0.00     0.032 C 
ATOM     19  N   UNL     1       4.324   3.881  -5.394  1.00  0.00    -0.261 N 
ATOM     20  C   UNL     1       3.846   5.194  -5.240  1.00  0.00     0.270 C 
ATOM     21  C   UNL     1       5.202   3.672  -6.452  1.00  0.00     0.152 C 
ATOM     22  O   UNL     1       3.191   5.661  -4.317  1.00  0.00    -0.268 OA
ATOM     23  C   UNL     1       4.133   5.955  -6.503  1.00  0.00     0.081 C 
ATOM     24  S   UNL     1       5.443   5.184  -7.316  1.00  0.00    -0.054 SA
ATOM     25  S   UNL     1       6.046   2.297  -6.894  1.00  0.00    -0.051 S 
BRANCH  19  26
ATOM     26  C   UNL     1       3.876   2.821  -4.542  1.00  0.00     0.051 A 
ATOM     27  C   UNL     1       2.946   0.719  -2.894  1.00  0.00     0.119 A 
ATOM     28  C   UNL     1       2.845   0.622  -4.279  1.00  0.00     0.048 A 
ATOM     29  C   UNL     1       3.517   1.860  -2.331  1.00  0.00     0.048 A 
ATOM     30  C   UNL     1       3.314   1.657  -5.097  1.00  0.00     0.030 A 
ATOM     31  C   UNL     1       3.953   2.918  -3.149  1.00  0.00     0.030 A 
BRANCH  27  32
ATOM     32  O   UNL     1       2.477  -0.365  -2.208  1.00  0.00    -0.497 OA
ATOM     33  C   UNL     1       2.103  -0.150  -0.852  1.00  0.00     0.278 C 
ENDBRANCH  27  32
ENDBRANCH  19  26
ENDBRANCH   9  18
BRANCH  17  34
ATOM     34  O   UNL     1       2.068  10.826 -12.481  1.00  0.00    -0.497 OA
ATOM     35  C   UNL     1       1.677  12.181 -12.350  1.00  0.00     0.278 C 
ENDBRANCH  17  34
ENDBRANCH   5   8
ENDBRANCH   3   4
ENDBRANCH   2   3
ENDBRANCH   1   2
BRANCH   1  36
ATOM     36  C   UNL     1       0.506   3.660  -5.061  1.00  0.00     0.002 C 
BRANCH  36  37
ATOM     37  C   UNL     1      -0.361   4.158  -3.918  1.00  0.00     0.021 C 
BRANCH  37  38
ATOM     38  C   UNL     1      -1.306   3.117  -3.336  1.00  0.00     0.116 C 
BRANCH  38  39
ATOM     39  N   UNL     1      -0.729   1.805  -3.049  1.00  0.00    -0.352 N 
ATOM     40  C   UNL     1      -1.265   0.812  -2.258  1.00  0.00     0.251 C 
ATOM     41  H   UNL     1       0.140   1.609  -3.467  1.00  0.00     0.163 HD
ATOM     42  O   UNL     1      -0.736  -0.288  -2.138  1.00  0.00    -0.269 OA
BRANCH  40  43
ATOM     43  C   UNL     1      -2.457   1.138  -1.464  1.00  0.00     0.039 A 
ATOM     44  C   UNL     1      -2.371   1.049  -0.073  1.00  0.00     0.014 A 
ATOM     45  C   UNL     1      -3.567   1.707  -2.087  1.00  0.00     0.014 A 
ATOM     46  C   UNL     1      -3.359   1.644   0.704  1.00  0.00     0.010 A 
ATOM     47  C   UNL     1      -4.478   2.403  -1.315  1.00  0.00     0.010 A 
ATOM     48  C   UNL     1      -4.380   2.379   0.085  1.00  0.00    -0.014 A 
BRANCH  48  49
ATOM     49  C   UNL     1      -5.389   3.115   0.875  1.00  0.00     0.031 A 
ATOM     50  C   UNL     1      -6.832   2.729   0.735  1.00  0.00     0.074 A 
ATOM     51  C   UNL     1      -5.012   4.169   1.624  1.00  0.00     0.049 A 
ATOM     52  N   UNL     1      -7.894   3.314   1.219  1.00  0.00    -0.248 NA
ATOM     53  C   UNL     1      -7.122   1.557  -0.111  1.00  0.00     0.031 C 
ATOM     54  C   UNL     1      -3.640   4.665   1.772  1.00  0.00     0.029 A 
ATOM     55  N   UNL     1      -5.754   5.019   2.400  1.00  0.00    -0.354 N 
ATOM     56  C   UNL     1      -8.973   2.613   0.695  1.00  0.00     0.074 A 
ATOM     57  C   UNL     1      -8.442   1.599  -0.186  1.00  0.00     0.031 C 
ATOM     58  C   UNL     1      -3.636   5.707   2.619  1.00  0.00     0.029 A 
ATOM     59  C   UNL     1      -5.005   5.976   3.042  1.00  0.00     0.049 A 
ATOM     60  H   UNL     1      -6.732   4.952   2.490  1.00  0.00     0.167 HD
ATOM     61  C   UNL     1     -10.290   2.784   0.949  1.00  0.00     0.031 A 
ATOM     62  C   UNL     1      -5.390   6.955   3.881  1.00  0.00     0.031 A 
ATOM     63  C   UNL     1     -10.793   3.761   1.872  1.00  0.00     0.049 A 
ATOM     64  C   UNL     1      -6.853   7.072   4.212  1.00  0.00     0.074 A 
ATOM     65  C   UNL     1     -12.096   3.987   2.270  1.00  0.00     0.029 A 
ATOM     66  N   UNL     1      -9.995   4.666   2.559  1.00  0.00    -0.354 N 
ATOM     67  N   UNL     1      -7.860   6.365   3.756  1.00  0.00    -0.248 NA
ATOM     68  C   UNL     1      -7.231   8.108   5.182  1.00  0.00     0.031 C 
ATOM     69  C   UNL     1     -12.091   5.049   3.181  1.00  0.00     0.029 A 
ATOM     70  C   UNL     1     -10.779   5.456   3.378  1.00  0.00     0.049 A 
ATOM     71  H   UNL     1      -9.017   4.735   2.475  1.00  0.00     0.167 HD
ATOM     72  C   UNL     1      -8.989   6.857   4.395  1.00  0.00     0.074 A 
ATOM     73  C   UNL     1      -8.537   7.905   5.290  1.00  0.00     0.031 C 
ATOM     74  C   UNL     1     -10.285   6.486   4.255  1.00  0.00     0.031 A 
BRANCH  61  75
ATOM     75  C   UNL     1     -11.251   1.894   0.214  1.00  0.00    -0.014 A 
ATOM     76  C   UNL     1     -11.320   0.516   0.480  1.00  0.00     0.009 A 
ATOM     77  C   UNL     1     -12.085   2.434  -0.776  1.00  0.00     0.009 A 
ATOM     78  C   UNL     1     -12.165  -0.309  -0.266  1.00  0.00     0.001 A 
ATOM     79  C   UNL     1     -12.953   1.612  -1.498  1.00  0.00     0.001 A 
ATOM     80  C   UNL     1     -12.982   0.240  -1.253  1.00  0.00     0.000 A 
ENDBRANCH  61  75
BRANCH  62  81
ATOM     81  C   UNL     1      -4.386   7.870   4.488  1.00  0.00    -0.014 A 
ATOM     82  C   UNL     1      -4.076   7.780   5.855  1.00  0.00     0.009 A 
ATOM     83  C   UNL     1      -3.730   8.836   3.710  1.00  0.00     0.009 A 
ATOM     84  C   UNL     1      -3.154   8.656   6.434  1.00  0.00     0.001 A 
ATOM     85  C   UNL     1      -2.789   9.694   4.287  1.00  0.00     0.001 A 
ATOM     86  C   UNL     1      -2.509   9.610   5.649  1.00  0.00     0.000 A 
ENDBRANCH  62  81
BRANCH  74  87
ATOM     87  C   UNL     1     -11.288   7.205   5.107  1.00  0.00    -0.014 A 
ATOM     88  C   UNL     1     -11.674   8.521   4.813  1.00  0.00     0.009 A 
ATOM     89  C   UNL     1     -11.886   6.538   6.187  1.00  0.00     0.009 A 
ATOM     90  C   UNL     1     -12.620   9.168   5.607  1.00  0.00     0.001 A 
ATOM     91  C   UNL     1     -12.851   7.179   6.962  1.00  0.00     0.001 A 
ATOM     92  C   UNL     1     -13.211   8.496   6.677  1.00  0.00     0.000 A 
ENDBRANCH  74  87
ENDBRANCH  48  49
ENDBRANCH  40  43
ENDBRANCH  38  39
ENDBRANCH  37  38
ENDBRANCH  36  37
ENDBRANCH   1  36
TORSDOF 17
