REMARK SMILES C[C@@H](Sc1nc(-c2ccc3c(c2)OCO3)ccc1C#N)C(=O)NCCCCCCNC(=O)c1ccc(-c2c3nc(c(-c4ccccc4)c4ccc([nH]4)c(-c4ccccc4)c4nc(c(-c5ccccc5)c5ccc2[nH]5)C=C4)C=C3)cc1
REMARK SMILES IDX 26 1 25 2 24 3 23 4 21 5 22 6 2 8 1 9 3 10 4 11 5 12 18 13
REMARK SMILES IDX 6 14 17 15 16 16 19 17 20 18 7 19 8 20 12 21 9 22 11 23
REMARK SMILES IDX 10 24 13 25 15 26 14 27 27 28 28 29 29 30 30 31 31 32 32 34
REMARK SMILES IDX 33 35 34 36 80 37 35 38 79 39 36 40 37 41 38 42 73 43 39 44
REMARK SMILES IDX 78 45 72 46 74 47 40 48 77 49 71 50 70 51 41 53 63 54 48 55
REMARK SMILES IDX 62 56 49 57 52 58 61 59 75 60 50 61 51 62 60 64 76 65 53 66
REMARK SMILES IDX 42 67 43 68 47 69 44 70 46 71 45 72 64 73 65 74 69 75 66 76
REMARK SMILES IDX 68 77 67 78 54 79 55 80 59 81 56 82 58 83 57 84
REMARK H PARENT 23 7 30 33 74 52 52 63
REMARK Flexibility Score: inf
ROOT
ATOM      1  C   UNL     1      -3.087   2.676   0.473  1.00  0.00     0.002 C 
ENDROOT
BRANCH   1   2
ATOM      2  C   UNL     1      -1.581   2.415   0.377  1.00  0.00     0.021 C 
BRANCH   2   3
ATOM      3  C   UNL     1      -1.057   1.506   1.482  1.00  0.00     0.116 C 
BRANCH   3   4
ATOM      4  N   UNL     1      -1.526   0.147   1.289  1.00  0.00    -0.355 N 
ATOM      5  C   UNL     1      -0.827  -1.009   1.117  1.00  0.00     0.233 C 
ATOM      6  O   UNL     1      -1.474  -2.041   0.919  1.00  0.00    -0.274 OA
ATOM      7  H   UNL     1      -2.506   0.044   1.281  1.00  0.00     0.163 HD
BRANCH   5   8
ATOM      8  C   UNL     1       0.704  -1.036   1.146  1.00  0.00     0.139 C 
ATOM      9  C   UNL     1       1.310  -0.296  -0.042  1.00  0.00     0.030 C 
BRANCH   8  10
ATOM     10  S   UNL     1       1.253  -0.495   2.823  1.00  0.00    -0.092 SA
BRANCH  10  11
ATOM     11  C   UNL     1       3.019  -0.599   2.689  1.00  0.00     0.115 A 
ATOM     12  N   UNL     1       3.637   0.613   2.661  1.00  0.00    -0.240 NA
ATOM     13  C   UNL     1       3.721  -1.802   2.707  1.00  0.00     0.084 A 
ATOM     14  C   UNL     1       4.991   0.648   2.650  1.00  0.00     0.072 A 
ATOM     15  C   UNL     1       5.115  -1.749   2.705  1.00  0.00     0.024 A 
ATOM     16  C   UNL     1       5.757  -0.514   2.681  1.00  0.00     0.030 A 
BRANCH  13  17
ATOM     17  C   UNL     1       3.073  -3.077   2.735  1.00  0.00     0.102 C 
ATOM     18  N   UNL     1       2.575  -4.123   2.728  1.00  0.00    -0.192 NA
ENDBRANCH  13  17
BRANCH  14  19
ATOM     19  C   UNL     1       5.619   1.976   2.598  1.00  0.00     0.004 A 
ATOM     20  C   UNL     1       6.550   2.285   1.572  1.00  0.00     0.014 A 
ATOM     21  C   UNL     1       5.349   2.949   3.579  1.00  0.00     0.061 A 
ATOM     22  C   UNL     1       7.217   3.513   1.531  1.00  0.00     0.051 A 
ATOM     23  C   UNL     1       6.035   4.148   3.524  1.00  0.00     0.166 A 
ATOM     24  C   UNL     1       6.945   4.419   2.530  1.00  0.00     0.165 A 
ATOM     25  O   UNL     1       5.926   5.172   4.413  1.00  0.00    -0.454 OA
ATOM     26  O   UNL     1       7.521   5.642   2.666  1.00  0.00    -0.454 OA
ATOM     27  C   UNL     1       6.897   6.101   3.883  1.00  0.00     0.468 C 
ENDBRANCH  14  19
ENDBRANCH  10  11
ENDBRANCH   8  10
ENDBRANCH   5   8
ENDBRANCH   3   4
ENDBRANCH   2   3
ENDBRANCH   1   2
BRANCH   1  28
ATOM     28  C   UNL     1      -3.543   3.283   1.805  1.00  0.00     0.002 C 
BRANCH  28  29
ATOM     29  C   UNL     1      -2.802   4.560   2.208  1.00  0.00     0.021 C 
BRANCH  29  30
ATOM     30  C   UNL     1      -2.903   5.681   1.182  1.00  0.00     0.116 C 
BRANCH  30  31
ATOM     31  N   UNL     1      -4.278   6.115   0.994  1.00  0.00    -0.352 N 
ATOM     32  C   UNL     1      -4.817   7.368   1.137  1.00  0.00     0.251 C 
ATOM     33  H   UNL     1      -4.911   5.411   0.726  1.00  0.00     0.163 HD
ATOM     34  O   UNL     1      -6.034   7.521   1.169  1.00  0.00    -0.269 OA
BRANCH  32  35
ATOM     35  C   UNL     1      -3.920   8.533   1.269  1.00  0.00     0.039 A 
ATOM     36  C   UNL     1      -4.208   9.502   2.231  1.00  0.00     0.014 A 
ATOM     37  C   UNL     1      -2.796   8.664   0.448  1.00  0.00     0.014 A 
ATOM     38  C   UNL     1      -3.336  10.577   2.406  1.00  0.00     0.010 A 
ATOM     39  C   UNL     1      -1.884   9.687   0.683  1.00  0.00     0.010 A 
ATOM     40  C   UNL     1      -2.148  10.659   1.659  1.00  0.00    -0.014 A 
BRANCH  40  41
ATOM     41  C   UNL     1      -1.175  11.758   1.884  1.00  0.00     0.031 A 
ATOM     42  C   UNL     1      -0.859  12.726   0.777  1.00  0.00     0.074 A 
ATOM     43  C   UNL     1      -0.544  11.857   3.071  1.00  0.00     0.049 A 
ATOM     44  N   UNL     1      -0.005  13.719   0.769  1.00  0.00    -0.248 NA
ATOM     45  C   UNL     1      -1.580  12.547  -0.495  1.00  0.00     0.031 C 
ATOM     46  C   UNL     1      -0.739  10.962   4.214  1.00  0.00     0.029 A 
ATOM     47  N   UNL     1       0.392  12.758   3.513  1.00  0.00    -0.354 N 
ATOM     48  C   UNL     1      -0.084  14.275  -0.501  1.00  0.00     0.074 A 
ATOM     49  C   UNL     1      -1.021  13.475  -1.258  1.00  0.00     0.031 C 
ATOM     50  C   UNL     1       0.028  11.379   5.235  1.00  0.00     0.029 A 
ATOM     51  C   UNL     1       0.808  12.533   4.804  1.00  0.00     0.049 A 
ATOM     52  H   UNL     1       0.734  13.496   2.958  1.00  0.00     0.167 HD
ATOM     53  C   UNL     1       0.546  15.370  -0.988  1.00  0.00     0.031 A 
ATOM     54  C   UNL     1       1.726  13.175   5.551  1.00  0.00     0.031 A 
ATOM     55  C   UNL     1       1.480  16.165  -0.237  1.00  0.00     0.049 A 
ATOM     56  C   UNL     1       2.452  14.355   4.963  1.00  0.00     0.074 A 
ATOM     57  C   UNL     1       2.146  17.312  -0.633  1.00  0.00     0.029 A 
ATOM     58  N   UNL     1       1.883  15.895   1.061  1.00  0.00    -0.354 N 
ATOM     59  N   UNL     1       2.318  14.905   3.780  1.00  0.00    -0.248 NA
ATOM     60  C   UNL     1       3.451  15.010   5.820  1.00  0.00     0.031 C 
ATOM     61  C   UNL     1       3.003  17.697   0.401  1.00  0.00     0.029 A 
ATOM     62  C   UNL     1       2.811  16.838   1.470  1.00  0.00     0.049 A 
ATOM     63  H   UNL     1       1.559  15.145   1.610  1.00  0.00     0.167 HD
ATOM     64  C   UNL     1       3.184  15.991   3.767  1.00  0.00     0.074 A 
ATOM     65  C   UNL     1       3.822  16.034   5.066  1.00  0.00     0.031 C 
ATOM     66  C   UNL     1       3.432  16.874   2.769  1.00  0.00     0.031 A 
BRANCH  53  67
ATOM     67  C   UNL     1       0.248  15.777  -2.406  1.00  0.00    -0.014 A 
ATOM     68  C   UNL     1      -1.008  16.291  -2.765  1.00  0.00     0.009 A 
ATOM     69  C   UNL     1       1.256  15.707  -3.380  1.00  0.00     0.009 A 
ATOM     70  C   UNL     1      -1.256  16.702  -4.076  1.00  0.00     0.001 A 
ATOM     71  C   UNL     1       1.016  16.150  -4.682  1.00  0.00     0.001 A 
ATOM     72  C   UNL     1      -0.242  16.640  -5.031  1.00  0.00     0.000 A 
ENDBRANCH  53  67
BRANCH  54  73
ATOM     73  C   UNL     1       2.033  12.714   6.934  1.00  0.00    -0.014 A 
ATOM     74  C   UNL     1       1.762  13.533   8.042  1.00  0.00     0.009 A 
ATOM     75  C   UNL     1       2.647  11.471   7.149  1.00  0.00     0.009 A 
ATOM     76  C   UNL     1       2.147  13.140   9.326  1.00  0.00     0.001 A 
ATOM     77  C   UNL     1       2.994  11.062   8.439  1.00  0.00     0.001 A 
ATOM     78  C   UNL     1       2.760  11.904   9.524  1.00  0.00     0.000 A 
ENDBRANCH  54  73
BRANCH  66  79
ATOM     79  C   UNL     1       4.392  17.996   3.059  1.00  0.00    -0.014 A 
ATOM     80  C   UNL     1       5.764  17.764   3.239  1.00  0.00     0.009 A 
ATOM     81  C   UNL     1       3.914  19.316   3.113  1.00  0.00     0.009 A 
ATOM     82  C   UNL     1       6.630  18.826   3.508  1.00  0.00     0.001 A 
ATOM     83  C   UNL     1       4.788  20.378   3.343  1.00  0.00     0.001 A 
ATOM     84  C   UNL     1       6.143  20.132   3.553  1.00  0.00     0.000 A 
ENDBRANCH  66  79
ENDBRANCH  40  41
ENDBRANCH  32  35
ENDBRANCH  30  31
ENDBRANCH  29  30
ENDBRANCH  28  29
ENDBRANCH   1  28
TORSDOF 17
