REMARK SMILES Cc1ccc([C@H]2CC(c3cccs3)=NN2C(=O)CCC(=O)NCCCCCCNC(=O)c2ccc(-c3c4nc(c(-c5ccccc5)c5ccc([nH]5)c(-c5ccccc5)c5nc(c(-c6ccccc6)c6ccc3[nH]6)C=C5)C=C4)cc2)o1
REMARK SMILES IDX 24 1 23 2 22 3 20 4 21 5 19 7 18 8 16 9 17 10 15 11 6 12
REMARK SMILES IDX 7 13 8 14 14 15 5 16 1 17 2 18 3 19 80 20 4 21 9 22 10 23
REMARK SMILES IDX 13 24 11 25 12 26 25 27 26 28 27 29 28 30 29 31 30 32 31 34
REMARK SMILES IDX 32 35 33 36 79 37 34 38 78 39 35 40 36 41 37 42 72 43 38 44
REMARK SMILES IDX 77 45 71 46 73 47 39 48 76 49 70 50 69 51 40 53 62 54 47 55
REMARK SMILES IDX 61 56 48 57 51 58 60 59 74 60 49 61 50 62 59 64 75 65 52 66
REMARK SMILES IDX 41 67 42 68 46 69 43 70 45 71 44 72 63 73 64 74 68 75 65 76
REMARK SMILES IDX 67 77 66 78 53 79 54 80 58 81 55 82 57 83 56 84
REMARK H PARENT 22 6 29 33 73 52 51 63
REMARK Flexibility Score: inf
ROOT
ATOM      1  C   UNL     1      -5.492   1.589   2.365  1.00  0.00     0.021 C 
ENDROOT
BRANCH   1   2
ATOM      2  C   UNL     1      -4.778   0.324   2.839  1.00  0.00     0.116 C 
BRANCH   2   3
ATOM      3  N   UNL     1      -3.663  -0.166   2.053  1.00  0.00    -0.356 N 
ATOM      4  C   UNL     1      -2.326   0.005   2.226  1.00  0.00     0.220 C 
ATOM      5  O   UNL     1      -1.562  -0.823   1.729  1.00  0.00    -0.275 OA
ATOM      6  H   UNL     1      -3.913  -0.709   1.271  1.00  0.00     0.163 HD
BRANCH   4   7
ATOM      7  C   UNL     1      -1.794   1.216   2.954  1.00  0.00     0.110 C 
BRANCH   7   8
ATOM      8  C   UNL     1      -1.106   2.165   1.967  1.00  0.00     0.112 C 
BRANCH   8   9
ATOM      9  C   UNL     1      -2.124   2.644   0.958  1.00  0.00     0.243 C 
ATOM     10  O   UNL     1      -2.981   3.461   1.303  1.00  0.00    -0.273 OA
BRANCH   9  11
ATOM     11  N   UNL     1      -2.115   2.019  -0.278  1.00  0.00    -0.222 N 
ATOM     12  C   UNL     1      -0.995   1.988  -1.219  1.00  0.00     0.183 C 
ATOM     13  C   UNL     1      -1.678   2.065  -2.585  1.00  0.00     0.095 C 
ATOM     14  C   UNL     1      -3.087   1.771  -2.179  1.00  0.00     0.081 C 
ATOM     15  N   UNL     1      -3.312   1.802  -0.906  1.00  0.00    -0.173 NA
BRANCH  12  16
ATOM     16  C   UNL     1      -0.203   0.739  -1.052  1.00  0.00     0.129 A 
ATOM     17  C   UNL     1       3.058  -0.373  -0.121  1.00  0.00     0.087 C 
ATOM     18  C   UNL     1       1.648  -0.329  -0.551  1.00  0.00     0.101 A 
ATOM     19  C   UNL     1       0.699  -1.296  -0.797  1.00  0.00     0.045 A 
ATOM     20  O   UNL     1       1.113   0.910  -0.729  1.00  0.00    -0.464 OA
ATOM     21  C   UNL     1      -0.494  -0.608  -1.127  1.00  0.00     0.048 A 
ENDBRANCH  12  16
BRANCH  14  22
ATOM     22  C   UNL     1      -4.162   1.565  -3.102  1.00  0.00     0.050 A 
ATOM     23  C   UNL     1      -4.790   0.386  -3.450  1.00  0.00     0.022 A 
ATOM     24  S   UNL     1      -4.931   2.928  -3.787  1.00  0.00    -0.142 S 
ATOM     25  C   UNL     1      -5.937   0.615  -4.266  1.00  0.00     0.012 A 
ATOM     26  C   UNL     1      -6.144   1.956  -4.502  1.00  0.00     0.065 A 
ENDBRANCH  14  22
ENDBRANCH   9  11
ENDBRANCH   8   9
ENDBRANCH   7   8
ENDBRANCH   4   7
ENDBRANCH   2   3
ENDBRANCH   1   2
BRANCH   1  27
ATOM     27  C   UNL     1      -5.958   1.707   0.910  1.00  0.00     0.002 C 
BRANCH  27  28
ATOM     28  C   UNL     1      -6.270   0.426   0.133  1.00  0.00     0.002 C 
BRANCH  28  29
ATOM     29  C   UNL     1      -7.681  -0.118   0.325  1.00  0.00     0.021 C 
BRANCH  29  30
ATOM     30  C   UNL     1      -8.761   0.763  -0.289  1.00  0.00     0.116 C 
BRANCH  30  31
ATOM     31  N   UNL     1      -8.653   0.929  -1.737  1.00  0.00    -0.352 N 
ATOM     32  C   UNL     1      -9.618   1.443  -2.576  1.00  0.00     0.251 C 
ATOM     33  H   UNL     1      -7.808   0.645  -2.154  1.00  0.00     0.163 HD
ATOM     34  O   UNL     1      -9.483   1.484  -3.792  1.00  0.00    -0.269 OA
BRANCH  32  35
ATOM     35  C   UNL     1     -10.866   1.898  -1.938  1.00  0.00     0.039 A 
ATOM     36  C   UNL     1     -12.035   1.167  -2.148  1.00  0.00     0.014 A 
ATOM     37  C   UNL     1     -10.795   2.894  -0.961  1.00  0.00     0.014 A 
ATOM     38  C   UNL     1     -13.116   1.365  -1.292  1.00  0.00     0.010 A 
ATOM     39  C   UNL     1     -11.839   3.024  -0.058  1.00  0.00     0.010 A 
ATOM     40  C   UNL     1     -13.000   2.248  -0.205  1.00  0.00    -0.014 A 
BRANCH  40  41
ATOM     41  C   UNL     1     -14.071   2.355   0.811  1.00  0.00     0.031 A 
ATOM     42  C   UNL     1     -14.799   3.655   0.988  1.00  0.00     0.074 A 
ATOM     43  C   UNL     1     -14.327   1.307   1.620  1.00  0.00     0.049 A 
ATOM     44  N   UNL     1     -15.728   3.969   1.853  1.00  0.00    -0.248 NA
ATOM     45  C   UNL     1     -14.405   4.759   0.097  1.00  0.00     0.031 C 
ATOM     46  C   UNL     1     -13.633   0.016   1.588  1.00  0.00     0.029 A 
ATOM     47  N   UNL     1     -15.240   1.164   2.634  1.00  0.00    -0.354 N 
ATOM     48  C   UNL     1     -16.017   5.307   1.619  1.00  0.00     0.074 A 
ATOM     49  C   UNL     1     -15.123   5.761   0.577  1.00  0.00     0.031 C 
ATOM     50  C   UNL     1     -14.170  -0.796   2.513  1.00  0.00     0.029 A 
ATOM     51  C   UNL     1     -15.221  -0.077   3.223  1.00  0.00     0.049 A 
ATOM     52  H   UNL     1     -15.852   1.883   2.913  1.00  0.00     0.167 HD
ATOM     53  C   UNL     1     -16.963   6.081   2.199  1.00  0.00     0.031 A 
ATOM     54  C   UNL     1     -15.974  -0.578   4.221  1.00  0.00     0.031 A 
ATOM     55  C   UNL     1     -17.855   5.620   3.226  1.00  0.00     0.049 A 
ATOM     56  C   UNL     1     -17.038   0.293   4.830  1.00  0.00     0.074 A 
ATOM     57  C   UNL     1     -18.875   6.307   3.858  1.00  0.00     0.029 A 
ATOM     58  N   UNL     1     -17.832   4.343   3.766  1.00  0.00    -0.354 N 
ATOM     59  N   UNL     1     -17.346   1.537   4.550  1.00  0.00    -0.248 NA
ATOM     60  C   UNL     1     -17.867  -0.312   5.881  1.00  0.00     0.031 C 
ATOM     61  C   UNL     1     -19.453   5.451   4.803  1.00  0.00     0.029 A 
ATOM     62  C   UNL     1     -18.819   4.221   4.727  1.00  0.00     0.049 A 
ATOM     63  H   UNL     1     -17.206   3.629   3.503  1.00  0.00     0.167 HD
ATOM     64  C   UNL     1     -18.420   1.855   5.370  1.00  0.00     0.074 A 
ATOM     65  C   UNL     1     -18.721   0.667   6.144  1.00  0.00     0.031 C 
ATOM     66  C   UNL     1     -19.097   3.024   5.477  1.00  0.00     0.031 A 
BRANCH  53  67
ATOM     67  C   UNL     1     -17.072   7.500   1.716  1.00  0.00    -0.014 A 
ATOM     68  C   UNL     1     -17.555   7.787   0.428  1.00  0.00     0.009 A 
ATOM     69  C   UNL     1     -16.683   8.559   2.547  1.00  0.00     0.009 A 
ATOM     70  C   UNL     1     -17.602   9.104  -0.034  1.00  0.00     0.001 A 
ATOM     71  C   UNL     1     -16.759   9.878   2.094  1.00  0.00     0.001 A 
ATOM     72  C   UNL     1     -17.206  10.148   0.800  1.00  0.00     0.000 A 
ENDBRANCH  53  67
BRANCH  54  73
ATOM     73  C   UNL     1     -15.779  -1.978   4.681  1.00  0.00    -0.014 A 
ATOM     74  C   UNL     1     -16.737  -2.962   4.393  1.00  0.00     0.009 A 
ATOM     75  C   UNL     1     -14.639  -2.338   5.417  1.00  0.00     0.009 A 
ATOM     76  C   UNL     1     -16.574  -4.270   4.858  1.00  0.00     0.001 A 
ATOM     77  C   UNL     1     -14.465  -3.653   5.857  1.00  0.00     0.001 A 
ATOM     78  C   UNL     1     -15.437  -4.615   5.586  1.00  0.00     0.000 A 
ENDBRANCH  54  73
BRANCH  66  79
ATOM     79  C   UNL     1     -20.245   3.059   6.442  1.00  0.00    -0.014 A 
ATOM     80  C   UNL     1     -20.027   3.111   7.827  1.00  0.00     0.009 A 
ATOM     81  C   UNL     1     -21.560   3.088   5.953  1.00  0.00     0.009 A 
ATOM     82  C   UNL     1     -21.109   3.160   8.707  1.00  0.00     0.001 A 
ATOM     83  C   UNL     1     -22.638   3.162   6.835  1.00  0.00     0.001 A 
ATOM     84  C   UNL     1     -22.412   3.190   8.210  1.00  0.00     0.000 A 
ENDBRANCH  66  79
ENDBRANCH  40  41
ENDBRANCH  32  35
ENDBRANCH  30  31
ENDBRANCH  29  30
ENDBRANCH  28  29
ENDBRANCH  27  28
ENDBRANCH   1  27
TORSDOF 18
