REMARK SMILES O=C(NCCCCCCNC(=O)c1ccc(-c2c3nc(c(-c4ccccc4)c4ccc([nH]4)c(-c4ccccc4)c4nc(c(-c5ccccc5)c5ccc2[nH]5)C=C4)C=C3)cc1)C1=Cc2cc(Cl)cc(C#Cc3ccccc3)c2O[C@@H]1C(F)(F)F
REMARK SMILES IDX 6 1 5 2 4 3 3 4 1 5 2 6 61 8 62 9 79 10 63 11 78 12 64 13
REMARK SMILES IDX 77 14 65 15 68 16 66 17 67 18 80 19 81 20 82 21 83 22 69 23
REMARK SMILES IDX 70 24 71 25 72 26 76 27 73 28 75 29 74 30 7 31 8 32 9 33
REMARK SMILES IDX 10 34 11 35 12 37 13 38 14 39 60 40 15 41 59 42 16 43 17 44
REMARK SMILES IDX 18 45 53 46 19 47 58 48 52 49 54 50 20 51 57 52 51 53 50 54
REMARK SMILES IDX 21 56 43 57 28 58 42 59 29 60 32 61 41 62 55 63 30 64 31 65
REMARK SMILES IDX 40 67 56 68 33 69 22 70 23 71 27 72 24 73 26 74 25 75 44 76
REMARK SMILES IDX 45 77 49 78 46 79 48 80 47 81 34 82 35 83 39 84 36 85 38 86
REMARK SMILES IDX 37 87
REMARK H PARENT 3 7 10 36 54 55 32 66
REMARK Flexibility Score: inf
ROOT
ATOM      1  C   UNL     1       3.799  -2.698   3.707  1.00  0.00     0.002 C 
ENDROOT
BRANCH   1   2
ATOM      2  C   UNL     1       4.166  -1.270   3.304  1.00  0.00     0.021 C 
BRANCH   2   3
ATOM      3  C   UNL     1       3.898  -0.891   1.852  1.00  0.00     0.116 C 
BRANCH   3   4
ATOM      4  N   UNL     1       2.608  -0.283   1.585  1.00  0.00    -0.352 N 
ATOM      5  O   UNL     1       1.017   0.764   0.394  1.00  0.00    -0.270 OA
ATOM      6  C   UNL     1       2.205   0.469   0.513  1.00  0.00     0.251 C 
ATOM      7  H   UNL     1       1.922  -0.433   2.275  1.00  0.00     0.163 HD
BRANCH   6   8
ATOM      8  C   UNL     1       3.142   0.860  -0.587  1.00  0.00     0.067 C 
ATOM      9  C   UNL     1       4.391   1.290  -0.336  1.00  0.00     0.025 C 
ATOM     10  C   UNL     1       2.911   0.044  -1.837  1.00  0.00     0.314 C 
ATOM     11  C   UNL     1       5.434   0.306  -0.717  1.00  0.00     0.020 A 
ATOM     12  O   UNL     1       3.807  -1.099  -1.872  1.00  0.00    -0.474 OA
ATOM     13  C   UNL     1       6.704   0.454  -0.146  1.00  0.00     0.032 A 
ATOM     14  C   UNL     1       5.049  -0.918  -1.304  1.00  0.00     0.143 A 
ATOM     15  C   UNL     1       7.553  -0.646  -0.077  1.00  0.00     0.043 A 
ATOM     16  C   UNL     1       5.882  -2.034  -1.155  1.00  0.00     0.069 A 
ATOM     17  Cl  UNL     1       9.039  -0.522   0.783  1.00  0.00    -0.084 Cl
ATOM     18  C   UNL     1       7.144  -1.887  -0.561  1.00  0.00     0.041 A 
BRANCH  10  19
ATOM     19  C   UNL     1       2.994   0.924  -3.100  1.00  0.00     0.429 C 
ATOM     20  F   UNL     1       2.638   0.238  -4.211  1.00  0.00    -0.167 F 
ATOM     21  F   UNL     1       2.162   1.991  -3.014  1.00  0.00    -0.167 F 
ATOM     22  F   UNL     1       4.239   1.416  -3.314  1.00  0.00    -0.167 F 
ENDBRANCH  10  19
BRANCH  16  23
ATOM     23  C   UNL     1       5.391  -3.375  -1.316  1.00  0.00    -0.058 C 
ATOM     24  C   UNL     1       5.033  -4.518  -1.220  1.00  0.00    -0.062 C 
BRANCH  24  25
ATOM     25  C   UNL     1       4.694  -5.886  -0.957  1.00  0.00     0.025 A 
ATOM     26  C   UNL     1       3.366  -6.316  -0.993  1.00  0.00     0.017 A 
ATOM     27  C   UNL     1       5.705  -6.792  -0.625  1.00  0.00     0.017 A 
ATOM     28  C   UNL     1       3.057  -7.654  -0.725  1.00  0.00     0.001 A 
ATOM     29  C   UNL     1       5.395  -8.127  -0.357  1.00  0.00     0.001 A 
ATOM     30  C   UNL     1       4.072  -8.559  -0.413  1.00  0.00     0.000 A 
ENDBRANCH  24  25
ENDBRANCH  16  23
ENDBRANCH   6   8
ENDBRANCH   3   4
ENDBRANCH   2   3
ENDBRANCH   1   2
BRANCH   1  31
ATOM     31  C   UNL     1       4.414  -3.833   2.877  1.00  0.00     0.002 C 
BRANCH  31  32
ATOM     32  C   UNL     1       5.925  -3.777   2.639  1.00  0.00     0.021 C 
BRANCH  32  33
ATOM     33  C   UNL     1       6.803  -3.686   3.883  1.00  0.00     0.116 C 
BRANCH  33  34
ATOM     34  N   UNL     1       6.599  -4.792   4.801  1.00  0.00    -0.352 N 
ATOM     35  C   UNL     1       7.509  -5.627   5.399  1.00  0.00     0.251 C 
ATOM     36  H   UNL     1       5.659  -4.972   5.031  1.00  0.00     0.163 HD
ATOM     37  O   UNL     1       7.115  -6.598   6.039  1.00  0.00    -0.269 OA
BRANCH  35  38
ATOM     38  C   UNL     1       8.964  -5.385   5.266  1.00  0.00     0.039 A 
ATOM     39  C   UNL     1       9.807  -6.485   5.075  1.00  0.00     0.014 A 
ATOM     40  C   UNL     1       9.509  -4.102   5.368  1.00  0.00     0.014 A 
ATOM     41  C   UNL     1      11.184  -6.295   4.939  1.00  0.00     0.010 A 
ATOM     42  C   UNL     1      10.873  -3.905   5.158  1.00  0.00     0.010 A 
ATOM     43  C   UNL     1      11.726  -5.000   4.952  1.00  0.00    -0.014 A 
BRANCH  43  44
ATOM     44  C   UNL     1      13.182  -4.779   4.760  1.00  0.00     0.031 A 
ATOM     45  C   UNL     1      14.014  -4.188   5.865  1.00  0.00     0.074 A 
ATOM     46  C   UNL     1      13.750  -5.068   3.574  1.00  0.00     0.049 A 
ATOM     47  N   UNL     1      15.290  -3.891   5.871  1.00  0.00    -0.248 NA
ATOM     48  C   UNL     1      13.318  -3.868   7.121  1.00  0.00     0.031 C 
ATOM     49  C   UNL     1      13.047  -5.612   2.409  1.00  0.00     0.029 A 
ATOM     50  N   UNL     1      15.049  -4.941   3.149  1.00  0.00    -0.354 N 
ATOM     51  C   UNL     1      15.544  -3.341   7.121  1.00  0.00     0.074 A 
ATOM     52  C   UNL     1      14.281  -3.292   7.825  1.00  0.00     0.031 C 
ATOM     53  C   UNL     1      13.928  -5.795   1.413  1.00  0.00     0.029 A 
ATOM     54  C   UNL     1      15.245  -5.344   1.850  1.00  0.00     0.049 A 
ATOM     55  H   UNL     1      15.771  -4.593   3.720  1.00  0.00     0.167 HD
ATOM     56  C   UNL     1      16.724  -2.931   7.646  1.00  0.00     0.031 A 
ATOM     57  C   UNL     1      16.357  -5.343   1.092  1.00  0.00     0.031 A 
ATOM     58  C   UNL     1      17.980  -2.974   6.944  1.00  0.00     0.049 A 
ATOM     59  C   UNL     1      17.650  -4.859   1.685  1.00  0.00     0.074 A 
ATOM     60  C   UNL     1      19.238  -2.624   7.403  1.00  0.00     0.029 A 
ATOM     61  N   UNL     1      18.134  -3.388   5.629  1.00  0.00    -0.354 N 
ATOM     62  N   UNL     1      17.886  -4.403   2.892  1.00  0.00    -0.248 NA
ATOM     63  C   UNL     1      18.833  -4.902   0.815  1.00  0.00     0.031 C 
ATOM     64  C   UNL     1      20.144  -2.770   6.348  1.00  0.00     0.029 A 
ATOM     65  C   UNL     1      19.462  -3.275   5.252  1.00  0.00     0.049 A 
ATOM     66  H   UNL     1      17.408  -3.713   5.050  1.00  0.00     0.167 HD
ATOM     67  C   UNL     1      19.247  -4.129   2.934  1.00  0.00     0.074 A 
ATOM     68  C   UNL     1      19.786  -4.487   1.638  1.00  0.00     0.031 C 
ATOM     69  C   UNL     1      19.984  -3.627   3.955  1.00  0.00     0.031 A 
BRANCH  56  70
ATOM     70  C   UNL     1      16.702  -2.384   9.048  1.00  0.00    -0.014 A 
ATOM     71  C   UNL     1      16.428  -3.212  10.150  1.00  0.00     0.009 A 
ATOM     72  C   UNL     1      16.975  -1.026   9.275  1.00  0.00     0.009 A 
ATOM     73  C   UNL     1      16.381  -2.682  11.441  1.00  0.00     0.001 A 
ATOM     74  C   UNL     1      16.961  -0.506  10.571  1.00  0.00     0.001 A 
ATOM     75  C   UNL     1      16.651  -1.331  11.651  1.00  0.00     0.000 A 
ENDBRANCH  56  70
BRANCH  57  76
ATOM     76  C   UNL     1      16.295  -5.829  -0.312  1.00  0.00    -0.014 A 
ATOM     77  C   UNL     1      16.904  -7.039  -0.677  1.00  0.00     0.009 A 
ATOM     78  C   UNL     1      15.615  -5.089  -1.292  1.00  0.00     0.009 A 
ATOM     79  C   UNL     1      16.853  -7.486  -2.000  1.00  0.00     0.001 A 
ATOM     80  C   UNL     1      15.539  -5.554  -2.607  1.00  0.00     0.001 A 
ATOM     81  C   UNL     1      16.166  -6.747  -2.962  1.00  0.00     0.000 A 
ENDBRANCH  57  76
BRANCH  69  82
ATOM     82  C   UNL     1      21.461  -3.464   3.723  1.00  0.00    -0.014 A 
ATOM     83  C   UNL     1      21.962  -2.471   2.867  1.00  0.00     0.009 A 
ATOM     84  C   UNL     1      22.366  -4.294   4.404  1.00  0.00     0.009 A 
ATOM     85  C   UNL     1      23.339  -2.337   2.672  1.00  0.00     0.001 A 
ATOM     86  C   UNL     1      23.741  -4.136   4.232  1.00  0.00     0.001 A 
ATOM     87  C   UNL     1      24.226  -3.165   3.358  1.00  0.00     0.000 A 
ENDBRANCH  69  82
ENDBRANCH  43  44
ENDBRANCH  35  38
ENDBRANCH  33  34
ENDBRANCH  32  33
ENDBRANCH  31  32
ENDBRANCH   1  31
TORSDOF 16
