REMARK SMILES C[C@H](NC(=O)[C@@H](C)Oc1ccc(Cl)cc1Br)C(=O)NCCCCCCNC(=O)c1ccc(-c2c3nc(c(-c4ccccc4)c4ccc([nH]4)c(-c4ccccc4)c4nc(c(-c5ccccc5)c5ccc2[nH]5)C=C4)C=C3)cc1
REMARK SMILES IDX 21 1 20 2 19 3 17 4 18 5 2 7 1 8 3 9 4 10 5 12 6 13 7 14
REMARK SMILES IDX 8 15 9 16 10 17 15 18 11 19 14 20 16 21 12 22 13 23 22 24
REMARK SMILES IDX 23 25 24 26 25 27 26 28 27 29 28 31 29 32 30 33 76 34 31 35
REMARK SMILES IDX 75 36 32 37 33 38 34 39 69 40 35 41 74 42 68 43 70 44 36 45
REMARK SMILES IDX 73 46 67 47 66 48 37 50 59 51 44 52 58 53 45 54 48 55 57 56
REMARK SMILES IDX 71 57 46 58 47 59 56 61 72 62 49 63 38 64 39 65 43 66 40 67
REMARK SMILES IDX 42 68 41 69 60 70 61 71 65 72 62 73 64 74 63 75 50 76 51 77
REMARK SMILES IDX 55 78 52 79 54 80 53 81
REMARK H PARENT 19 6 3 11 26 30 70 49 48 60
REMARK Flexibility Score: inf
ROOT
ATOM      1  C   UNL     1      -2.215   2.250  -1.480  1.00  0.00     0.021 C 
ENDROOT
BRANCH   1   2
ATOM      2  C   UNL     1      -1.774   1.905  -0.070  1.00  0.00     0.116 C 
BRANCH   2   3
ATOM      3  N   UNL     1      -2.207   0.574   0.302  1.00  0.00    -0.354 N 
ATOM      4  C   UNL     1      -1.500  -0.402   0.950  1.00  0.00     0.242 C 
ATOM      5  O   UNL     1      -2.080  -1.443   1.260  1.00  0.00    -0.273 OA
ATOM      6  H   UNL     1      -3.131   0.341   0.057  1.00  0.00     0.163 HD
BRANCH   4   7
ATOM      7  C   UNL     1      -0.057  -0.107   1.414  1.00  0.00     0.168 C 
ATOM      8  C   UNL     1      -0.186   0.802   2.622  1.00  0.00     0.041 C 
BRANCH   7   9
ATOM      9  N   UNL     1       0.741   0.301   0.240  1.00  0.00    -0.341 N 
ATOM     10  C   UNL     1       1.776   1.100  -0.099  1.00  0.00     0.261 C 
ATOM     11  H   UNL     1       0.407  -0.163  -0.561  1.00  0.00     0.164 HD
ATOM     12  O   UNL     1       2.165   0.947  -1.269  1.00  0.00    -0.271 OA
BRANCH  10  13
ATOM     13  C   UNL     1       2.457   2.202   0.768  1.00  0.00     0.258 C 
ATOM     14  C   UNL     1       1.507   3.365   1.082  1.00  0.00     0.064 C 
BRANCH  13  15
ATOM     15  O   UNL     1       3.389   2.005   1.826  1.00  0.00    -0.480 OA
BRANCH  15  16
ATOM     16  C   UNL     1       3.196   0.939   2.647  1.00  0.00     0.134 A 
ATOM     17  C   UNL     1       3.252  -0.365   2.157  1.00  0.00     0.049 A 
ATOM     18  C   UNL     1       2.964   1.160   4.013  1.00  0.00     0.061 A 
ATOM     19  C   UNL     1       2.909  -1.432   2.989  1.00  0.00     0.024 A 
ATOM     20  C   UNL     1       2.624   0.095   4.846  1.00  0.00     0.040 A 
ATOM     21  Br  UNL     1       2.978   2.910   4.749  1.00  0.00    -0.047 Br
ATOM     22  C   UNL     1       2.566  -1.193   4.319  1.00  0.00     0.042 A 
ATOM     23  Cl  UNL     1       2.030  -2.495   5.305  1.00  0.00    -0.084 Cl
ENDBRANCH  15  16
ENDBRANCH  13  15
ENDBRANCH  10  13
ENDBRANCH   7   9
ENDBRANCH   4   7
ENDBRANCH   2   3
ENDBRANCH   1   2
BRANCH   1  24
ATOM     24  C   UNL     1      -3.666   2.722  -1.524  1.00  0.00     0.002 C 
BRANCH  24  25
ATOM     25  C   UNL     1      -3.941   3.973  -0.679  1.00  0.00     0.002 C 
BRANCH  25  26
ATOM     26  C   UNL     1      -3.029   5.163  -0.990  1.00  0.00     0.021 C 
BRANCH  26  27
ATOM     27  C   UNL     1      -3.016   5.559  -2.461  1.00  0.00     0.116 C 
BRANCH  27  28
ATOM     28  N   UNL     1      -4.362   5.805  -2.958  1.00  0.00    -0.352 N 
ATOM     29  C   UNL     1      -4.846   6.898  -3.620  1.00  0.00     0.251 C 
ATOM     30  H   UNL     1      -5.013   5.085  -2.795  1.00  0.00     0.163 HD
ATOM     31  O   UNL     1      -6.056   7.058  -3.768  1.00  0.00    -0.269 OA
BRANCH  29  32
ATOM     32  C   UNL     1      -3.894   7.887  -4.149  1.00  0.00     0.039 A 
ATOM     33  C   UNL     1      -4.131   9.245  -3.930  1.00  0.00     0.014 A 
ATOM     34  C   UNL     1      -2.763   7.461  -4.851  1.00  0.00     0.014 A 
ATOM     35  C   UNL     1      -3.204  10.181  -4.385  1.00  0.00     0.010 A 
ATOM     36  C   UNL     1      -1.804   8.388  -5.232  1.00  0.00     0.010 A 
ATOM     37  C   UNL     1      -2.024   9.757  -5.017  1.00  0.00    -0.014 A 
BRANCH  37  38
ATOM     38  C   UNL     1      -1.014  10.729  -5.495  1.00  0.00     0.031 A 
ATOM     39  C   UNL     1      -0.720  10.831  -6.966  1.00  0.00     0.074 A 
ATOM     40  C   UNL     1      -0.320  11.463  -4.604  1.00  0.00     0.049 A 
ATOM     41  N   UNL     1       0.187  11.548  -7.577  1.00  0.00    -0.248 NA
ATOM     42  C   UNL     1      -1.534   9.996  -7.867  1.00  0.00     0.031 C 
ATOM     43  C   UNL     1      -0.495  11.427  -3.150  1.00  0.00     0.029 A 
ATOM     44  N   UNL     1       0.684  12.378  -4.795  1.00  0.00    -0.354 N 
ATOM     45  C   UNL     1       0.068  11.233  -8.925  1.00  0.00     0.074 A 
ATOM     46  C   UNL     1      -0.964  10.227  -9.040  1.00  0.00     0.031 C 
ATOM     47  C   UNL     1       0.356  12.298  -2.583  1.00  0.00     0.029 A 
ATOM     48  C   UNL     1       1.167  12.916  -3.626  1.00  0.00     0.049 A 
ATOM     49  H   UNL     1       1.026  12.626  -5.684  1.00  0.00     0.167 HD
ATOM     50  C   UNL     1       0.745  11.751  -9.976  1.00  0.00     0.031 A 
ATOM     51  C   UNL     1       2.162  13.799  -3.421  1.00  0.00     0.031 A 
ATOM     52  C   UNL     1       1.755  12.767  -9.858  1.00  0.00     0.049 A 
ATOM     53  C   UNL     1       2.910  14.343  -4.608  1.00  0.00     0.074 A 
ATOM     54  C   UNL     1       2.458  13.400 -10.867  1.00  0.00     0.029 A 
ATOM     55  N   UNL     1       2.204  13.296  -8.659  1.00  0.00    -0.354 N 
ATOM     56  N   UNL     1       2.739  14.088  -5.883  1.00  0.00    -0.248 NA
ATOM     57  C   UNL     1       3.983  15.308  -4.328  1.00  0.00     0.031 C 
ATOM     58  C   UNL     1       3.374  14.274 -10.275  1.00  0.00     0.029 A 
ATOM     59  C   UNL     1       3.193  14.233  -8.902  1.00  0.00     0.049 A 
ATOM     60  H   UNL     1       1.869  13.044  -7.768  1.00  0.00     0.167 HD
ATOM     61  C   UNL     1       3.652  14.889  -6.556  1.00  0.00     0.074 A 
ATOM     62  C   UNL     1       4.367  15.647  -5.550  1.00  0.00     0.031 C 
ATOM     63  C   UNL     1       3.878  14.990  -7.888  1.00  0.00     0.031 A 
BRANCH  50  64
ATOM     64  C   UNL     1       0.421  11.226 -11.346  1.00  0.00    -0.014 A 
ATOM     65  C   UNL     1      -0.802  11.520 -11.970  1.00  0.00     0.009 A 
ATOM     66  C   UNL     1       1.379  10.478 -12.049  1.00  0.00     0.009 A 
ATOM     67  C   UNL     1      -1.069  11.053 -13.258  1.00  0.00     0.001 A 
ATOM     68  C   UNL     1       1.121  10.038 -13.348  1.00  0.00     0.001 A 
ATOM     69  C   UNL     1      -0.105  10.319 -13.949  1.00  0.00     0.000 A 
ENDBRANCH  50  64
BRANCH  51  70
ATOM     70  C   UNL     1       2.517  14.230  -2.043  1.00  0.00    -0.014 A 
ATOM     71  C   UNL     1       2.298  15.553  -1.629  1.00  0.00     0.009 A 
ATOM     72  C   UNL     1       3.112  13.331  -1.144  1.00  0.00     0.009 A 
ATOM     73  C   UNL     1       2.707  15.978  -0.363  1.00  0.00     0.001 A 
ATOM     74  C   UNL     1       3.488  13.749   0.134  1.00  0.00     0.001 A 
ATOM     75  C   UNL     1       3.300  15.075   0.518  1.00  0.00     0.000 A 
ENDBRANCH  51  70
BRANCH  63  76
ATOM     76  C   UNL     1       4.896  15.998  -8.342  1.00  0.00    -0.014 A 
ATOM     77  C   UNL     1       6.269  15.800  -8.139  1.00  0.00     0.009 A 
ATOM     78  C   UNL     1       4.468  17.140  -9.040  1.00  0.00     0.009 A 
ATOM     79  C   UNL     1       7.192  16.741  -8.597  1.00  0.00     0.001 A 
ATOM     80  C   UNL     1       5.395  18.062  -9.526  1.00  0.00     0.001 A 
ATOM     81  C   UNL     1       6.755  17.867  -9.296  1.00  0.00     0.000 A 
ENDBRANCH  63  76
ENDBRANCH  37  38
ENDBRANCH  29  32
ENDBRANCH  27  28
ENDBRANCH  26  27
ENDBRANCH  25  26
ENDBRANCH  24  25
ENDBRANCH   1  24
TORSDOF 17
