REMARK SMILES COc1ccccc1C[C@H](C[C@@H]1CCCCO1)C(=O)NCCCCCCNC(=O)c1ccc(-c2c3nc(c(-c4ccccc4)c4ccc([nH]4)c(-c4ccccc4)c4nc(c(-c5ccccc5)c5ccc2[nH]5)C=C4)C=C3)cc1
REMARK SMILES IDX 23 1 22 2 21 3 20 4 18 5 19 6 10 8 9 9 8 10 3 11 4 12 5 13
REMARK SMILES IDX 7 14 6 15 2 16 1 17 11 18 12 19 13 20 17 21 14 22 16 23
REMARK SMILES IDX 15 24 24 25 25 26 26 27 27 28 28 29 29 31 30 32 31 33 77 34
REMARK SMILES IDX 32 35 76 36 33 37 34 38 35 39 70 40 36 41 75 42 69 43 71 44
REMARK SMILES IDX 37 45 74 46 68 47 67 48 38 50 60 51 45 52 59 53 46 54 49 55
REMARK SMILES IDX 58 56 72 57 47 58 48 59 57 61 73 62 50 63 39 64 40 65 44 66
REMARK SMILES IDX 41 67 43 68 42 69 61 70 62 71 66 72 63 73 65 74 64 75 51 76
REMARK SMILES IDX 52 77 56 78 53 79 55 80 54 81
REMARK H PARENT 20 7 27 30 71 49 49 60
REMARK Flexibility Score: inf
ROOT
ATOM      1  C   UNL     1       6.392   3.425  -0.279  1.00  0.00     0.002 C 
ENDROOT
BRANCH   1   2
ATOM      2  C   UNL     1       5.190   2.812  -1.005  1.00  0.00     0.021 C 
BRANCH   2   3
ATOM      3  C   UNL     1       5.501   1.566  -1.822  1.00  0.00     0.116 C 
BRANCH   3   4
ATOM      4  N   UNL     1       6.071   0.497  -1.036  1.00  0.00    -0.356 N 
ATOM      5  C   UNL     1       5.812  -0.832  -1.056  1.00  0.00     0.223 C 
ATOM      6  O   UNL     1       6.609  -1.567  -0.464  1.00  0.00    -0.275 OA
ATOM      7  H   UNL     1       6.754   0.777  -0.385  1.00  0.00     0.163 HD
BRANCH   5   8
ATOM      8  C   UNL     1       4.598  -1.432  -1.754  1.00  0.00     0.085 C 
BRANCH   8   9
ATOM      9  C   UNL     1       4.846  -1.777  -3.243  1.00  0.00     0.053 C 
BRANCH   9  10
ATOM     10  C   UNL     1       4.583  -0.724  -4.296  1.00  0.00    -0.005 A 
ATOM     11  C   UNL     1       5.500   0.222  -4.780  1.00  0.00     0.122 A 
ATOM     12  C   UNL     1       5.043   1.264  -5.607  1.00  0.00     0.047 A 
ATOM     13  C   UNL     1       3.710   1.354  -6.004  1.00  0.00     0.004 A 
ATOM     14  C   UNL     1       3.252  -0.654  -4.773  1.00  0.00     0.007 A 
ATOM     15  C   UNL     1       2.814   0.378  -5.601  1.00  0.00     0.001 A 
BRANCH  11  16
ATOM     16  O   UNL     1       6.819   0.375  -4.454  1.00  0.00    -0.496 OA
ATOM     17  C   UNL     1       7.624  -0.781  -4.297  1.00  0.00     0.278 C 
ENDBRANCH  11  16
ENDBRANCH   9  10
ENDBRANCH   8   9
BRANCH   8  18
ATOM     18  C   UNL     1       3.258  -0.765  -1.381  1.00  0.00     0.046 C 
BRANCH  18  19
ATOM     19  C   UNL     1       2.226  -1.571  -0.551  1.00  0.00     0.119 C 
ATOM     20  C   UNL     1       2.168  -1.157   0.915  1.00  0.00     0.032 C 
ATOM     21  O   UNL     1       2.284  -2.981  -0.703  1.00  0.00    -0.378 OA
ATOM     22  C   UNL     1       3.415  -1.620   1.632  1.00  0.00     0.005 C 
ATOM     23  C   UNL     1       3.122  -3.739   0.167  1.00  0.00     0.160 C 
ATOM     24  C   UNL     1       3.574  -3.122   1.492  1.00  0.00     0.029 C 
ENDBRANCH  18  19
ENDBRANCH   8  18
ENDBRANCH   5   8
ENDBRANCH   3   4
ENDBRANCH   2   3
ENDBRANCH   1   2
BRANCH   1  25
ATOM     25  C   UNL     1       7.666   3.610  -1.112  1.00  0.00     0.002 C 
BRANCH  25  26
ATOM     26  C   UNL     1       7.501   4.363  -2.432  1.00  0.00     0.021 C 
BRANCH  26  27
ATOM     27  C   UNL     1       6.831   5.724  -2.313  1.00  0.00     0.116 C 
BRANCH  27  28
ATOM     28  N   UNL     1       7.598   6.649  -1.498  1.00  0.00    -0.352 N 
ATOM     29  C   UNL     1       8.071   7.899  -1.821  1.00  0.00     0.251 C 
ATOM     30  H   UNL     1       7.809   6.338  -0.588  1.00  0.00     0.163 HD
ATOM     31  O   UNL     1       8.851   8.483  -1.086  1.00  0.00    -0.269 OA
BRANCH  29  32
ATOM     32  C   UNL     1       7.643   8.518  -3.094  1.00  0.00     0.039 A 
ATOM     33  C   UNL     1       8.613   9.050  -3.946  1.00  0.00     0.014 A 
ATOM     34  C   UNL     1       6.294   8.535  -3.456  1.00  0.00     0.014 A 
ATOM     35  C   UNL     1       8.236   9.530  -5.201  1.00  0.00     0.010 A 
ATOM     36  C   UNL     1       5.931   8.943  -4.734  1.00  0.00     0.010 A 
ATOM     37  C   UNL     1       6.899   9.438  -5.621  1.00  0.00    -0.014 A 
BRANCH  37  38
ATOM     38  C   UNL     1       6.490   9.831  -6.992  1.00  0.00     0.031 A 
ATOM     39  C   UNL     1       5.537  10.974  -7.197  1.00  0.00     0.074 A 
ATOM     40  C   UNL     1       6.918   9.110  -8.046  1.00  0.00     0.049 A 
ATOM     41  N   UNL     1       4.999  11.412  -8.307  1.00  0.00    -0.248 NA
ATOM     42  C   UNL     1       5.115  11.706  -5.992  1.00  0.00     0.031 C 
ATOM     43  C   UNL     1       7.827   7.964  -7.978  1.00  0.00     0.029 A 
ATOM     44  N   UNL     1       6.636   9.231  -9.384  1.00  0.00    -0.354 N 
ATOM     45  C   UNL     1       4.170  12.461  -7.934  1.00  0.00     0.074 A 
ATOM     46  C   UNL     1       4.232  12.558  -6.491  1.00  0.00     0.031 C 
ATOM     47  C   UNL     1       8.053   7.508  -9.220  1.00  0.00     0.029 A 
ATOM     48  C   UNL     1       7.266   8.293 -10.166  1.00  0.00     0.049 A 
ATOM     49  H   UNL     1       6.039   9.924  -9.748  1.00  0.00     0.167 HD
ATOM     50  C   UNL     1       3.437  13.284  -8.721  1.00  0.00     0.031 A 
ATOM     51  C   UNL     1       7.207   8.082 -11.494  1.00  0.00     0.031 A 
ATOM     52  C   UNL     1       3.368  13.180 -10.155  1.00  0.00     0.049 A 
ATOM     53  C   UNL     1       6.334   8.966 -12.339  1.00  0.00     0.074 A 
ATOM     54  C   UNL     1       2.685  13.988 -11.046  1.00  0.00     0.029 A 
ATOM     55  N   UNL     1       3.999  12.199 -10.905  1.00  0.00    -0.354 N 
ATOM     56  N   UNL     1       5.601   9.991 -11.979  1.00  0.00    -0.248 NA
ATOM     57  C   UNL     1       6.283   8.663 -13.777  1.00  0.00     0.031 C 
ATOM     58  C   UNL     1       2.854  13.461 -12.331  1.00  0.00     0.029 A 
ATOM     59  C   UNL     1       3.694  12.362 -12.246  1.00  0.00     0.049 A 
ATOM     60  H   UNL     1       4.578  11.493 -10.539  1.00  0.00     0.167 HD
ATOM     61  C   UNL     1       5.025  10.474 -13.147  1.00  0.00     0.074 A 
ATOM     62  C   UNL     1       5.505   9.637 -14.228  1.00  0.00     0.031 C 
ATOM     63  C   UNL     1       4.176  11.518 -13.310  1.00  0.00     0.031 A 
BRANCH  50  64
ATOM     64  C   UNL     1       2.637  14.358  -8.037  1.00  0.00    -0.014 A 
ATOM     65  C   UNL     1       3.266  15.438  -7.395  1.00  0.00     0.009 A 
ATOM     66  C   UNL     1       1.234  14.301  -8.046  1.00  0.00     0.009 A 
ATOM     67  C   UNL     1       2.510  16.410  -6.737  1.00  0.00     0.001 A 
ATOM     68  C   UNL     1       0.480  15.292  -7.416  1.00  0.00     0.001 A 
ATOM     69  C   UNL     1       1.118  16.338  -6.751  1.00  0.00     0.000 A 
ENDBRANCH  50  64
BRANCH  51  70
ATOM     70  C   UNL     1       8.009   6.993 -12.111  1.00  0.00    -0.014 A 
ATOM     71  C   UNL     1       9.101   7.299 -12.938  1.00  0.00     0.009 A 
ATOM     72  C   UNL     1       7.689   5.645 -11.883  1.00  0.00     0.009 A 
ATOM     73  C   UNL     1       9.841   6.279 -13.540  1.00  0.00     0.001 A 
ATOM     74  C   UNL     1       8.449   4.628 -12.463  1.00  0.00     0.001 A 
ATOM     75  C   UNL     1       9.518   4.945 -13.298  1.00  0.00     0.000 A 
ENDBRANCH  51  70
BRANCH  63  76
ATOM     76  C   UNL     1       3.737  11.837 -14.712  1.00  0.00    -0.014 A 
ATOM     77  C   UNL     1       2.831  11.013 -15.398  1.00  0.00     0.009 A 
ATOM     78  C   UNL     1       4.199  13.007 -15.335  1.00  0.00     0.009 A 
ATOM     79  C   UNL     1       2.419  11.342 -16.691  1.00  0.00     0.001 A 
ATOM     80  C   UNL     1       3.762  13.348 -16.615  1.00  0.00     0.001 A 
ATOM     81  C   UNL     1       2.879  12.512 -17.295  1.00  0.00     0.000 A 
ENDBRANCH  63  76
ENDBRANCH  37  38
ENDBRANCH  29  32
ENDBRANCH  27  28
ENDBRANCH  26  27
ENDBRANCH  25  26
ENDBRANCH   1  25
TORSDOF 18
