REMARK SMILES O=C1NC(=S)S/C1=C\c1ccc(OCc2cn(-c3ccc(C(=O)NCCCCCCNC(=O)c4ccc(-c5c6nc(c(-c7ccccc7)c7ccc([nH]7)c(-c7ccccc7)c7nc(c(-c8ccccc8)c8ccc5[nH]8)C=C7)C=C6)cc4)cc3)nn2)cc1
REMARK SMILES IDX 26 1 25 2 24 3 22 4 23 5 21 7 18 8 19 9 83 10 20 11 82 12
REMARK SMILES IDX 17 13 15 14 16 15 85 16 84 17 14 18 13 19 12 20 9 21 10 22
REMARK SMILES IDX 87 23 11 24 86 25 8 26 1 27 2 28 3 29 7 30 4 31 6 33 5 34
REMARK SMILES IDX 27 35 28 36 29 37 30 38 31 39 32 40 33 42 34 43 35 44 81 45
REMARK SMILES IDX 36 46 80 47 37 48 38 49 39 50 74 51 40 52 79 53 73 54 75 55
REMARK SMILES IDX 41 56 78 57 72 58 71 59 42 61 64 62 49 63 63 64 50 65 53 66
REMARK SMILES IDX 62 67 76 68 51 69 52 70 61 72 77 73 54 74 43 75 44 76 48 77
REMARK SMILES IDX 45 78 47 79 46 80 65 81 66 82 70 83 67 84 69 85 68 86 55 87
REMARK SMILES IDX 56 88 60 89 57 90 59 91 58 92
REMARK H PARENT 24 6 3 32 31 41 75 60 53 71
REMARK Flexibility Score: inf
ROOT
ATOM      1  C   UNL     1       6.834  10.473   2.068  1.00  0.00     0.021 C 
ENDROOT
BRANCH   1   2
ATOM      2  C   UNL     1       6.342  10.934   0.694  1.00  0.00     0.116 C 
BRANCH   2   3
ATOM      3  N   UNL     1       6.971  10.137  -0.339  1.00  0.00    -0.352 N 
ATOM      4  C   UNL     1       6.543   9.072  -1.086  1.00  0.00     0.251 C 
ATOM      5  O   UNL     1       7.355   8.561  -1.858  1.00  0.00    -0.269 OA
ATOM      6  H   UNL     1       7.892  10.417  -0.545  1.00  0.00     0.163 HD
BRANCH   4   7
ATOM      7  C   UNL     1       5.141   8.571  -1.069  1.00  0.00     0.039 A 
ATOM      8  C   UNL     1       2.460   7.796  -1.322  1.00  0.00     0.066 A 
ATOM      9  C   UNL     1       3.373   7.478  -2.333  1.00  0.00     0.029 A 
ATOM     10  C   UNL     1       2.893   8.421  -0.153  1.00  0.00     0.029 A 
ATOM     11  C   UNL     1       4.698   7.900  -2.219  1.00  0.00     0.016 A 
ATOM     12  C   UNL     1       4.246   8.734  -0.006  1.00  0.00     0.016 A 
BRANCH   8  13
ATOM     13  N   UNL     1       1.106   7.448  -1.474  1.00  0.00    -0.220 N 
ATOM     14  C   UNL     1      -1.065   7.292  -1.361  1.00  0.00     0.120 A 
ATOM     15  C   UNL     1      -0.005   8.077  -0.959  1.00  0.00     0.144 A 
ATOM     16  N   UNL     1      -0.576   6.267  -2.129  1.00  0.00    -0.131 NA
ATOM     17  N   UNL     1       0.734   6.393  -2.224  1.00  0.00    -0.062 NA
BRANCH  14  18
ATOM     18  C   UNL     1      -2.539   7.467  -1.185  1.00  0.00     0.289 C 
BRANCH  18  19
ATOM     19  O   UNL     1      -3.132   6.723  -0.106  1.00  0.00    -0.487 OA
BRANCH  19  20
ATOM     20  C   UNL     1      -3.155   5.357  -0.189  1.00  0.00     0.119 A 
ATOM     21  C   UNL     1      -2.927   2.563  -0.009  1.00  0.00    -0.024 A 
ATOM     22  C   UNL     1      -3.382   3.300   1.086  1.00  0.00     0.012 A 
ATOM     23  C   UNL     1      -2.691   3.218  -1.219  1.00  0.00     0.012 A 
ATOM     24  C   UNL     1      -3.488   4.693   0.995  1.00  0.00     0.047 A 
ATOM     25  C   UNL     1      -2.841   4.602  -1.315  1.00  0.00     0.047 A 
BRANCH  21  26
ATOM     26  C   UNL     1      -2.682   1.123   0.096  1.00  0.00     0.029 C 
ATOM     27  O   UNL     1      -2.191  -1.744   0.143  1.00  0.00    -0.268 OA
ATOM     28  C   UNL     1      -1.295  -0.926   0.107  1.00  0.00     0.263 C 
ATOM     29  N   UNL     1       0.040  -1.228   0.061  1.00  0.00    -0.307 N 
ATOM     30  C   UNL     1      -1.469   0.553   0.090  1.00  0.00     0.080 C 
ATOM     31  C   UNL     1       0.933  -0.202   0.026  1.00  0.00     0.145 C 
ATOM     32  H   UNL     1       0.346  -2.164   0.054  1.00  0.00     0.171 HD
ATOM     33  S   UNL     1       0.079   1.323   0.041  1.00  0.00    -0.055 SA
ATOM     34  S   UNL     1       2.574  -0.416  -0.017  1.00  0.00    -0.052 S 
ENDBRANCH  21  26
ENDBRANCH  19  20
ENDBRANCH  18  19
ENDBRANCH  14  18
ENDBRANCH   8  13
ENDBRANCH   4   7
ENDBRANCH   2   3
ENDBRANCH   1   2
BRANCH   1  35
ATOM     35  C   UNL     1       8.208  11.055   2.426  1.00  0.00     0.002 C 
BRANCH  35  36
ATOM     36  C   UNL     1       8.281  12.591   2.419  1.00  0.00     0.002 C 
BRANCH  36  37
ATOM     37  C   UNL     1       7.198  13.313   3.234  1.00  0.00     0.021 C 
BRANCH  37  38
ATOM     38  C   UNL     1       7.359  13.117   4.732  1.00  0.00     0.116 C 
BRANCH  38  39
ATOM     39  N   UNL     1       8.567  13.774   5.233  1.00  0.00    -0.352 N 
ATOM     40  C   UNL     1       9.072  13.790   6.515  1.00  0.00     0.251 C 
ATOM     41  H   UNL     1       9.089  14.271   4.563  1.00  0.00     0.163 HD
ATOM     42  O   UNL     1       9.861  14.652   6.874  1.00  0.00    -0.269 OA
BRANCH  40  43
ATOM     43  C   UNL     1       8.653  12.732   7.446  1.00  0.00     0.039 A 
ATOM     44  C   UNL     1       8.391  13.004   8.792  1.00  0.00     0.014 A 
ATOM     45  C   UNL     1       8.510  11.446   6.934  1.00  0.00     0.014 A 
ATOM     46  C   UNL     1       7.916  11.976   9.602  1.00  0.00     0.010 A 
ATOM     47  C   UNL     1       7.882  10.488   7.678  1.00  0.00     0.010 A 
ATOM     48  C   UNL     1       7.652  10.724   9.029  1.00  0.00    -0.014 A 
BRANCH  48  49
ATOM     49  C   UNL     1       7.019   9.656   9.788  1.00  0.00     0.031 A 
ATOM     50  C   UNL     1       5.688  10.008  10.348  1.00  0.00     0.074 A 
ATOM     51  C   UNL     1       7.487   8.389   9.754  1.00  0.00     0.049 A 
ATOM     52  N   UNL     1       5.363  10.071  11.594  1.00  0.00    -0.248 NA
ATOM     53  C   UNL     1       4.631  10.476   9.434  1.00  0.00     0.031 C 
ATOM     54  C   UNL     1       8.627   7.864   8.989  1.00  0.00     0.029 A 
ATOM     55  N   UNL     1       6.944   7.259  10.277  1.00  0.00    -0.354 N 
ATOM     56  C   UNL     1       4.008  10.382  11.625  1.00  0.00     0.074 A 
ATOM     57  C   UNL     1       3.660  10.800  10.291  1.00  0.00     0.031 C 
ATOM     58  C   UNL     1       8.519   6.522   8.882  1.00  0.00     0.029 A 
ATOM     59  C   UNL     1       7.403   6.080   9.697  1.00  0.00     0.049 A 
ATOM     60  H   UNL     1       6.282   7.272  11.006  1.00  0.00     0.167 HD
ATOM     61  C   UNL     1       3.229  10.017  12.681  1.00  0.00     0.031 A 
ATOM     62  C   UNL     1       6.870   4.839   9.838  1.00  0.00     0.031 A 
ATOM     63  C   UNL     1       4.029   9.598  13.805  1.00  0.00     0.049 A 
ATOM     64  C   UNL     1       6.031   4.862  11.060  1.00  0.00     0.074 A 
ATOM     65  C   UNL     1       5.010  10.195  14.571  1.00  0.00     0.029 A 
ATOM     66  N   UNL     1       4.162   8.243  14.004  1.00  0.00    -0.354 N 
ATOM     67  N   UNL     1       6.528   4.995  12.257  1.00  0.00    -0.248 NA
ATOM     68  C   UNL     1       4.630   5.233  10.922  1.00  0.00     0.031 C 
ATOM     69  C   UNL     1       5.978   9.170  14.781  1.00  0.00     0.029 A 
ATOM     70  C   UNL     1       5.490   7.988  14.222  1.00  0.00     0.049 A 
ATOM     71  H   UNL     1       3.436   7.579  13.991  1.00  0.00     0.167 HD
ATOM     72  C   UNL     1       5.680   5.895  12.886  1.00  0.00     0.074 A 
ATOM     73  C   UNL     1       4.473   5.922  12.058  1.00  0.00     0.031 C 
ATOM     74  C   UNL     1       6.150   6.762  13.832  1.00  0.00     0.031 A 
BRANCH  61  75
ATOM     75  C   UNL     1       1.780   9.615  12.558  1.00  0.00    -0.014 A 
ATOM     76  C   UNL     1       1.079   9.279  13.730  1.00  0.00     0.009 A 
ATOM     77  C   UNL     1       1.176   9.266  11.336  1.00  0.00     0.009 A 
ATOM     78  C   UNL     1      -0.114   8.549  13.681  1.00  0.00     0.001 A 
ATOM     79  C   UNL     1      -0.036   8.573  11.283  1.00  0.00     0.001 A 
ATOM     80  C   UNL     1      -0.664   8.186  12.457  1.00  0.00     0.000 A 
ENDBRANCH  61  75
BRANCH  62  81
ATOM     81  C   UNL     1       6.827   3.721   8.865  1.00  0.00    -0.014 A 
ATOM     82  C   UNL     1       6.434   2.433   9.266  1.00  0.00     0.009 A 
ATOM     83  C   UNL     1       6.913   3.970   7.483  1.00  0.00     0.009 A 
ATOM     84  C   UNL     1       6.093   1.453   8.322  1.00  0.00     0.001 A 
ATOM     85  C   UNL     1       6.579   2.991   6.540  1.00  0.00     0.001 A 
ATOM     86  C   UNL     1       6.151   1.737   6.960  1.00  0.00     0.000 A 
ENDBRANCH  62  81
BRANCH  74  87
ATOM     87  C   UNL     1       7.566   6.581  14.327  1.00  0.00    -0.014 A 
ATOM     88  C   UNL     1       8.694   6.652  13.487  1.00  0.00     0.009 A 
ATOM     89  C   UNL     1       7.777   6.510  15.711  1.00  0.00     0.009 A 
ATOM     90  C   UNL     1       9.988   6.622  14.018  1.00  0.00     0.001 A 
ATOM     91  C   UNL     1       9.068   6.504  16.242  1.00  0.00     0.001 A 
ATOM     92  C   UNL     1      10.174   6.553  15.396  1.00  0.00     0.000 A 
ENDBRANCH  74  87
ENDBRANCH  48  49
ENDBRANCH  40  43
ENDBRANCH  38  39
ENDBRANCH  37  38
ENDBRANCH  36  37
ENDBRANCH  35  36
ENDBRANCH   1  35
TORSDOF 18
