REMARK SMILES CC(=O)Oc1c(Cl)cc(-c2ccccc2)cc1C(=O)NCCCCCCNC(=O)c1ccc(-c2c3nc(c(-c4ccccc4)c4ccc([nH]4)c(-c4ccccc4)c4nc(c(-c5ccccc5)c5ccc2[nH]5)C=C4)C=C3)cc1
REMARK SMILES IDX 23 1 22 2 21 3 20 4 18 5 19 6 17 8 5 9 6 10 7 11 8 12 16 13
REMARK SMILES IDX 9 14 4 15 2 16 1 17 3 18 10 19 11 20 15 21 12 22 14 23 13 24
REMARK SMILES IDX 24 25 25 26 26 27 27 28 28 29 29 31 30 32 31 33 77 34 32 35
REMARK SMILES IDX 76 36 33 37 34 38 35 39 70 40 36 41 75 42 69 43 71 44 37 45
REMARK SMILES IDX 74 46 68 47 67 48 38 50 60 51 45 52 59 53 46 54 49 55 58 56
REMARK SMILES IDX 72 57 47 58 48 59 57 61 73 62 50 63 39 64 40 65 44 66 41 67
REMARK SMILES IDX 43 68 42 69 61 70 62 71 66 72 63 73 65 74 64 75 51 76 52 77
REMARK SMILES IDX 56 78 53 79 55 80 54 81
REMARK H PARENT 20 7 27 30 71 49 49 60
REMARK Flexibility Score: inf
ROOT
ATOM      1  C   UNL     1       4.974  -0.435  -0.601  1.00  0.00     0.002 C 
ENDROOT
BRANCH   1   2
ATOM      2  C   UNL     1       3.871  -1.473  -0.392  1.00  0.00     0.021 C 
BRANCH   2   3
ATOM      3  C   UNL     1       2.738  -1.535  -1.405  1.00  0.00     0.116 C 
BRANCH   3   4
ATOM      4  N   UNL     1       3.081  -1.899  -2.749  1.00  0.00    -0.352 N 
ATOM      5  C   UNL     1       2.306  -2.475  -3.728  1.00  0.00     0.255 C 
ATOM      6  O   UNL     1       2.833  -2.612  -4.835  1.00  0.00    -0.269 OA
ATOM      7  H   UNL     1       4.011  -1.710  -3.010  1.00  0.00     0.163 HD
BRANCH   5   8
ATOM      8  C   UNL     1       0.910  -3.002  -3.547  1.00  0.00     0.084 A 
ATOM      9  C   UNL     1      -0.161  -2.421  -2.843  1.00  0.00     0.162 A 
ATOM     10  C   UNL     1      -1.457  -2.973  -2.955  1.00  0.00     0.085 A 
ATOM     11  Cl  UNL     1      -2.854  -2.209  -2.266  1.00  0.00    -0.080 Cl
ATOM     12  C   UNL     1      -1.685  -4.124  -3.704  1.00  0.00     0.033 A 
ATOM     13  C   UNL     1       0.635  -4.162  -4.322  1.00  0.00     0.026 A 
ATOM     14  C   UNL     1      -0.648  -4.732  -4.415  1.00  0.00    -0.016 A 
BRANCH   9  15
ATOM     15  O   UNL     1      -0.023  -1.224  -2.122  1.00  0.00    -0.424 OA
BRANCH  15  16
ATOM     16  C   UNL     1      -0.277  -1.369  -0.755  1.00  0.00     0.308 C 
ATOM     17  C   UNL     1      -0.279  -0.029  -0.089  1.00  0.00     0.139 C 
ATOM     18  O   UNL     1      -0.368  -2.433  -0.145  1.00  0.00    -0.252 OA
ENDBRANCH  15  16
ENDBRANCH   9  15
BRANCH  14  19
ATOM     19  C   UNL     1      -0.935  -5.886  -5.283  1.00  0.00    -0.018 A 
ATOM     20  C   UNL     1      -1.929  -5.798  -6.275  1.00  0.00     0.009 A 
ATOM     21  C   UNL     1      -0.264  -7.109  -5.133  1.00  0.00     0.009 A 
ATOM     22  C   UNL     1      -2.253  -6.893  -7.078  1.00  0.00     0.001 A 
ATOM     23  C   UNL     1      -0.588  -8.207  -5.936  1.00  0.00     0.001 A 
ATOM     24  C   UNL     1      -1.584  -8.100  -6.905  1.00  0.00     0.000 A 
ENDBRANCH  14  19
ENDBRANCH   5   8
ENDBRANCH   3   4
ENDBRANCH   2   3
ENDBRANCH   1   2
BRANCH   1  25
ATOM     25  C   UNL     1       4.580   1.013  -0.906  1.00  0.00     0.002 C 
BRANCH  25  26
ATOM     26  C   UNL     1       3.589   1.714   0.025  1.00  0.00     0.021 C 
BRANCH  26  27
ATOM     27  C   UNL     1       3.807   1.565   1.526  1.00  0.00     0.116 C 
BRANCH  27  28
ATOM     28  N   UNL     1       5.065   2.130   1.974  1.00  0.00    -0.352 N 
ATOM     29  C   UNL     1       5.316   3.054   2.958  1.00  0.00     0.251 C 
ATOM     30  H   UNL     1       5.862   1.800   1.499  1.00  0.00     0.163 HD
ATOM     31  O   UNL     1       6.447   3.515   3.083  1.00  0.00    -0.269 OA
BRANCH  29  32
ATOM     32  C   UNL     1       4.237   3.522   3.861  1.00  0.00     0.039 A 
ATOM     33  C   UNL     1       4.173   4.884   4.173  1.00  0.00     0.014 A 
ATOM     34  C   UNL     1       3.323   2.635   4.438  1.00  0.00     0.014 A 
ATOM     35  C   UNL     1       3.168   5.361   5.019  1.00  0.00     0.010 A 
ATOM     36  C   UNL     1       2.280   3.122   5.227  1.00  0.00     0.010 A 
ATOM     37  C   UNL     1       2.195   4.489   5.533  1.00  0.00    -0.014 A 
BRANCH  37  38
ATOM     38  C   UNL     1       1.089   4.998   6.387  1.00  0.00     0.031 A 
ATOM     39  C   UNL     1       0.976   4.581   7.828  1.00  0.00     0.074 A 
ATOM     40  C   UNL     1       0.158   5.814   5.855  1.00  0.00     0.049 A 
ATOM     41  N   UNL     1       0.083   4.928   8.722  1.00  0.00    -0.248 NA
ATOM     42  C   UNL     1       1.985   3.634   8.324  1.00  0.00     0.031 C 
ATOM     43  C   UNL     1       0.131   6.274   4.466  1.00  0.00     0.029 A 
ATOM     44  N   UNL     1      -0.942   6.405   6.424  1.00  0.00    -0.354 N 
ATOM     45  C   UNL     1       0.416   4.235   9.879  1.00  0.00     0.074 A 
ATOM     46  C   UNL     1       1.557   3.405   9.556  1.00  0.00     0.031 C 
ATOM     47  C   UNL     1      -0.906   7.111   4.302  1.00  0.00     0.029 A 
ATOM     48  C   UNL     1      -1.639   7.213   5.560  1.00  0.00     0.049 A 
ATOM     49  H   UNL     1      -1.207   6.263   7.362  1.00  0.00     0.167 HD
ATOM     50  C   UNL     1      -0.160   4.294  11.105  1.00  0.00     0.031 A 
ATOM     51  C   UNL     1      -2.743   7.960   5.756  1.00  0.00     0.031 A 
ATOM     52  C   UNL     1      -1.302   5.110  11.427  1.00  0.00     0.049 A 
ATOM     53  C   UNL     1      -3.389   7.981   7.112  1.00  0.00     0.074 A 
ATOM     54  C   UNL     1      -1.928   5.277  12.651  1.00  0.00     0.029 A 
ATOM     55  N   UNL     1      -1.998   5.889  10.515  1.00  0.00    -0.354 N 
ATOM     56  N   UNL     1      -3.021   7.373   8.213  1.00  0.00    -0.248 NA
ATOM     57  C   UNL     1      -4.599   8.803   7.251  1.00  0.00     0.031 C 
ATOM     58  C   UNL     1      -3.038   6.109  12.465  1.00  0.00     0.029 A 
ATOM     59  C   UNL     1      -3.066   6.512  11.140  1.00  0.00     0.049 A 
ATOM     60  H   UNL     1      -1.766   5.986   9.563  1.00  0.00     0.167 HD
ATOM     61  C   UNL     1      -3.937   7.759   9.183  1.00  0.00     0.074 A 
ATOM     62  C   UNL     1      -4.867   8.667   8.542  1.00  0.00     0.031 C 
ATOM     63  C   UNL     1      -3.998   7.399  10.489  1.00  0.00     0.031 A 
BRANCH  50  64
ATOM     64  C   UNL     1       0.433   3.424  12.182  1.00  0.00    -0.014 A 
ATOM     65  C   UNL     1       1.720   3.666  12.692  1.00  0.00     0.009 A 
ATOM     66  C   UNL     1      -0.303   2.344  12.694  1.00  0.00     0.009 A 
ATOM     67  C   UNL     1       2.278   2.812  13.647  1.00  0.00     0.001 A 
ATOM     68  C   UNL     1       0.243   1.512  13.674  1.00  0.00     0.001 A 
ATOM     69  C   UNL     1       1.538   1.737  14.138  1.00  0.00     0.000 A 
ENDBRANCH  50  64
BRANCH  51  70
ATOM     70  C   UNL     1      -3.283   8.783   4.643  1.00  0.00    -0.014 A 
ATOM     71  C   UNL     1      -3.155  10.181   4.673  1.00  0.00     0.009 A 
ATOM     72  C   UNL     1      -3.909   8.181   3.541  1.00  0.00     0.009 A 
ATOM     73  C   UNL     1      -3.656  10.959   3.628  1.00  0.00     0.001 A 
ATOM     74  C   UNL     1      -4.384   8.961   2.484  1.00  0.00     0.001 A 
ATOM     75  C   UNL     1      -4.264  10.349   2.532  1.00  0.00     0.000 A 
ENDBRANCH  51  70
BRANCH  63  76
ATOM     76  C   UNL     1      -5.096   8.008  11.317  1.00  0.00    -0.014 A 
ATOM     77  C   UNL     1      -6.439   7.643  11.135  1.00  0.00     0.009 A 
ATOM     78  C   UNL     1      -4.778   8.949  12.310  1.00  0.00     0.009 A 
ATOM     79  C   UNL     1      -7.444   8.237  11.903  1.00  0.00     0.001 A 
ATOM     80  C   UNL     1      -5.780   9.517  13.097  1.00  0.00     0.001 A 
ATOM     81  C   UNL     1      -7.113   9.169  12.886  1.00  0.00     0.000 A 
ENDBRANCH  63  76
ENDBRANCH  37  38
ENDBRANCH  29  32
ENDBRANCH  27  28
ENDBRANCH  26  27
ENDBRANCH  25  26
ENDBRANCH   1  25
TORSDOF 16
