REMARK SMILES CC(=O)N[C@@H](Cc1cc(Br)c(O)c(Br)c1)C(=O)NCCCCCCNC(=O)c1ccc(-c2c3nc(c(-c4ccccc4)c4ccc([nH]4)c(-c4ccccc4)c4nc(c(-c5ccccc5)c5ccc2[nH]5)C=C4)C=C3)cc1
REMARK SMILES IDX 21 1 20 2 19 3 18 4 16 5 17 6 5 8 4 9 1 10 2 11 3 12 6 14
REMARK SMILES IDX 7 15 8 16 15 17 9 18 13 19 10 20 11 21 14 22 12 23 22 25
REMARK SMILES IDX 23 26 24 27 25 28 26 29 27 31 28 32 29 33 75 34 30 35 74 36
REMARK SMILES IDX 31 37 32 38 33 39 68 40 34 41 73 42 67 43 69 44 35 45 72 46
REMARK SMILES IDX 66 47 65 48 36 50 58 51 43 52 57 53 44 54 47 55 56 56 70 57
REMARK SMILES IDX 45 58 46 59 55 61 71 62 48 63 37 64 38 65 42 66 39 67 41 68
REMARK SMILES IDX 40 69 59 70 60 71 64 72 61 73 63 74 62 75 49 76 50 77 54 78
REMARK SMILES IDX 51 79 53 80 52 81
REMARK H PARENT 18 7 4 13 12 24 25 30 69 49 47 60
REMARK Flexibility Score: inf
ROOT
ATOM      1  C   UNL     1      -2.302   5.557   4.066  1.00  0.00     0.002 C 
ENDROOT
BRANCH   1   2
ATOM      2  C   UNL     1      -1.952   4.854   2.738  1.00  0.00     0.021 C 
BRANCH   2   3
ATOM      3  C   UNL     1      -0.518   4.374   2.554  1.00  0.00     0.116 C 
BRANCH   3   4
ATOM      4  N   UNL     1      -0.084   3.189   3.277  1.00  0.00    -0.354 N 
ATOM      5  C   UNL     1       1.045   2.414   3.163  1.00  0.00     0.242 C 
ATOM      6  O   UNL     1       1.361   1.782   4.182  1.00  0.00    -0.273 OA
ATOM      7  H   UNL     1      -0.712   2.889   3.974  1.00  0.00     0.163 HD
BRANCH   5   8
ATOM      8  C   UNL     1       1.984   2.313   1.907  1.00  0.00     0.175 C 
BRANCH   8   9
ATOM      9  N   UNL     1       1.347   2.529   0.610  1.00  0.00    -0.344 N 
ATOM     10  C   UNL     1       1.016   0.127   0.075  1.00  0.00     0.114 C 
ATOM     11  C   UNL     1       0.794   1.590  -0.217  1.00  0.00     0.217 C 
ATOM     12  O   UNL     1       0.146   1.961  -1.194  1.00  0.00    -0.275 OA
ATOM     13  H   UNL     1       1.310   3.461   0.294  1.00  0.00     0.164 HD
ENDBRANCH   8   9
BRANCH   8  14
ATOM     14  C   UNL     1       3.413   2.959   2.033  1.00  0.00     0.070 C 
BRANCH  14  15
ATOM     15  C   UNL     1       3.617   4.444   1.797  1.00  0.00    -0.043 A 
ATOM     16  C   UNL     1       2.604   5.335   2.082  1.00  0.00     0.023 A 
ATOM     17  C   UNL     1       4.807   4.993   1.296  1.00  0.00     0.023 A 
ATOM     18  C   UNL     1       2.648   6.652   1.647  1.00  0.00     0.061 A 
ATOM     19  C   UNL     1       4.946   6.388   1.129  1.00  0.00     0.061 A 
ATOM     20  Br  UNL     1       1.072   7.451   0.944  1.00  0.00    -0.047 Br
ATOM     21  C   UNL     1       3.856   7.228   1.317  1.00  0.00     0.143 A 
ATOM     22  Br  UNL     1       6.603   7.092   0.544  1.00  0.00    -0.047 Br
BRANCH  21  23
ATOM     23  O   UNL     1       3.941   8.583   1.159  1.00  0.00    -0.506 OA
ATOM     24  H   UNL     1       3.184   9.119   1.295  1.00  0.00     0.293 HD
ENDBRANCH  21  23
ENDBRANCH  14  15
ENDBRANCH   8  14
ENDBRANCH   5   8
ENDBRANCH   3   4
ENDBRANCH   2   3
ENDBRANCH   1   2
BRANCH   1  25
ATOM     25  C   UNL     1      -1.367   6.613   4.688  1.00  0.00     0.002 C 
BRANCH  25  26
ATOM     26  C   UNL     1      -0.898   7.803   3.854  1.00  0.00     0.021 C 
BRANCH  26  27
ATOM     27  C   UNL     1      -1.923   8.569   3.026  1.00  0.00     0.116 C 
BRANCH  27  28
ATOM     28  N   UNL     1      -2.743   9.444   3.849  1.00  0.00    -0.352 N 
ATOM     29  C   UNL     1      -2.922  10.798   3.770  1.00  0.00     0.251 C 
ATOM     30  H   UNL     1      -3.244   8.995   4.569  1.00  0.00     0.163 HD
ATOM     31  O   UNL     1      -3.503  11.389   4.702  1.00  0.00    -0.269 OA
BRANCH  29  32
ATOM     32  C   UNL     1      -2.436  11.588   2.617  1.00  0.00     0.039 A 
ATOM     33  C   UNL     1      -1.841  12.836   2.841  1.00  0.00     0.014 A 
ATOM     34  C   UNL     1      -2.613  11.136   1.306  1.00  0.00     0.014 A 
ATOM     35  C   UNL     1      -1.376  13.602   1.765  1.00  0.00     0.010 A 
ATOM     36  C   UNL     1      -2.099  11.874   0.238  1.00  0.00     0.010 A 
ATOM     37  C   UNL     1      -1.478  13.116   0.453  1.00  0.00    -0.014 A 
BRANCH  37  38
ATOM     38  C   UNL     1      -0.970  13.882  -0.718  1.00  0.00     0.031 A 
ATOM     39  C   UNL     1      -1.931  14.358  -1.776  1.00  0.00     0.074 A 
ATOM     40  C   UNL     1       0.353  14.072  -0.887  1.00  0.00     0.049 A 
ATOM     41  N   UNL     1      -1.679  14.882  -2.950  1.00  0.00    -0.248 NA
ATOM     42  C   UNL     1      -3.364  14.199  -1.483  1.00  0.00     0.031 C 
ATOM     43  C   UNL     1       1.397  13.662   0.053  1.00  0.00     0.029 A 
ATOM     44  N   UNL     1       1.048  14.639  -1.928  1.00  0.00    -0.354 N 
ATOM     45  C   UNL     1      -2.918  15.080  -3.547  1.00  0.00     0.074 A 
ATOM     46  C   UNL     1      -3.917  14.592  -2.621  1.00  0.00     0.031 C 
ATOM     47  C   UNL     1       2.597  13.994  -0.451  1.00  0.00     0.029 A 
ATOM     48  C   UNL     1       2.413  14.593  -1.770  1.00  0.00     0.049 A 
ATOM     49  H   UNL     1       0.610  15.041  -2.713  1.00  0.00     0.167 HD
ATOM     50  C   UNL     1      -3.202  15.627  -4.754  1.00  0.00     0.031 A 
ATOM     51  C   UNL     1       3.406  14.965  -2.601  1.00  0.00     0.031 A 
ATOM     52  C   UNL     1      -2.213  16.132  -5.669  1.00  0.00     0.049 A 
ATOM     53  C   UNL     1       3.068  15.540  -3.950  1.00  0.00     0.074 A 
ATOM     54  C   UNL     1      -2.408  16.750  -6.892  1.00  0.00     0.029 A 
ATOM     55  N   UNL     1      -0.845  16.077  -5.460  1.00  0.00    -0.354 N 
ATOM     56  N   UNL     1       1.891  15.758  -4.483  1.00  0.00    -0.248 NA
ATOM     57  C   UNL     1       4.198  15.923  -4.811  1.00  0.00     0.031 C 
ATOM     58  C   UNL     1      -1.154  17.026  -7.446  1.00  0.00     0.029 A 
ATOM     59  C   UNL     1      -0.181  16.631  -6.541  1.00  0.00     0.049 A 
ATOM     60  H   UNL     1      -0.409  15.700  -4.662  1.00  0.00     0.167 HD
ATOM     61  C   UNL     1       2.137  16.335  -5.723  1.00  0.00     0.074 A 
ATOM     62  C   UNL     1       3.574  16.438  -5.862  1.00  0.00     0.031 C 
ATOM     63  C   UNL     1       1.249  16.745  -6.660  1.00  0.00     0.031 A 
BRANCH  50  64
ATOM     64  C   UNL     1      -4.647  15.695  -5.163  1.00  0.00    -0.014 A 
ATOM     65  C   UNL     1      -5.543  16.575  -4.536  1.00  0.00     0.009 A 
ATOM     66  C   UNL     1      -5.111  14.894  -6.219  1.00  0.00     0.009 A 
ATOM     67  C   UNL     1      -6.882  16.621  -4.930  1.00  0.00     0.001 A 
ATOM     68  C   UNL     1      -6.442  14.964  -6.632  1.00  0.00     0.001 A 
ATOM     69  C   UNL     1      -7.329  15.819  -5.980  1.00  0.00     0.000 A 
ENDBRANCH  50  64
BRANCH  51  70
ATOM     70  C   UNL     1       4.825  14.803  -2.186  1.00  0.00    -0.014 A 
ATOM     71  C   UNL     1       5.613  15.928  -1.897  1.00  0.00     0.009 A 
ATOM     72  C   UNL     1       5.402  13.528  -2.086  1.00  0.00     0.009 A 
ATOM     73  C   UNL     1       6.956  15.780  -1.542  1.00  0.00     0.001 A 
ATOM     74  C   UNL     1       6.737  13.382  -1.701  1.00  0.00     0.001 A 
ATOM     75  C   UNL     1       7.515  14.508  -1.439  1.00  0.00     0.000 A 
ENDBRANCH  51  70
BRANCH  63  76
ATOM     76  C   UNL     1       1.792  17.396  -7.900  1.00  0.00    -0.014 A 
ATOM     77  C   UNL     1       2.409  16.644  -8.911  1.00  0.00     0.009 A 
ATOM     78  C   UNL     1       1.611  18.776  -8.091  1.00  0.00     0.009 A 
ATOM     79  C   UNL     1       2.849  17.266 -10.082  1.00  0.00     0.001 A 
ATOM     80  C   UNL     1       2.028  19.389  -9.273  1.00  0.00     0.001 A 
ATOM     81  C   UNL     1       2.651  18.635 -10.265  1.00  0.00     0.000 A 
ENDBRANCH  63  76
ENDBRANCH  37  38
ENDBRANCH  29  32
ENDBRANCH  27  28
ENDBRANCH  26  27
ENDBRANCH  25  26
ENDBRANCH   1  25
TORSDOF 17
