REMARK SMILES Cc1n[nH]c(CN(C)C(=O)N[C@](C)(C(=O)NCCCCCCNC(=O)c2ccc(-c3c4nc(c(-c5ccccc5)c5ccc([nH]5)c(-c5ccccc5)c5nc(c(-c6ccccc6)c6ccc3[nH]6)C=C5)C=C4)cc2)C(F)(F)F)n1
REMARK SMILES IDX 18 1 17 2 16 3 14 4 15 5 12 7 13 8 11 9 9 10 10 11 7 13 8 14
REMARK SMILES IDX 6 15 5 16 1 17 2 18 3 19 78 20 4 21 74 23 75 24 76 25 77 26
REMARK SMILES IDX 19 27 20 28 21 29 22 30 23 31 24 32 25 34 26 35 27 36 73 37
REMARK SMILES IDX 28 38 72 39 29 40 30 41 31 42 66 43 32 44 71 45 65 46 67 47
REMARK SMILES IDX 33 48 70 49 64 50 63 51 34 53 56 54 41 55 55 56 42 57 45 58
REMARK SMILES IDX 54 59 68 60 43 61 44 62 53 64 69 65 46 66 35 67 36 68 40 69
REMARK SMILES IDX 37 70 39 71 38 72 57 73 58 74 62 75 59 76 61 77 60 78 47 79
REMARK SMILES IDX 48 80 52 81 49 82 51 83 50 84
REMARK H PARENT 16 6 11 12 4 22 23 33 67 52 45 63
REMARK Flexibility Score: inf
ROOT
ATOM      1  C   UNL     1       6.585   3.778   4.769  1.00  0.00     0.021 C 
ENDROOT
BRANCH   1   2
ATOM      2  C   UNL     1       6.759   4.859   3.697  1.00  0.00     0.116 C 
BRANCH   2   3
ATOM      3  N   UNL     1       6.530   4.290   2.375  1.00  0.00    -0.354 N 
ATOM      4  C   UNL     1       5.461   4.412   1.518  1.00  0.00     0.255 C 
ATOM      5  O   UNL     1       5.295   3.471   0.740  1.00  0.00    -0.272 OA
ATOM      6  H   UNL     1       7.263   3.725   2.040  1.00  0.00     0.163 HD
BRANCH   4   7
ATOM      7  C   UNL     1       4.488   5.613   1.616  1.00  0.00     0.213 C 
ATOM      8  C   UNL     1       3.719   5.463   2.969  1.00  0.00     0.056 C 
BRANCH   7   9
ATOM      9  N   UNL     1       5.375   6.834   1.701  1.00  0.00    -0.316 N 
ATOM     10  C   UNL     1       6.177   7.564   0.913  1.00  0.00     0.318 C 
ATOM     11  O   UNL     1       6.777   8.465   1.515  1.00  0.00    -0.249 OA
ATOM     12  H   UNL     1       5.360   7.206   2.612  1.00  0.00     0.166 HD
BRANCH  10  13
ATOM     13  N   UNL     1       6.354   7.384  -0.422  1.00  0.00    -0.320 N 
ATOM     14  C   UNL     1       5.940   6.288  -1.274  1.00  0.00     0.149 C 
BRANCH  13  15
ATOM     15  C   UNL     1       7.079   8.443  -1.132  1.00  0.00     0.197 C 
BRANCH  15  16
ATOM     16  C   UNL     1       6.339   9.736  -1.114  1.00  0.00     0.144 A 
ATOM     17  C   UNL     1       3.710  12.079  -1.368  1.00  0.00     0.092 C 
ATOM     18  C   UNL     1       4.979  11.344  -1.199  1.00  0.00     0.147 A 
ATOM     19  N   UNL     1       6.100  11.934  -0.769  1.00  0.00    -0.159 NA
ATOM     20  N   UNL     1       5.095  10.002  -1.459  1.00  0.00    -0.215 NA
ATOM     21  N   UNL     1       6.936  10.889  -0.692  1.00  0.00    -0.262 N 
ATOM     22  H   UNL     1       7.865  10.946  -0.370  1.00  0.00     0.192 HD
ENDBRANCH  15  16
ENDBRANCH  13  15
ENDBRANCH  10  13
ENDBRANCH   7   9
BRANCH   7  23
ATOM     23  C   UNL     1       3.432   5.646   0.468  1.00  0.00     0.420 C 
ATOM     24  F   UNL     1       3.728   4.902  -0.616  1.00  0.00    -0.168 F 
ATOM     25  F   UNL     1       2.204   5.230   0.871  1.00  0.00    -0.168 F 
ATOM     26  F   UNL     1       3.254   6.919   0.025  1.00  0.00    -0.168 F 
ENDBRANCH   7  23
ENDBRANCH   4   7
ENDBRANCH   2   3
ENDBRANCH   1   2
BRANCH   1  27
ATOM     27  C   UNL     1       7.766   2.807   4.867  1.00  0.00     0.002 C 
BRANCH  27  28
ATOM     28  C   UNL     1       9.127   3.442   5.197  1.00  0.00     0.002 C 
BRANCH  28  29
ATOM     29  C   UNL     1       9.184   4.348   6.437  1.00  0.00     0.021 C 
BRANCH  29  30
ATOM     30  C   UNL     1       8.892   3.633   7.747  1.00  0.00     0.116 C 
BRANCH  30  31
ATOM     31  N   UNL     1       9.898   2.620   8.082  1.00  0.00    -0.352 N 
ATOM     32  C   UNL     1       9.912   1.711   9.129  1.00  0.00     0.251 C 
ATOM     33  H   UNL     1      10.674   2.580   7.477  1.00  0.00     0.163 HD
ATOM     34  O   UNL     1      10.952   1.199   9.503  1.00  0.00    -0.269 OA
BRANCH  32  35
ATOM     35  C   UNL     1       8.634   1.361   9.777  1.00  0.00     0.039 A 
ATOM     36  C   UNL     1       8.532   1.075  11.142  1.00  0.00     0.014 A 
ATOM     37  C   UNL     1       7.507   1.332   8.967  1.00  0.00     0.014 A 
ATOM     38  C   UNL     1       7.269   0.818  11.677  1.00  0.00     0.010 A 
ATOM     39  C   UNL     1       6.267   1.341   9.530  1.00  0.00     0.010 A 
ATOM     40  C   UNL     1       6.141   0.961  10.855  1.00  0.00    -0.014 A 
BRANCH  40  41
ATOM     41  C   UNL     1       4.784   0.780  11.341  1.00  0.00     0.031 A 
ATOM     42  C   UNL     1       4.400   1.696  12.437  1.00  0.00     0.074 A 
ATOM     43  C   UNL     1       3.869   0.043  10.672  1.00  0.00     0.049 A 
ATOM     44  N   UNL     1       4.181   1.392  13.671  1.00  0.00    -0.248 NA
ATOM     45  C   UNL     1       4.393   3.143  12.163  1.00  0.00     0.031 C 
ATOM     46  C   UNL     1       3.998  -0.631   9.371  1.00  0.00     0.029 A 
ATOM     47  N   UNL     1       2.558  -0.148  10.968  1.00  0.00    -0.354 N 
ATOM     48  C   UNL     1       3.803   2.577  14.291  1.00  0.00     0.074 A 
ATOM     49  C   UNL     1       4.147   3.637  13.377  1.00  0.00     0.031 C 
ATOM     50  C   UNL     1       2.770  -0.934   8.892  1.00  0.00     0.029 A 
ATOM     51  C   UNL     1       1.790  -0.642   9.920  1.00  0.00     0.049 A 
ATOM     52  H   UNL     1       2.181   0.048  11.856  1.00  0.00     0.167 HD
ATOM     53  C   UNL     1       2.990   2.570  15.385  1.00  0.00     0.031 A 
ATOM     54  C   UNL     1       0.439  -0.766   9.901  1.00  0.00     0.031 A 
ATOM     55  C   UNL     1       2.872   1.246  15.947  1.00  0.00     0.049 A 
ATOM     56  C   UNL     1      -0.021  -0.724  11.309  1.00  0.00     0.074 A 
ATOM     57  C   UNL     1       3.765   0.317  16.447  1.00  0.00     0.029 A 
ATOM     58  N   UNL     1       1.727   0.542  15.652  1.00  0.00    -0.354 N 
ATOM     59  N   UNL     1       0.241  -1.659  12.175  1.00  0.00    -0.248 NA
ATOM     60  C   UNL     1      -0.368   0.571  11.873  1.00  0.00     0.031 C 
ATOM     61  C   UNL     1       3.296  -0.939  15.957  1.00  0.00     0.029 A 
ATOM     62  C   UNL     1       2.107  -0.716  15.261  1.00  0.00     0.049 A 
ATOM     63  H   UNL     1       0.804   0.879  15.712  1.00  0.00     0.167 HD
ATOM     64  C   UNL     1       0.536  -0.979  13.348  1.00  0.00     0.074 A 
ATOM     65  C   UNL     1       0.045   0.382  13.130  1.00  0.00     0.031 C 
ATOM     66  C   UNL     1       1.409  -1.496  14.263  1.00  0.00     0.031 A 
BRANCH  53  67
ATOM     67  C   UNL     1       1.974   3.647  15.677  1.00  0.00    -0.014 A 
ATOM     68  C   UNL     1       1.200   3.536  16.847  1.00  0.00     0.009 A 
ATOM     69  C   UNL     1       1.551   4.599  14.730  1.00  0.00     0.009 A 
ATOM     70  C   UNL     1       0.022   4.273  17.015  1.00  0.00     0.001 A 
ATOM     71  C   UNL     1       0.399   5.368  14.914  1.00  0.00     0.001 A 
ATOM     72  C   UNL     1      -0.383   5.181  16.043  1.00  0.00     0.000 A 
ENDBRANCH  53  67
BRANCH  54  73
ATOM     73  C   UNL     1      -0.509  -0.661   8.771  1.00  0.00    -0.014 A 
ATOM     74  C   UNL     1      -1.830  -1.119   8.907  1.00  0.00     0.009 A 
ATOM     75  C   UNL     1      -0.210   0.155   7.665  1.00  0.00     0.009 A 
ATOM     76  C   UNL     1      -2.827  -0.728   8.002  1.00  0.00     0.001 A 
ATOM     77  C   UNL     1      -1.206   0.542   6.760  1.00  0.00     0.001 A 
ATOM     78  C   UNL     1      -2.518   0.117   6.940  1.00  0.00     0.000 A 
ENDBRANCH  54  73
BRANCH  66  79
ATOM     79  C   UNL     1       1.876  -2.921  14.072  1.00  0.00    -0.014 A 
ATOM     80  C   UNL     1       2.576  -3.360  12.932  1.00  0.00     0.009 A 
ATOM     81  C   UNL     1       1.735  -3.812  15.145  1.00  0.00     0.009 A 
ATOM     82  C   UNL     1       3.088  -4.660  12.860  1.00  0.00     0.001 A 
ATOM     83  C   UNL     1       2.265  -5.103  15.081  1.00  0.00     0.001 A 
ATOM     84  C   UNL     1       2.936  -5.529  13.937  1.00  0.00     0.000 A 
ENDBRANCH  66  79
ENDBRANCH  40  41
ENDBRANCH  32  35
ENDBRANCH  30  31
ENDBRANCH  29  30
ENDBRANCH  28  29
ENDBRANCH  27  28
ENDBRANCH   1  27
TORSDOF 18
