REMARK SMILES CC1(C)CCC(CCCO)(C(=O)NCCCCCCNC(=O)c2ccc(-c3c4nc(c(-c5ccccc5)c5ccc([nH]5)c(-c5ccccc5)c5nc(c(-c6ccccc6)c6ccc3[nH]6)C=C5)C=C4)cc2)CC1
REMARK SMILES IDX 15 1 14 2 13 3 11 4 12 5 6 7 1 8 2 9 3 10 4 11 72 12 5 13
REMARK SMILES IDX 71 14 7 15 8 16 9 17 10 18 16 20 17 21 18 22 19 23 20 24
REMARK SMILES IDX 21 25 22 27 23 28 24 29 70 30 25 31 69 32 26 33 27 34 28 35
REMARK SMILES IDX 63 36 29 37 68 38 62 39 64 40 30 41 67 42 61 43 60 44 31 46
REMARK SMILES IDX 53 47 38 48 52 49 39 50 42 51 51 52 65 53 40 54 41 55 50 57
REMARK SMILES IDX 66 58 43 59 32 60 33 61 37 62 34 63 36 64 35 65 54 66 55 67
REMARK SMILES IDX 59 68 56 69 58 70 57 71 44 72 45 73 49 74 46 75 48 76 47 77
REMARK H PARENT 13 6 10 19 20 26 64 45 42 56
REMARK Flexibility Score: inf
ROOT
ATOM      1  C   UNL     1      -1.479   6.544   1.712  1.00  0.00     0.021 C 
ENDROOT
BRANCH   1   2
ATOM      2  C   UNL     1      -0.848   5.386   2.478  1.00  0.00     0.116 C 
BRANCH   2   3
ATOM      3  N   UNL     1      -1.624   4.169   2.387  1.00  0.00    -0.356 N 
ATOM      4  C   UNL     1      -1.344   2.863   2.596  1.00  0.00     0.226 C 
ATOM      5  O   UNL     1      -2.347   2.157   2.770  1.00  0.00    -0.274 OA
ATOM      6  H   UNL     1      -2.557   4.325   2.114  1.00  0.00     0.163 HD
BRANCH   4   7
ATOM      7  C   UNL     1       0.070   2.246   2.720  1.00  0.00     0.049 C 
ATOM      8  C   UNL     1       2.033   0.613  -0.178  1.00  0.00     0.011 C 
ATOM      9  C   UNL     1       0.723   1.427  -0.168  1.00  0.00    -0.035 C 
ATOM     10  C   UNL     1       0.230   1.533  -1.624  1.00  0.00     0.011 C 
ATOM     11  C   UNL     1      -0.341   0.705   0.683  1.00  0.00     0.007 C 
ATOM     12  C   UNL     1       0.960   2.851   0.386  1.00  0.00     0.007 C 
ATOM     13  C   UNL     1      -0.061   0.774   2.193  1.00  0.00     0.017 C 
ATOM     14  C   UNL     1       1.216   2.873   1.896  1.00  0.00     0.017 C 
BRANCH   7  15
ATOM     15  C   UNL     1       0.479   2.148   4.222  1.00  0.00     0.019 C 
BRANCH  15  16
ATOM     16  C   UNL     1       0.433   3.424   5.076  1.00  0.00     0.029 C 
BRANCH  16  17
ATOM     17  C   UNL     1      -0.915   3.728   5.731  1.00  0.00     0.156 C 
BRANCH  17  18
ATOM     18  O   UNL     1      -1.361   2.633   6.516  1.00  0.00    -0.396 OA
ATOM     19  H   UNL     1      -1.472   1.853   5.950  1.00  0.00     0.210 HD
ENDBRANCH  17  18
ENDBRANCH  16  17
ENDBRANCH  15  16
ENDBRANCH   7  15
ENDBRANCH   4   7
ENDBRANCH   2   3
ENDBRANCH   1   2
BRANCH   1  20
ATOM     20  C   UNL     1      -2.892   6.943   2.152  1.00  0.00     0.002 C 
BRANCH  20  21
ATOM     21  C   UNL     1      -3.092   7.187   3.650  1.00  0.00     0.002 C 
BRANCH  21  22
ATOM     22  C   UNL     1      -2.135   8.186   4.300  1.00  0.00     0.021 C 
BRANCH  22  23
ATOM     23  C   UNL     1      -2.008   9.527   3.590  1.00  0.00     0.116 C 
BRANCH  23  24
ATOM     24  N   UNL     1      -3.273  10.230   3.471  1.00  0.00    -0.352 N 
ATOM     25  C   UNL     1      -3.537  11.563   3.664  1.00  0.00     0.251 C 
ATOM     26  H   UNL     1      -4.045   9.676   3.217  1.00  0.00     0.163 HD
ATOM     27  O   UNL     1      -4.693  11.977   3.637  1.00  0.00    -0.269 OA
BRANCH  25  28
ATOM     28  C   UNL     1      -2.425  12.496   3.941  1.00  0.00     0.039 A 
ATOM     29  C   UNL     1      -2.562  13.411   4.987  1.00  0.00     0.014 A 
ATOM     30  C   UNL     1      -1.251  12.464   3.182  1.00  0.00     0.014 A 
ATOM     31  C   UNL     1      -1.500  14.256   5.309  1.00  0.00     0.010 A 
ATOM     32  C   UNL     1      -0.166  13.252   3.554  1.00  0.00     0.010 A 
ATOM     33  C   UNL     1      -0.282  14.162   4.615  1.00  0.00    -0.014 A 
BRANCH  33  34
ATOM     34  C   UNL     1       0.875  15.019   4.977  1.00  0.00     0.031 A 
ATOM     35  C   UNL     1       1.409  16.020   3.989  1.00  0.00     0.074 A 
ATOM     36  C   UNL     1       1.474  14.864   6.174  1.00  0.00     0.049 A 
ATOM     37  N   UNL     1       2.441  16.818   4.100  1.00  0.00    -0.248 NA
ATOM     38  C   UNL     1       0.708  16.121   2.699  1.00  0.00     0.031 C 
ATOM     39  C   UNL     1       1.074  13.905   7.205  1.00  0.00     0.029 A 
ATOM     40  N   UNL     1       2.553  15.511   6.723  1.00  0.00    -0.354 N 
ATOM     41  C   UNL     1       2.516  17.506   2.895  1.00  0.00     0.074 A 
ATOM     42  C   UNL     1       1.465  16.990   2.046  1.00  0.00     0.031 C 
ATOM     43  C   UNL     1       1.880  14.043   8.270  1.00  0.00     0.029 A 
ATOM     44  C   UNL     1       2.878  15.067   7.982  1.00  0.00     0.049 A 
ATOM     45  H   UNL     1       3.047  16.224   6.258  1.00  0.00     0.167 HD
ATOM     46  C   UNL     1       3.366  18.496   2.534  1.00  0.00     0.031 A 
ATOM     47  C   UNL     1       3.875  15.437   8.808  1.00  0.00     0.031 A 
ATOM     48  C   UNL     1       4.409  19.012   3.379  1.00  0.00     0.049 A 
ATOM     49  C   UNL     1       4.824  16.521   8.373  1.00  0.00     0.074 A 
ATOM     50  C   UNL     1       5.300  20.039   3.119  1.00  0.00     0.029 A 
ATOM     51  N   UNL     1       4.702  18.540   4.649  1.00  0.00    -0.354 N 
ATOM     52  N   UNL     1       4.844  17.201   7.252  1.00  0.00    -0.248 NA
ATOM     53  C   UNL     1       5.879  16.897   9.325  1.00  0.00     0.031 C 
ATOM     54  C   UNL     1       6.166  20.153   4.211  1.00  0.00     0.029 A 
ATOM     55  C   UNL     1       5.772  19.241   5.178  1.00  0.00     0.049 A 
ATOM     56  H   UNL     1       4.220  17.814   5.107  1.00  0.00     0.167 HD
ATOM     57  C   UNL     1       5.891  18.105   7.377  1.00  0.00     0.074 A 
ATOM     58  C   UNL     1       6.469  17.899   8.689  1.00  0.00     0.031 C 
ATOM     59  C   UNL     1       6.334  19.025   6.486  1.00  0.00     0.031 A 
BRANCH  46  60
ATOM     60  C   UNL     1       3.200  19.087   1.161  1.00  0.00    -0.014 A 
ATOM     61  C   UNL     1       2.081  19.872   0.839  1.00  0.00     0.009 A 
ATOM     62  C   UNL     1       4.192  18.890   0.188  1.00  0.00     0.009 A 
ATOM     63  C   UNL     1       1.943  20.418  -0.439  1.00  0.00     0.001 A 
ATOM     64  C   UNL     1       4.067  19.463  -1.079  1.00  0.00     0.001 A 
ATOM     65  C   UNL     1       2.938  20.218  -1.395  1.00  0.00     0.000 A 
ENDBRANCH  46  60
BRANCH  47  66
ATOM     66  C   UNL     1       4.031  14.780  10.133  1.00  0.00    -0.014 A 
ATOM     67  C   UNL     1       3.796  15.493  11.319  1.00  0.00     0.009 A 
ATOM     68  C   UNL     1       4.437  13.439  10.220  1.00  0.00     0.009 A 
ATOM     69  C   UNL     1       3.998  14.888  12.562  1.00  0.00     0.001 A 
ATOM     70  C   UNL     1       4.605  12.826  11.463  1.00  0.00     0.001 A 
ATOM     71  C   UNL     1       4.398  13.554  12.633  1.00  0.00     0.000 A 
ENDBRANCH  47  66
BRANCH  59  72
ATOM     72  C   UNL     1       7.471  19.909   6.916  1.00  0.00    -0.014 A 
ATOM     73  C   UNL     1       8.776  19.410   7.054  1.00  0.00     0.009 A 
ATOM     74  C   UNL     1       7.237  21.275   7.145  1.00  0.00     0.009 A 
ATOM     75  C   UNL     1       9.815  20.255   7.449  1.00  0.00     0.001 A 
ATOM     76  C   UNL     1       8.284  22.123   7.507  1.00  0.00     0.001 A 
ATOM     77  C   UNL     1       9.570  21.610   7.670  1.00  0.00     0.000 A 
ENDBRANCH  59  72
ENDBRANCH  33  34
ENDBRANCH  25  28
ENDBRANCH  23  24
ENDBRANCH  22  23
ENDBRANCH  21  22
ENDBRANCH  20  21
ENDBRANCH   1  20
TORSDOF 17
