REMARK SMILES Cc1ccc2[nH]c3c(=O)n(CC(=O)NCCCCCCNC(=O)c4ccc(-c5c6nc(c(-c7ccccc7)c7ccc([nH]7)c(-c7ccccc7)c7nc(c(-c8ccccc8)c8ccc5[nH]8)C=C7)C=C6)cc4)cnc3c2c1
REMARK SMILES IDX 18 1 17 2 16 3 15 4 14 5 12 6 13 7 11 9 10 10 1 11 2 12 3 13
REMARK SMILES IDX 76 14 4 15 75 16 5 17 74 18 6 19 7 20 73 21 8 23 72 24 9 25
REMARK SMILES IDX 19 26 20 27 21 28 22 29 23 31 24 32 25 33 71 34 26 35 70 36
REMARK SMILES IDX 27 37 28 38 29 39 64 40 30 41 69 42 63 43 65 44 31 45 68 46
REMARK SMILES IDX 62 47 61 48 32 50 54 51 39 52 53 53 40 54 43 55 52 56 66 57
REMARK SMILES IDX 41 58 42 59 51 61 67 62 44 63 33 64 34 65 38 66 35 67 37 68
REMARK SMILES IDX 36 69 55 70 56 71 60 72 57 73 59 74 58 75 45 76 46 77 50 78
REMARK SMILES IDX 47 79 49 80 48 81
REMARK H PARENT 14 8 6 22 21 30 65 49 43 60
REMARK Flexibility Score: inf
ROOT
ATOM      1  C   UNL     1       1.532   2.595   9.780  1.00  0.00     0.002 C 
ENDROOT
BRANCH   1   2
ATOM      2  C   UNL     1       1.409   3.340   8.444  1.00  0.00     0.002 C 
BRANCH   2   3
ATOM      3  C   UNL     1       0.210   2.934   7.577  1.00  0.00     0.021 C 
BRANCH   3   4
ATOM      4  C   UNL     1      -1.141   3.171   8.246  1.00  0.00     0.116 C 
BRANCH   4   5
ATOM      5  N   UNL     1      -1.453   4.581   8.341  1.00  0.00    -0.355 N 
ATOM      6  C   UNL     1      -2.421   5.314   7.720  1.00  0.00     0.240 C 
ATOM      7  O   UNL     1      -2.619   6.457   8.141  1.00  0.00    -0.273 OA
ATOM      8  H   UNL     1      -0.874   5.093   8.951  1.00  0.00     0.163 HD
BRANCH   6   9
ATOM      9  C   UNL     1      -3.344   4.694   6.665  1.00  0.00     0.226 C 
BRANCH   9  10
ATOM     10  N   UNL     1      -2.638   4.079   5.552  1.00  0.00    -0.288 N 
ATOM     11  C   UNL     1       0.884  -0.104  -0.026  1.00  0.00     0.044 C 
ATOM     12  C   UNL     1       0.543   1.190   0.653  1.00  0.00    -0.050 A 
ATOM     13  C   UNL     1       1.055   2.390   0.145  1.00  0.00     0.005 A 
ATOM     14  C   UNL     1      -0.290   1.209   1.785  1.00  0.00     0.016 A 
ATOM     15  C   UNL     1       0.770   3.621   0.744  1.00  0.00     0.027 A 
ATOM     16  C   UNL     1      -0.594   2.437   2.407  1.00  0.00     0.026 A 
ATOM     17  C   UNL     1      -0.052   3.615   1.875  1.00  0.00     0.048 A 
ATOM     18  C   UNL     1      -1.371   2.835   3.516  1.00  0.00     0.103 A 
ATOM     19  N   UNL     1      -0.489   4.665   2.658  1.00  0.00    -0.349 N 
ATOM     20  C   UNL     1      -1.287   4.190   3.658  1.00  0.00     0.132 A 
ATOM     21  N   UNL     1      -2.144   2.039   4.364  1.00  0.00    -0.236 NA
ATOM     22  H   UNL     1      -0.260   5.612   2.516  1.00  0.00     0.167 HD
ATOM     23  C   UNL     1      -1.944   4.913   4.687  1.00  0.00     0.278 A 
ATOM     24  C   UNL     1      -2.732   2.716   5.303  1.00  0.00     0.203 A 
ATOM     25  O   UNL     1      -1.892   6.139   4.788  1.00  0.00    -0.267 OA
ENDBRANCH   9  10
ENDBRANCH   6   9
ENDBRANCH   4   5
ENDBRANCH   3   4
ENDBRANCH   2   3
ENDBRANCH   1   2
BRANCH   1  26
ATOM     26  C   UNL     1       1.588   1.065   9.677  1.00  0.00     0.021 C 
BRANCH  26  27
ATOM     27  C   UNL     1       2.725   0.535   8.803  1.00  0.00     0.116 C 
BRANCH  27  28
ATOM     28  N   UNL     1       4.039   0.946   9.253  1.00  0.00    -0.352 N 
ATOM     29  C   UNL     1       4.958   0.452  10.133  1.00  0.00     0.251 C 
ATOM     30  H   UNL     1       4.340   1.779   8.822  1.00  0.00     0.163 HD
ATOM     31  O   UNL     1       6.050   1.026  10.155  1.00  0.00    -0.269 OA
BRANCH  29  32
ATOM     32  C   UNL     1       4.718  -0.650  11.104  1.00  0.00     0.039 A 
ATOM     33  C   UNL     1       3.563  -1.426  11.194  1.00  0.00     0.014 A 
ATOM     34  C   UNL     1       5.738  -0.853  12.056  1.00  0.00     0.014 A 
ATOM     35  C   UNL     1       3.377  -2.278  12.278  1.00  0.00     0.010 A 
ATOM     36  C   UNL     1       5.566  -1.716  13.130  1.00  0.00     0.010 A 
ATOM     37  C   UNL     1       4.356  -2.381  13.273  1.00  0.00    -0.014 A 
BRANCH  37  38
ATOM     38  C   UNL     1       4.121  -3.305  14.378  1.00  0.00     0.031 A 
ATOM     39  C   UNL     1       3.935  -4.715  13.945  1.00  0.00     0.074 A 
ATOM     40  C   UNL     1       4.140  -2.956  15.681  1.00  0.00     0.049 A 
ATOM     41  N   UNL     1       2.853  -5.417  14.015  1.00  0.00    -0.248 NA
ATOM     42  C   UNL     1       5.029  -5.369  13.211  1.00  0.00     0.031 C 
ATOM     43  C   UNL     1       4.547  -1.677  16.268  1.00  0.00     0.029 A 
ATOM     44  N   UNL     1       3.881  -3.722  16.782  1.00  0.00    -0.354 N 
ATOM     45  C   UNL     1       3.177  -6.672  13.510  1.00  0.00     0.074 A 
ATOM     46  C   UNL     1       4.470  -6.536  12.889  1.00  0.00     0.031 C 
ATOM     47  C   UNL     1       4.744  -1.834  17.599  1.00  0.00     0.029 A 
ATOM     48  C   UNL     1       4.328  -3.173  17.980  1.00  0.00     0.049 A 
ATOM     49  H   UNL     1       3.418  -4.590  16.732  1.00  0.00     0.167 HD
ATOM     50  C   UNL     1       2.463  -7.776  13.864  1.00  0.00     0.031 A 
ATOM     51  C   UNL     1       4.393  -3.791  19.187  1.00  0.00     0.031 A 
ATOM     52  C   UNL     1       1.189  -7.419  14.433  1.00  0.00     0.049 A 
ATOM     53  C   UNL     1       3.453  -4.931  19.153  1.00  0.00     0.074 A 
ATOM     54  C   UNL     1       0.060  -6.766  13.986  1.00  0.00     0.029 A 
ATOM     55  N   UNL     1       1.109  -7.432  15.803  1.00  0.00    -0.354 N 
ATOM     56  N   UNL     1       2.161  -4.799  19.097  1.00  0.00    -0.248 NA
ATOM     57  C   UNL     1       3.971  -6.229  18.756  1.00  0.00     0.031 C 
ATOM     58  C   UNL     1      -0.412  -6.032  15.113  1.00  0.00     0.029 A 
ATOM     59  C   UNL     1       0.406  -6.331  16.204  1.00  0.00     0.049 A 
ATOM     60  H   UNL     1       1.493  -8.118  16.396  1.00  0.00     0.167 HD
ATOM     61  C   UNL     1       1.750  -5.800  18.232  1.00  0.00     0.074 A 
ATOM     62  C   UNL     1       2.888  -6.715  18.145  1.00  0.00     0.031 C 
ATOM     63  C   UNL     1       0.640  -5.638  17.453  1.00  0.00     0.031 A 
BRANCH  50  64
ATOM     64  C   UNL     1       3.099  -9.121  14.136  1.00  0.00    -0.014 A 
ATOM     65  C   UNL     1       4.488  -9.320  14.239  1.00  0.00     0.009 A 
ATOM     66  C   UNL     1       2.280 -10.163  14.613  1.00  0.00     0.009 A 
ATOM     67  C   UNL     1       5.033 -10.461  14.836  1.00  0.00     0.001 A 
ATOM     68  C   UNL     1       2.820 -11.287  15.250  1.00  0.00     0.001 A 
ATOM     69  C   UNL     1       4.197 -11.429  15.371  1.00  0.00     0.000 A 
ENDBRANCH  50  64
BRANCH  51  70
ATOM     70  C   UNL     1       5.471  -3.723  20.204  1.00  0.00    -0.014 A 
ATOM     71  C   UNL     1       6.790  -3.434  19.813  1.00  0.00     0.009 A 
ATOM     72  C   UNL     1       5.276  -4.263  21.489  1.00  0.00     0.009 A 
ATOM     73  C   UNL     1       7.876  -3.727  20.647  1.00  0.00     0.001 A 
ATOM     74  C   UNL     1       6.364  -4.557  22.323  1.00  0.00     0.001 A 
ATOM     75  C   UNL     1       7.665  -4.306  21.893  1.00  0.00     0.000 A 
ENDBRANCH  51  70
BRANCH  63  76
ATOM     76  C   UNL     1      -0.298  -4.495  17.760  1.00  0.00    -0.014 A 
ATOM     77  C   UNL     1      -1.662  -4.798  17.901  1.00  0.00     0.009 A 
ATOM     78  C   UNL     1       0.083  -3.143  17.730  1.00  0.00     0.009 A 
ATOM     79  C   UNL     1      -2.620  -3.787  17.985  1.00  0.00     0.001 A 
ATOM     80  C   UNL     1      -0.875  -2.128  17.844  1.00  0.00     0.001 A 
ATOM     81  C   UNL     1      -2.227  -2.452  17.957  1.00  0.00     0.000 A 
ENDBRANCH  63  76
ENDBRANCH  37  38
ENDBRANCH  29  32
ENDBRANCH  27  28
ENDBRANCH  26  27
ENDBRANCH   1  26
TORSDOF 14
