REMARK SMILES Cc1ccc(NS(=O)(=O)N2CCCC[C@@H]2C(=O)NCCCCCCNC(=O)c2ccc(-c3c4nc(c(-c5ccccc5)c5ccc([nH]5)c(-c5ccccc5)c5nc(c(-c6ccccc6)c6ccc3[nH]6)C=C5)C=C4)cc2)c(C)n1
REMARK SMILES IDX 21 1 20 2 19 3 18 4 16 5 17 6 15 8 10 9 11 10 12 11 14 12
REMARK SMILES IDX 13 13 7 14 8 15 9 16 6 17 5 19 1 20 2 21 3 22 78 23 4 24
REMARK SMILES IDX 76 25 77 26 22 27 23 28 24 29 25 30 26 31 27 33 28 34 29 35
REMARK SMILES IDX 75 36 30 37 74 38 31 39 32 40 33 41 68 42 34 43 73 44 67 45
REMARK SMILES IDX 69 46 35 47 72 48 66 49 65 50 36 52 58 53 43 54 57 55 44 56
REMARK SMILES IDX 47 57 56 58 70 59 45 60 46 61 55 63 71 64 48 65 37 66 38 67
REMARK SMILES IDX 42 68 39 69 41 70 40 71 59 72 60 73 64 74 61 75 63 76 62 77
REMARK SMILES IDX 49 78 50 79 54 80 51 81 53 82 52 83
REMARK H PARENT 18 7 6 18 25 32 69 51 47 62
REMARK Flexibility Score: inf
ROOT
ATOM      1  C   UNL     1      -2.608   0.411  -1.458  1.00  0.00     0.002 C 
ENDROOT
BRANCH   1   2
ATOM      2  C   UNL     1      -1.593   1.595  -1.450  1.00  0.00     0.021 C 
BRANCH   2   3
ATOM      3  C   UNL     1      -0.018   1.582  -1.402  1.00  0.00     0.116 C 
BRANCH   3   4
ATOM      4  N   UNL     1       0.736   0.600  -2.166  1.00  0.00    -0.355 N 
ATOM      5  C   UNL     1       2.085   0.378  -2.340  1.00  0.00     0.238 C 
ATOM      6  O   UNL     1       2.332  -0.659  -2.977  1.00  0.00    -0.273 OA
ATOM      7  H   UNL     1       0.167  -0.034  -2.660  1.00  0.00     0.163 HD
BRANCH   5   8
ATOM      8  C   UNL     1       3.288   1.262  -1.839  1.00  0.00     0.163 C 
ATOM      9  N   UNL     1       3.998   0.827  -0.561  1.00  0.00    -0.172 NA
ATOM     10  C   UNL     1       5.130   1.744  -0.179  1.00  0.00     0.105 C 
ATOM     11  C   UNL     1       4.639   3.167  -0.010  1.00  0.00     0.017 C 
ATOM     12  C   UNL     1       2.979   2.773  -1.815  1.00  0.00     0.030 C 
ATOM     13  C   UNL     1       4.132   3.662  -1.346  1.00  0.00     0.004 C 
BRANCH   9  14
ATOM     14  S   UNL     1       4.563  -0.793  -0.493  1.00  0.00     0.302 S 
ATOM     15  O   UNL     1       5.501  -0.911   0.595  1.00  0.00    -0.189 OA
ATOM     16  O   UNL     1       4.965  -1.204  -1.820  1.00  0.00    -0.189 OA
BRANCH  14  17
ATOM     17  N   UNL     1       3.239  -1.673  -0.046  1.00  0.00    -0.269 N 
ATOM     18  H   UNL     1       3.172  -2.604  -0.359  1.00  0.00     0.181 HD
BRANCH  17  19
ATOM     19  C   UNL     1       2.189  -1.158   0.766  1.00  0.00     0.071 A 
ATOM     20  C   UNL     1      -0.885   1.361   1.926  1.00  0.00     0.067 C 
ATOM     21  C   UNL     1       0.003   0.175   1.739  1.00  0.00     0.038 A 
ATOM     22  C   UNL     1      -0.182  -0.840   0.815  1.00  0.00     0.026 A 
ATOM     23  N   UNL     1       1.167   0.337   2.353  1.00  0.00    -0.256 NA
ATOM     24  C   UNL     1       0.919  -1.545   0.354  1.00  0.00     0.030 A 
ATOM     25  C   UNL     1       2.263  -0.271   1.849  1.00  0.00     0.062 A 
ATOM     26  C   UNL     1       3.456   0.352   2.468  1.00  0.00     0.069 C 
ENDBRANCH  17  19
ENDBRANCH  14  17
ENDBRANCH   9  14
ENDBRANCH   5   8
ENDBRANCH   3   4
ENDBRANCH   2   3
ENDBRANCH   1   2
BRANCH   1  27
ATOM     27  C   UNL     1      -3.369  -0.417  -0.357  1.00  0.00     0.002 C 
BRANCH  27  28
ATOM     28  C   UNL     1      -3.572  -0.161   1.148  1.00  0.00     0.021 C 
BRANCH  28  29
ATOM     29  C   UNL     1      -4.301   1.107   1.570  1.00  0.00     0.116 C 
BRANCH  29  30
ATOM     30  N   UNL     1      -5.733   0.927   1.410  1.00  0.00    -0.352 N 
ATOM     31  C   UNL     1      -6.711   1.034   2.369  1.00  0.00     0.251 C 
ATOM     32  H   UNL     1      -6.041   0.700   0.503  1.00  0.00     0.163 HD
ATOM     33  O   UNL     1      -7.787   0.463   2.218  1.00  0.00    -0.269 OA
BRANCH  31  34
ATOM     34  C   UNL     1      -6.481   1.867   3.570  1.00  0.00     0.039 A 
ATOM     35  C   UNL     1      -6.975   1.443   4.807  1.00  0.00     0.014 A 
ATOM     36  C   UNL     1      -5.856   3.113   3.453  1.00  0.00     0.014 A 
ATOM     37  C   UNL     1      -6.841   2.269   5.926  1.00  0.00     0.010 A 
ATOM     38  C   UNL     1      -5.670   3.909   4.580  1.00  0.00     0.010 A 
ATOM     39  C   UNL     1      -6.188   3.508   5.820  1.00  0.00    -0.014 A 
BRANCH  39  40
ATOM     40  C   UNL     1      -6.098   4.420   6.987  1.00  0.00     0.031 A 
ATOM     41  C   UNL     1      -6.840   5.731   6.973  1.00  0.00     0.074 A 
ATOM     42  C   UNL     1      -5.343   4.075   8.047  1.00  0.00     0.049 A 
ATOM     43  N   UNL     1      -6.891   6.662   7.892  1.00  0.00    -0.248 NA
ATOM     44  C   UNL     1      -7.612   6.047   5.759  1.00  0.00     0.031 C 
ATOM     45  C   UNL     1      -4.562   2.842   8.164  1.00  0.00     0.029 A 
ATOM     46  N   UNL     1      -5.117   4.725   9.234  1.00  0.00    -0.354 N 
ATOM     47  C   UNL     1      -7.695   7.667   7.367  1.00  0.00     0.074 A 
ATOM     48  C   UNL     1      -8.054   7.266   6.026  1.00  0.00     0.031 C 
ATOM     49  C   UNL     1      -3.977   2.805   9.372  1.00  0.00     0.029 A 
ATOM     50  C   UNL     1      -4.307   4.027  10.097  1.00  0.00     0.049 A 
ATOM     51  H   UNL     1      -5.500   5.607   9.447  1.00  0.00     0.167 HD
ATOM     52  C   UNL     1      -8.122   8.808   7.959  1.00  0.00     0.031 A 
ATOM     53  C   UNL     1      -3.881   4.342  11.335  1.00  0.00     0.031 A 
ATOM     54  C   UNL     1      -7.761   9.202   9.294  1.00  0.00     0.049 A 
ATOM     55  C   UNL     1      -4.331   5.640  11.949  1.00  0.00     0.074 A 
ATOM     56  C   UNL     1      -8.155  10.325   9.999  1.00  0.00     0.029 A 
ATOM     57  N   UNL     1      -6.919   8.480  10.126  1.00  0.00    -0.354 N 
ATOM     58  N   UNL     1      -5.138   6.552  11.461  1.00  0.00    -0.248 NA
ATOM     59  C   UNL     1      -3.821   5.946  13.293  1.00  0.00     0.031 C 
ATOM     60  C   UNL     1      -7.508  10.310  11.239  1.00  0.00     0.029 A 
ATOM     61  C   UNL     1      -6.764   9.143  11.330  1.00  0.00     0.049 A 
ATOM     62  H   UNL     1      -6.495   7.622   9.894  1.00  0.00     0.167 HD
ATOM     63  C   UNL     1      -5.261   7.518  12.451  1.00  0.00     0.074 A 
ATOM     64  C   UNL     1      -4.462   7.071  13.573  1.00  0.00     0.031 C 
ATOM     65  C   UNL     1      -5.971   8.673  12.436  1.00  0.00     0.031 A 
BRANCH  52  66
ATOM     66  C   UNL     1      -9.030   9.707   7.163  1.00  0.00    -0.014 A 
ATOM     67  C   UNL     1     -10.343   9.318   6.849  1.00  0.00     0.009 A 
ATOM     68  C   UNL     1      -8.585  10.973   6.754  1.00  0.00     0.009 A 
ATOM     69  C   UNL     1     -11.176  10.161   6.111  1.00  0.00     0.001 A 
ATOM     70  C   UNL     1      -9.431  11.828   6.044  1.00  0.00     0.001 A 
ATOM     71  C   UNL     1     -10.722  11.418   5.714  1.00  0.00     0.000 A 
ENDBRANCH  52  66
BRANCH  53  72
ATOM     72  C   UNL     1      -2.993   3.415  12.088  1.00  0.00    -0.014 A 
ATOM     73  C   UNL     1      -3.445   2.785  13.259  1.00  0.00     0.009 A 
ATOM     74  C   UNL     1      -1.676   3.182  11.663  1.00  0.00     0.009 A 
ATOM     75  C   UNL     1      -2.585   1.978  14.008  1.00  0.00     0.001 A 
ATOM     76  C   UNL     1      -0.829   2.346  12.394  1.00  0.00     0.001 A 
ATOM     77  C   UNL     1      -1.280   1.756  13.574  1.00  0.00     0.000 A 
ENDBRANCH  53  72
BRANCH  65  78
ATOM     78  C   UNL     1      -5.953   9.506  13.687  1.00  0.00    -0.014 A 
ATOM     79  C   UNL     1      -4.802  10.201  14.090  1.00  0.00     0.009 A 
ATOM     80  C   UNL     1      -7.124   9.627  14.453  1.00  0.00     0.009 A 
ATOM     81  C   UNL     1      -4.814  10.968  15.256  1.00  0.00     0.001 A 
ATOM     82  C   UNL     1      -7.143  10.422  15.598  1.00  0.00     0.001 A 
ATOM     83  C   UNL     1      -5.985  11.083  16.005  1.00  0.00     0.000 A 
ENDBRANCH  65  78
ENDBRANCH  39  40
ENDBRANCH  31  34
ENDBRANCH  29  30
ENDBRANCH  28  29
ENDBRANCH  27  28
ENDBRANCH   1  27
TORSDOF 16
