REMARK SMILES C[C@@]1(Oc2c[nH]c3ccc(Br)c(Cl)c23)O[C@@H](C(=O)NCCCCCCNC(=O)c2ccc(-c3c4nc(c(-c5ccccc5)c5ccc([nH]5)c(-c5ccccc5)c5nc(c(-c6ccccc6)c6ccc3[nH]6)C=C5)C=C4)cc2)[C@@](C)(O)[C@@](C)(O)[C@@]1(C)O
REMARK SMILES IDX 22 1 21 2 20 3 19 4 17 5 18 6 16 8 1 9 2 10 15 11 83 12
REMARK SMILES IDX 80 13 84 14 77 15 81 16 78 17 3 18 4 19 5 20 14 21 6 22 7 23
REMARK SMILES IDX 12 24 8 26 10 27 13 28 9 29 11 30 85 31 82 33 79 35 23 37
REMARK SMILES IDX 24 38 25 39 26 40 27 41 28 43 29 44 30 45 76 46 31 47 75 48
REMARK SMILES IDX 32 49 33 50 34 51 69 52 35 53 74 54 68 55 70 56 36 57 73 58
REMARK SMILES IDX 67 59 66 60 37 62 59 63 44 64 58 65 45 66 48 67 57 68 71 69
REMARK SMILES IDX 46 70 47 71 56 73 72 74 49 75 38 76 39 77 43 78 40 79 42 80
REMARK SMILES IDX 41 81 60 82 61 83 65 84 62 85 64 86 63 87 50 88 51 89 55 90
REMARK SMILES IDX 52 91 54 92 53 93
REMARK H PARENT 19 7 6 25 85 32 82 34 79 36 26 42 70 61 48 72
REMARK Flexibility Score: inf
ROOT
ATOM      1  C   UNL     1       4.426  -0.417  -2.774  1.00  0.00     0.002 C 
ENDROOT
BRANCH   1   2
ATOM      2  C   UNL     1       2.978  -0.904  -2.794  1.00  0.00     0.021 C 
BRANCH   2   3
ATOM      3  C   UNL     1       2.067  -0.229  -1.769  1.00  0.00     0.116 C 
BRANCH   3   4
ATOM      4  N   UNL     1       0.853   0.460  -2.224  1.00  0.00    -0.354 N 
ATOM      5  C   UNL     1      -0.449   0.494  -1.789  1.00  0.00     0.252 C 
ATOM      6  O   UNL     1      -1.112   1.441  -2.250  1.00  0.00    -0.272 OA
ATOM      7  H   UNL     1       1.007   1.022  -3.017  1.00  0.00     0.163 HD
BRANCH   5   8
ATOM      8  C   UNL     1      -1.268  -0.597  -0.888  1.00  0.00     0.246 C 
ATOM      9  C   UNL     1       1.046  -0.420   0.856  1.00  0.00     0.094 C 
ATOM     10  C   UNL     1       0.168  -1.704   0.717  1.00  0.00     0.240 C 
ATOM     11  O   UNL     1      -1.101  -1.051   0.495  1.00  0.00    -0.322 OA
ATOM     12  C   UNL     1       0.170  -2.948  -0.347  1.00  0.00     0.158 C 
ATOM     13  C   UNL     1      -0.425  -2.752  -1.823  1.00  0.00     0.128 C 
ATOM     14  C   UNL     1      -0.741  -4.093   0.201  1.00  0.00     0.053 C 
ATOM     15  C   UNL     1      -1.648  -1.800  -1.818  1.00  0.00     0.129 C 
ATOM     16  C   UNL     1      -0.621  -4.089  -2.595  1.00  0.00     0.049 C 
ATOM     17  C   UNL     1      -2.990  -2.413  -1.382  1.00  0.00     0.049 C 
BRANCH  10  18
ATOM     18  O   UNL     1       0.675  -2.083   2.069  1.00  0.00    -0.457 OA
BRANCH  18  19
ATOM     19  C   UNL     1       0.377  -3.183   2.766  1.00  0.00     0.150 A 
ATOM     20  C   UNL     1      -0.409  -3.093   3.887  1.00  0.00     0.130 A 
ATOM     21  C   UNL     1       0.860  -4.531   2.679  1.00  0.00     0.061 A 
ATOM     22  N   UNL     1      -0.656  -4.370   4.305  1.00  0.00    -0.358 N 
ATOM     23  C   UNL     1      -0.054  -5.263   3.446  1.00  0.00     0.051 A 
ATOM     24  C   UNL     1       1.809  -5.269   1.937  1.00  0.00     0.068 A 
ATOM     25  H   UNL     1      -1.183  -4.614   5.100  1.00  0.00     0.166 HD
ATOM     26  C   UNL     1      -0.241  -6.639   3.285  1.00  0.00     0.028 A 
ATOM     27  C   UNL     1       1.569  -6.620   1.663  1.00  0.00     0.037 A 
ATOM     28  Cl  UNL     1       3.236  -4.428   1.497  1.00  0.00    -0.082 Cl
ATOM     29  C   UNL     1       0.519  -7.282   2.301  1.00  0.00     0.019 A 
ATOM     30  Br  UNL     1       2.555  -7.572   0.347  1.00  0.00    -0.049 Br
ENDBRANCH  18  19
ENDBRANCH  10  18
BRANCH  12  31
ATOM     31  O   UNL     1       1.496  -3.457  -0.519  1.00  0.00    -0.380 OA
ATOM     32  H   UNL     1       2.071  -2.754  -0.859  1.00  0.00     0.211 HD
ENDBRANCH  12  31
BRANCH  13  33
ATOM     33  O   UNL     1       0.535  -2.150  -2.704  1.00  0.00    -0.384 OA
ATOM     34  H   UNL     1       0.781  -1.275  -2.365  1.00  0.00     0.211 HD
ENDBRANCH  13  33
BRANCH  15  35
ATOM     35  O   UNL     1      -1.866  -1.398  -3.195  1.00  0.00    -0.384 OA
ATOM     36  H   UNL     1      -1.056  -0.997  -3.547  1.00  0.00     0.211 HD
ENDBRANCH  15  35
ENDBRANCH   5   8
ENDBRANCH   3   4
ENDBRANCH   2   3
ENDBRANCH   1   2
BRANCH   1  37
ATOM     37  C   UNL     1       5.128  -0.347  -1.406  1.00  0.00     0.002 C 
BRANCH  37  38
ATOM     38  C   UNL     1       5.247  -1.647  -0.597  1.00  0.00     0.021 C 
BRANCH  38  39
ATOM     39  C   UNL     1       5.969  -2.771  -1.323  1.00  0.00     0.116 C 
BRANCH  39  40
ATOM     40  N   UNL     1       7.298  -2.369  -1.767  1.00  0.00    -0.352 N 
ATOM     41  C   UNL     1       8.276  -3.107  -2.388  1.00  0.00     0.251 C 
ATOM     42  H   UNL     1       7.530  -1.427  -1.596  1.00  0.00     0.163 HD
ATOM     43  O   UNL     1       9.427  -2.701  -2.425  1.00  0.00    -0.269 OA
BRANCH  41  44
ATOM     44  C   UNL     1       7.929  -4.389  -3.026  1.00  0.00     0.039 A 
ATOM     45  C   UNL     1       8.848  -5.442  -2.999  1.00  0.00     0.014 A 
ATOM     46  C   UNL     1       6.722  -4.514  -3.716  1.00  0.00     0.014 A 
ATOM     47  C   UNL     1       8.528  -6.629  -3.647  1.00  0.00     0.010 A 
ATOM     48  C   UNL     1       6.360  -5.718  -4.271  1.00  0.00     0.010 A 
ATOM     49  C   UNL     1       7.282  -6.755  -4.280  1.00  0.00    -0.014 A 
BRANCH  49  50
ATOM     50  C   UNL     1       6.898  -8.023  -4.872  1.00  0.00     0.031 A 
ATOM     51  C   UNL     1       6.854  -9.154  -3.912  1.00  0.00     0.074 A 
ATOM     52  C   UNL     1       6.468  -8.153  -6.143  1.00  0.00     0.049 A 
ATOM     53  N   UNL     1       7.644 -10.173  -3.875  1.00  0.00    -0.248 NA
ATOM     54  C   UNL     1       5.905  -9.084  -2.788  1.00  0.00     0.031 C 
ATOM     55  C   UNL     1       6.172  -7.111  -7.132  1.00  0.00     0.029 A 
ATOM     56  N   UNL     1       6.119  -9.292  -6.795  1.00  0.00    -0.354 N 
ATOM     57  C   UNL     1       7.204 -10.964  -2.822  1.00  0.00     0.074 A 
ATOM     58  C   UNL     1       6.219 -10.189  -2.108  1.00  0.00     0.031 C 
ATOM     59  C   UNL     1       5.487  -7.653  -8.167  1.00  0.00     0.029 A 
ATOM     60  C   UNL     1       5.450  -9.094  -7.996  1.00  0.00     0.049 A 
ATOM     61  H   UNL     1       6.324 -10.188  -6.443  1.00  0.00     0.167 HD
ATOM     62  C   UNL     1       7.537 -12.280  -2.733  1.00  0.00     0.031 A 
ATOM     63  C   UNL     1       4.895 -10.061  -8.767  1.00  0.00     0.031 A 
ATOM     64  C   UNL     1       8.624 -12.623  -3.611  1.00  0.00     0.049 A 
ATOM     65  C   UNL     1       5.572 -11.329  -8.408  1.00  0.00     0.074 A 
ATOM     66  C   UNL     1       9.950 -12.249  -3.703  1.00  0.00     0.029 A 
ATOM     67  N   UNL     1       8.293 -13.152  -4.835  1.00  0.00    -0.354 N 
ATOM     68  N   UNL     1       6.831 -11.562  -8.641  1.00  0.00    -0.248 NA
ATOM     69  C   UNL     1       4.953 -12.171  -7.398  1.00  0.00     0.031 C 
ATOM     70  C   UNL     1      10.199 -12.126  -5.101  1.00  0.00     0.029 A 
ATOM     71  C   UNL     1       9.037 -12.495  -5.782  1.00  0.00     0.049 A 
ATOM     72  H   UNL     1       7.642 -13.871  -5.002  1.00  0.00     0.167 HD
ATOM     73  C   UNL     1       7.270 -12.259  -7.526  1.00  0.00     0.074 A 
ATOM     74  C   UNL     1       6.051 -12.690  -6.843  1.00  0.00     0.031 C 
ATOM     75  C   UNL     1       8.569 -12.184  -7.115  1.00  0.00     0.031 A 
BRANCH  62  76
ATOM     76  C   UNL     1       6.634 -13.318  -2.132  1.00  0.00    -0.014 A 
ATOM     77  C   UNL     1       7.125 -14.614  -1.908  1.00  0.00     0.009 A 
ATOM     78  C   UNL     1       5.242 -13.134  -2.029  1.00  0.00     0.009 A 
ATOM     79  C   UNL     1       6.259 -15.678  -1.626  1.00  0.00     0.001 A 
ATOM     80  C   UNL     1       4.378 -14.184  -1.713  1.00  0.00     0.001 A 
ATOM     81  C   UNL     1       4.886 -15.462  -1.531  1.00  0.00     0.000 A 
ENDBRANCH  62  76
BRANCH  63  82
ATOM     82  C   UNL     1       3.614 -10.052  -9.511  1.00  0.00    -0.014 A 
ATOM     83  C   UNL     1       3.296 -11.121 -10.368  1.00  0.00     0.009 A 
ATOM     84  C   UNL     1       2.574  -9.183  -9.138  1.00  0.00     0.009 A 
ATOM     85  C   UNL     1       1.975 -11.357 -10.771  1.00  0.00     0.001 A 
ATOM     86  C   UNL     1       1.255  -9.415  -9.548  1.00  0.00     0.001 A 
ATOM     87  C   UNL     1       0.952 -10.516 -10.344  1.00  0.00     0.000 A 
ENDBRANCH  63  82
BRANCH  75  88
ATOM     88  C   UNL     1       9.557 -11.488  -8.021  1.00  0.00    -0.014 A 
ATOM     89  C   UNL     1       9.518 -10.106  -8.280  1.00  0.00     0.009 A 
ATOM     90  C   UNL     1      10.666 -12.218  -8.470  1.00  0.00     0.009 A 
ATOM     91  C   UNL     1      10.562  -9.477  -8.970  1.00  0.00     0.001 A 
ATOM     92  C   UNL     1      11.714 -11.588  -9.143  1.00  0.00     0.001 A 
ATOM     93  C   UNL     1      11.664 -10.218  -9.391  1.00  0.00     0.000 A 
ENDBRANCH  75  88
ENDBRANCH  49  50
ENDBRANCH  41  44
ENDBRANCH  39  40
ENDBRANCH  38  39
ENDBRANCH  37  38
ENDBRANCH   1  37
TORSDOF 18
