REMARK SMILES O=C(NCCCCCCNC(=O)[C@H]1CC2(CCN(C(=O)c3cccc(O)c3)CC2)CN1C(=O)C1CC1)c1ccc(-c2c3nc(c(-c4ccccc4)c4ccc([nH]4)c(-c4ccccc4)c4nc(c(-c5ccccc5)c5ccc2[nH]5)C=C4)C=C3)cc1
REMARK SMILES IDX 6 1 5 2 4 3 3 4 1 5 2 6 37 8 38 9 84 10 39 11 83 12 40 13
REMARK SMILES IDX 41 14 42 15 77 16 43 17 82 18 76 19 78 20 44 21 81 22 75 23
REMARK SMILES IDX 74 24 45 26 67 27 52 28 66 29 53 30 56 31 65 32 79 33 54 34
REMARK SMILES IDX 55 35 64 37 80 38 57 39 46 40 47 41 51 42 48 43 50 44 49 45
REMARK SMILES IDX 68 46 69 47 73 48 70 49 72 50 71 51 58 52 59 53 63 54 60 55
REMARK SMILES IDX 62 56 61 57 7 58 8 59 9 60 10 61 11 62 12 64 13 65 14 66
REMARK SMILES IDX 31 67 15 68 30 69 16 70 29 71 17 72 28 73 18 74 19 75 20 76
REMARK SMILES IDX 32 77 33 78 34 79 35 80 36 81 21 82 22 83 27 84 23 85 25 86
REMARK SMILES IDX 24 87 26 88
REMARK H PARENT 3 7 78 25 56 36 10 63 26 89
REMARK Flexibility Score: inf
ROOT
ATOM      1  C   UNL     1       9.510  11.594  -4.680  1.00  0.00     0.002 C 
ENDROOT
BRANCH   1   2
ATOM      2  C   UNL     1       9.064  12.539  -3.571  1.00  0.00     0.021 C 
BRANCH   2   3
ATOM      3  C   UNL     1      10.189  13.054  -2.688  1.00  0.00     0.116 C 
BRANCH   3   4
ATOM      4  N   UNL     1      11.021  14.054  -3.343  1.00  0.00    -0.352 N 
ATOM      5  O   UNL     1      12.049  16.081  -3.476  1.00  0.00    -0.269 OA
ATOM      6  C   UNL     1      11.451  15.247  -2.807  1.00  0.00     0.251 C 
ATOM      7  H   UNL     1      11.305  13.856  -4.265  1.00  0.00     0.163 HD
BRANCH   6   8
ATOM      8  C   UNL     1      11.142  15.502  -1.386  1.00  0.00     0.039 A 
ATOM      9  C   UNL     1      11.516  14.551  -0.435  1.00  0.00     0.014 A 
ATOM     10  C   UNL     1      10.376  16.614  -1.029  1.00  0.00     0.014 A 
ATOM     11  C   UNL     1      11.004  14.640   0.850  1.00  0.00     0.010 A 
ATOM     12  C   UNL     1       9.942  16.751   0.293  1.00  0.00     0.010 A 
ATOM     13  C   UNL     1      10.235  15.754   1.237  1.00  0.00    -0.014 A 
BRANCH  13  14
ATOM     14  C   UNL     1       9.857  15.888   2.665  1.00  0.00     0.031 A 
ATOM     15  C   UNL     1       8.427  15.852   3.122  1.00  0.00     0.074 A 
ATOM     16  C   UNL     1      10.858  15.989   3.563  1.00  0.00     0.049 A 
ATOM     17  N   UNL     1       7.958  15.908   4.344  1.00  0.00    -0.248 NA
ATOM     18  C   UNL     1       7.388  15.747   2.086  1.00  0.00     0.031 C 
ATOM     19  C   UNL     1      12.285  16.043   3.227  1.00  0.00     0.029 A 
ATOM     20  N   UNL     1      10.839  16.025   4.931  1.00  0.00    -0.354 N 
ATOM     21  C   UNL     1       6.574  15.861   4.227  1.00  0.00     0.074 A 
ATOM     22  C   UNL     1       6.276  15.790   2.811  1.00  0.00     0.031 C 
ATOM     23  C   UNL     1      13.004  16.032   4.357  1.00  0.00     0.029 A 
ATOM     24  C   UNL     1      12.093  16.054   5.492  1.00  0.00     0.049 A 
ATOM     25  H   UNL     1      10.009  16.030   5.461  1.00  0.00     0.167 HD
ATOM     26  C   UNL     1       5.643  15.876   5.212  1.00  0.00     0.031 A 
ATOM     27  C   UNL     1      12.474  16.114   6.779  1.00  0.00     0.031 A 
ATOM     28  C   UNL     1       5.951  15.955   6.618  1.00  0.00     0.049 A 
ATOM     29  C   UNL     1      11.418  16.151   7.841  1.00  0.00     0.074 A 
ATOM     30  C   UNL     1       5.077  15.972   7.693  1.00  0.00     0.029 A 
ATOM     31  N   UNL     1       7.231  16.029   7.146  1.00  0.00    -0.354 N 
ATOM     32  N   UNL     1      10.115  16.094   7.709  1.00  0.00    -0.248 NA
ATOM     33  C   UNL     1      11.886  16.266   9.227  1.00  0.00     0.031 C 
ATOM     34  C   UNL     1       5.827  16.102   8.867  1.00  0.00     0.029 A 
ATOM     35  C   UNL     1       7.170  16.111   8.528  1.00  0.00     0.049 A 
ATOM     36  H   UNL     1       8.061  16.025   6.616  1.00  0.00     0.167 HD
ATOM     37  C   UNL     1       9.605  16.164   8.996  1.00  0.00     0.074 A 
ATOM     38  C   UNL     1      10.742  16.226   9.894  1.00  0.00     0.031 C 
ATOM     39  C   UNL     1       8.312  16.188   9.401  1.00  0.00     0.031 A 
BRANCH  26  40
ATOM     40  C   UNL     1       4.194  15.828   4.811  1.00  0.00    -0.014 A 
ATOM     41  C   UNL     1       3.608  14.644   4.337  1.00  0.00     0.009 A 
ATOM     42  C   UNL     1       3.383  16.962   4.983  1.00  0.00     0.009 A 
ATOM     43  C   UNL     1       2.246  14.602   4.027  1.00  0.00     0.001 A 
ATOM     44  C   UNL     1       2.017  16.911   4.694  1.00  0.00     0.001 A 
ATOM     45  C   UNL     1       1.451  15.733   4.212  1.00  0.00     0.000 A 
ENDBRANCH  26  40
BRANCH  27  46
ATOM     46  C   UNL     1      13.918  16.183   7.122  1.00  0.00    -0.014 A 
ATOM     47  C   UNL     1      14.551  15.124   7.788  1.00  0.00     0.009 A 
ATOM     48  C   UNL     1      14.673  17.315   6.773  1.00  0.00     0.009 A 
ATOM     49  C   UNL     1      15.905  15.209   8.121  1.00  0.00     0.001 A 
ATOM     50  C   UNL     1      16.033  17.382   7.074  1.00  0.00     0.001 A 
ATOM     51  C   UNL     1      16.645  16.334   7.758  1.00  0.00     0.000 A 
ENDBRANCH  27  46
BRANCH  39  52
ATOM     52  C   UNL     1       8.078  16.272  10.881  1.00  0.00    -0.014 A 
ATOM     53  C   UNL     1       8.340  17.454  11.591  1.00  0.00     0.009 A 
ATOM     54  C   UNL     1       7.599  15.151  11.575  1.00  0.00     0.009 A 
ATOM     55  C   UNL     1       8.172  17.497  12.976  1.00  0.00     0.001 A 
ATOM     56  C   UNL     1       7.403  15.206  12.956  1.00  0.00     0.001 A 
ATOM     57  C   UNL     1       7.703  16.374  13.656  1.00  0.00     0.000 A 
ENDBRANCH  39  52
ENDBRANCH  13  14
ENDBRANCH   6   8
ENDBRANCH   3   4
ENDBRANCH   2   3
ENDBRANCH   1   2
BRANCH   1  58
ATOM     58  C   UNL     1      10.300  10.370  -4.212  1.00  0.00     0.002 C 
BRANCH  58  59
ATOM     59  C   UNL     1       9.627   9.505  -3.137  1.00  0.00     0.021 C 
BRANCH  59  60
ATOM     60  C   UNL     1       8.325   8.819  -3.549  1.00  0.00     0.116 C 
BRANCH  60  61
ATOM     61  N   UNL     1       8.338   8.255  -4.886  1.00  0.00    -0.354 N 
ATOM     62  C   UNL     1       8.459   6.958  -5.300  1.00  0.00     0.242 C 
ATOM     63  H   UNL     1       8.244   8.913  -5.612  1.00  0.00     0.163 HD
ATOM     64  O   UNL     1       8.147   6.699  -6.465  1.00  0.00    -0.273 OA
BRANCH  62  65
ATOM     65  C   UNL     1       8.765   5.847  -4.291  1.00  0.00     0.175 C 
ATOM     66  C   UNL     1       8.988   4.408  -4.776  1.00  0.00     0.044 C 
ATOM     67  N   UNL     1       9.772   5.910  -3.248  1.00  0.00    -0.330 N 
ATOM     68  C   UNL     1       9.179   3.625  -3.417  1.00  0.00    -0.006 C 
ATOM     69  C   UNL     1       9.488   4.767  -2.389  1.00  0.00     0.127 C 
ATOM     70  C   UNL     1      10.368   2.633  -3.424  1.00  0.00     0.030 C 
ATOM     71  C   UNL     1       7.879   2.872  -3.055  1.00  0.00     0.030 C 
ATOM     72  C   UNL     1      10.107   1.353  -4.211  1.00  0.00     0.120 C 
ATOM     73  C   UNL     1       7.679   1.619  -3.913  1.00  0.00     0.120 C 
ATOM     74  N   UNL     1       8.840   0.746  -3.810  1.00  0.00    -0.339 N 
ATOM     75  C   UNL     1       8.638  -0.599  -3.505  1.00  0.00     0.253 C 
ATOM     76  O   UNL     1       7.527  -1.120  -3.437  1.00  0.00    -0.269 OA
BRANCH  67  77
ATOM     77  C   UNL     1      11.127   6.215  -3.424  1.00  0.00     0.226 C 
ATOM     78  O   UNL     1      11.977   5.843  -2.618  1.00  0.00    -0.275 OA
BRANCH  77  79
ATOM     79  C   UNL     1      11.615   7.076  -4.540  1.00  0.00     0.079 C 
ATOM     80  C   UNL     1      12.586   6.438  -5.522  1.00  0.00     0.014 C 
ATOM     81  C   UNL     1      11.312   7.030  -6.014  1.00  0.00     0.014 C 
ENDBRANCH  77  79
ENDBRANCH  67  77
BRANCH  75  82
ATOM     82  C   UNL     1       9.801  -1.460  -3.205  1.00  0.00     0.043 A 
ATOM     83  C   UNL     1      10.617  -1.181  -2.101  1.00  0.00     0.014 A 
ATOM     84  C   UNL     1      10.006  -2.616  -3.962  1.00  0.00     0.060 A 
ATOM     85  C   UNL     1      11.666  -2.045  -1.780  1.00  0.00     0.005 A 
ATOM     86  C   UNL     1      11.055  -3.465  -3.632  1.00  0.00     0.116 A 
ATOM     87  C   UNL     1      11.890  -3.189  -2.550  1.00  0.00     0.046 A 
BRANCH  86  88
ATOM     88  O   UNL     1      11.234  -4.581  -4.396  1.00  0.00    -0.508 OA
ATOM     89  H   UNL     1      11.932  -5.175  -4.201  1.00  0.00     0.293 HD
ENDBRANCH  86  88
ENDBRANCH  75  82
ENDBRANCH  62  65
ENDBRANCH  60  61
ENDBRANCH  59  60
ENDBRANCH  58  59
ENDBRANCH   1  58
TORSDOF 17
