REMARK SMILES CC(=O)N1C[C@@H]2C[N@H+](CC(=O)NCc3ccccc3)C[C@]2(C(=O)NCCCCCCNC(=O)c2ccc(-c3c4nc(c(-c5ccccc5)c5ccc([nH]5)c(-c5ccccc5)c5nc(c(-c6ccccc6)c6ccc3[nH]6)C=C5)C=C4)cc2)C1
REMARK SMILES IDX 26 1 25 2 24 3 22 4 23 5 21 7 4 8 5 9 82 10 6 11 7 12 20 13
REMARK SMILES IDX 8 14 2 16 1 17 3 18 9 19 10 20 11 21 12 22 13 24 14 25 15 26
REMARK SMILES IDX 19 27 16 28 18 29 17 30 27 31 28 32 29 33 30 34 31 35 32 36
REMARK SMILES IDX 33 38 34 39 35 40 81 41 36 42 80 43 37 44 38 45 39 46 74 47
REMARK SMILES IDX 40 48 79 49 73 50 75 51 41 52 78 53 72 54 71 55 42 57 64 58
REMARK SMILES IDX 49 59 63 60 50 61 53 62 62 63 76 64 51 65 52 66 61 68 77 69
REMARK SMILES IDX 54 70 43 71 44 72 48 73 45 74 47 75 46 76 65 77 66 78 70 79
REMARK SMILES IDX 67 80 69 81 68 82 55 83 56 84 60 85 57 86 59 87 58 88
REMARK H PARENT 24 6 8 15 12 23 31 37 75 56 53 67
REMARK Flexibility Score: inf
ROOT
ATOM      1  C   UNL     1       5.674  -0.924   7.256  1.00  0.00     0.021 C 
ENDROOT
BRANCH   1   2
ATOM      2  C   UNL     1       4.900  -0.895   5.934  1.00  0.00     0.116 C 
BRANCH   2   3
ATOM      3  N   UNL     1       4.718  -2.171   5.220  1.00  0.00    -0.355 N 
ATOM      4  C   UNL     1       3.607  -2.786   4.630  1.00  0.00     0.234 C 
ATOM      5  O   UNL     1       3.832  -3.865   4.076  1.00  0.00    -0.274 OA
ATOM      6  H   UNL     1       5.546  -2.698   5.141  1.00  0.00     0.163 HD
BRANCH   4   7
ATOM      7  C   UNL     1       2.149  -2.138   4.712  1.00  0.00     0.125 C 
ATOM      8  N   UNL     1       0.498  -1.940   2.770  1.00  0.00    -0.341 N 
ATOM      9  C   UNL     1      -0.368  -2.162   3.860  1.00  0.00     0.130 C 
ATOM     10  C   UNL     1       1.829  -2.415   3.148  1.00  0.00     0.143 C 
ATOM     11  C   UNL     1       0.559  -2.719   4.919  1.00  0.00     0.087 C 
ATOM     12  C   UNL     1      -0.016  -2.255   6.264  1.00  0.00     0.269 C 
ATOM     13  C   UNL     1       2.186  -2.423   6.250  1.00  0.00     0.282 C 
ATOM     14  N   UNL     1       1.134  -1.641   6.878  1.00  0.00    -0.326 N 
ATOM     15  H   UNL     1       1.107  -1.667   7.897  1.00  0.00     0.348 HD
BRANCH   8  16
ATOM     16  C   UNL     1       0.208  -0.902   1.904  1.00  0.00     0.219 C 
ATOM     17  C   UNL     1       0.285  -1.225   0.442  1.00  0.00     0.114 C 
ATOM     18  O   UNL     1      -0.259   0.179   2.265  1.00  0.00    -0.275 OA
ENDBRANCH   8  16
BRANCH  14  19
ATOM     19  C   UNL     1       1.284  -0.156   6.703  1.00  0.00     0.363 C 
BRANCH  19  20
ATOM     20  C   UNL     1       0.776   0.500   5.402  1.00  0.00     0.275 C 
ATOM     21  O   UNL     1      -0.431   0.780   5.342  1.00  0.00    -0.268 OA
ATOM     22  N   UNL     1       1.510   0.801   4.288  1.00  0.00    -0.347 N 
ATOM     23  H   UNL     1       0.942   0.847   3.486  1.00  0.00     0.164 HD
BRANCH  22  24
ATOM     24  C   UNL     1       2.914   1.073   3.966  1.00  0.00     0.151 C 
BRANCH  24  25
ATOM     25  C   UNL     1       3.396   0.587   2.598  1.00  0.00    -0.029 A 
ATOM     26  C   UNL     1       2.779   1.004   1.413  1.00  0.00     0.005 A 
ATOM     27  C   UNL     1       4.491  -0.289   2.452  1.00  0.00     0.005 A 
ATOM     28  C   UNL     1       3.158   0.472   0.167  1.00  0.00     0.000 A 
ATOM     29  C   UNL     1       4.842  -0.859   1.219  1.00  0.00     0.000 A 
ATOM     30  C   UNL     1       4.155  -0.494   0.074  1.00  0.00     0.000 A 
ENDBRANCH  24  25
ENDBRANCH  22  24
ENDBRANCH  19  20
ENDBRANCH  14  19
ENDBRANCH   4   7
ENDBRANCH   2   3
ENDBRANCH   1   2
BRANCH   1  31
ATOM     31  C   UNL     1       6.838   0.086   7.285  1.00  0.00     0.002 C 
BRANCH  31  32
ATOM     32  C   UNL     1       6.482   1.571   7.091  1.00  0.00     0.002 C 
BRANCH  32  33
ATOM     33  C   UNL     1       5.603   2.220   8.162  1.00  0.00     0.021 C 
BRANCH  33  34
ATOM     34  C   UNL     1       6.080   2.049   9.600  1.00  0.00     0.116 C 
BRANCH  34  35
ATOM     35  N   UNL     1       7.442   2.517   9.811  1.00  0.00    -0.352 N 
ATOM     36  C   UNL     1       7.961   3.204  10.876  1.00  0.00     0.251 C 
ATOM     37  H   UNL     1       8.077   2.312   9.088  1.00  0.00     0.163 HD
ATOM     38  O   UNL     1       9.122   3.628  10.835  1.00  0.00    -0.269 OA
BRANCH  36  39
ATOM     39  C   UNL     1       7.130   3.462  12.065  1.00  0.00     0.039 A 
ATOM     40  C   UNL     1       7.117   4.744  12.620  1.00  0.00     0.014 A 
ATOM     41  C   UNL     1       6.363   2.440  12.632  1.00  0.00     0.014 A 
ATOM     42  C   UNL     1       6.295   5.014  13.714  1.00  0.00     0.010 A 
ATOM     43  C   UNL     1       5.489   2.728  13.674  1.00  0.00     0.010 A 
ATOM     44  C   UNL     1       5.456   4.014  14.232  1.00  0.00    -0.014 A 
BRANCH  44  45
ATOM     45  C   UNL     1       4.555   4.292  15.376  1.00  0.00     0.031 A 
ATOM     46  C   UNL     1       4.777   3.604  16.693  1.00  0.00     0.074 A 
ATOM     47  C   UNL     1       3.514   5.130  15.213  1.00  0.00     0.049 A 
ATOM     48  N   UNL     1       4.094   3.708  17.805  1.00  0.00    -0.248 NA
ATOM     49  C   UNL     1       5.899   2.655  16.763  1.00  0.00     0.031 C 
ATOM     50  C   UNL     1       3.176   5.832  13.973  1.00  0.00     0.029 A 
ATOM     51  N   UNL     1       2.552   5.539  16.101  1.00  0.00    -0.354 N 
ATOM     52  C   UNL     1       4.698   2.833  18.699  1.00  0.00     0.074 A 
ATOM     53  C   UNL     1       5.759   2.160  17.982  1.00  0.00     0.031 C 
ATOM     54  C   UNL     1       2.110   6.619  14.192  1.00  0.00     0.029 A 
ATOM     55  C   UNL     1       1.669   6.448  15.573  1.00  0.00     0.049 A 
ATOM     56  H   UNL     1       2.499   5.211  17.028  1.00  0.00     0.167 HD
ATOM     57  C   UNL     1       4.413   2.624  20.007  1.00  0.00     0.031 A 
ATOM     58  C   UNL     1       0.626   7.080  16.142  1.00  0.00     0.031 A 
ATOM     59  C   UNL     1       3.353   3.291  20.715  1.00  0.00     0.049 A 
ATOM     60  C   UNL     1       0.306   6.808  17.585  1.00  0.00     0.074 A 
ATOM     61  C   UNL     1       3.004   3.185  22.049  1.00  0.00     0.029 A 
ATOM     62  N   UNL     1       2.466   4.189  20.138  1.00  0.00    -0.354 N 
ATOM     63  N   UNL     1       0.925   6.026  18.436  1.00  0.00    -0.248 NA
ATOM     64  C   UNL     1      -0.851   7.517  18.146  1.00  0.00     0.031 C 
ATOM     65  C   UNL     1       1.872   3.979  22.267  1.00  0.00     0.029 A 
ATOM     66  C   UNL     1       1.554   4.625  21.083  1.00  0.00     0.049 A 
ATOM     67  H   UNL     1       2.483   4.473  19.196  1.00  0.00     0.167 HD
ATOM     68  C   UNL     1       0.252   6.171  19.642  1.00  0.00     0.074 A 
ATOM     69  C   UNL     1      -0.813   7.127  19.413  1.00  0.00     0.031 C 
ATOM     70  C   UNL     1       0.495   5.570  20.833  1.00  0.00     0.031 A 
BRANCH  57  71
ATOM     71  C   UNL     1       5.262   1.620  20.739  1.00  0.00    -0.014 A 
ATOM     72  C   UNL     1       6.621   1.866  20.998  1.00  0.00     0.009 A 
ATOM     73  C   UNL     1       4.700   0.409  21.170  1.00  0.00     0.009 A 
ATOM     74  C   UNL     1       7.411   0.898  21.622  1.00  0.00     0.001 A 
ATOM     75  C   UNL     1       5.484  -0.543  21.825  1.00  0.00     0.001 A 
ATOM     76  C   UNL     1       6.842  -0.304  22.037  1.00  0.00     0.000 A 
ENDBRANCH  57  71
BRANCH  58  77
ATOM     77  C   UNL     1      -0.163   8.065  15.357  1.00  0.00    -0.014 A 
ATOM     78  C   UNL     1      -0.060   9.436  15.638  1.00  0.00     0.009 A 
ATOM     79  C   UNL     1      -1.010   7.646  14.319  1.00  0.00     0.009 A 
ATOM     80  C   UNL     1      -0.804  10.366  14.910  1.00  0.00     0.001 A 
ATOM     81  C   UNL     1      -1.732   8.582  13.575  1.00  0.00     0.001 A 
ATOM     82  C   UNL     1      -1.635   9.940  13.875  1.00  0.00     0.000 A 
ENDBRANCH  58  77
BRANCH  70  83
ATOM     83  C   UNL     1      -0.390   5.957  21.985  1.00  0.00    -0.014 A 
ATOM     84  C   UNL     1      -1.729   5.543  22.049  1.00  0.00     0.009 A 
ATOM     85  C   UNL     1       0.138   6.723  23.037  1.00  0.00     0.009 A 
ATOM     86  C   UNL     1      -2.533   5.922  23.126  1.00  0.00     0.001 A 
ATOM     87  C   UNL     1      -0.660   7.073  24.127  1.00  0.00     0.001 A 
ATOM     88  C   UNL     1      -1.997   6.682  24.165  1.00  0.00     0.000 A 
ENDBRANCH  70  83
ENDBRANCH  44  45
ENDBRANCH  36  39
ENDBRANCH  34  35
ENDBRANCH  33  34
ENDBRANCH  32  33
ENDBRANCH  31  32
ENDBRANCH   1  31
TORSDOF 18
