REMARK SMILES Cc1ccc(NC(=O)C[NH+]2CCC(C(=O)NCCCCCCNC(=O)c3ccc(-c4c5nc(c(-c6ccccc6)c6ccc([nH]6)c(-c6ccccc6)c6nc(c(-c7ccccc7)c7ccc4[nH]7)C=C6)C=C5)cc3)CC2)cc1Cl
REMARK SMILES IDX 19 1 18 2 17 3 16 4 14 5 15 6 13 8 10 9 11 10 75 11 12 13
REMARK SMILES IDX 74 14 9 15 7 16 6 17 8 19 5 20 1 21 2 22 3 23 77 24 4 25
REMARK SMILES IDX 76 26 78 27 20 28 21 29 22 30 23 31 24 32 25 34 26 35 27 36
REMARK SMILES IDX 73 37 28 38 72 39 29 40 30 41 31 42 66 43 32 44 71 45 65 46
REMARK SMILES IDX 67 47 33 48 70 49 64 50 63 51 34 53 56 54 41 55 55 56 42 57
REMARK SMILES IDX 45 58 54 59 68 60 43 61 44 62 53 64 69 65 46 66 35 67 36 68
REMARK SMILES IDX 40 69 37 70 39 71 38 72 57 73 58 74 62 75 59 76 61 77 60 78
REMARK SMILES IDX 47 79 48 80 52 81 49 82 51 83 50 84
REMARK H PARENT 16 7 10 12 6 18 23 33 67 52 45 63
REMARK Flexibility Score: inf
ROOT
ATOM      1  C   UNL     1       4.420  -2.364  -6.006  1.00  0.00     0.002 C 
ENDROOT
BRANCH   1   2
ATOM      2  C   UNL     1       3.483  -3.047  -5.006  1.00  0.00     0.021 C 
BRANCH   2   3
ATOM      3  C   UNL     1       2.461  -2.104  -4.384  1.00  0.00     0.116 C 
BRANCH   3   4
ATOM      4  N   UNL     1       1.504  -1.647  -5.379  1.00  0.00    -0.356 N 
ATOM      5  C   UNL     1       0.144  -1.698  -5.398  1.00  0.00     0.223 C 
ATOM      6  O   UNL     1      -0.435  -1.272  -6.399  1.00  0.00    -0.275 OA
ATOM      7  H   UNL     1       1.908  -1.230  -6.174  1.00  0.00     0.163 HD
BRANCH   5   8
ATOM      8  C   UNL     1      -0.646  -2.204  -4.204  1.00  0.00     0.089 C 
ATOM      9  N   UNL     1      -0.416  -3.329  -1.532  1.00  0.00    -0.327 N 
ATOM     10  C   UNL     1      -1.029  -4.142  -2.584  1.00  0.00     0.263 C 
ATOM     11  C   UNL     1      -0.784  -1.927  -1.695  1.00  0.00     0.263 C 
ATOM     12  H   UNL     1       0.595  -3.406  -1.641  1.00  0.00     0.348 HD
ATOM     13  C   UNL     1      -0.487  -3.709  -3.953  1.00  0.00     0.075 C 
ATOM     14  C   UNL     1      -0.345  -1.315  -3.003  1.00  0.00     0.075 C 
BRANCH   9  15
ATOM     15  C   UNL     1      -0.688  -3.836  -0.159  1.00  0.00     0.363 C 
BRANCH  15  16
ATOM     16  C   UNL     1      -2.125  -3.641   0.359  1.00  0.00     0.279 C 
ATOM     17  N   UNL     1      -2.566  -2.470   0.932  1.00  0.00    -0.321 N 
ATOM     18  H   UNL     1      -3.492  -2.496   1.265  1.00  0.00     0.170 HD
ATOM     19  O   UNL     1      -2.965  -4.536   0.198  1.00  0.00    -0.268 OA
BRANCH  17  20
ATOM     20  C   UNL     1      -1.907  -1.242   1.117  1.00  0.00     0.042 A 
ATOM     21  C   UNL     1       0.252   2.419   0.415  1.00  0.00     0.046 C 
ATOM     22  C   UNL     1      -0.516   1.189   0.816  1.00  0.00    -0.032 A 
ATOM     23  C   UNL     1      -1.879   1.101   0.497  1.00  0.00     0.007 A 
ATOM     24  C   UNL     1       0.104   0.075   1.402  1.00  0.00     0.046 A 
ATOM     25  C   UNL     1      -2.577  -0.097   0.675  1.00  0.00     0.026 A 
ATOM     26  C   UNL     1      -0.595  -1.128   1.573  1.00  0.00     0.047 A 
ATOM     27  Cl  UNL     1       1.778   0.094   1.830  1.00  0.00    -0.084 Cl
ENDBRANCH  17  20
ENDBRANCH  15  16
ENDBRANCH   9  15
ENDBRANCH   5   8
ENDBRANCH   3   4
ENDBRANCH   2   3
ENDBRANCH   1   2
BRANCH   1  28
ATOM     28  C   UNL     1       5.244  -1.207  -5.431  1.00  0.00     0.002 C 
BRANCH  28  29
ATOM     29  C   UNL     1       6.094  -1.558  -4.206  1.00  0.00     0.021 C 
BRANCH  29  30
ATOM     30  C   UNL     1       7.016  -2.761  -4.386  1.00  0.00     0.116 C 
BRANCH  30  31
ATOM     31  N   UNL     1       7.917  -2.604  -5.515  1.00  0.00    -0.352 N 
ATOM     32  C   UNL     1       9.254  -2.871  -5.607  1.00  0.00     0.251 C 
ATOM     33  H   UNL     1       7.502  -2.253  -6.337  1.00  0.00     0.163 HD
ATOM     34  O   UNL     1       9.881  -2.528  -6.611  1.00  0.00    -0.269 OA
BRANCH  32  35
ATOM     35  C   UNL     1       9.961  -3.547  -4.501  1.00  0.00     0.039 A 
ATOM     36  C   UNL     1      11.221  -3.071  -4.129  1.00  0.00     0.014 A 
ATOM     37  C   UNL     1       9.411  -4.657  -3.852  1.00  0.00     0.014 A 
ATOM     38  C   UNL     1      11.911  -3.681  -3.083  1.00  0.00     0.010 A 
ATOM     39  C   UNL     1      10.072  -5.226  -2.765  1.00  0.00     0.010 A 
ATOM     40  C   UNL     1      11.332  -4.749  -2.377  1.00  0.00    -0.014 A 
BRANCH  40  41
ATOM     41  C   UNL     1      12.049  -5.365  -1.234  1.00  0.00     0.031 A 
ATOM     42  C   UNL     1      12.552  -6.779  -1.319  1.00  0.00     0.074 A 
ATOM     43  C   UNL     1      12.233  -4.650  -0.108  1.00  0.00     0.049 A 
ATOM     44  N   UNL     1      13.230  -7.466  -0.434  1.00  0.00    -0.248 NA
ATOM     45  C   UNL     1      12.237  -7.526  -2.547  1.00  0.00     0.031 C 
ATOM     46  C   UNL     1      11.747  -3.287   0.119  1.00  0.00     0.029 A 
ATOM     47  N   UNL     1      12.886  -4.968   1.056  1.00  0.00    -0.354 N 
ATOM     48  C   UNL     1      13.423  -8.721  -0.998  1.00  0.00     0.074 A 
ATOM     49  C   UNL     1      12.742  -8.720  -2.274  1.00  0.00     0.031 C 
ATOM     50  C   UNL     1      12.146  -2.875   1.333  1.00  0.00     0.029 A 
ATOM     51  C   UNL     1      12.893  -3.951   1.978  1.00  0.00     0.049 A 
ATOM     52  H   UNL     1      13.308  -5.843   1.215  1.00  0.00     0.167 HD
ATOM     53  C   UNL     1      14.124  -9.772  -0.510  1.00  0.00     0.031 A 
ATOM     54  C   UNL     1      13.445  -3.887   3.203  1.00  0.00     0.031 A 
ATOM     55  C   UNL     1      14.802  -9.776   0.759  1.00  0.00     0.049 A 
ATOM     56  C   UNL     1      14.226  -5.063   3.717  1.00  0.00     0.074 A 
ATOM     57  C   UNL     1      15.567 -10.780   1.328  1.00  0.00     0.029 A 
ATOM     58  N   UNL     1      14.796  -8.721   1.658  1.00  0.00    -0.354 N 
ATOM     59  N   UNL     1      14.455  -6.218   3.142  1.00  0.00    -0.248 NA
ATOM     60  C   UNL     1      14.842  -4.915   5.044  1.00  0.00     0.031 C 
ATOM     61  C   UNL     1      15.992 -10.346   2.588  1.00  0.00     0.029 A 
ATOM     62  C   UNL     1      15.532  -9.054   2.783  1.00  0.00     0.049 A 
ATOM     63  H   UNL     1      14.336  -7.862   1.518  1.00  0.00     0.167 HD
ATOM     64  C   UNL     1      15.257  -6.928   4.026  1.00  0.00     0.074 A 
ATOM     65  C   UNL     1      15.495  -6.062   5.163  1.00  0.00     0.031 C 
ATOM     66  C   UNL     1      15.750  -8.184   3.909  1.00  0.00     0.031 A 
BRANCH  53  67
ATOM     67  C   UNL     1      14.197 -11.007  -1.363  1.00  0.00    -0.014 A 
ATOM     68  C   UNL     1      14.959 -11.025  -2.543  1.00  0.00     0.009 A 
ATOM     69  C   UNL     1      13.527 -12.175  -0.970  1.00  0.00     0.009 A 
ATOM     70  C   UNL     1      15.020 -12.177  -3.329  1.00  0.00     0.001 A 
ATOM     71  C   UNL     1      13.613 -13.335  -1.744  1.00  0.00     0.001 A 
ATOM     72  C   UNL     1      14.351 -13.332  -2.927  1.00  0.00     0.000 A 
ENDBRANCH  53  67
BRANCH  54  73
ATOM     73  C   UNL     1      13.302  -2.655   4.019  1.00  0.00    -0.014 A 
ATOM     74  C   UNL     1      14.400  -1.810   4.239  1.00  0.00     0.009 A 
ATOM     75  C   UNL     1      12.063  -2.321   4.589  1.00  0.00     0.009 A 
ATOM     76  C   UNL     1      14.268  -0.672   5.037  1.00  0.00     0.001 A 
ATOM     77  C   UNL     1      11.928  -1.167   5.364  1.00  0.00     0.001 A 
ATOM     78  C   UNL     1      13.032  -0.350   5.596  1.00  0.00     0.000 A 
ENDBRANCH  54  73
BRANCH  66  79
ATOM     79  C   UNL     1      16.611  -8.684   5.034  1.00  0.00    -0.014 A 
ATOM     80  C   UNL     1      16.058  -9.022   6.279  1.00  0.00     0.009 A 
ATOM     81  C   UNL     1      17.993  -8.835   4.839  1.00  0.00     0.009 A 
ATOM     82  C   UNL     1      16.877  -9.461   7.319  1.00  0.00     0.001 A 
ATOM     83  C   UNL     1      18.806  -9.301   5.873  1.00  0.00     0.001 A 
ATOM     84  C   UNL     1      18.250  -9.603   7.115  1.00  0.00     0.000 A 
ENDBRANCH  66  79
ENDBRANCH  40  41
ENDBRANCH  32  35
ENDBRANCH  30  31
ENDBRANCH  29  30
ENDBRANCH  28  29
ENDBRANCH   1  28
TORSDOF 16
