REMARK SMILES NS(=O)(=O)c1ccc(-n2nc(C(=O)NCCCCCCNC(=O)c3ccc(-c4c5nc(c(-c6ccccc6)c6ccc([nH]6)c(-c6ccccc6)c6nc(c(-c7ccccc7)c7ccc4[nH]7)C=C6)C=C5)cc3)c(Cl)c2-c2ccc(Cl)cc2)cc1
REMARK SMILES IDX 17 1 16 2 15 3 14 4 12 5 13 6 11 8 9 9 10 10 74 11 72 12
REMARK SMILES IDX 73 13 8 14 5 15 6 16 83 17 7 18 82 19 2 20 3 21 4 22 1 23
REMARK SMILES IDX 75 26 76 27 81 28 77 29 80 30 78 31 79 32 18 33 19 34 20 35
REMARK SMILES IDX 21 36 22 37 23 39 24 40 25 41 71 42 26 43 70 44 27 45 28 46
REMARK SMILES IDX 29 47 64 48 30 49 69 50 63 51 65 52 31 53 68 54 62 55 61 56
REMARK SMILES IDX 32 58 54 59 39 60 53 61 40 62 43 63 52 64 66 65 41 66 42 67
REMARK SMILES IDX 51 69 67 70 44 71 33 72 34 73 38 74 35 75 37 76 36 77 55 78
REMARK SMILES IDX 56 79 60 80 57 81 59 82 58 83 45 84 46 85 50 86 47 87 49 88
REMARK SMILES IDX 48 89
REMARK H PARENT 14 7 1 24 1 25 21 38 65 57 43 68
REMARK Flexibility Score: inf
ROOT
ATOM      1  C   UNL     1       5.474   6.564 -11.593  1.00  0.00     0.002 C 
ENDROOT
BRANCH   1   2
ATOM      2  C   UNL     1       5.101   5.998 -10.221  1.00  0.00     0.021 C 
BRANCH   2   3
ATOM      3  C   UNL     1       3.612   5.673 -10.030  1.00  0.00     0.116 C 
BRANCH   3   4
ATOM      4  N   UNL     1       3.331   4.290 -10.377  1.00  0.00    -0.351 N 
ATOM      5  C   UNL     1       2.998   3.182  -9.625  1.00  0.00     0.273 C 
ATOM      6  O   UNL     1       2.749   2.157 -10.264  1.00  0.00    -0.267 OA
ATOM      7  H   UNL     1       3.390   4.107 -11.343  1.00  0.00     0.163 HD
BRANCH   5   8
ATOM      8  C   UNL     1       2.869   3.234  -8.156  1.00  0.00     0.169 A 
ATOM      9  N   UNL     1       2.063   2.742  -6.213  1.00  0.00    -0.231 N 
ATOM     10  N   UNL     1       2.001   2.410  -7.526  1.00  0.00    -0.160 NA
ATOM     11  C   UNL     1       2.852   3.859  -6.008  1.00  0.00     0.094 A 
ATOM     12  C   UNL     1       3.585   3.958  -7.178  1.00  0.00     0.100 A 
ATOM     13  Cl  UNL     1       5.083   4.755  -7.301  1.00  0.00    -0.079 Cl
BRANCH   9  14
ATOM     14  C   UNL     1       1.525   1.881  -5.223  1.00  0.00     0.065 A 
ATOM     15  C   UNL     1       0.808   0.176  -3.142  1.00  0.00     0.082 A 
ATOM     16  C   UNL     1       1.444  -0.347  -4.271  1.00  0.00     0.024 A 
ATOM     17  C   UNL     1       0.490   1.537  -3.065  1.00  0.00     0.024 A 
ATOM     18  C   UNL     1       1.777   0.503  -5.329  1.00  0.00     0.030 A 
ATOM     19  C   UNL     1       0.869   2.396  -4.099  1.00  0.00     0.030 A 
BRANCH  15  20
ATOM     20  S   UNL     1       0.420  -0.876  -1.773  1.00  0.00     0.238 S 
ATOM     21  O   UNL     1       1.168  -2.116  -1.900  1.00  0.00    -0.207 OA
ATOM     22  O   UNL     1      -0.993  -0.836  -1.540  1.00  0.00    -0.207 OA
BRANCH  20  23
ATOM     23  N   UNL     1       1.142  -0.075  -0.480  1.00  0.00    -0.225 NA
ATOM     24  H   UNL     1       0.980  -0.600   0.379  1.00  0.00     0.137 HD
ATOM     25  H   UNL     1       0.738   0.858  -0.390  1.00  0.00     0.137 HD
ENDBRANCH  20  23
ENDBRANCH  15  20
ENDBRANCH   9  14
BRANCH  11  26
ATOM     26  C   UNL     1       3.147   4.557  -4.764  1.00  0.00     0.002 A 
ATOM     27  C   UNL     1       2.757   5.900  -4.645  1.00  0.00     0.012 A 
ATOM     28  C   UNL     1       4.024   4.003  -3.825  1.00  0.00     0.012 A 
ATOM     29  C   UNL     1       3.288   6.698  -3.633  1.00  0.00     0.021 A 
ATOM     30  C   UNL     1       4.554   4.804  -2.813  1.00  0.00     0.021 A 
ATOM     31  C   UNL     1       4.203   6.152  -2.736  1.00  0.00     0.041 A 
ATOM     32  Cl  UNL     1       4.949   7.161  -1.560  1.00  0.00    -0.084 Cl
ENDBRANCH  11  26
ENDBRANCH   5   8
ENDBRANCH   3   4
ENDBRANCH   2   3
ENDBRANCH   1   2
BRANCH   1  33
ATOM     33  C   UNL     1       4.811   7.899 -11.970  1.00  0.00     0.002 C 
BRANCH  33  34
ATOM     34  C   UNL     1       4.950   9.057 -10.967  1.00  0.00     0.021 C 
BRANCH  34  35
ATOM     35  C   UNL     1       6.367   9.591 -10.829  1.00  0.00     0.116 C 
BRANCH  35  36
ATOM     36  N   UNL     1       6.871  10.206 -12.068  1.00  0.00    -0.352 N 
ATOM     37  C   UNL     1       8.118  10.736 -12.360  1.00  0.00     0.251 C 
ATOM     38  H   UNL     1       6.219  10.247 -12.805  1.00  0.00     0.163 HD
ATOM     39  O   UNL     1       8.269  11.503 -13.304  1.00  0.00    -0.269 OA
BRANCH  37  40
ATOM     40  C   UNL     1       9.274  10.351 -11.531  1.00  0.00     0.039 A 
ATOM     41  C   UNL     1      10.373  11.184 -11.283  1.00  0.00     0.014 A 
ATOM     42  C   UNL     1       9.228   9.085 -10.976  1.00  0.00     0.014 A 
ATOM     43  C   UNL     1      11.399  10.710 -10.463  1.00  0.00     0.010 A 
ATOM     44  C   UNL     1      10.026   8.787  -9.922  1.00  0.00     0.010 A 
ATOM     45  C   UNL     1      11.210   9.492  -9.803  1.00  0.00    -0.014 A 
BRANCH  45  46
ATOM     46  C   UNL     1      12.193   8.835  -8.960  1.00  0.00     0.031 A 
ATOM     47  C   UNL     1      12.341   9.430  -7.615  1.00  0.00     0.074 A 
ATOM     48  C   UNL     1      12.585   7.567  -9.233  1.00  0.00     0.049 A 
ATOM     49  N   UNL     1      13.369  10.035  -7.126  1.00  0.00    -0.248 NA
ATOM     50  C   UNL     1      11.142   9.489  -6.758  1.00  0.00     0.031 C 
ATOM     51  C   UNL     1      12.152   6.702 -10.346  1.00  0.00     0.029 A 
ATOM     52  N   UNL     1      13.325   6.716  -8.475  1.00  0.00    -0.354 N 
ATOM     53  C   UNL     1      13.015  10.365  -5.823  1.00  0.00     0.074 A 
ATOM     54  C   UNL     1      11.582  10.245  -5.753  1.00  0.00     0.031 C 
ATOM     55  C   UNL     1      12.446   5.414 -10.061  1.00  0.00     0.029 A 
ATOM     56  C   UNL     1      13.213   5.375  -8.829  1.00  0.00     0.049 A 
ATOM     57  H   UNL     1      13.894   7.024  -7.733  1.00  0.00     0.167 HD
ATOM     58  C   UNL     1      13.935  10.402  -4.820  1.00  0.00     0.031 A 
ATOM     59  C   UNL     1      13.677   4.309  -8.130  1.00  0.00     0.031 A 
ATOM     60  C   UNL     1      15.280  10.332  -5.335  1.00  0.00     0.049 A 
ATOM     61  C   UNL     1      14.666   4.821  -7.152  1.00  0.00     0.074 A 
ATOM     62  C   UNL     1      16.028  11.088  -6.216  1.00  0.00     0.029 A 
ATOM     63  N   UNL     1      15.907   9.109  -5.258  1.00  0.00    -0.354 N 
ATOM     64  N   UNL     1      15.809   5.344  -7.495  1.00  0.00    -0.248 NA
ATOM     65  C   UNL     1      14.193   5.180  -5.824  1.00  0.00     0.031 C 
ATOM     66  C   UNL     1      16.770  10.136  -6.976  1.00  0.00     0.029 A 
ATOM     67  C   UNL     1      16.498   8.863  -6.470  1.00  0.00     0.049 A 
ATOM     68  H   UNL     1      15.928   8.517  -4.472  1.00  0.00     0.167 HD
ATOM     69  C   UNL     1      15.970   6.429  -6.644  1.00  0.00     0.074 A 
ATOM     70  C   UNL     1      15.008   6.208  -5.565  1.00  0.00     0.031 C 
ATOM     71  C   UNL     1      16.645   7.545  -7.051  1.00  0.00     0.031 A 
BRANCH  58  72
ATOM     72  C   UNL     1      13.620  10.064  -3.382  1.00  0.00    -0.014 A 
ATOM     73  C   UNL     1      14.635  10.217  -2.422  1.00  0.00     0.009 A 
ATOM     74  C   UNL     1      12.469   9.364  -2.972  1.00  0.00     0.009 A 
ATOM     75  C   UNL     1      14.529   9.641  -1.151  1.00  0.00     0.001 A 
ATOM     76  C   UNL     1      12.338   8.828  -1.689  1.00  0.00     0.001 A 
ATOM     77  C   UNL     1      13.383   8.942  -0.787  1.00  0.00     0.000 A 
ENDBRANCH  58  72
BRANCH  59  78
ATOM     78  C   UNL     1      13.150   2.927  -8.069  1.00  0.00    -0.014 A 
ATOM     79  C   UNL     1      13.949   1.864  -7.618  1.00  0.00     0.009 A 
ATOM     80  C   UNL     1      11.770   2.690  -8.209  1.00  0.00     0.009 A 
ATOM     81  C   UNL     1      13.382   0.623  -7.288  1.00  0.00     0.001 A 
ATOM     82  C   UNL     1      11.204   1.453  -7.881  1.00  0.00     0.001 A 
ATOM     83  C   UNL     1      12.009   0.423  -7.407  1.00  0.00     0.000 A 
ENDBRANCH  59  78
BRANCH  71  84
ATOM     84  C   UNL     1      17.399   7.471  -8.360  1.00  0.00    -0.014 A 
ATOM     85  C   UNL     1      16.770   7.238  -9.598  1.00  0.00     0.009 A 
ATOM     86  C   UNL     1      18.761   7.799  -8.363  1.00  0.00     0.009 A 
ATOM     87  C   UNL     1      17.491   7.302 -10.795  1.00  0.00     0.001 A 
ATOM     88  C   UNL     1      19.476   7.884  -9.559  1.00  0.00     0.001 A 
ATOM     89  C   UNL     1      18.843   7.630 -10.775  1.00  0.00     0.000 A 
ENDBRANCH  71  84
ENDBRANCH  45  46
ENDBRANCH  37  40
ENDBRANCH  35  36
ENDBRANCH  34  35
ENDBRANCH  33  34
ENDBRANCH   1  33
TORSDOF 17
