REMARK SMILES Cc1ccc(N)cc1S(=O)(=O)Nc1cccc(C(=O)NCCCCCCNC(=O)c2ccc(-c3c4nc(c(-c5ccccc5)c5ccc([nH]5)c(-c5ccccc5)c5nc(c(-c6ccccc6)c6ccc3[nH]6)C=C5)C=C4)cc2)c1
REMARK SMILES IDX 22 1 21 2 20 3 18 4 19 5 17 7 13 8 14 9 78 10 15 11 16 12
REMARK SMILES IDX 12 13 9 15 10 16 11 17 8 18 1 19 2 20 3 21 4 22 7 23 5 24
REMARK SMILES IDX 6 25 23 28 24 29 25 30 26 31 27 32 28 33 29 35 30 36 31 37
REMARK SMILES IDX 77 38 32 39 76 40 33 41 34 42 35 43 70 44 36 45 75 46 69 47
REMARK SMILES IDX 71 48 37 49 74 50 68 51 67 52 38 54 60 55 45 56 59 57 46 58
REMARK SMILES IDX 49 59 58 60 72 61 47 62 48 63 57 65 73 66 50 67 39 68 40 69
REMARK SMILES IDX 44 70 41 71 43 72 42 73 61 74 62 75 66 76 63 77 65 78 64 79
REMARK SMILES IDX 51 80 52 81 56 82 53 83 55 84 54 85
REMARK H PARENT 20 6 12 14 6 26 6 27 27 34 71 53 49 64
REMARK Flexibility Score: inf
ROOT
ATOM      1  C   UNL     1      -1.565  -0.003   4.064  1.00  0.00     0.021 C 
ENDROOT
BRANCH   1   2
ATOM      2  C   UNL     1      -1.662  -0.890   2.822  1.00  0.00     0.116 C 
BRANCH   2   3
ATOM      3  N   UNL     1      -2.818  -1.761   2.932  1.00  0.00    -0.352 N 
ATOM      4  C   UNL     1      -4.106  -1.674   2.472  1.00  0.00     0.251 C 
ATOM      5  O   UNL     1      -4.888  -2.562   2.816  1.00  0.00    -0.269 OA
ATOM      6  H   UNL     1      -2.640  -2.584   3.442  1.00  0.00     0.163 HD
BRANCH   4   7
ATOM      7  C   UNL     1      -4.574  -0.640   1.503  1.00  0.00     0.041 A 
ATOM      8  C   UNL     1      -4.240   1.329   0.149  1.00  0.00     0.050 A 
ATOM      9  C   UNL     1      -5.346   0.988  -0.636  1.00  0.00     0.027 A 
ATOM     10  C   UNL     1      -3.954   0.594   1.296  1.00  0.00     0.040 A 
ATOM     11  C   UNL     1      -6.068  -0.168  -0.359  1.00  0.00     0.003 A 
ATOM     12  C   UNL     1      -5.654  -1.000   0.679  1.00  0.00     0.014 A 
BRANCH   8  13
ATOM     13  N   UNL     1      -3.375   2.327  -0.374  1.00  0.00    -0.280 N 
ATOM     14  H   UNL     1      -3.768   2.944  -1.033  1.00  0.00     0.180 HD
BRANCH  13  15
ATOM     15  S   UNL     1      -1.770   2.573   0.004  1.00  0.00     0.262 S 
ATOM     16  O   UNL     1      -1.685   2.780   1.440  1.00  0.00    -0.201 OA
ATOM     17  O   UNL     1      -1.323   3.592  -0.910  1.00  0.00    -0.201 OA
BRANCH  15  18
ATOM     18  C   UNL     1      -0.755   1.133  -0.341  1.00  0.00     0.092 A 
ATOM     19  C   UNL     1      -2.394  -0.348  -1.703  1.00  0.00     0.046 C 
ATOM     20  C   UNL     1      -1.128  -0.070  -0.962  1.00  0.00    -0.030 A 
ATOM     21  C   UNL     1      -0.224  -1.152  -0.889  1.00  0.00     0.007 A 
ATOM     22  C   UNL     1       1.059  -1.006  -0.359  1.00  0.00     0.026 A 
ATOM     23  C   UNL     1       0.566   1.270   0.149  1.00  0.00     0.048 A 
ATOM     24  C   UNL     1       1.495   0.234   0.081  1.00  0.00     0.033 A 
BRANCH  24  25
ATOM     25  N   UNL     1       2.775   0.392   0.591  1.00  0.00    -0.399 N 
ATOM     26  H   UNL     1       3.421  -0.348   0.536  1.00  0.00     0.156 HD
ATOM     27  H   UNL     1       3.037   1.245   1.008  1.00  0.00     0.156 HD
ENDBRANCH  24  25
ENDBRANCH  15  18
ENDBRANCH  13  15
ENDBRANCH   8  13
ENDBRANCH   4   7
ENDBRANCH   2   3
ENDBRANCH   1   2
BRANCH   1  28
ATOM     28  C   UNL     1      -0.830  -0.700   5.214  1.00  0.00     0.002 C 
BRANCH  28  29
ATOM     29  C   UNL     1       0.664  -0.932   4.954  1.00  0.00     0.002 C 
BRANCH  29  30
ATOM     30  C   UNL     1       1.467   0.330   4.628  1.00  0.00     0.021 C 
BRANCH  30  31
ATOM     31  C   UNL     1       1.400   1.409   5.703  1.00  0.00     0.116 C 
BRANCH  31  32
ATOM     32  N   UNL     1       1.968   0.953   6.963  1.00  0.00    -0.352 N 
ATOM     33  C   UNL     1       2.913   1.557   7.752  1.00  0.00     0.251 C 
ATOM     34  H   UNL     1       1.627   0.092   7.295  1.00  0.00     0.163 HD
ATOM     35  O   UNL     1       3.434   0.948   8.681  1.00  0.00    -0.269 OA
BRANCH  33  36
ATOM     36  C   UNL     1       3.311   2.950   7.468  1.00  0.00     0.039 A 
ATOM     37  C   UNL     1       4.669   3.278   7.450  1.00  0.00     0.014 A 
ATOM     38  C   UNL     1       2.341   3.928   7.231  1.00  0.00     0.014 A 
ATOM     39  C   UNL     1       5.058   4.584   7.146  1.00  0.00     0.010 A 
ATOM     40  C   UNL     1       2.732   5.211   6.867  1.00  0.00     0.010 A 
ATOM     41  C   UNL     1       4.093   5.553   6.831  1.00  0.00    -0.014 A 
BRANCH  41  42
ATOM     42  C   UNL     1       4.472   6.944   6.490  1.00  0.00     0.031 A 
ATOM     43  C   UNL     1       4.069   8.069   7.401  1.00  0.00     0.074 A 
ATOM     44  C   UNL     1       5.103   7.203   5.330  1.00  0.00     0.049 A 
ATOM     45  N   UNL     1       4.201   9.360   7.230  1.00  0.00    -0.248 NA
ATOM     46  C   UNL     1       3.405   7.692   8.659  1.00  0.00     0.031 C 
ATOM     47  C   UNL     1       5.527   6.201   4.351  1.00  0.00     0.029 A 
ATOM     48  N   UNL     1       5.484   8.397   4.773  1.00  0.00    -0.354 N 
ATOM     49  C   UNL     1       3.612   9.947   8.342  1.00  0.00     0.074 A 
ATOM     50  C   UNL     1       3.087   8.876   9.160  1.00  0.00     0.031 C 
ATOM     51  C   UNL     1       6.127   6.822   3.322  1.00  0.00     0.029 A 
ATOM     52  C   UNL     1       6.091   8.263   3.549  1.00  0.00     0.049 A 
ATOM     53  H   UNL     1       5.338   9.268   5.209  1.00  0.00     0.167 HD
ATOM     54  C   UNL     1       3.527  11.261   8.661  1.00  0.00     0.031 A 
ATOM     55  C   UNL     1       6.556   9.198   2.699  1.00  0.00     0.031 A 
ATOM     56  C   UNL     1       4.061  12.324   7.854  1.00  0.00     0.049 A 
ATOM     57  C   UNL     1       6.438  10.650   3.067  1.00  0.00     0.074 A 
ATOM     58  C   UNL     1       4.072  13.683   8.113  1.00  0.00     0.029 A 
ATOM     59  N   UNL     1       4.679  12.144   6.626  1.00  0.00    -0.354 N 
ATOM     60  N   UNL     1       5.921  11.190   4.145  1.00  0.00    -0.248 NA
ATOM     61  C   UNL     1       6.976  11.621   2.104  1.00  0.00     0.031 C 
ATOM     62  C   UNL     1       4.660  14.330   7.021  1.00  0.00     0.029 A 
ATOM     63  C   UNL     1       5.061  13.369   6.106  1.00  0.00     0.049 A 
ATOM     64  H   UNL     1       4.825  11.274   6.188  1.00  0.00     0.167 HD
ATOM     65  C   UNL     1       6.100  12.560   4.005  1.00  0.00     0.074 A 
ATOM     66  C   UNL     1       6.778  12.768   2.741  1.00  0.00     0.031 C 
ATOM     67  C   UNL     1       5.740  13.556   4.850  1.00  0.00     0.031 A 
BRANCH  54  68
ATOM     68  C   UNL     1       2.815  11.611   9.937  1.00  0.00    -0.014 A 
ATOM     69  C   UNL     1       3.371  11.307  11.190  1.00  0.00     0.009 A 
ATOM     70  C   UNL     1       1.571  12.259   9.887  1.00  0.00     0.009 A 
ATOM     71  C   UNL     1       2.676  11.604  12.364  1.00  0.00     0.001 A 
ATOM     72  C   UNL     1       0.892  12.582  11.063  1.00  0.00     0.001 A 
ATOM     73  C   UNL     1       1.439  12.243  12.300  1.00  0.00     0.000 A 
ENDBRANCH  54  68
BRANCH  55  74
ATOM     74  C   UNL     1       7.199   8.786   1.426  1.00  0.00    -0.014 A 
ATOM     75  C   UNL     1       8.588   8.898   1.268  1.00  0.00     0.009 A 
ATOM     76  C   UNL     1       6.433   8.270   0.369  1.00  0.00     0.009 A 
ATOM     77  C   UNL     1       9.197   8.520   0.069  1.00  0.00     0.001 A 
ATOM     78  C   UNL     1       7.048   7.870  -0.820  1.00  0.00     0.001 A 
ATOM     79  C   UNL     1       8.427   8.002  -0.971  1.00  0.00     0.000 A 
ENDBRANCH  55  74
BRANCH  67  80
ATOM     80  C   UNL     1       6.114  14.957   4.461  1.00  0.00    -0.014 A 
ATOM     81  C   UNL     1       5.428  15.641   3.445  1.00  0.00     0.009 A 
ATOM     82  C   UNL     1       7.136  15.619   5.159  1.00  0.00     0.009 A 
ATOM     83  C   UNL     1       5.780  16.952   3.118  1.00  0.00     0.001 A 
ATOM     84  C   UNL     1       7.467  16.938   4.848  1.00  0.00     0.001 A 
ATOM     85  C   UNL     1       6.794  17.601   3.823  1.00  0.00     0.000 A 
ENDBRANCH  67  80
ENDBRANCH  41  42
ENDBRANCH  33  36
ENDBRANCH  31  32
ENDBRANCH  30  31
ENDBRANCH  29  30
ENDBRANCH  28  29
ENDBRANCH   1  28
TORSDOF 17
