REMARK SMILES Cc1cc(C(=O)NCCCCCCNC(=O)c2ccc(-c3c4nc(c(-c5ccccc5)c5ccc([nH]5)c(-c5ccccc5)c5nc(c(-c6ccccc6)c6ccc3[nH]6)C=C5)C=C4)cc2)ccc1NC(=O)N1C[C@@H](C)[C@H](C)C1
REMARK SMILES IDX 11 1 10 2 9 3 8 4 7 5 5 6 6 7 4 9 1 10 2 11 3 12 67 13 66 14
REMARK SMILES IDX 65 15 68 16 69 17 70 19 71 20 72 21 77 22 73 23 75 24 74 25
REMARK SMILES IDX 76 26 12 27 13 28 14 29 15 30 16 32 17 33 18 34 64 35 19 36
REMARK SMILES IDX 63 37 20 38 21 39 22 40 57 41 23 42 62 43 56 44 58 45 24 46
REMARK SMILES IDX 61 47 55 48 54 49 25 51 47 52 32 53 46 54 33 55 36 56 45 57
REMARK SMILES IDX 59 58 34 59 35 60 44 62 60 63 37 64 26 65 27 66 31 67 28 68
REMARK SMILES IDX 30 69 29 70 48 71 49 72 53 73 50 74 52 75 51 76 38 77 39 78
REMARK SMILES IDX 43 79 40 80 42 81 41 82
REMARK H PARENT 7 8 68 18 14 31 58 50 36 61
REMARK Flexibility Score: inf
ROOT
ATOM      1  C   UNL     1      -6.864  -2.896   0.264  1.00  0.00     0.002 C 
ENDROOT
BRANCH   1   2
ATOM      2  C   UNL     1      -6.003  -2.651  -0.986  1.00  0.00     0.002 C 
BRANCH   2   3
ATOM      3  C   UNL     1      -4.951  -1.536  -0.885  1.00  0.00     0.021 C 
BRANCH   3   4
ATOM      4  C   UNL     1      -3.953  -1.695   0.265  1.00  0.00     0.116 C 
BRANCH   4   5
ATOM      5  N   UNL     1      -2.961  -2.719  -0.022  1.00  0.00    -0.352 N 
ATOM      6  C   UNL     1      -1.614  -2.621  -0.283  1.00  0.00     0.251 C 
ATOM      7  O   UNL     1      -0.942  -3.648  -0.345  1.00  0.00    -0.269 OA
ATOM      8  H   UNL     1      -3.313  -3.638  -0.030  1.00  0.00     0.163 HD
BRANCH   6   9
ATOM      9  C   UNL     1      -0.946  -1.303  -0.427  1.00  0.00     0.040 A 
ATOM     10  C   UNL     1       2.419   0.160   0.544  1.00  0.00     0.046 C 
ATOM     11  C   UNL     1       0.986   0.117   0.085  1.00  0.00    -0.027 A 
ATOM     12  C   UNL     1       0.348  -1.142   0.084  1.00  0.00     0.019 A 
ATOM     13  C   UNL     1       0.272   1.234  -0.386  1.00  0.00     0.045 A 
ATOM     14  C   UNL     1      -0.948   1.024  -1.042  1.00  0.00     0.027 A 
ATOM     15  C   UNL     1      -1.542  -0.235  -1.084  1.00  0.00     0.016 A 
BRANCH  13  16
ATOM     16  N   UNL     1       0.791   2.538  -0.247  1.00  0.00    -0.308 N 
ATOM     17  C   UNL     1       0.167   3.741  -0.422  1.00  0.00     0.321 C 
ATOM     18  H   UNL     1       1.739   2.589   0.013  1.00  0.00     0.171 HD
ATOM     19  O   UNL     1       0.825   4.698  -0.831  1.00  0.00    -0.248 OA
ATOM     20  N   UNL     1      -1.163   3.853  -0.106  1.00  0.00    -0.324 N 
ATOM     21  C   UNL     1      -1.999   4.858  -0.736  1.00  0.00     0.125 C 
ATOM     22  C   UNL     1      -1.768   3.358   1.126  1.00  0.00     0.125 C 
ATOM     23  C   UNL     1      -3.144   5.111   0.245  1.00  0.00     0.010 C 
ATOM     24  C   UNL     1      -3.232   3.795   1.040  1.00  0.00     0.010 C 
ATOM     25  C   UNL     1      -4.443   5.482  -0.453  1.00  0.00     0.010 C 
ATOM     26  C   UNL     1      -3.897   3.962   2.401  1.00  0.00     0.010 C 
ENDBRANCH  13  16
ENDBRANCH   6   9
ENDBRANCH   4   5
ENDBRANCH   3   4
ENDBRANCH   2   3
ENDBRANCH   1   2
BRANCH   1  27
ATOM     27  C   UNL     1      -7.480  -1.653   0.912  1.00  0.00     0.021 C 
BRANCH  27  28
ATOM     28  C   UNL     1      -8.559  -0.978   0.070  1.00  0.00     0.116 C 
BRANCH  28  29
ATOM     29  N   UNL     1      -9.911  -1.360   0.429  1.00  0.00    -0.352 N 
ATOM     30  C   UNL     1     -11.114  -1.073  -0.217  1.00  0.00     0.251 C 
ATOM     31  H   UNL     1      -9.992  -1.901   1.247  1.00  0.00     0.163 HD
ATOM     32  O   UNL     1     -12.167  -1.455   0.257  1.00  0.00    -0.269 OA
BRANCH  30  33
ATOM     33  C   UNL     1     -11.084  -0.411  -1.543  1.00  0.00     0.039 A 
ATOM     34  C   UNL     1     -11.876  -0.958  -2.558  1.00  0.00     0.014 A 
ATOM     35  C   UNL     1     -10.169   0.596  -1.838  1.00  0.00     0.014 A 
ATOM     36  C   UNL     1     -11.575  -0.677  -3.890  1.00  0.00     0.010 A 
ATOM     37  C   UNL     1      -9.808   0.810  -3.155  1.00  0.00     0.010 A 
ATOM     38  C   UNL     1     -10.464   0.118  -4.175  1.00  0.00    -0.014 A 
BRANCH  38  39
ATOM     39  C   UNL     1      -9.842   0.164  -5.492  1.00  0.00     0.031 A 
ATOM     40  C   UNL     1     -10.023   1.327  -6.378  1.00  0.00     0.074 A 
ATOM     41  C   UNL     1      -9.060  -0.861  -5.894  1.00  0.00     0.049 A 
ATOM     42  N   UNL     1      -9.898   1.280  -7.662  1.00  0.00    -0.248 NA
ATOM     43  C   UNL     1     -10.414   2.640  -5.881  1.00  0.00     0.031 C 
ATOM     44  C   UNL     1      -8.164  -0.911  -7.045  1.00  0.00     0.029 A 
ATOM     45  N   UNL     1      -9.121  -2.179  -5.444  1.00  0.00    -0.354 N 
ATOM     46  C   UNL     1      -9.916   2.571  -8.126  1.00  0.00     0.074 A 
ATOM     47  C   UNL     1     -10.312   3.376  -6.992  1.00  0.00     0.031 C 
ATOM     48  C   UNL     1      -7.960  -2.196  -7.376  1.00  0.00     0.029 A 
ATOM     49  C   UNL     1      -8.838  -3.005  -6.548  1.00  0.00     0.049 A 
ATOM     50  H   UNL     1      -9.323  -2.476  -4.528  1.00  0.00     0.167 HD
ATOM     51  C   UNL     1      -9.477   2.839  -9.387  1.00  0.00     0.031 A 
ATOM     52  C   UNL     1      -9.781  -3.874  -7.017  1.00  0.00     0.031 A 
ATOM     53  C   UNL     1      -9.117   1.631 -10.126  1.00  0.00     0.049 A 
ATOM     54  C   UNL     1     -10.239  -3.604  -8.438  1.00  0.00     0.074 A 
ATOM     55  C   UNL     1      -7.920   1.025 -10.473  1.00  0.00     0.029 A 
ATOM     56  N   UNL     1     -10.107   0.700 -10.394  1.00  0.00    -0.354 N 
ATOM     57  N   UNL     1      -9.861  -2.585  -9.159  1.00  0.00    -0.248 NA
ATOM     58  C   UNL     1     -11.256  -4.415  -9.114  1.00  0.00     0.031 C 
ATOM     59  C   UNL     1      -8.207  -0.284 -10.957  1.00  0.00     0.029 A 
ATOM     60  C   UNL     1      -9.576  -0.464 -10.913  1.00  0.00     0.049 A 
ATOM     61  H   UNL     1     -11.066   0.849 -10.235  1.00  0.00     0.167 HD
ATOM     62  C   UNL     1     -10.586  -2.558 -10.321  1.00  0.00     0.074 A 
ATOM     63  C   UNL     1     -11.443  -3.727 -10.252  1.00  0.00     0.031 C 
ATOM     64  C   UNL     1     -10.475  -1.556 -11.237  1.00  0.00     0.031 A 
BRANCH  51  65
ATOM     65  C   UNL     1      -9.160   4.232  -9.867  1.00  0.00    -0.014 A 
ATOM     66  C   UNL     1      -8.153   4.425 -10.830  1.00  0.00     0.009 A 
ATOM     67  C   UNL     1      -9.784   5.395  -9.385  1.00  0.00     0.009 A 
ATOM     68  C   UNL     1      -7.725   5.703 -11.211  1.00  0.00     0.001 A 
ATOM     69  C   UNL     1      -9.333   6.677  -9.727  1.00  0.00     0.001 A 
ATOM     70  C   UNL     1      -8.293   6.830 -10.634  1.00  0.00     0.000 A 
ENDBRANCH  51  65
BRANCH  52  71
ATOM     71  C   UNL     1     -10.662  -4.423  -5.945  1.00  0.00    -0.014 A 
ATOM     72  C   UNL     1     -10.075  -5.201  -4.926  1.00  0.00     0.009 A 
ATOM     73  C   UNL     1     -11.950  -3.912  -5.740  1.00  0.00     0.009 A 
ATOM     74  C   UNL     1     -10.710  -5.360  -3.692  1.00  0.00     0.001 A 
ATOM     75  C   UNL     1     -12.592  -4.093  -4.509  1.00  0.00     0.001 A 
ATOM     76  C   UNL     1     -11.958  -4.782  -3.476  1.00  0.00     0.000 A 
ENDBRANCH  52  71
BRANCH  64  77
ATOM     77  C   UNL     1     -11.250  -1.517 -12.521  1.00  0.00    -0.014 A 
ATOM     78  C   UNL     1     -11.412  -2.647 -13.335  1.00  0.00     0.009 A 
ATOM     79  C   UNL     1     -11.739  -0.291 -13.014  1.00  0.00     0.009 A 
ATOM     80  C   UNL     1     -12.083  -2.563 -14.561  1.00  0.00     0.001 A 
ATOM     81  C   UNL     1     -12.389  -0.200 -14.246  1.00  0.00     0.001 A 
ATOM     82  C   UNL     1     -12.570  -1.341 -15.016  1.00  0.00     0.000 A 
ENDBRANCH  64  77
ENDBRANCH  38  39
ENDBRANCH  30  33
ENDBRANCH  28  29
ENDBRANCH  27  28
ENDBRANCH   1  27
TORSDOF 14
