REMARK SMILES O=C(NC[C@@H]1CCOC1)NC[C@@H]1CC[C@H](C(=O)NCCCCCCNC(=O)c2ccc(-c3c4nc(c(-c5ccccc5)c5ccc([nH]5)c(-c5ccccc5)c5nc(c(-c6ccccc6)c6ccc3[nH]6)C=C5)C=C4)cc2)O1
REMARK SMILES IDX 20 1 19 2 18 3 16 4 17 5 15 7 12 8 13 9 76 10 14 11 11 12
REMARK SMILES IDX 10 13 1 14 2 15 3 16 4 19 5 20 6 21 9 22 7 23 8 24 21 25
REMARK SMILES IDX 22 26 23 27 24 28 25 29 26 30 27 32 28 33 29 34 75 35 30 36
REMARK SMILES IDX 74 37 31 38 32 39 33 40 68 41 34 42 73 43 67 44 69 45 35 46
REMARK SMILES IDX 72 47 66 48 65 49 36 51 58 52 43 53 57 54 44 55 47 56 56 57
REMARK SMILES IDX 70 58 45 59 46 60 55 62 71 63 48 64 37 65 38 66 42 67 39 68
REMARK SMILES IDX 41 69 40 70 59 71 60 72 64 73 61 74 63 75 62 76 49 77 50 78
REMARK SMILES IDX 54 79 51 80 53 81 52 82
REMARK H PARENT 18 6 3 17 10 18 25 31 69 50 47 61
REMARK Flexibility Score: inf
ROOT
ATOM      1  C   UNL     1       2.959   6.255  -1.365  1.00  0.00     0.021 C 
ENDROOT
BRANCH   1   2
ATOM      2  C   UNL     1       3.824   5.100  -0.868  1.00  0.00     0.116 C 
BRANCH   2   3
ATOM      3  N   UNL     1       4.955   5.568  -0.100  1.00  0.00    -0.354 N 
ATOM      4  C   UNL     1       5.267   5.335   1.208  1.00  0.00     0.249 C 
ATOM      5  O   UNL     1       6.301   5.842   1.653  1.00  0.00    -0.272 OA
ATOM      6  H   UNL     1       5.592   6.137  -0.590  1.00  0.00     0.163 HD
BRANCH   4   7
ATOM      7  C   UNL     1       4.339   4.506   2.120  1.00  0.00     0.207 C 
ATOM      8  C   UNL     1       2.571   3.002   1.946  1.00  0.00     0.138 C 
ATOM      9  C   UNL     1       1.931   4.369   2.106  1.00  0.00     0.037 C 
ATOM     10  O   UNL     1       3.940   3.248   1.568  1.00  0.00    -0.363 OA
ATOM     11  C   UNL     1       3.078   5.254   2.539  1.00  0.00     0.045 C 
BRANCH   8  12
ATOM     12  C   UNL     1       1.895   2.139   0.878  1.00  0.00     0.149 C 
BRANCH  12  13
ATOM     13  N   UNL     1       2.666   0.940   0.611  1.00  0.00    -0.336 N 
ATOM     14  O   UNL     1       0.881  -0.324  -0.001  1.00  0.00    -0.249 OA
ATOM     15  C   UNL     1       2.089  -0.198   0.156  1.00  0.00     0.314 C 
ATOM     16  N   UNL     1       2.910  -1.236  -0.122  1.00  0.00    -0.338 N 
ATOM     17  H   UNL     1       2.444  -2.054  -0.411  1.00  0.00     0.165 HD
ATOM     18  H   UNL     1       3.638   0.953   0.765  1.00  0.00     0.165 HD
BRANCH  16  19
ATOM     19  C   UNL     1       4.352  -1.363  -0.070  1.00  0.00     0.123 C 
BRANCH  19  20
ATOM     20  C   UNL     1       4.903  -2.082   1.180  1.00  0.00     0.036 C 
ATOM     21  C   UNL     1       5.806  -3.240   0.777  1.00  0.00     0.036 C 
ATOM     22  C   UNL     1       3.879  -2.840   2.013  1.00  0.00     0.165 C 
ATOM     23  C   UNL     1       4.814  -4.362   0.527  1.00  0.00     0.160 C 
ATOM     24  O   UNL     1       3.671  -4.097   1.353  1.00  0.00    -0.381 OA
ENDBRANCH  19  20
ENDBRANCH  16  19
ENDBRANCH  12  13
ENDBRANCH   8  12
ENDBRANCH   4   7
ENDBRANCH   2   3
ENDBRANCH   1   2
BRANCH   1  25
ATOM     25  C   UNL     1       3.404   6.810  -2.719  1.00  0.00     0.002 C 
BRANCH  25  26
ATOM     26  C   UNL     1       3.349   5.805  -3.878  1.00  0.00     0.002 C 
BRANCH  26  27
ATOM     27  C   UNL     1       1.996   5.120  -4.092  1.00  0.00     0.021 C 
BRANCH  27  28
ATOM     28  C   UNL     1       0.833   6.072  -4.359  1.00  0.00     0.116 C 
BRANCH  28  29
ATOM     29  N   UNL     1       1.054   6.880  -5.548  1.00  0.00    -0.352 N 
ATOM     30  C   UNL     1       0.282   7.015  -6.673  1.00  0.00     0.251 C 
ATOM     31  H   UNL     1       1.884   7.410  -5.545  1.00  0.00     0.163 HD
ATOM     32  O   UNL     1       0.736   7.576  -7.666  1.00  0.00    -0.269 OA
BRANCH  30  33
ATOM     33  C   UNL     1      -1.095   6.481  -6.696  1.00  0.00     0.039 A 
ATOM     34  C   UNL     1      -1.534   5.798  -7.833  1.00  0.00     0.014 A 
ATOM     35  C   UNL     1      -1.961   6.682  -5.618  1.00  0.00     0.014 A 
ATOM     36  C   UNL     1      -2.827   5.272  -7.869  1.00  0.00     0.010 A 
ATOM     37  C   UNL     1      -3.227   6.103  -5.628  1.00  0.00     0.010 A 
ATOM     38  C   UNL     1      -3.674   5.398  -6.756  1.00  0.00    -0.014 A 
BRANCH  38  39
ATOM     39  C   UNL     1      -5.032   4.801  -6.754  1.00  0.00     0.031 A 
ATOM     40  C   UNL     1      -6.248   5.683  -6.689  1.00  0.00     0.074 A 
ATOM     41  C   UNL     1      -5.168   3.461  -6.744  1.00  0.00     0.049 A 
ATOM     42  N   UNL     1      -7.510   5.344  -6.617  1.00  0.00    -0.248 NA
ATOM     43  C   UNL     1      -6.014   7.136  -6.681  1.00  0.00     0.031 C 
ATOM     44  C   UNL     1      -4.066   2.496  -6.763  1.00  0.00     0.029 A 
ATOM     45  N   UNL     1      -6.295   2.679  -6.706  1.00  0.00    -0.354 N 
ATOM     46  C   UNL     1      -8.217   6.537  -6.534  1.00  0.00     0.074 A 
ATOM     47  C   UNL     1      -7.242   7.606  -6.521  1.00  0.00     0.031 C 
ATOM     48  C   UNL     1      -4.572   1.252  -6.759  1.00  0.00     0.029 A 
ATOM     49  C   UNL     1      -6.028   1.331  -6.698  1.00  0.00     0.049 A 
ATOM     50  H   UNL     1      -7.207   3.048  -6.686  1.00  0.00     0.167 HD
ATOM     51  C   UNL     1      -9.557   6.727  -6.490  1.00  0.00     0.031 A 
ATOM     52  C   UNL     1      -6.862   0.276  -6.641  1.00  0.00     0.031 A 
ATOM     53  C   UNL     1     -10.527   5.664  -6.516  1.00  0.00     0.049 A 
ATOM     54  C   UNL     1      -8.345   0.514  -6.587  1.00  0.00     0.074 A 
ATOM     55  C   UNL     1     -11.907   5.758  -6.537  1.00  0.00     0.029 A 
ATOM     56  N   UNL     1     -10.216   4.314  -6.522  1.00  0.00    -0.354 N 
ATOM     57  N   UNL     1      -9.000   1.649  -6.580  1.00  0.00    -0.248 NA
ATOM     58  C   UNL     1      -9.204  -0.678  -6.545  1.00  0.00     0.031 C 
ATOM     59  C   UNL     1     -12.433   4.462  -6.508  1.00  0.00     0.029 A 
ATOM     60  C   UNL     1     -11.379   3.562  -6.523  1.00  0.00     0.049 A 
ATOM     61  H   UNL     1      -9.304   3.943  -6.526  1.00  0.00     0.167 HD
ATOM     62  C   UNL     1     -10.346   1.310  -6.559  1.00  0.00     0.074 A 
ATOM     63  C   UNL     1     -10.414  -0.137  -6.571  1.00  0.00     0.031 C 
ATOM     64  C   UNL     1     -11.429   2.123  -6.533  1.00  0.00     0.031 A 
BRANCH  51  65
ATOM     65  C   UNL     1     -10.053   8.143  -6.399  1.00  0.00    -0.014 A 
ATOM     66  C   UNL     1      -9.946   9.023  -7.488  1.00  0.00     0.009 A 
ATOM     67  C   UNL     1     -10.667   8.594  -5.220  1.00  0.00     0.009 A 
ATOM     68  C   UNL     1     -10.411  10.336  -7.384  1.00  0.00     0.001 A 
ATOM     69  C   UNL     1     -11.157   9.898  -5.129  1.00  0.00     0.001 A 
ATOM     70  C   UNL     1     -11.020  10.771  -6.208  1.00  0.00     0.000 A 
ENDBRANCH  51  65
BRANCH  52  71
ATOM     71  C   UNL     1      -6.314  -1.105  -6.648  1.00  0.00    -0.014 A 
ATOM     72  C   UNL     1      -6.469  -1.925  -7.776  1.00  0.00     0.009 A 
ATOM     73  C   UNL     1      -5.635  -1.610  -5.529  1.00  0.00     0.009 A 
ATOM     74  C   UNL     1      -5.977  -3.232  -7.773  1.00  0.00     0.001 A 
ATOM     75  C   UNL     1      -5.120  -2.908  -5.539  1.00  0.00     0.001 A 
ATOM     76  C   UNL     1      -5.299  -3.721  -6.657  1.00  0.00     0.000 A 
ENDBRANCH  52  71
BRANCH  64  77
ATOM     77  C   UNL     1     -12.781   1.467  -6.548  1.00  0.00    -0.014 A 
ATOM     78  C   UNL     1     -13.281   0.803  -5.418  1.00  0.00     0.009 A 
ATOM     79  C   UNL     1     -13.580   1.551  -7.699  1.00  0.00     0.009 A 
ATOM     80  C   UNL     1     -14.543   0.207  -5.452  1.00  0.00     0.001 A 
ATOM     81  C   UNL     1     -14.852   0.979  -7.721  1.00  0.00     0.001 A 
ATOM     82  C   UNL     1     -15.329   0.300  -6.601  1.00  0.00     0.000 A 
ENDBRANCH  64  77
ENDBRANCH  38  39
ENDBRANCH  30  33
ENDBRANCH  28  29
ENDBRANCH  27  28
ENDBRANCH  26  27
ENDBRANCH  25  26
ENDBRANCH   1  25
TORSDOF 17
