REMARK SMILES Cc1ccc(S(=O)(=O)n2cc(C(=O)C(=O)N[C@H](Cc3c[nH]c4ccccc34)C(=O)NCC(=O)NCCCCCCNC(=O)c3ccc(-c4c5nc(c(-c6ccccc6)c6ccc([nH]6)c(-c6ccccc6)c6nc(c(-c7ccccc7)c7ccc4[nH]7)C=C6)C=C5)cc3)c3ccccc32)cc1
REMARK SMILES IDX 35 1 34 2 32 3 33 4 31 6 30 7 28 8 29 9 17 11 16 12 14 13
REMARK SMILES IDX 15 14 12 16 13 17 11 18 9 19 10 20 97 21 92 22 96 23 93 24
REMARK SMILES IDX 95 25 94 26 6 27 7 28 8 29 5 30 1 31 2 32 3 33 99 34 4 35
REMARK SMILES IDX 98 36 18 37 19 38 20 39 27 40 21 41 22 42 26 43 23 45 25 46
REMARK SMILES IDX 24 47 36 48 37 49 38 50 39 51 40 52 41 53 42 54 43 56 44 57
REMARK SMILES IDX 45 58 91 59 46 60 90 61 47 62 48 63 49 64 84 65 50 66 89 67
REMARK SMILES IDX 83 68 85 69 51 70 88 71 82 72 81 73 52 75 74 76 59 77 73 78
REMARK SMILES IDX 60 79 63 80 72 81 86 82 61 83 62 84 71 86 87 87 64 88 53 89
REMARK SMILES IDX 54 90 58 91 55 92 57 93 56 94 75 95 76 96 80 97 77 98 79 99
REMARK SMILES IDX 78 100 65 101 66 102 70 103 67 104 69 105 68 106
REMARK H PARENT 34 5 30 10 16 15 21 44 41 55 85 74 63 85
REMARK Flexibility Score: inf
ROOT
ATOM      1  C   UNL     1     -10.543   4.630  -2.896  1.00  0.00     0.116 C 
ENDROOT
BRANCH   1   2
ATOM      2  N   UNL     1     -11.871   5.187  -3.120  1.00  0.00    -0.355 N 
ATOM      3  C   UNL     1     -13.067   4.901  -2.522  1.00  0.00     0.239 C 
ATOM      4  O   UNL     1     -13.989   5.704  -2.704  1.00  0.00    -0.273 OA
ATOM      5  H   UNL     1     -11.914   5.883  -3.816  1.00  0.00     0.163 HD
BRANCH   3   6
ATOM      6  C   UNL     1     -13.260   3.741  -1.527  1.00  0.00     0.216 C 
BRANCH   6   7
ATOM      7  N   UNL     1     -12.651   2.488  -1.898  1.00  0.00    -0.345 N 
ATOM      8  C   UNL     1     -11.985   1.525  -1.228  1.00  0.00     0.243 C 
ATOM      9  O   UNL     1     -11.784   0.506  -1.906  1.00  0.00    -0.273 OA
ATOM     10  H   UNL     1     -12.741   2.290  -2.858  1.00  0.00     0.164 HD
BRANCH   8  11
ATOM     11  C   UNL     1     -11.414   1.595   0.227  1.00  0.00     0.176 C 
BRANCH  11  12
ATOM     12  N   UNL     1     -12.167   2.256   1.348  1.00  0.00    -0.337 N 
ATOM     13  C   UNL     1     -12.217   3.530   1.901  1.00  0.00     0.293 C 
ATOM     14  O   UNL     1     -12.880   3.724   2.916  1.00  0.00    -0.265 OA
ATOM     15  H   UNL     1     -12.776   1.631   1.804  1.00  0.00     0.164 HD
BRANCH  13  16
ATOM     16  C   UNL     1     -11.485   4.699   1.250  1.00  0.00     0.252 C 
ATOM     17  O   UNL     1     -10.818   4.393   0.258  1.00  0.00    -0.283 OA
BRANCH  16  18
ATOM     18  C   UNL     1     -11.486   6.109   1.692  1.00  0.00     0.054 A 
ATOM     19  N   UNL     1     -11.423   8.140   2.706  1.00  0.00    -0.240 N 
ATOM     20  C   UNL     1     -11.975   6.835   2.787  1.00  0.00     0.117 A 
ATOM     21  C   UNL     1     -10.357   8.027   1.795  1.00  0.00     0.065 A 
ATOM     22  C   UNL     1     -10.871   7.110   0.892  1.00  0.00     0.012 A 
ATOM     23  C   UNL     1      -9.320   8.903   1.444  1.00  0.00     0.028 A 
ATOM     24  C   UNL     1     -10.628   7.298  -0.472  1.00  0.00     0.011 A 
ATOM     25  C   UNL     1      -9.063   9.045   0.072  1.00  0.00     0.002 A 
ATOM     26  C   UNL     1      -9.769   8.312  -0.877  1.00  0.00     0.001 A 
BRANCH  19  27
ATOM     27  S   UNL     1     -12.419   9.581   2.311  1.00  0.00     0.268 S 
ATOM     28  O   UNL     1     -13.440   9.091   1.406  1.00  0.00    -0.201 OA
ATOM     29  O   UNL     1     -11.425  10.553   1.871  1.00  0.00    -0.201 OA
BRANCH  27  30
ATOM     30  C   UNL     1     -13.234  10.457   3.603  1.00  0.00     0.088 A 
ATOM     31  C   UNL     1     -15.191  13.201   6.297  1.00  0.00     0.044 C 
ATOM     32  C   UNL     1     -14.554  12.215   5.361  1.00  0.00    -0.051 A 
ATOM     33  C   UNL     1     -14.024  12.703   4.175  1.00  0.00     0.005 A 
ATOM     34  C   UNL     1     -14.432  10.839   5.652  1.00  0.00     0.005 A 
ATOM     35  C   UNL     1     -13.388  11.832   3.307  1.00  0.00     0.022 A 
ATOM     36  C   UNL     1     -13.769   9.947   4.775  1.00  0.00     0.022 A 
ENDBRANCH  27  30
ENDBRANCH  19  27
ENDBRANCH  16  18
ENDBRANCH  13  16
ENDBRANCH  11  12
BRANCH  11  37
ATOM     37  C   UNL     1      -9.857   1.610   0.366  1.00  0.00     0.072 C 
BRANCH  37  38
ATOM     38  C   UNL     1      -9.026   1.448  -0.881  1.00  0.00    -0.020 A 
ATOM     39  C   UNL     1      -8.341   2.475  -1.498  1.00  0.00     0.087 A 
ATOM     40  C   UNL     1      -8.743   0.264  -1.651  1.00  0.00     0.003 A 
ATOM     41  N   UNL     1      -7.770   1.995  -2.641  1.00  0.00    -0.361 N 
ATOM     42  C   UNL     1      -8.028   0.659  -2.784  1.00  0.00     0.046 A 
ATOM     43  C   UNL     1      -9.062  -1.104  -1.531  1.00  0.00     0.010 A 
ATOM     44  H   UNL     1      -7.245   2.535  -3.275  1.00  0.00     0.166 HD
ATOM     45  C   UNL     1      -7.689  -0.211  -3.827  1.00  0.00     0.026 A 
ATOM     46  C   UNL     1      -8.704  -1.997  -2.554  1.00  0.00     0.001 A 
ATOM     47  C   UNL     1      -8.046  -1.551  -3.696  1.00  0.00     0.002 A 
ENDBRANCH  37  38
ENDBRANCH  11  37
ENDBRANCH   8  11
ENDBRANCH   6   7
ENDBRANCH   3   6
ENDBRANCH   1   2
BRANCH   1  48
ATOM     48  C   UNL     1      -9.704   4.529  -4.172  1.00  0.00     0.021 C 
BRANCH  48  49
ATOM     49  C   UNL     1      -8.868   5.753  -4.583  1.00  0.00     0.002 C 
BRANCH  49  50
ATOM     50  C   UNL     1      -7.822   6.352  -3.623  1.00  0.00     0.002 C 
BRANCH  50  51
ATOM     51  C   UNL     1      -6.616   5.536  -3.144  1.00  0.00     0.021 C 
BRANCH  51  52
ATOM     52  C   UNL     1      -5.808   4.755  -4.175  1.00  0.00     0.116 C 
BRANCH  52  53
ATOM     53  N   UNL     1      -4.500   5.302  -4.514  1.00  0.00    -0.352 N 
ATOM     54  C   UNL     1      -3.496   4.769  -5.319  1.00  0.00     0.251 C 
ATOM     55  H   UNL     1      -4.296   6.178  -4.114  1.00  0.00     0.163 HD
ATOM     56  O   UNL     1      -2.438   5.355  -5.444  1.00  0.00    -0.269 OA
BRANCH  54  57
ATOM     57  C   UNL     1      -3.778   3.567  -6.154  1.00  0.00     0.039 A 
ATOM     58  C   UNL     1      -3.385   3.612  -7.498  1.00  0.00     0.014 A 
ATOM     59  C   UNL     1      -4.620   2.554  -5.715  1.00  0.00     0.014 A 
ATOM     60  C   UNL     1      -4.077   2.853  -8.438  1.00  0.00     0.010 A 
ATOM     61  C   UNL     1      -5.387   1.892  -6.647  1.00  0.00     0.010 A 
ATOM     62  C   UNL     1      -5.168   2.107  -8.008  1.00  0.00    -0.014 A 
BRANCH  62  63
ATOM     63  C   UNL     1      -6.201   1.591  -8.890  1.00  0.00     0.031 A 
ATOM     64  C   UNL     1      -6.214   0.168  -9.256  1.00  0.00     0.074 A 
ATOM     65  C   UNL     1      -7.205   2.406  -9.278  1.00  0.00     0.049 A 
ATOM     66  N   UNL     1      -6.842  -0.301 -10.278  1.00  0.00    -0.248 NA
ATOM     67  C   UNL     1      -5.468  -0.843  -8.518  1.00  0.00     0.031 C 
ATOM     68  C   UNL     1      -8.475   2.041  -9.900  1.00  0.00     0.029 A 
ATOM     69  N   UNL     1      -7.158   3.796  -9.383  1.00  0.00    -0.354 N 
ATOM     70  C   UNL     1      -6.826  -1.669 -10.178  1.00  0.00     0.074 A 
ATOM     71  C   UNL     1      -5.889  -1.961  -9.118  1.00  0.00     0.031 C 
ATOM     72  C   UNL     1      -8.962   3.112 -10.547  1.00  0.00     0.029 A 
ATOM     73  C   UNL     1      -7.943   4.147 -10.499  1.00  0.00     0.049 A 
ATOM     74  H   UNL     1      -6.669   4.413  -8.792  1.00  0.00     0.167 HD
ATOM     75  C   UNL     1      -7.703  -2.394 -10.926  1.00  0.00     0.031 A 
ATOM     76  C   UNL     1      -7.361   4.727 -11.592  1.00  0.00     0.031 A 
ATOM     77  C   UNL     1      -8.478  -1.547 -11.832  1.00  0.00     0.049 A 
ATOM     78  C   UNL     1      -7.446   3.898 -12.861  1.00  0.00     0.074 A 
ATOM     79  C   UNL     1      -9.769  -1.045 -11.827  1.00  0.00     0.029 A 
ATOM     80  N   UNL     1      -7.798  -0.839 -12.807  1.00  0.00    -0.354 N 
ATOM     81  N   UNL     1      -7.922   2.685 -12.920  1.00  0.00    -0.248 NA
ATOM     82  C   UNL     1      -6.908   4.340 -14.149  1.00  0.00     0.031 C 
ATOM     83  C   UNL     1      -9.852  -0.027 -12.822  1.00  0.00     0.029 A 
ATOM     84  C   UNL     1      -8.620   0.070 -13.439  1.00  0.00     0.049 A 
ATOM     85  H   UNL     1      -6.846  -0.969 -13.023  1.00  0.00     0.167 HD
ATOM     86  C   UNL     1      -7.727   2.173 -14.175  1.00  0.00     0.074 A 
ATOM     87  C   UNL     1      -7.089   3.248 -14.912  1.00  0.00     0.031 C 
ATOM     88  C   UNL     1      -8.060   0.890 -14.501  1.00  0.00     0.031 A 
BRANCH  75  89
ATOM     89  C   UNL     1      -8.009  -3.849 -10.684  1.00  0.00    -0.014 A 
ATOM     90  C   UNL     1      -9.257  -4.365 -11.077  1.00  0.00     0.009 A 
ATOM     91  C   UNL     1      -7.140  -4.753 -10.052  1.00  0.00     0.009 A 
ATOM     92  C   UNL     1      -9.646  -5.677 -10.778  1.00  0.00     0.001 A 
ATOM     93  C   UNL     1      -7.534  -6.055  -9.716  1.00  0.00     0.001 A 
ATOM     94  C   UNL     1      -8.793  -6.515 -10.072  1.00  0.00     0.000 A 
ENDBRANCH  75  89
BRANCH  76  95
ATOM     95  C   UNL     1      -6.214   5.611 -11.223  1.00  0.00    -0.014 A 
ATOM     96  C   UNL     1      -6.481   6.745 -10.427  1.00  0.00     0.009 A 
ATOM     97  C   UNL     1      -4.896   5.138 -11.293  1.00  0.00     0.009 A 
ATOM     98  C   UNL     1      -5.489   7.294  -9.608  1.00  0.00     0.001 A 
ATOM     99  C   UNL     1      -3.901   5.709 -10.490  1.00  0.00     0.001 A 
ATOM    100  C   UNL     1      -4.208   6.753  -9.616  1.00  0.00     0.000 A 
ENDBRANCH  76  95
BRANCH  88 101
ATOM    101  C   UNL     1      -7.844   0.268 -15.855  1.00  0.00    -0.014 A 
ATOM    102  C   UNL     1      -8.061   0.957 -17.054  1.00  0.00     0.009 A 
ATOM    103  C   UNL     1      -7.525  -1.104 -15.956  1.00  0.00     0.009 A 
ATOM    104  C   UNL     1      -7.902   0.319 -18.293  1.00  0.00     0.001 A 
ATOM    105  C   UNL     1      -7.388  -1.748 -17.186  1.00  0.00     0.001 A 
ATOM    106  C   UNL     1      -7.564  -1.031 -18.358  1.00  0.00     0.000 A 
ENDBRANCH  88 101
ENDBRANCH  62  63
ENDBRANCH  54  57
ENDBRANCH  52  53
ENDBRANCH  51  52
ENDBRANCH  50  51
ENDBRANCH  49  50
ENDBRANCH  48  49
ENDBRANCH   1  48
TORSDOF 22
