REMARK SMILES Cc1ccc(C(=O)NC2(CC(=O)NCCCCCCNC(=O)c3ccc(-c4c5nc(c(-c6ccccc6)c6ccc([nH]6)c(-c6ccccc6)c6nc(c(-c7ccccc7)c7ccc4[nH]7)C=C6)C=C5)cc3)CCC2)cc1
REMARK SMILES IDX 16 1 15 2 14 3 13 4 11 5 12 6 10 8 9 9 71 10 73 11 72 12
REMARK SMILES IDX 8 13 6 14 7 15 5 17 1 18 2 19 3 20 75 21 4 22 74 23 17 24
REMARK SMILES IDX 18 25 19 26 20 27 21 28 22 30 23 31 24 32 70 33 25 34 69 35
REMARK SMILES IDX 26 36 27 37 28 38 63 39 29 40 68 41 62 42 64 43 30 44 67 45
REMARK SMILES IDX 61 46 60 47 31 49 53 50 38 51 52 52 39 53 42 54 51 55 65 56
REMARK SMILES IDX 40 57 41 58 50 60 66 61 43 62 32 63 33 64 37 65 34 66 36 67
REMARK SMILES IDX 35 68 54 69 55 70 59 71 56 72 58 73 57 74 44 75 45 76 49 77
REMARK SMILES IDX 46 78 48 79 47 80
REMARK H PARENT 13 7 8 16 20 29 64 48 42 59
REMARK Flexibility Score: inf
ROOT
ATOM      1  C   UNL     1       0.623   0.004   3.489  1.00  0.00     0.002 C 
ENDROOT
BRANCH   1   2
ATOM      2  C   UNL     1      -0.415   1.020   3.061  1.00  0.00     0.021 C 
BRANCH   2   3
ATOM      3  C   UNL     1      -0.131   1.618   1.707  1.00  0.00     0.116 C 
BRANCH   3   4
ATOM      4  N   UNL     1      -0.390   0.592   0.437  1.00  0.00    -0.356 N 
ATOM      5  C   UNL     1      -1.291   0.613  -1.320  1.00  0.00     0.222 C 
ATOM      6  O   UNL     1      -1.141  -0.123  -2.333  1.00  0.00    -0.275 OA
ATOM      7  H   UNL     1       0.026  -0.284   0.606  1.00  0.00     0.163 HD
BRANCH   5   8
ATOM      8  C   UNL     1      -2.667   1.841  -1.768  1.00  0.00     0.128 C 
BRANCH   8   9
ATOM      9  C   UNL     1      -3.743   2.540  -0.674  1.00  0.00     0.049 C 
ATOM     10  C   UNL     1      -4.465   3.861  -1.117  1.00  0.00     0.029 C 
ATOM     11  C   UNL     1      -3.636   3.402   0.786  1.00  0.00     0.029 C 
ATOM     12  C   UNL     1      -3.674   4.668  -0.039  1.00  0.00     0.005 C 
BRANCH   9  13
ATOM     13  N   UNL     1      -4.530   1.416  -0.194  1.00  0.00    -0.346 N 
ATOM     14  C   UNL     1      -3.825   0.547   0.588  1.00  0.00     0.251 C 
ATOM     15  O   UNL     1      -4.331  -0.365   1.221  1.00  0.00    -0.269 OA
ATOM     16  H   UNL     1      -5.482   1.293  -0.411  1.00  0.00     0.164 HD
BRANCH  14  17
ATOM     17  C   UNL     1      -2.341   0.704   0.425  1.00  0.00     0.039 A 
ATOM     18  C   UNL     1       2.413   0.033  -1.174  1.00  0.00     0.044 C 
ATOM     19  C   UNL     1       0.920   0.250  -1.130  1.00  0.00    -0.051 A 
ATOM     20  C   UNL     1      -0.075  -1.183  -0.662  1.00  0.00     0.004 A 
ATOM     21  C   UNL     1       0.313   1.931  -0.928  1.00  0.00     0.004 A 
ATOM     22  C   UNL     1      -1.682  -0.959   0.103  1.00  0.00     0.014 A 
ATOM     23  C   UNL     1      -1.309   2.206  -0.122  1.00  0.00     0.014 A 
ENDBRANCH  14  17
ENDBRANCH   9  13
ENDBRANCH   8   9
ENDBRANCH   5   8
ENDBRANCH   3   4
ENDBRANCH   2   3
ENDBRANCH   1   2
BRANCH   1  24
ATOM     24  C   UNL     1       2.070   0.332   3.084  1.00  0.00     0.002 C 
BRANCH  24  25
ATOM     25  C   UNL     1       2.580   1.756   3.347  1.00  0.00     0.021 C 
BRANCH  25  26
ATOM     26  C   UNL     1       2.474   2.171   4.785  1.00  0.00     0.116 C 
BRANCH  26  27
ATOM     27  N   UNL     1       3.465   1.498   5.587  1.00  0.00    -0.352 N 
ATOM     28  C   UNL     1       3.971   1.827   6.819  1.00  0.00     0.251 C 
ATOM     29  H   UNL     1       3.836   0.677   5.189  1.00  0.00     0.163 HD
ATOM     30  O   UNL     1       5.020   1.303   7.185  1.00  0.00    -0.269 OA
BRANCH  28  31
ATOM     31  C   UNL     1       3.131   2.587   7.791  1.00  0.00     0.039 A 
ATOM     32  C   UNL     1       3.129   1.985   9.057  1.00  0.00     0.014 A 
ATOM     33  C   UNL     1       1.993   3.239   7.337  1.00  0.00     0.014 A 
ATOM     34  C   UNL     1       1.916   1.664   9.636  1.00  0.00     0.010 A 
ATOM     35  C   UNL     1       0.794   2.753   7.772  1.00  0.00     0.010 A 
ATOM     36  C   UNL     1       0.773   1.931   8.897  1.00  0.00    -0.014 A 
BRANCH  36  37
ATOM     37  C   UNL     1      -0.564   1.623   9.327  1.00  0.00     0.031 A 
ATOM     38  C   UNL     1      -1.167   2.690  10.143  1.00  0.00     0.074 A 
ATOM     39  C   UNL     1      -1.159   0.536   8.789  1.00  0.00     0.049 A 
ATOM     40  N   UNL     1      -2.131   2.519  10.962  1.00  0.00    -0.248 NA
ATOM     41  C   UNL     1      -0.656   4.072  10.165  1.00  0.00     0.031 C 
ATOM     42  C   UNL     1      -2.561   0.146   8.775  1.00  0.00     0.029 A 
ATOM     43  N   UNL     1      -0.501  -0.585   8.278  1.00  0.00    -0.354 N 
ATOM     44  C   UNL     1      -2.600   3.773  11.293  1.00  0.00     0.074 A 
ATOM     45  C   UNL     1      -1.569   4.696  10.912  1.00  0.00     0.031 C 
ATOM     46  C   UNL     1      -2.642  -1.188   8.592  1.00  0.00     0.029 A 
ATOM     47  C   UNL     1      -1.282  -1.712   8.597  1.00  0.00     0.049 A 
ATOM     48  H   UNL     1       0.352  -0.587   7.786  1.00  0.00     0.167 HD
ATOM     49  C   UNL     1      -3.900   3.877  11.669  1.00  0.00     0.031 A 
ATOM     50  C   UNL     1      -0.800  -2.615   9.507  1.00  0.00     0.031 A 
ATOM     51  C   UNL     1      -4.492   2.543  11.701  1.00  0.00     0.049 A 
ATOM     52  C   UNL     1      -1.567  -2.508  10.809  1.00  0.00     0.074 A 
ATOM     53  C   UNL     1      -5.196   1.831  10.744  1.00  0.00     0.029 A 
ATOM     54  N   UNL     1      -3.980   1.618  12.598  1.00  0.00    -0.354 N 
ATOM     55  N   UNL     1      -2.127  -1.405  11.237  1.00  0.00    -0.248 NA
ATOM     56  C   UNL     1      -1.856  -3.656  11.665  1.00  0.00     0.031 C 
ATOM     57  C   UNL     1      -5.008   0.449  11.022  1.00  0.00     0.029 A 
ATOM     58  C   UNL     1      -4.207   0.333  12.146  1.00  0.00     0.049 A 
ATOM     59  H   UNL     1      -3.519   1.845  13.437  1.00  0.00     0.167 HD
ATOM     60  C   UNL     1      -2.904  -1.692  12.326  1.00  0.00     0.074 A 
ATOM     61  C   UNL     1      -2.672  -3.104  12.579  1.00  0.00     0.031 C 
ATOM     62  C   UNL     1      -3.736  -0.795  12.931  1.00  0.00     0.031 A 
BRANCH  49  63
ATOM     63  C   UNL     1      -4.717   5.137  11.724  1.00  0.00    -0.014 A 
ATOM     64  C   UNL     1      -6.119   5.009  11.737  1.00  0.00     0.009 A 
ATOM     65  C   UNL     1      -4.214   6.448  11.733  1.00  0.00     0.009 A 
ATOM     66  C   UNL     1      -6.973   6.115  11.728  1.00  0.00     0.001 A 
ATOM     67  C   UNL     1      -5.066   7.565  11.719  1.00  0.00     0.001 A 
ATOM     68  C   UNL     1      -6.445   7.397  11.714  1.00  0.00     0.000 A 
ENDBRANCH  49  63
BRANCH  50  69
ATOM     69  C   UNL     1       0.679  -2.813   9.347  1.00  0.00    -0.014 A 
ATOM     70  C   UNL     1       1.104  -3.412   8.137  1.00  0.00     0.009 A 
ATOM     71  C   UNL     1       1.587  -1.995  10.033  1.00  0.00     0.009 A 
ATOM     72  C   UNL     1       2.294  -3.011   7.519  1.00  0.00     0.001 A 
ATOM     73  C   UNL     1       2.794  -1.624   9.420  1.00  0.00     0.001 A 
ATOM     74  C   UNL     1       3.113  -2.075   8.139  1.00  0.00     0.000 A 
ENDBRANCH  50  69
BRANCH  62  75
ATOM     75  C   UNL     1      -4.254  -0.935  14.338  1.00  0.00    -0.014 A 
ATOM     76  C   UNL     1      -3.646  -1.747  15.301  1.00  0.00     0.009 A 
ATOM     77  C   UNL     1      -5.289  -0.081  14.782  1.00  0.00     0.009 A 
ATOM     78  C   UNL     1      -4.099  -1.762  16.623  1.00  0.00     0.001 A 
ATOM     79  C   UNL     1      -5.690  -0.035  16.115  1.00  0.00     0.001 A 
ATOM     80  C   UNL     1      -5.110  -0.898  17.032  1.00  0.00     0.000 A 
ENDBRANCH  62  75
ENDBRANCH  36  37
ENDBRANCH  28  31
ENDBRANCH  26  27
ENDBRANCH  25  26
ENDBRANCH  24  25
ENDBRANCH   1  24
TORSDOF 16
