REMARK SMILES Cc1cc(C(=O)NCCCCCCNC(=O)c2ccc(-c3c4nc(c(-c5ccccc5)c5ccc([nH]5)c(-c5ccccc5)c5nc(c(-c6ccccc6)c6ccc3[nH]6)C=C5)C=C4)cc2)c(O)c(S(=O)(=O)N2CCCc3cc(F)cc(F)c32)c1
REMARK SMILES IDX 10 1 9 2 8 3 7 4 5 5 6 6 4 8 1 9 2 10 3 11 83 12 67 13 65 14
REMARK SMILES IDX 68 15 69 16 70 17 71 18 72 19 82 20 73 21 75 22 80 23 74 24
REMARK SMILES IDX 76 25 79 26 81 27 77 28 78 29 66 30 11 32 12 33 13 34 14 35
REMARK SMILES IDX 15 36 16 38 17 39 18 40 64 41 19 42 63 43 20 44 21 45 22 46
REMARK SMILES IDX 57 47 23 48 62 49 56 50 58 51 24 52 61 53 55 54 54 55 25 57
REMARK SMILES IDX 47 58 32 59 46 60 33 61 36 62 45 63 59 64 34 65 35 66 44 68
REMARK SMILES IDX 60 69 37 70 26 71 27 72 31 73 28 74 30 75 29 76 48 77 49 78
REMARK SMILES IDX 53 79 50 80 52 81 51 82 38 83 39 84 43 85 40 86 42 87 41 88
REMARK H PARENT 7 7 66 31 14 37 58 56 36 67
REMARK Flexibility Score: inf
ROOT
ATOM      1  C   UNL     1      -5.429   2.660   0.872  1.00  0.00     0.002 C 
ENDROOT
BRANCH   1   2
ATOM      2  C   UNL     1      -4.358   1.577   0.722  1.00  0.00     0.021 C 
BRANCH   2   3
ATOM      3  C   UNL     1      -3.434   1.764  -0.493  1.00  0.00     0.116 C 
BRANCH   3   4
ATOM      4  N   UNL     1      -2.263   2.557  -0.134  1.00  0.00    -0.352 N 
ATOM      5  C   UNL     1      -0.961   2.226   0.180  1.00  0.00     0.255 C 
ATOM      6  O   UNL     1      -0.200   3.153   0.468  1.00  0.00    -0.269 OA
ATOM      7  H   UNL     1      -2.438   3.525  -0.111  1.00  0.00     0.163 HD
BRANCH   5   8
ATOM      8  C   UNL     1      -0.394   0.846   0.089  1.00  0.00     0.083 A 
ATOM      9  C   UNL     1       3.059  -0.633  -0.435  1.00  0.00     0.044 C 
ATOM     10  C   UNL     1       1.560  -0.563  -0.367  1.00  0.00    -0.049 A 
ATOM     11  C   UNL     1       0.971   0.706  -0.178  1.00  0.00     0.021 A 
ATOM     12  C   UNL     1       0.740  -1.700  -0.494  1.00  0.00     0.029 A 
ATOM     13  C   UNL     1      -0.610  -1.563  -0.192  1.00  0.00     0.130 A 
ATOM     14  C   UNL     1      -1.109  -0.325   0.274  1.00  0.00     0.148 A 
BRANCH  13  15
ATOM     15  S   UNL     1      -1.884  -2.709  -0.616  1.00  0.00     0.268 S 
ATOM     16  O   UNL     1      -2.799  -2.592   0.510  1.00  0.00    -0.201 OA
ATOM     17  O   UNL     1      -2.331  -2.295  -1.932  1.00  0.00    -0.201 OA
BRANCH  15  18
ATOM     18  N   UNL     1      -1.444  -4.401  -0.705  1.00  0.00    -0.263 N 
ATOM     19  C   UNL     1      -0.720  -4.971   0.466  1.00  0.00     0.136 C 
ATOM     20  C   UNL     1      -2.720  -5.100  -1.002  1.00  0.00     0.091 A 
ATOM     21  C   UNL     1      -1.586  -5.812   1.411  1.00  0.00     0.028 C 
ATOM     22  C   UNL     1      -3.605  -5.259   0.085  1.00  0.00    -0.018 A 
ATOM     23  C   UNL     1      -3.235  -5.082  -2.307  1.00  0.00     0.150 A 
ATOM     24  C   UNL     1      -3.044  -5.369   1.478  1.00  0.00     0.040 C 
ATOM     25  C   UNL     1      -4.981  -5.123  -0.136  1.00  0.00     0.045 A 
ATOM     26  C   UNL     1      -4.606  -5.028  -2.529  1.00  0.00     0.080 A 
ATOM     27  F   UNL     1      -2.404  -5.015  -3.357  1.00  0.00    -0.205 F 
ATOM     28  C   UNL     1      -5.461  -4.974  -1.435  1.00  0.00     0.126 A 
ATOM     29  F   UNL     1      -6.766  -4.743  -1.630  1.00  0.00    -0.207 F 
ENDBRANCH  15  18
ENDBRANCH  13  15
BRANCH  14  30
ATOM     30  O   UNL     1      -2.253  -0.247   1.024  1.00  0.00    -0.506 OA
ATOM     31  H   UNL     1      -2.563   0.586   1.320  1.00  0.00     0.293 HD
ENDBRANCH  14  30
ENDBRANCH   5   8
ENDBRANCH   3   4
ENDBRANCH   2   3
ENDBRANCH   1   2
BRANCH   1  32
ATOM     32  C   UNL     1      -6.523   2.635  -0.200  1.00  0.00     0.002 C 
BRANCH  32  33
ATOM     33  C   UNL     1      -7.304   1.322  -0.310  1.00  0.00     0.021 C 
BRANCH  33  34
ATOM     34  C   UNL     1      -8.057   0.919   0.955  1.00  0.00     0.116 C 
BRANCH  34  35
ATOM     35  N   UNL     1      -9.104   1.874   1.286  1.00  0.00    -0.352 N 
ATOM     36  C   UNL     1     -10.464   1.689   1.382  1.00  0.00     0.251 C 
ATOM     37  H   UNL     1      -8.793   2.790   1.470  1.00  0.00     0.163 HD
ATOM     38  O   UNL     1     -11.216   2.647   1.432  1.00  0.00    -0.269 OA
BRANCH  36  39
ATOM     39  C   UNL     1     -11.014   0.315   1.421  1.00  0.00     0.039 A 
ATOM     40  C   UNL     1     -12.151   0.020   0.663  1.00  0.00     0.014 A 
ATOM     41  C   UNL     1     -10.431  -0.667   2.225  1.00  0.00     0.014 A 
ATOM     42  C   UNL     1     -12.669  -1.277   0.671  1.00  0.00     0.010 A 
ATOM     43  C   UNL     1     -10.905  -1.974   2.177  1.00  0.00     0.010 A 
ATOM     44  C   UNL     1     -12.032  -2.291   1.404  1.00  0.00    -0.014 A 
BRANCH  44  45
ATOM     45  C   UNL     1     -12.531  -3.688   1.377  1.00  0.00     0.031 A 
ATOM     46  C   UNL     1     -13.059  -4.330   2.630  1.00  0.00     0.074 A 
ATOM     47  C   UNL     1     -12.453  -4.400   0.236  1.00  0.00     0.049 A 
ATOM     48  N   UNL     1     -13.488  -5.553   2.814  1.00  0.00    -0.248 NA
ATOM     49  C   UNL     1     -13.085  -3.496   3.843  1.00  0.00     0.031 C 
ATOM     50  C   UNL     1     -11.924  -3.905  -1.037  1.00  0.00     0.029 A 
ATOM     51  N   UNL     1     -12.813  -5.696  -0.035  1.00  0.00    -0.354 N 
ATOM     52  C   UNL     1     -13.819  -5.638   4.161  1.00  0.00     0.074 A 
ATOM     53  C   UNL     1     -13.492  -4.362   4.758  1.00  0.00     0.031 C 
ATOM     54  C   UNL     1     -12.022  -4.876  -1.960  1.00  0.00     0.029 A 
ATOM     55  C   UNL     1     -12.578  -6.072  -1.335  1.00  0.00     0.049 A 
ATOM     56  H   UNL     1     -13.203  -6.299   0.639  1.00  0.00     0.167 HD
ATOM     57  C   UNL     1     -14.362  -6.679   4.837  1.00  0.00     0.031 A 
ATOM     58  C   UNL     1     -12.781  -7.250  -1.954  1.00  0.00     0.031 A 
ATOM     59  C   UNL     1     -14.692  -7.946   4.240  1.00  0.00     0.049 A 
ATOM     60  C   UNL     1     -13.366  -8.396  -1.177  1.00  0.00     0.074 A 
ATOM     61  C   UNL     1     -15.298  -9.043   4.827  1.00  0.00     0.029 A 
ATOM     62  N   UNL     1     -14.440  -8.286   2.920  1.00  0.00    -0.354 N 
ATOM     63  N   UNL     1     -13.738  -8.438   0.079  1.00  0.00    -0.248 NA
ATOM     64  C   UNL     1     -13.569  -9.654  -1.909  1.00  0.00     0.031 C 
ATOM     65  C   UNL     1     -15.360 -10.068   3.877  1.00  0.00     0.029 A 
ATOM     66  C   UNL     1     -14.850  -9.587   2.681  1.00  0.00     0.049 A 
ATOM     67  H   UNL     1     -14.029  -7.691   2.252  1.00  0.00     0.167 HD
ATOM     68  C   UNL     1     -14.242  -9.716   0.282  1.00  0.00     0.074 A 
ATOM     69  C   UNL     1     -14.145 -10.411  -0.986  1.00  0.00     0.031 C 
ATOM     70  C   UNL     1     -14.741 -10.266   1.416  1.00  0.00     0.031 A 
BRANCH  57  71
ATOM     71  C   UNL     1     -14.624  -6.489   6.306  1.00  0.00    -0.014 A 
ATOM     72  C   UNL     1     -15.626  -5.617   6.762  1.00  0.00     0.009 A 
ATOM     73  C   UNL     1     -13.879  -7.215   7.248  1.00  0.00     0.009 A 
ATOM     74  C   UNL     1     -15.848  -5.446   8.130  1.00  0.00     0.001 A 
ATOM     75  C   UNL     1     -14.124  -7.066   8.614  1.00  0.00     0.001 A 
ATOM     76  C   UNL     1     -15.100  -6.174   9.054  1.00  0.00     0.000 A 
ENDBRANCH  57  71
BRANCH  58  77
ATOM     77  C   UNL     1     -12.441  -7.403  -3.393  1.00  0.00    -0.014 A 
ATOM     78  C   UNL     1     -13.454  -7.542  -4.354  1.00  0.00     0.009 A 
ATOM     79  C   UNL     1     -11.101  -7.414  -3.814  1.00  0.00     0.009 A 
ATOM     80  C   UNL     1     -13.134  -7.716  -5.702  1.00  0.00     0.001 A 
ATOM     81  C   UNL     1     -10.785  -7.558  -5.167  1.00  0.00     0.001 A 
ATOM     82  C   UNL     1     -11.800  -7.720  -6.108  1.00  0.00     0.000 A 
ENDBRANCH  58  77
BRANCH  70  83
ATOM     83  C   UNL     1     -15.249 -11.678   1.329  1.00  0.00    -0.014 A 
ATOM     84  C   UNL     1     -14.369 -12.763   1.194  1.00  0.00     0.009 A 
ATOM     85  C   UNL     1     -16.627 -11.928   1.422  1.00  0.00     0.009 A 
ATOM     86  C   UNL     1     -14.863 -14.067   1.120  1.00  0.00     0.001 A 
ATOM     87  C   UNL     1     -17.115 -13.234   1.379  1.00  0.00     0.001 A 
ATOM     88  C   UNL     1     -16.234 -14.302   1.218  1.00  0.00     0.000 A 
ENDBRANCH  70  83
ENDBRANCH  44  45
ENDBRANCH  36  39
ENDBRANCH  34  35
ENDBRANCH  33  34
ENDBRANCH  32  33
ENDBRANCH   1  32
TORSDOF 16
