REMARK SMILES CN(CCS(C)(=O)=O)S(=O)(=O)c1cc(C(=O)NCCCCCCNC(=O)c2ccc(-c3c4nc(c(-c5ccccc5)c5ccc([nH]5)c(-c5ccccc5)c5nc(c(-c6ccccc6)c6ccc3[nH]6)C=C5)C=C4)cc2)ccc1F
REMARK SMILES IDX 19 1 18 2 17 3 15 4 16 5 14 7 12 8 13 9 77 10 76 11 78 12
REMARK SMILES IDX 75 13 9 14 10 15 11 16 2 17 1 18 3 19 4 20 5 21 6 22 7 23
REMARK SMILES IDX 8 24 20 25 21 26 22 27 23 28 24 29 25 30 26 32 27 33 28 34
REMARK SMILES IDX 74 35 29 36 73 37 30 38 31 39 32 40 67 41 33 42 72 43 66 44
REMARK SMILES IDX 68 45 34 46 71 47 65 48 64 49 35 51 57 52 42 53 56 54 43 55
REMARK SMILES IDX 46 56 55 57 69 58 44 59 45 60 54 62 70 63 47 64 36 65 37 66
REMARK SMILES IDX 41 67 38 68 40 69 39 70 58 71 59 72 63 73 60 74 62 75 61 76
REMARK SMILES IDX 48 77 49 78 53 79 50 80 52 81 51 82
REMARK H PARENT 17 6 24 31 68 50 46 61
REMARK Flexibility Score: inf
ROOT
ATOM      1  C   UNL     1      -2.647   8.541   3.292  1.00  0.00     0.021 C 
ENDROOT
BRANCH   1   2
ATOM      2  C   UNL     1      -1.638   7.827   4.197  1.00  0.00     0.116 C 
BRANCH   2   3
ATOM      3  N   UNL     1      -1.998   6.436   4.362  1.00  0.00    -0.352 N 
ATOM      4  C   UNL     1      -1.460   5.259   3.925  1.00  0.00     0.251 C 
ATOM      5  O   UNL     1      -2.005   4.230   4.326  1.00  0.00    -0.269 OA
ATOM      6  H   UNL     1      -2.808   6.310   4.907  1.00  0.00     0.163 HD
BRANCH   4   7
ATOM      7  C   UNL     1      -0.298   5.128   2.994  1.00  0.00     0.041 A 
ATOM      8  C   UNL     1       1.285   3.585   1.937  1.00  0.00     0.119 A 
ATOM      9  C   UNL     1       0.308   3.856   2.909  1.00  0.00     0.038 A 
ATOM     10  C   UNL     1       1.769   4.616   1.149  1.00  0.00     0.143 A 
ATOM     11  C   UNL     1       1.214   5.887   1.251  1.00  0.00     0.041 A 
ATOM     12  F   UNL     1       2.734   4.430   0.240  1.00  0.00    -0.206 F 
ATOM     13  C   UNL     1       0.148   6.127   2.126  1.00  0.00     0.017 A 
BRANCH   8  14
ATOM     14  S   UNL     1       1.867   1.932   1.693  1.00  0.00     0.245 S 
ATOM     15  O   UNL     1       1.770   1.223   2.943  1.00  0.00    -0.207 OA
ATOM     16  O   UNL     1       3.138   1.990   1.000  1.00  0.00    -0.207 OA
BRANCH  14  17
ATOM     17  N   UNL     1       0.722   1.258   0.615  1.00  0.00    -0.200 NA
ATOM     18  C   UNL     1       1.199   0.084  -0.147  1.00  0.00     0.124 C 
BRANCH  17  19
ATOM     19  C   UNL     1      -0.737   1.259   0.933  1.00  0.00     0.118 C 
BRANCH  19  20
ATOM     20  C   UNL     1      -1.322   0.026   1.605  1.00  0.00     0.153 C 
BRANCH  20  21
ATOM     21  S   UNL     1      -1.798   0.197   3.319  1.00  0.00     0.148 S 
ATOM     22  C   UNL     1      -2.953   1.542   3.384  1.00  0.00     0.158 C 
ATOM     23  O   UNL     1      -2.542  -1.002   3.665  1.00  0.00    -0.229 OA
ATOM     24  O   UNL     1      -0.644   0.582   4.097  1.00  0.00    -0.229 OA
ENDBRANCH  20  21
ENDBRANCH  19  20
ENDBRANCH  17  19
ENDBRANCH  14  17
ENDBRANCH   8  14
ENDBRANCH   4   7
ENDBRANCH   2   3
ENDBRANCH   1   2
BRANCH   1  25
ATOM     25  C   UNL     1      -3.918   8.997   4.026  1.00  0.00     0.002 C 
BRANCH  25  26
ATOM     26  C   UNL     1      -3.681   9.934   5.219  1.00  0.00     0.002 C 
BRANCH  26  27
ATOM     27  C   UNL     1      -2.780  11.135   4.923  1.00  0.00     0.021 C 
BRANCH  27  28
ATOM     28  C   UNL     1      -3.338  12.079   3.867  1.00  0.00     0.116 C 
BRANCH  28  29
ATOM     29  N   UNL     1      -4.541  12.753   4.331  1.00  0.00    -0.352 N 
ATOM     30  C   UNL     1      -4.785  14.098   4.442  1.00  0.00     0.251 C 
ATOM     31  H   UNL     1      -5.280  12.162   4.604  1.00  0.00     0.163 HD
ATOM     32  O   UNL     1      -5.755  14.508   5.070  1.00  0.00    -0.269 OA
BRANCH  30  33
ATOM     33  C   UNL     1      -3.859  15.054   3.802  1.00  0.00     0.039 A 
ATOM     34  C   UNL     1      -3.426  16.172   4.519  1.00  0.00     0.014 A 
ATOM     35  C   UNL     1      -3.415  14.835   2.495  1.00  0.00     0.014 A 
ATOM     36  C   UNL     1      -2.503  17.045   3.940  1.00  0.00     0.010 A 
ATOM     37  C   UNL     1      -2.437  15.658   1.953  1.00  0.00     0.010 A 
ATOM     38  C   UNL     1      -1.979  16.778   2.665  1.00  0.00    -0.014 A 
BRANCH  38  39
ATOM     39  C   UNL     1      -0.971  17.666   2.035  1.00  0.00     0.031 A 
ATOM     40  C   UNL     1      -1.308  18.385   0.757  1.00  0.00     0.074 A 
ATOM     41  C   UNL     1       0.263  17.768   2.565  1.00  0.00     0.049 A 
ATOM     42  N   UNL     1      -0.538  19.115  -0.009  1.00  0.00    -0.248 NA
ATOM     43  C   UNL     1      -2.686  18.238   0.258  1.00  0.00     0.031 C 
ATOM     44  C   UNL     1       0.721  17.105   3.787  1.00  0.00     0.029 A 
ATOM     45  N   UNL     1       1.365  18.463   2.132  1.00  0.00    -0.354 N 
ATOM     46  C   UNL     1      -1.331  19.497  -1.084  1.00  0.00     0.074 A 
ATOM     47  C   UNL     1      -2.622  18.873  -0.903  1.00  0.00     0.031 C 
ATOM     48  C   UNL     1       2.000  17.443   4.018  1.00  0.00     0.029 A 
ATOM     49  C   UNL     1       2.468  18.303   2.936  1.00  0.00     0.049 A 
ATOM     50  H   UNL     1       1.365  19.022   1.322  1.00  0.00     0.167 HD
ATOM     51  C   UNL     1      -1.018  20.310  -2.120  1.00  0.00     0.031 A 
ATOM     52  C   UNL     1       3.719  18.783   2.806  1.00  0.00     0.031 A 
ATOM     53  C   UNL     1       0.264  20.937  -2.293  1.00  0.00     0.049 A 
ATOM     54  C   UNL     1       4.052  19.654   1.624  1.00  0.00     0.074 A 
ATOM     55  C   UNL     1       0.666  21.814  -3.285  1.00  0.00     0.029 A 
ATOM     56  N   UNL     1       1.351  20.752  -1.454  1.00  0.00    -0.354 N 
ATOM     57  N   UNL     1       3.276  20.049   0.644  1.00  0.00    -0.248 NA
ATOM     58  C   UNL     1       5.433  20.151   1.536  1.00  0.00     0.031 C 
ATOM     59  C   UNL     1       2.016  22.112  -3.080  1.00  0.00     0.029 A 
ATOM     60  C   UNL     1       2.433  21.479  -1.920  1.00  0.00     0.049 A 
ATOM     61  H   UNL     1       1.354  20.187  -0.647  1.00  0.00     0.167 HD
ATOM     62  C   UNL     1       4.061  20.875  -0.151  1.00  0.00     0.074 A 
ATOM     63  C   UNL     1       5.371  20.928   0.464  1.00  0.00     0.031 C 
ATOM     64  C   UNL     1       3.725  21.533  -1.287  1.00  0.00     0.031 A 
BRANCH  51  65
ATOM     65  C   UNL     1      -2.082  20.560  -3.154  1.00  0.00    -0.014 A 
ATOM     66  C   UNL     1      -3.233  21.307  -2.852  1.00  0.00     0.009 A 
ATOM     67  C   UNL     1      -1.913  20.076  -4.460  1.00  0.00     0.009 A 
ATOM     68  C   UNL     1      -4.208  21.530  -3.825  1.00  0.00     0.001 A 
ATOM     69  C   UNL     1      -2.873  20.330  -5.441  1.00  0.00     0.001 A 
ATOM     70  C   UNL     1      -4.025  21.047  -5.120  1.00  0.00     0.000 A 
ENDBRANCH  51  65
BRANCH  52  71
ATOM     71  C   UNL     1       4.756  18.459   3.823  1.00  0.00    -0.014 A 
ATOM     72  C   UNL     1       5.271  19.460   4.661  1.00  0.00     0.009 A 
ATOM     73  C   UNL     1       5.253  17.152   3.947  1.00  0.00     0.009 A 
ATOM     74  C   UNL     1       6.286  19.168   5.576  1.00  0.00     0.001 A 
ATOM     75  C   UNL     1       6.244  16.855   4.886  1.00  0.00     0.001 A 
ATOM     76  C   UNL     1       6.768  17.865   5.690  1.00  0.00     0.000 A 
ENDBRANCH  52  71
BRANCH  64  77
ATOM     77  C   UNL     1       4.766  22.421  -1.910  1.00  0.00    -0.014 A 
ATOM     78  C   UNL     1       5.887  21.893  -2.569  1.00  0.00     0.009 A 
ATOM     79  C   UNL     1       4.581  23.814  -1.893  1.00  0.00     0.009 A 
ATOM     80  C   UNL     1       6.815  22.744  -3.173  1.00  0.00     0.001 A 
ATOM     81  C   UNL     1       5.492  24.659  -2.526  1.00  0.00     0.001 A 
ATOM     82  C   UNL     1       6.612  24.124  -3.158  1.00  0.00     0.000 A 
ENDBRANCH  64  77
ENDBRANCH  38  39
ENDBRANCH  30  33
ENDBRANCH  28  29
ENDBRANCH  27  28
ENDBRANCH  26  27
ENDBRANCH  25  26
ENDBRANCH   1  25
TORSDOF 18
