REMARK SMILES O=C(CNc1nccs1)NCCCCCCNC(=O)c1ccc(-c2c3nc(c(-c4ccccc4)c4ccc([nH]4)c(-c4ccccc4)c4nc(c(-c5ccccc5)c5ccc2[nH]5)C=C4)C=C3)cc1
REMARK SMILES IDX 13 1 12 2 11 3 10 4 1 5 2 6 3 8 4 9 5 11 6 12 9 13 7 14 8 15
REMARK SMILES IDX 14 16 15 17 16 18 17 19 18 20 19 22 20 23 21 24 67 25 22 26
REMARK SMILES IDX 66 27 23 28 24 29 25 30 60 31 26 32 65 33 59 34 61 35 27 36
REMARK SMILES IDX 64 37 58 38 57 39 28 41 50 42 35 43 49 44 36 45 39 46 48 47
REMARK SMILES IDX 62 48 37 49 38 50 47 52 63 53 40 54 29 55 30 56 34 57 31 58
REMARK SMILES IDX 33 59 32 60 51 61 52 62 56 63 53 64 55 65 54 66 41 67 42 68
REMARK SMILES IDX 46 69 43 70 45 71 44 72
REMARK H PARENT 10 7 4 10 17 21 61 40 39 51
REMARK Flexibility Score: inf
ROOT
ATOM      1  C   UNL     1       4.265  -1.949   3.023  1.00  0.00     0.002 C 
ENDROOT
BRANCH   1   2
ATOM      2  C   UNL     1       2.763  -1.933   2.707  1.00  0.00     0.021 C 
BRANCH   2   3
ATOM      3  C   UNL     1       2.224  -0.588   2.221  1.00  0.00     0.116 C 
BRANCH   3   4
ATOM      4  N   UNL     1       2.862  -0.166   0.996  1.00  0.00    -0.355 N 
ATOM      5  O   UNL     1       1.027  -0.338  -0.383  1.00  0.00    -0.273 OA
ATOM      6  C   UNL     1       2.212  -0.069  -0.219  1.00  0.00     0.239 C 
ATOM      7  H   UNL     1       3.818   0.067   1.029  1.00  0.00     0.163 HD
BRANCH   6   8
ATOM      8  C   UNL     1       3.138   0.367  -1.363  1.00  0.00     0.215 C 
BRANCH   8   9
ATOM      9  N   UNL     1       4.104   1.343  -0.870  1.00  0.00    -0.352 N 
ATOM     10  H   UNL     1       3.794   2.070  -0.283  1.00  0.00     0.163 HD
BRANCH   9  11
ATOM     11  C   UNL     1       5.406   1.276  -1.197  1.00  0.00     0.183 A 
ATOM     12  N   UNL     1       5.939   0.401  -2.017  1.00  0.00    -0.229 NA
ATOM     13  S   UNL     1       6.526   2.375  -0.482  1.00  0.00    -0.106 S 
ATOM     14  C   UNL     1       7.302   0.600  -2.107  1.00  0.00     0.125 A 
ATOM     15  C   UNL     1       7.807   1.613  -1.324  1.00  0.00     0.088 A 
ENDBRANCH   9  11
ENDBRANCH   8   9
ENDBRANCH   6   8
ENDBRANCH   3   4
ENDBRANCH   2   3
ENDBRANCH   1   2
BRANCH   1  16
ATOM     16  C   UNL     1       4.730  -0.946   4.084  1.00  0.00     0.002 C 
BRANCH  16  17
ATOM     17  C   UNL     1       4.044  -1.065   5.447  1.00  0.00     0.021 C 
BRANCH  17  18
ATOM     18  C   UNL     1       4.181  -2.424   6.127  1.00  0.00     0.116 C 
BRANCH  18  19
ATOM     19  N   UNL     1       5.559  -2.748   6.462  1.00  0.00    -0.352 N 
ATOM     20  C   UNL     1       6.094  -3.170   7.653  1.00  0.00     0.251 C 
ATOM     21  H   UNL     1       6.204  -2.650   5.724  1.00  0.00     0.163 HD
ATOM     22  O   UNL     1       7.316  -3.245   7.785  1.00  0.00    -0.269 OA
BRANCH  20  23
ATOM     23  C   UNL     1       5.214  -3.511   8.792  1.00  0.00     0.039 A 
ATOM     24  C   UNL     1       5.561  -3.063  10.070  1.00  0.00     0.014 A 
ATOM     25  C   UNL     1       4.062  -4.281   8.611  1.00  0.00     0.014 A 
ATOM     26  C   UNL     1       4.720  -3.331  11.153  1.00  0.00     0.010 A 
ATOM     27  C   UNL     1       3.189  -4.487   9.678  1.00  0.00     0.010 A 
ATOM     28  C   UNL     1       3.509  -4.016  10.961  1.00  0.00    -0.014 A 
BRANCH  28  29
ATOM     29  C   UNL     1       2.566  -4.240  12.086  1.00  0.00     0.031 A 
ATOM     30  C   UNL     1       2.251  -5.635  12.552  1.00  0.00     0.074 A 
ATOM     31  C   UNL     1       1.943  -3.188  12.653  1.00  0.00     0.049 A 
ATOM     32  N   UNL     1       1.419  -6.027  13.484  1.00  0.00    -0.248 NA
ATOM     33  C   UNL     1       2.945  -6.737  11.865  1.00  0.00     0.031 C 
ATOM     34  C   UNL     1       2.127  -1.786  12.272  1.00  0.00     0.029 A 
ATOM     35  N   UNL     1       1.021  -3.136  13.670  1.00  0.00    -0.354 N 
ATOM     36  C   UNL     1       1.476  -7.415  13.482  1.00  0.00     0.074 A 
ATOM     37  C   UNL     1       2.387  -7.799  12.426  1.00  0.00     0.031 C 
ATOM     38  C   UNL     1       1.365  -1.012  13.062  1.00  0.00     0.029 A 
ATOM     39  C   UNL     1       0.610  -1.862  13.977  1.00  0.00     0.049 A 
ATOM     40  H   UNL     1       0.688  -3.937  14.136  1.00  0.00     0.167 HD
ATOM     41  C   UNL     1       0.841  -8.293  14.297  1.00  0.00     0.031 A 
ATOM     42  C   UNL     1      -0.280  -1.424  14.887  1.00  0.00     0.031 A 
ATOM     43  C   UNL     1      -0.059  -7.913  15.354  1.00  0.00     0.049 A 
ATOM     44  C   UNL     1      -0.981  -2.419  15.770  1.00  0.00     0.074 A 
ATOM     45  C   UNL     1      -0.704  -8.727  16.269  1.00  0.00     0.029 A 
ATOM     46  N   UNL     1      -0.445  -6.612  15.634  1.00  0.00    -0.354 N 
ATOM     47  N   UNL     1      -0.862  -3.724  15.802  1.00  0.00    -0.248 NA
ATOM     48  C   UNL     1      -1.931  -1.876  16.752  1.00  0.00     0.031 C 
ATOM     49  C   UNL     1      -1.522  -7.923  17.069  1.00  0.00     0.029 A 
ATOM     50  C   UNL     1      -1.339  -6.602  16.691  1.00  0.00     0.049 A 
ATOM     51  H   UNL     1      -0.129  -5.813  15.152  1.00  0.00     0.167 HD
ATOM     52  C   UNL     1      -1.698  -4.155  16.824  1.00  0.00     0.074 A 
ATOM     53  C   UNL     1      -2.305  -2.971  17.398  1.00  0.00     0.031 C 
ATOM     54  C   UNL     1      -1.938  -5.419  17.251  1.00  0.00     0.031 A 
BRANCH  41  55
ATOM     55  C   UNL     1       1.093  -9.758  14.067  1.00  0.00    -0.014 A 
ATOM     56  C   UNL     1       2.336 -10.339  14.362  1.00  0.00     0.009 A 
ATOM     57  C   UNL     1       0.059 -10.576  13.584  1.00  0.00     0.009 A 
ATOM     58  C   UNL     1       2.551 -11.702  14.141  1.00  0.00     0.001 A 
ATOM     59  C   UNL     1       0.267 -11.943  13.394  1.00  0.00     0.001 A 
ATOM     60  C   UNL     1       1.515 -12.503  13.663  1.00  0.00     0.000 A 
ENDBRANCH  41  55
BRANCH  42  61
ATOM     61  C   UNL     1      -0.550   0.031  15.024  1.00  0.00    -0.014 A 
ATOM     62  C   UNL     1      -0.116   0.732  16.160  1.00  0.00     0.009 A 
ATOM     63  C   UNL     1      -1.250   0.726  14.025  1.00  0.00     0.009 A 
ATOM     64  C   UNL     1      -0.399   2.092  16.304  1.00  0.00     0.001 A 
ATOM     65  C   UNL     1      -1.506   2.092  14.159  1.00  0.00     0.001 A 
ATOM     66  C   UNL     1      -1.089   2.772  15.302  1.00  0.00     0.000 A 
ENDBRANCH  42  61
BRANCH  54  67
ATOM     67  C   UNL     1      -2.870  -5.585  18.419  1.00  0.00    -0.014 A 
ATOM     68  C   UNL     1      -4.251  -5.371  18.289  1.00  0.00     0.009 A 
ATOM     69  C   UNL     1      -2.360  -5.998  19.660  1.00  0.00     0.009 A 
ATOM     70  C   UNL     1      -5.097  -5.533  19.389  1.00  0.00     0.001 A 
ATOM     71  C   UNL     1      -3.211  -6.189  20.749  1.00  0.00     0.001 A 
ATOM     72  C   UNL     1      -4.577  -5.946  20.615  1.00  0.00     0.000 A 
ENDBRANCH  54  67
ENDBRANCH  28  29
ENDBRANCH  20  23
ENDBRANCH  18  19
ENDBRANCH  17  18
ENDBRANCH  16  17
ENDBRANCH   1  16
TORSDOF 15
