REMARK SMILES CC[C@H]1SC[C@H](C(=O)NCCCCCCNC(=O)c2ccc(-c3c4nc(c(-c5ccccc5)c5ccc([nH]5)c(-c5ccccc5)c5nc(c(-c6ccccc6)c6ccc3[nH]6)C=C5)C=C4)cc2)N1C(=O)Cc1ccc(F)c(F)c1
REMARK SMILES IDX 12 1 11 2 10 3 9 4 7 5 8 6 6 8 3 9 4 10 67 11 5 12 2 13 1 14
REMARK SMILES IDX 68 15 69 16 70 17 71 18 72 19 78 20 73 21 76 22 74 23 77 24
REMARK SMILES IDX 75 25 13 26 14 27 15 28 16 29 17 30 18 32 19 33 20 34 66 35
REMARK SMILES IDX 21 36 65 37 22 38 23 39 24 40 59 41 25 42 64 43 58 44 60 45
REMARK SMILES IDX 26 46 63 47 57 48 56 49 27 51 49 52 34 53 48 54 35 55 38 56
REMARK SMILES IDX 47 57 61 58 36 59 37 60 46 62 62 63 39 64 28 65 29 66 33 67
REMARK SMILES IDX 30 68 32 69 31 70 50 71 51 72 55 73 52 74 54 75 53 76 40 77
REMARK SMILES IDX 41 78 45 79 42 80 44 81 43 82
REMARK H PARENT 9 7 16 31 60 50 38 61
REMARK Flexibility Score: inf
ROOT
ATOM      1  C   UNL     1       2.623   5.078   6.089  1.00  0.00     0.002 C 
ENDROOT
BRANCH   1   2
ATOM      2  C   UNL     1       2.665   4.070   4.942  1.00  0.00     0.021 C 
BRANCH   2   3
ATOM      3  C   UNL     1       1.355   3.330   4.718  1.00  0.00     0.116 C 
BRANCH   3   4
ATOM      4  N   UNL     1       0.333   4.183   4.154  1.00  0.00    -0.354 N 
ATOM      5  C   UNL     1      -0.533   3.981   3.123  1.00  0.00     0.243 C 
ATOM      6  O   UNL     1      -1.259   4.936   2.818  1.00  0.00    -0.273 OA
ATOM      7  H   UNL     1       0.249   5.061   4.591  1.00  0.00     0.163 HD
BRANCH   5   8
ATOM      8  C   UNL     1      -0.493   2.731   2.212  1.00  0.00     0.185 C 
ATOM      9  C   UNL     1       1.012   0.764   2.146  1.00  0.00     0.143 C 
ATOM     10  S   UNL     1       1.929   2.097   1.310  1.00  0.00    -0.134 SA
ATOM     11  N   UNL     1      -0.079   1.464   2.837  1.00  0.00    -0.318 N 
ATOM     12  C   UNL     1       0.423   3.058   1.029  1.00  0.00     0.107 C 
BRANCH   9  13
ATOM     13  C   UNL     1       0.471  -0.330   1.193  1.00  0.00     0.033 C 
ATOM     14  C   UNL     1       0.975  -0.355  -0.245  1.00  0.00     0.007 C 
ENDBRANCH   9  13
BRANCH  11  15
ATOM     15  C   UNL     1      -0.818   1.007   3.915  1.00  0.00     0.228 C 
ATOM     16  O   UNL     1      -1.892   1.528   4.222  1.00  0.00    -0.274 OA
BRANCH  15  17
ATOM     17  C   UNL     1      -0.229  -0.079   4.802  1.00  0.00     0.135 C 
BRANCH  17  18
ATOM     18  C   UNL     1      -0.420  -1.490   4.313  1.00  0.00    -0.036 A 
ATOM     19  C   UNL     1      -1.517  -1.855   3.516  1.00  0.00     0.007 A 
ATOM     20  C   UNL     1       0.504  -2.476   4.692  1.00  0.00     0.046 A 
ATOM     21  C   UNL     1      -1.634  -3.157   3.027  1.00  0.00     0.043 A 
ATOM     22  C   UNL     1       0.369  -3.776   4.216  1.00  0.00     0.159 A 
ATOM     23  C   UNL     1      -0.683  -4.109   3.373  1.00  0.00     0.158 A 
ATOM     24  F   UNL     1       1.272  -4.700   4.571  1.00  0.00    -0.204 F 
ATOM     25  F   UNL     1      -0.790  -5.352   2.886  1.00  0.00    -0.204 F 
ENDBRANCH  17  18
ENDBRANCH  15  17
ENDBRANCH  11  15
ENDBRANCH   5   8
ENDBRANCH   3   4
ENDBRANCH   2   3
ENDBRANCH   1   2
BRANCH   1  26
ATOM     26  C   UNL     1       2.152   4.510   7.432  1.00  0.00     0.002 C 
BRANCH  26  27
ATOM     27  C   UNL     1       2.889   3.254   7.905  1.00  0.00     0.021 C 
BRANCH  27  28
ATOM     28  C   UNL     1       4.405   3.390   7.965  1.00  0.00     0.116 C 
BRANCH  28  29
ATOM     29  N   UNL     1       4.823   4.481   8.828  1.00  0.00    -0.352 N 
ATOM     30  C   UNL     1       5.711   4.472   9.870  1.00  0.00     0.251 C 
ATOM     31  H   UNL     1       4.408   5.353   8.636  1.00  0.00     0.163 HD
ATOM     32  O   UNL     1       5.802   5.444  10.616  1.00  0.00    -0.269 OA
BRANCH  30  33
ATOM     33  C   UNL     1       6.546   3.280  10.108  1.00  0.00     0.039 A 
ATOM     34  C   UNL     1       6.687   2.805  11.414  1.00  0.00     0.014 A 
ATOM     35  C   UNL     1       7.191   2.635   9.048  1.00  0.00     0.014 A 
ATOM     36  C   UNL     1       7.435   1.653  11.651  1.00  0.00     0.010 A 
ATOM     37  C   UNL     1       7.868   1.442   9.275  1.00  0.00     0.010 A 
ATOM     38  C   UNL     1       8.006   0.946  10.580  1.00  0.00    -0.014 A 
BRANCH  38  39
ATOM     39  C   UNL     1       8.750  -0.316  10.809  1.00  0.00     0.031 A 
ATOM     40  C   UNL     1      10.213  -0.405  10.477  1.00  0.00     0.074 A 
ATOM     41  C   UNL     1       8.091  -1.403  11.252  1.00  0.00     0.049 A 
ATOM     42  N   UNL     1      11.019  -1.432  10.572  1.00  0.00    -0.248 NA
ATOM     43  C   UNL     1      10.844   0.809   9.940  1.00  0.00     0.031 C 
ATOM     44  C   UNL     1       6.660  -1.459  11.558  1.00  0.00     0.029 A 
ATOM     45  N   UNL     1       8.539  -2.673  11.512  1.00  0.00    -0.354 N 
ATOM     46  C   UNL     1      12.245  -0.992  10.089  1.00  0.00     0.074 A 
ATOM     47  C   UNL     1      12.060   0.373   9.649  1.00  0.00     0.031 C 
ATOM     48  C   UNL     1       6.352  -2.693  11.984  1.00  0.00     0.029 A 
ATOM     49  C   UNL     1       7.551  -3.524  11.943  1.00  0.00     0.049 A 
ATOM     50  H   UNL     1       9.477  -2.948  11.400  1.00  0.00     0.167 HD
ATOM     51  C   UNL     1      13.423  -1.658  10.033  1.00  0.00     0.031 A 
ATOM     52  C   UNL     1       7.600  -4.831  12.261  1.00  0.00     0.031 A 
ATOM     53  C   UNL     1      13.601  -3.019  10.467  1.00  0.00     0.049 A 
ATOM     54  C   UNL     1       8.914  -5.555  12.189  1.00  0.00     0.074 A 
ATOM     55  C   UNL     1      14.766  -3.763  10.517  1.00  0.00     0.029 A 
ATOM     56  N   UNL     1      12.579  -3.844  10.914  1.00  0.00    -0.354 N 
ATOM     57  N   UNL     1      10.086  -5.101  11.815  1.00  0.00    -0.248 NA
ATOM     58  C   UNL     1       8.914  -6.966  12.597  1.00  0.00     0.031 C 
ATOM     59  C   UNL     1      14.438  -5.060  10.929  1.00  0.00     0.029 A 
ATOM     60  C   UNL     1      13.080  -5.103  11.205  1.00  0.00     0.049 A 
ATOM     61  H   UNL     1      11.637  -3.575  11.009  1.00  0.00     0.167 HD
ATOM     62  C   UNL     1      10.969  -6.164  11.961  1.00  0.00     0.074 A 
ATOM     63  C   UNL     1      10.197  -7.278  12.475  1.00  0.00     0.031 C 
ATOM     64  C   UNL     1      12.298  -6.210  11.697  1.00  0.00     0.031 A 
BRANCH  51  65
ATOM     65  C   UNL     1      14.600  -0.922   9.450  1.00  0.00    -0.014 A 
ATOM     66  C   UNL     1      15.162   0.194  10.093  1.00  0.00     0.009 A 
ATOM     67  C   UNL     1      15.153  -1.347   8.232  1.00  0.00     0.009 A 
ATOM     68  C   UNL     1      16.209   0.903   9.500  1.00  0.00     0.001 A 
ATOM     69  C   UNL     1      16.224  -0.659   7.659  1.00  0.00     0.001 A 
ATOM     70  C   UNL     1      16.741   0.474   8.285  1.00  0.00     0.000 A 
ENDBRANCH  51  65
BRANCH  52  71
ATOM     71  C   UNL     1       6.357  -5.524  12.686  1.00  0.00    -0.014 A 
ATOM     72  C   UNL     1       6.163  -5.891  14.026  1.00  0.00     0.009 A 
ATOM     73  C   UNL     1       5.335  -5.780  11.757  1.00  0.00     0.009 A 
ATOM     74  C   UNL     1       4.976  -6.511  14.424  1.00  0.00     0.001 A 
ATOM     75  C   UNL     1       4.139  -6.373  12.164  1.00  0.00     0.001 A 
ATOM     76  C   UNL     1       3.962  -6.743  13.495  1.00  0.00     0.000 A 
ENDBRANCH  52  71
BRANCH  64  77
ATOM     77  C   UNL     1      13.010  -7.504  11.978  1.00  0.00    -0.014 A 
ATOM     78  C   UNL     1      12.803  -8.642  11.182  1.00  0.00     0.009 A 
ATOM     79  C   UNL     1      13.937  -7.573  13.031  1.00  0.00     0.009 A 
ATOM     80  C   UNL     1      13.483  -9.830  11.457  1.00  0.00     0.001 A 
ATOM     81  C   UNL     1      14.639  -8.752  13.283  1.00  0.00     0.001 A 
ATOM     82  C   UNL     1      14.405  -9.882  12.502  1.00  0.00     0.000 A 
ENDBRANCH  64  77
ENDBRANCH  38  39
ENDBRANCH  30  33
ENDBRANCH  28  29
ENDBRANCH  27  28
ENDBRANCH  26  27
ENDBRANCH   1  26
TORSDOF 17
