REMARK SMILES O=C(NCCCCCCNC(=O)c1cccc(S(=O)(=O)Cc2cccc(O)c2)c1)c1ccc(-c2c3nc(c(-c4ccccc4)c4ccc([nH]4)c(-c4ccccc4)c4nc(c(-c5ccccc5)c5ccc2[nH]5)C=C4)C=C3)cc1
REMARK SMILES IDX 7 1 6 2 5 3 4 4 3 5 1 6 2 7 30 9 31 10 77 11 32 12 76 13
REMARK SMILES IDX 33 14 34 15 35 16 70 17 36 18 75 19 69 20 71 21 37 22 74 23
REMARK SMILES IDX 68 24 67 25 38 27 60 28 45 29 59 30 46 31 49 32 58 33 72 34
REMARK SMILES IDX 47 35 48 36 57 38 73 39 50 40 39 41 40 42 44 43 41 44 43 45
REMARK SMILES IDX 42 46 61 47 62 48 66 49 63 50 65 51 64 52 51 53 52 54 56 55
REMARK SMILES IDX 53 56 55 57 54 58 8 59 9 60 10 61 11 62 12 64 13 65 14 66
REMARK SMILES IDX 29 67 15 68 17 69 16 70 18 71 19 72 20 73 21 74 22 75 23 76
REMARK SMILES IDX 28 77 24 78 26 79 25 80 27 81
REMARK H PARENT 3 8 71 26 49 37 10 63 27 82
REMARK Flexibility Score: inf
ROOT
ATOM      1  C   UNL     1       4.522   2.472  -3.893  1.00  0.00     0.002 C 
ENDROOT
BRANCH   1   2
ATOM      2  C   UNL     1       3.977   1.048  -4.036  1.00  0.00     0.002 C 
BRANCH   2   3
ATOM      3  C   UNL     1       4.477   0.031  -3.012  1.00  0.00     0.021 C 
BRANCH   3   4
ATOM      4  C   UNL     1       4.296   0.418  -1.550  1.00  0.00     0.116 C 
BRANCH   4   5
ATOM      5  N   UNL     1       2.902   0.495  -1.146  1.00  0.00    -0.352 N 
ATOM      6  O   UNL     1       1.060   0.002   0.060  1.00  0.00    -0.269 OA
ATOM      7  C   UNL     1       2.280  -0.067  -0.056  1.00  0.00     0.251 C 
ATOM      8  H   UNL     1       2.320   1.025  -1.738  1.00  0.00     0.163 HD
BRANCH   7   9
ATOM      9  C   UNL     1       3.076  -0.781   0.970  1.00  0.00     0.039 A 
ATOM     10  C   UNL     1       4.278  -0.252   1.442  1.00  0.00     0.014 A 
ATOM     11  C   UNL     1       2.600  -1.994   1.481  1.00  0.00     0.014 A 
ATOM     12  C   UNL     1       5.068  -0.997   2.310  1.00  0.00     0.010 A 
ATOM     13  C   UNL     1       3.356  -2.703   2.420  1.00  0.00     0.010 A 
ATOM     14  C   UNL     1       4.612  -2.224   2.821  1.00  0.00    -0.014 A 
BRANCH  14  15
ATOM     15  C   UNL     1       5.447  -2.937   3.823  1.00  0.00     0.031 A 
ATOM     16  C   UNL     1       6.080  -4.266   3.520  1.00  0.00     0.074 A 
ATOM     17  C   UNL     1       5.681  -2.334   5.005  1.00  0.00     0.049 A 
ATOM     18  N   UNL     1       6.911  -4.964   4.255  1.00  0.00    -0.248 NA
ATOM     19  C   UNL     1       5.737  -4.899   2.238  1.00  0.00     0.031 C 
ATOM     20  C   UNL     1       5.104  -1.054   5.426  1.00  0.00     0.029 A 
ATOM     21  N   UNL     1       6.490  -2.694   6.052  1.00  0.00    -0.354 N 
ATOM     22  C   UNL     1       7.184  -6.118   3.531  1.00  0.00     0.074 A 
ATOM     23  C   UNL     1       6.406  -6.042   2.312  1.00  0.00     0.031 C 
ATOM     24  C   UNL     1       5.626  -0.706   6.611  1.00  0.00     0.029 A 
ATOM     25  C   UNL     1       6.530  -1.759   7.058  1.00  0.00     0.049 A 
ATOM     26  H   UNL     1       6.993  -3.540   6.080  1.00  0.00     0.167 HD
ATOM     27  C   UNL     1       8.014  -7.141   3.848  1.00  0.00     0.031 A 
ATOM     28  C   UNL     1       7.217  -1.746   8.214  1.00  0.00     0.031 A 
ATOM     29  C   UNL     1       8.786  -7.221   5.062  1.00  0.00     0.049 A 
ATOM     30  C   UNL     1       8.128  -2.892   8.537  1.00  0.00     0.074 A 
ATOM     31  C   UNL     1       9.661  -8.216   5.465  1.00  0.00     0.029 A 
ATOM     32  N   UNL     1       8.777  -6.267   6.068  1.00  0.00    -0.354 N 
ATOM     33  N   UNL     1       8.394  -3.959   7.825  1.00  0.00    -0.248 NA
ATOM     34  C   UNL     1       8.838  -2.827   9.822  1.00  0.00     0.031 C 
ATOM     35  C   UNL     1      10.152  -7.883   6.733  1.00  0.00     0.029 A 
ATOM     36  C   UNL     1       9.619  -6.657   7.097  1.00  0.00     0.049 A 
ATOM     37  H   UNL     1       8.249  -5.436   6.054  1.00  0.00     0.167 HD
ATOM     38  C   UNL     1       9.304  -4.692   8.573  1.00  0.00     0.074 A 
ATOM     39  C   UNL     1       9.571  -3.930   9.776  1.00  0.00     0.031 C 
ATOM     40  C   UNL     1       9.862  -5.895   8.293  1.00  0.00     0.031 A 
BRANCH  27  41
ATOM     41  C   UNL     1       8.128  -8.274   2.865  1.00  0.00    -0.014 A 
ATOM     42  C   UNL     1       8.839  -8.122   1.665  1.00  0.00     0.009 A 
ATOM     43  C   UNL     1       7.569  -9.525   3.170  1.00  0.00     0.009 A 
ATOM     44  C   UNL     1       8.969  -9.195   0.779  1.00  0.00     0.001 A 
ATOM     45  C   UNL     1       7.720 -10.601   2.293  1.00  0.00     0.001 A 
ATOM     46  C   UNL     1       8.414 -10.434   1.096  1.00  0.00     0.000 A 
ENDBRANCH  27  41
BRANCH  28  47
ATOM     47  C   UNL     1       7.059  -0.606   9.152  1.00  0.00    -0.014 A 
ATOM     48  C   UNL     1       8.103   0.308   9.356  1.00  0.00     0.009 A 
ATOM     49  C   UNL     1       5.850  -0.423   9.844  1.00  0.00     0.009 A 
ATOM     50  C   UNL     1       7.948   1.368  10.252  1.00  0.00     0.001 A 
ATOM     51  C   UNL     1       5.688   0.655  10.714  1.00  0.00     0.001 A 
ATOM     52  C   UNL     1       6.739   1.544  10.925  1.00  0.00     0.000 A 
ENDBRANCH  28  47
BRANCH  40  53
ATOM     53  C   UNL     1      10.820  -6.446   9.309  1.00  0.00    -0.014 A 
ATOM     54  C   UNL     1      10.361  -6.953  10.536  1.00  0.00     0.009 A 
ATOM     55  C   UNL     1      12.196  -6.462   9.036  1.00  0.00     0.009 A 
ATOM     56  C   UNL     1      11.268  -7.426  11.486  1.00  0.00     0.001 A 
ATOM     57  C   UNL     1      13.097  -6.960   9.978  1.00  0.00     0.001 A 
ATOM     58  C   UNL     1      12.634  -7.431  11.206  1.00  0.00     0.000 A 
ENDBRANCH  40  53
ENDBRANCH  14  15
ENDBRANCH   7   9
ENDBRANCH   4   5
ENDBRANCH   3   4
ENDBRANCH   2   3
ENDBRANCH   1   2
BRANCH   1  59
ATOM     59  C   UNL     1       6.044   2.611  -3.798  1.00  0.00     0.021 C 
BRANCH  59  60
ATOM     60  C   UNL     1       6.844   1.974  -4.931  1.00  0.00     0.116 C 
BRANCH  60  61
ATOM     61  N   UNL     1       6.566   2.576  -6.223  1.00  0.00    -0.352 N 
ATOM     62  C   UNL     1       7.450   3.025  -7.171  1.00  0.00     0.251 C 
ATOM     63  H   UNL     1       5.613   2.676  -6.449  1.00  0.00     0.163 HD
ATOM     64  O   UNL     1       7.054   3.633  -8.159  1.00  0.00    -0.269 OA
BRANCH  62  65
ATOM     65  C   UNL     1       8.897   2.788  -6.990  1.00  0.00     0.041 A 
ATOM     66  C   UNL     1       9.761   3.889  -7.014  1.00  0.00     0.014 A 
ATOM     67  C   UNL     1       9.393   1.490  -6.816  1.00  0.00     0.034 A 
ATOM     68  C   UNL     1      11.127   3.701  -6.814  1.00  0.00     0.002 A 
ATOM     69  C   UNL     1      10.760   1.316  -6.596  1.00  0.00     0.068 A 
ATOM     70  C   UNL     1      11.627   2.418  -6.592  1.00  0.00     0.020 A 
BRANCH  69  71
ATOM     71  S   UNL     1      11.461  -0.287  -6.270  1.00  0.00     0.182 S 
ATOM     72  O   UNL     1      11.819  -0.813  -7.576  1.00  0.00    -0.223 OA
ATOM     73  O   UNL     1      12.483  -0.099  -5.256  1.00  0.00    -0.223 OA
BRANCH  71  74
ATOM     74  C   UNL     1      10.204  -1.348  -5.609  1.00  0.00     0.177 C 
BRANCH  74  75
ATOM     75  C   UNL     1       9.606  -0.999  -4.262  1.00  0.00    -0.029 A 
ATOM     76  C   UNL     1       9.826   0.179  -3.536  1.00  0.00     0.005 A 
ATOM     77  C   UNL     1       8.731  -1.956  -3.704  1.00  0.00     0.051 A 
ATOM     78  C   UNL     1       9.181   0.405  -2.313  1.00  0.00     0.004 A 
ATOM     79  C   UNL     1       8.107  -1.729  -2.478  1.00  0.00     0.115 A 
ATOM     80  C   UNL     1       8.318  -0.549  -1.784  1.00  0.00     0.046 A 
BRANCH  79  81
ATOM     81  O   UNL     1       7.269  -2.650  -1.924  1.00  0.00    -0.508 OA
ATOM     82  H   UNL     1       6.861  -2.476  -1.099  1.00  0.00     0.293 HD
ENDBRANCH  79  81
ENDBRANCH  74  75
ENDBRANCH  71  74
ENDBRANCH  69  71
ENDBRANCH  62  65
ENDBRANCH  60  61
ENDBRANCH  59  60
ENDBRANCH   1  59
TORSDOF 17
