REMARK SMILES Cc1ccc(C2=NN(C(=O)CCC(=O)NCCCCCCNC(=O)c3ccc(-c4c5nc(c(-c6ccccc6)c6ccc([nH]6)c(-c6ccccc6)c6nc(c(-c7ccccc7)c7ccc4[nH]7)C=C6)C=C5)cc3)[C@H](C[C@@H]3C=c4cccc(C)c4=NC3=O)C2)cc1
REMARK SMILES IDX 17 1 16 2 15 3 13 4 14 5 12 7 11 8 9 9 10 10 8 11 6 12 7 13
REMARK SMILES IDX 87 14 73 15 5 16 1 17 2 18 3 19 89 20 4 21 88 22 74 23 75 24
REMARK SMILES IDX 76 25 85 26 77 27 84 28 86 29 78 30 83 31 79 32 81 33 80 34
REMARK SMILES IDX 82 35 18 36 19 37 20 38 21 39 22 40 23 41 24 43 25 44 26 45
REMARK SMILES IDX 72 46 27 47 71 48 28 49 29 50 30 51 65 52 31 53 70 54 64 55
REMARK SMILES IDX 66 56 32 57 69 58 63 59 62 60 33 62 55 63 40 64 54 65 41 66
REMARK SMILES IDX 44 67 53 68 67 69 42 70 43 71 52 73 68 74 45 75 34 76 35 77
REMARK SMILES IDX 39 78 36 79 38 80 37 81 56 82 57 83 61 84 58 85 60 86 59 87
REMARK SMILES IDX 46 88 47 89 51 90 48 91 50 92 49 93
REMARK H PARENT 15 6 22 42 66 61 44 72
REMARK Flexibility Score: inf
ROOT
ATOM      1  C   UNL     1      -4.089  -0.017  -0.889  1.00  0.00     0.021 C 
ENDROOT
BRANCH   1   2
ATOM      2  C   UNL     1      -4.961   0.916   0.928  1.00  0.00     0.116 C 
BRANCH   2   3
ATOM      3  N   UNL     1      -6.240   1.895   1.044  1.00  0.00    -0.356 N 
ATOM      4  C   UNL     1      -7.498   1.821   1.520  1.00  0.00     0.220 C 
ATOM      5  O   UNL     1      -8.214   2.807   1.329  1.00  0.00    -0.275 OA
ATOM      6  H   UNL     1      -6.049   2.784   0.665  1.00  0.00     0.163 HD
BRANCH   4   7
ATOM      7  C   UNL     1      -7.991   0.624   2.271  1.00  0.00     0.110 C 
BRANCH   7   8
ATOM      8  C   UNL     1      -7.748  -0.741   1.651  1.00  0.00     0.112 C 
BRANCH   8   9
ATOM      9  C   UNL     1      -6.306  -1.287   1.700  1.00  0.00     0.243 C 
ATOM     10  O   UNL     1      -5.904  -1.874   2.703  1.00  0.00    -0.273 OA
BRANCH   9  11
ATOM     11  N   UNL     1      -5.456  -0.953   0.570  1.00  0.00    -0.230 N 
ATOM     12  C   UNL     1      -3.091   0.580   0.465  1.00  0.00     0.070 C 
ATOM     13  N   UNL     1      -3.716  -0.702   1.037  1.00  0.00    -0.174 NA
ATOM     14  C   UNL     1      -4.569   1.665  -0.679  1.00  0.00     0.086 C 
ATOM     15  C   UNL     1      -6.058   0.243  -0.710  1.00  0.00     0.118 C 
BRANCH  12  16
ATOM     16  C   UNL     1      -1.286   0.331   0.178  1.00  0.00    -0.002 A 
ATOM     17  C   UNL     1       3.058  -0.158  -0.452  1.00  0.00     0.044 C 
ATOM     18  C   UNL     1       1.570  -0.027  -0.451  1.00  0.00    -0.051 A 
ATOM     19  C   UNL     1       0.632  -1.063  -0.493  1.00  0.00     0.004 A 
ATOM     20  C   UNL     1       1.086   1.216  -0.251  1.00  0.00     0.004 A 
ATOM     21  C   UNL     1      -0.774  -0.911  -0.182  1.00  0.00     0.010 A 
ATOM     22  C   UNL     1      -0.253   1.341   0.082  1.00  0.00     0.010 A 
ENDBRANCH  12  16
BRANCH  15  23
ATOM     23  C   UNL     1      -6.538  -0.754  -1.991  1.00  0.00     0.045 C 
BRANCH  23  24
ATOM     24  C   UNL     1      -7.631  -1.843  -1.643  1.00  0.00     0.106 C 
ATOM     25  C   UNL     1      -7.154  -2.896  -0.678  1.00  0.00    -0.003 C 
ATOM     26  C   UNL     1      -8.336  -2.619  -2.774  1.00  0.00     0.253 C 
ATOM     27  C   UNL     1      -7.981  -3.847  -0.246  1.00  0.00    -0.003 A 
ATOM     28  N   UNL     1      -9.155  -3.693  -2.410  1.00  0.00    -0.212 NA
ATOM     29  O   UNL     1      -8.255  -2.228  -3.935  1.00  0.00    -0.272 OA
ATOM     30  C   UNL     1      -7.899  -4.452   1.060  1.00  0.00     0.010 A 
ATOM     31  C   UNL     1      -8.998  -4.264  -1.251  1.00  0.00     0.077 A 
ATOM     32  C   UNL     1      -8.768  -5.405   1.411  1.00  0.00     0.001 A 
ATOM     33  C   UNL     1      -9.743  -5.517  -0.840  1.00  0.00    -0.025 A 
ATOM     34  C   UNL     1      -9.637  -5.989   0.419  1.00  0.00     0.005 A 
ATOM     35  C   UNL     1     -10.424  -6.304  -1.911  1.00  0.00     0.047 C 
ENDBRANCH  23  24
ENDBRANCH  15  23
ENDBRANCH   9  11
ENDBRANCH   8   9
ENDBRANCH   7   8
ENDBRANCH   4   7
ENDBRANCH   2   3
ENDBRANCH   1   2
BRANCH   1  36
ATOM     36  C   UNL     1      -2.694   1.225  -1.555  1.00  0.00     0.002 C 
BRANCH  36  37
ATOM     37  C   UNL     1      -2.332   2.682  -0.416  1.00  0.00     0.002 C 
BRANCH  37  38
ATOM     38  C   UNL     1      -2.090   2.729   1.428  1.00  0.00     0.021 C 
BRANCH  38  39
ATOM     39  C   UNL     1      -1.508   1.551   2.589  1.00  0.00     0.116 C 
BRANCH  39  40
ATOM     40  N   UNL     1      -0.037   1.414   2.885  1.00  0.00    -0.352 N 
ATOM     41  C   UNL     1       0.934   0.411   3.055  1.00  0.00     0.251 C 
ATOM     42  H   UNL     1       0.371   2.303   2.994  1.00  0.00     0.163 HD
ATOM     43  O   UNL     1       2.047   0.812   3.423  1.00  0.00    -0.269 OA
BRANCH  41  44
ATOM     44  C   UNL     1       0.842  -1.068   2.754  1.00  0.00     0.039 A 
ATOM     45  C   UNL     1       2.014  -1.758   2.316  1.00  0.00     0.014 A 
ATOM     46  C   UNL     1      -0.333  -1.802   2.799  1.00  0.00     0.014 A 
ATOM     47  C   UNL     1       1.960  -3.034   1.698  1.00  0.00     0.010 A 
ATOM     48  C   UNL     1      -0.388  -3.074   2.196  1.00  0.00     0.010 A 
ATOM     49  C   UNL     1       0.724  -3.654   1.548  1.00  0.00    -0.014 A 
BRANCH  49  50
ATOM     50  C   UNL     1       0.459  -4.880   0.763  1.00  0.00     0.031 A 
ATOM     51  C   UNL     1       0.469  -6.201   1.447  1.00  0.00     0.074 A 
ATOM     52  C   UNL     1      -0.029  -4.841  -0.506  1.00  0.00     0.049 A 
ATOM     53  N   UNL     1       0.429  -7.348   0.848  1.00  0.00    -0.248 NA
ATOM     54  C   UNL     1       0.576  -6.319   2.898  1.00  0.00     0.031 C 
ATOM     55  C   UNL     1      -0.939  -5.812  -1.121  1.00  0.00     0.029 A 
ATOM     56  N   UNL     1       0.241  -3.957  -1.558  1.00  0.00    -0.354 N 
ATOM     57  C   UNL     1       0.160  -8.298   1.809  1.00  0.00     0.074 A 
ATOM     58  C   UNL     1       0.381  -7.630   3.071  1.00  0.00     0.031 C 
ATOM     59  C   UNL     1      -0.997  -5.603  -2.446  1.00  0.00     0.029 A 
ATOM     60  C   UNL     1       0.043  -4.647  -2.768  1.00  0.00     0.049 A 
ATOM     61  H   UNL     1       0.520  -3.017  -1.467  1.00  0.00     0.167 HD
ATOM     62  C   UNL     1      -0.390  -9.495   1.454  1.00  0.00     0.031 A 
ATOM     63  C   UNL     1       1.011  -4.825  -3.711  1.00  0.00     0.031 A 
ATOM     64  C   UNL     1      -0.555  -9.616   0.010  1.00  0.00     0.049 A 
ATOM     65  C   UNL     1       1.216  -6.263  -4.114  1.00  0.00     0.074 A 
ATOM     66  C   UNL     1      -1.642  -9.401  -0.821  1.00  0.00     0.029 A 
ATOM     67  N   UNL     1       0.557  -9.736  -0.807  1.00  0.00    -0.354 N 
ATOM     68  N   UNL     1       0.813  -7.261  -3.387  1.00  0.00    -0.248 NA
ATOM     69  C   UNL     1       1.998  -6.691  -5.272  1.00  0.00     0.031 C 
ATOM     70  C   UNL     1      -1.167  -9.345  -2.152  1.00  0.00     0.029 A 
ATOM     71  C   UNL     1       0.201  -9.556  -2.130  1.00  0.00     0.049 A 
ATOM     72  H   UNL     1       1.470  -9.924  -0.490  1.00  0.00     0.167 HD
ATOM     73  C   UNL     1       1.344  -8.420  -3.875  1.00  0.00     0.074 A 
ATOM     74  C   UNL     1       2.041  -8.022  -5.082  1.00  0.00     0.031 C 
ATOM     75  C   UNL     1       1.210  -9.584  -3.181  1.00  0.00     0.031 A 
BRANCH  62  76
ATOM     76  C   UNL     1      -1.071 -10.438   2.420  1.00  0.00    -0.014 A 
ATOM     77  C   UNL     1      -2.114 -11.266   1.955  1.00  0.00     0.009 A 
ATOM     78  C   UNL     1      -0.773 -10.539   3.788  1.00  0.00     0.009 A 
ATOM     79  C   UNL     1      -2.869 -12.075   2.812  1.00  0.00     0.001 A 
ATOM     80  C   UNL     1      -1.544 -11.324   4.659  1.00  0.00     0.001 A 
ATOM     81  C   UNL     1      -2.599 -12.085   4.173  1.00  0.00     0.000 A 
ENDBRANCH  62  76
BRANCH  63  82
ATOM     82  C   UNL     1       2.158  -3.887  -3.627  1.00  0.00    -0.014 A 
ATOM     83  C   UNL     1       2.017  -2.544  -4.009  1.00  0.00     0.009 A 
ATOM     84  C   UNL     1       3.297  -4.277  -2.905  1.00  0.00     0.009 A 
ATOM     85  C   UNL     1       2.981  -1.605  -3.635  1.00  0.00     0.001 A 
ATOM     86  C   UNL     1       4.253  -3.337  -2.527  1.00  0.00     0.001 A 
ATOM     87  C   UNL     1       4.096  -2.005  -2.896  1.00  0.00     0.000 A 
ENDBRANCH  63  82
BRANCH  75  88
ATOM     88  C   UNL     1       1.972 -10.852  -3.443  1.00  0.00    -0.014 A 
ATOM     89  C   UNL     1       3.186 -10.911  -4.140  1.00  0.00     0.009 A 
ATOM     90  C   UNL     1       1.517 -12.053  -2.857  1.00  0.00     0.009 A 
ATOM     91  C   UNL     1       3.875 -12.120  -4.301  1.00  0.00     0.001 A 
ATOM     92  C   UNL     1       2.226 -13.249  -2.971  1.00  0.00     0.001 A 
ATOM     93  C   UNL     1       3.399 -13.286  -3.712  1.00  0.00     0.000 A 
ENDBRANCH  75  88
ENDBRANCH  49  50
ENDBRANCH  41  44
ENDBRANCH  39  40
ENDBRANCH  38  39
ENDBRANCH  37  38
ENDBRANCH  36  37
ENDBRANCH   1  36
TORSDOF 19
