REMARK SMILES COC(=O)c1c(NC(=O)CCC(=O)NCCCCCCNC(=O)c2ccc(-c3c4nc(c(-c5ccccc5)c5ccc([nH]5)c(-c5ccccc5)c5nc(c(-c6ccccc6)c6ccc3[nH]6)C=C5)C=C4)cc2)sc2c1CCCCCC2
REMARK SMILES IDX 15 1 14 2 12 3 13 4 11 6 10 7 8 8 7 9 9 11 6 12 5 13 74 14
REMARK SMILES IDX 72 15 73 16 3 17 4 18 2 19 1 20 75 21 76 22 77 23 78 24
REMARK SMILES IDX 80 26 79 27 16 29 17 30 18 31 19 32 20 33 21 34 22 35 23 37
REMARK SMILES IDX 24 38 25 39 71 40 26 41 70 42 27 43 28 44 29 45 64 46 30 47
REMARK SMILES IDX 69 48 63 49 65 50 31 51 68 52 62 53 61 54 32 56 54 57 39 58
REMARK SMILES IDX 53 59 40 60 43 61 52 62 66 63 41 64 42 65 51 67 67 68 44 69
REMARK SMILES IDX 33 70 34 71 38 72 35 73 37 74 36 75 55 76 56 77 60 78 57 79
REMARK SMILES IDX 59 80 58 81 45 82 46 83 50 84 47 85 49 86 48 87
REMARK H PARENT 14 5 7 10 21 36 65 55 43 66
REMARK Flexibility Score: 90.00
ROOT
ATOM      1  C   UNL     1      -2.678   3.967   0.698  1.00  0.00     0.116 C 
ENDROOT
BRANCH   1   2
ATOM      2  N   UNL     1      -1.274   4.080   1.023  1.00  0.00    -0.356 N 
ATOM      3  C   UNL     1      -0.241   3.320   0.574  1.00  0.00     0.220 C 
ATOM      4  O   UNL     1       0.909   3.709   0.774  1.00  0.00    -0.275 OA
ATOM      5  H   UNL     1      -1.035   4.801   1.650  1.00  0.00     0.163 HD
BRANCH   3   6
ATOM      6  C   UNL     1      -0.523   2.048  -0.190  1.00  0.00     0.110 C 
BRANCH   6   7
ATOM      7  C   UNL     1      -0.927   0.804   0.594  1.00  0.00     0.110 C 
BRANCH   7   8
ATOM      8  C   UNL     1      -1.923   0.897   1.716  1.00  0.00     0.225 C 
ATOM      9  N   UNL     1      -1.631   1.257   2.992  1.00  0.00    -0.317 N 
ATOM     10  H   UNL     1      -2.295   0.963   3.656  1.00  0.00     0.170 HD
ATOM     11  O   UNL     1      -3.109   0.629   1.477  1.00  0.00    -0.275 OA
BRANCH   9  12
ATOM     12  C   UNL     1      -0.575   1.957   3.522  1.00  0.00     0.110 A 
ATOM     13  C   UNL     1       0.800   2.018   3.438  1.00  0.00     0.098 A 
ATOM     14  C   UNL     1       1.304   3.240   4.092  1.00  0.00    -0.017 A 
ATOM     15  S   UNL     1      -1.176   3.047   4.681  1.00  0.00    -0.122 S 
ATOM     16  C   UNL     1       0.269   3.962   4.684  1.00  0.00     0.011 A 
BRANCH  13  17
ATOM     17  C   UNL     1       1.619   0.944   2.901  1.00  0.00     0.341 C 
ATOM     18  O   UNL     1       1.920  -0.047   3.577  1.00  0.00    -0.246 OA
BRANCH  17  19
ATOM     19  O   UNL     1       1.959   1.104   1.598  1.00  0.00    -0.465 OA
ATOM     20  C   UNL     1       2.450  -0.073   0.944  1.00  0.00     0.282 C 
ENDBRANCH  17  19
ENDBRANCH  13  17
BRANCH  14  21
ATOM     21  C   UNL     1       2.764   3.612   4.146  1.00  0.00     0.037 C 
BRANCH  21  22
ATOM     22  C   UNL     1       3.182   4.814   3.303  1.00  0.00     0.005 C 
BRANCH  22  23
ATOM     23  C   UNL     1       2.447   6.135   3.528  1.00  0.00     0.000 C 
BRANCH  23  24
ATOM     24  C   UNL     1       2.374   6.631   4.971  1.00  0.00     0.000 CG0
ATOM     25  G   UNL     1       1.472   5.864   5.943  1.00  0.00     0.000 G0
ENDBRANCH  23  24
ENDBRANCH  22  23
ENDBRANCH  21  22
ENDBRANCH  14  21
BRANCH  16  26
ATOM     26  C   UNL     1       0.184   5.319   5.344  1.00  0.00     0.047 C 
BRANCH  26  27
ATOM     27  C   UNL     1       1.472   5.864   5.943  1.00  0.00     0.006 CG0
ATOM     28  G   UNL     1       2.374   6.631   4.971  1.00  0.00     0.000 G0
ENDBRANCH  26  27
ENDBRANCH  16  26
ENDBRANCH   9  12
ENDBRANCH   7   8
ENDBRANCH   6   7
ENDBRANCH   3   6
ENDBRANCH   1   2
BRANCH   1  29
ATOM     29  C   UNL     1      -3.568   4.009   1.933  1.00  0.00     0.021 C 
BRANCH  29  30
ATOM     30  C   UNL     1      -3.591   5.353   2.661  1.00  0.00     0.002 C 
BRANCH  30  31
ATOM     31  C   UNL     1      -4.059   6.537   1.811  1.00  0.00     0.002 C 
BRANCH  31  32
ATOM     32  C   UNL     1      -5.340   6.305   0.998  1.00  0.00     0.021 C 
BRANCH  32  33
ATOM     33  C   UNL     1      -6.540   5.889   1.835  1.00  0.00     0.116 C 
BRANCH  33  34
ATOM     34  N   UNL     1      -6.951   6.934   2.760  1.00  0.00    -0.352 N 
ATOM     35  C   UNL     1      -7.994   6.902   3.655  1.00  0.00     0.251 C 
ATOM     36  H   UNL     1      -6.420   7.763   2.742  1.00  0.00     0.163 HD
ATOM     37  O   UNL     1      -8.471   7.939   4.103  1.00  0.00    -0.269 OA
BRANCH  35  38
ATOM     38  C   UNL     1      -8.531   5.598   4.078  1.00  0.00     0.039 A 
ATOM     39  C   UNL     1      -9.910   5.407   4.187  1.00  0.00     0.014 A 
ATOM     40  C   UNL     1      -7.638   4.568   4.382  1.00  0.00     0.014 A 
ATOM     41  C   UNL     1     -10.388   4.152   4.549  1.00  0.00     0.010 A 
ATOM     42  C   UNL     1      -8.112   3.302   4.639  1.00  0.00     0.010 A 
ATOM     43  C   UNL     1      -9.483   3.100   4.763  1.00  0.00    -0.014 A 
BRANCH  43  44
ATOM     44  C   UNL     1      -9.981   1.746   4.977  1.00  0.00     0.031 A 
ATOM     45  C   UNL     1     -10.861   1.240   3.890  1.00  0.00     0.074 A 
ATOM     46  C   UNL     1      -9.532   0.926   5.951  1.00  0.00     0.049 A 
ATOM     47  N   UNL     1     -12.122   0.972   3.957  1.00  0.00    -0.248 NA
ATOM     48  C   UNL     1     -10.300   1.145   2.531  1.00  0.00     0.031 C 
ATOM     49  C   UNL     1      -8.439   1.159   6.901  1.00  0.00     0.029 A 
ATOM     50  N   UNL     1      -9.893  -0.359   6.220  1.00  0.00    -0.354 N 
ATOM     51  C   UNL     1     -12.476   0.478   2.705  1.00  0.00     0.074 A 
ATOM     52  C   UNL     1     -11.372   0.776   1.828  1.00  0.00     0.031 C 
ATOM     53  C   UNL     1      -8.074  -0.014   7.466  1.00  0.00     0.029 A 
ATOM     54  C   UNL     1      -9.011  -1.042   7.049  1.00  0.00     0.049 A 
ATOM     55  H   UNL     1     -10.711  -0.770   5.857  1.00  0.00     0.167 HD
ATOM     56  C   UNL     1     -13.529  -0.372   2.554  1.00  0.00     0.031 A 
ATOM     57  C   UNL     1      -9.033  -2.364   7.347  1.00  0.00     0.031 A 
ATOM     58  C   UNL     1     -14.392  -0.360   3.710  1.00  0.00     0.049 A 
ATOM     59  C   UNL     1     -10.388  -2.868   7.037  1.00  0.00     0.074 A 
ATOM     60  C   UNL     1     -15.114   0.608   4.380  1.00  0.00     0.029 A 
ATOM     61  N   UNL     1     -14.275  -1.413   4.586  1.00  0.00    -0.354 N 
ATOM     62  N   UNL     1     -11.448  -2.531   7.711  1.00  0.00    -0.248 NA
ATOM     63  C   UNL     1     -10.635  -3.408   5.711  1.00  0.00     0.031 C 
ATOM     64  C   UNL     1     -14.960   0.289   5.762  1.00  0.00     0.029 A 
ATOM     65  C   UNL     1     -14.225  -0.895   5.853  1.00  0.00     0.049 A 
ATOM     66  H   UNL     1     -14.236  -2.367   4.346  1.00  0.00     0.167 HD
ATOM     67  C   UNL     1     -12.435  -2.373   6.750  1.00  0.00     0.074 A 
ATOM     68  C   UNL     1     -11.911  -3.040   5.559  1.00  0.00     0.031 C 
ATOM     69  C   UNL     1     -13.447  -1.473   6.927  1.00  0.00     0.031 A 
BRANCH  56  70
ATOM     70  C   UNL     1     -13.525  -1.526   1.577  1.00  0.00    -0.014 A 
ATOM     71  C   UNL     1     -14.659  -2.356   1.510  1.00  0.00     0.009 A 
ATOM     72  C   UNL     1     -12.359  -2.003   0.947  1.00  0.00     0.009 A 
ATOM     73  C   UNL     1     -14.599  -3.628   0.926  1.00  0.00     0.001 A 
ATOM     74  C   UNL     1     -12.308  -3.254   0.325  1.00  0.00     0.001 A 
ATOM     75  C   UNL     1     -13.420  -4.080   0.343  1.00  0.00     0.000 A 
ENDBRANCH  56  70
BRANCH  57  76
ATOM     76  C   UNL     1      -7.921  -3.285   7.663  1.00  0.00    -0.014 A 
ATOM     77  C   UNL     1      -8.173  -4.524   8.275  1.00  0.00     0.009 A 
ATOM     78  C   UNL     1      -6.651  -3.080   7.096  1.00  0.00     0.009 A 
ATOM     79  C   UNL     1      -7.208  -5.539   8.272  1.00  0.00     0.001 A 
ATOM     80  C   UNL     1      -5.685  -4.093   7.096  1.00  0.00     0.001 A 
ATOM     81  C   UNL     1      -5.971  -5.329   7.668  1.00  0.00     0.000 A 
ENDBRANCH  57  76
BRANCH  69  82
ATOM     82  C   UNL     1     -13.607  -0.851   8.295  1.00  0.00    -0.014 A 
ATOM     83  C   UNL     1     -12.597  -0.108   8.934  1.00  0.00     0.009 A 
ATOM     84  C   UNL     1     -14.866  -0.918   8.909  1.00  0.00     0.009 A 
ATOM     85  C   UNL     1     -12.830   0.508  10.169  1.00  0.00     0.001 A 
ATOM     86  C   UNL     1     -15.107  -0.283  10.129  1.00  0.00     0.001 A 
ATOM     87  C   UNL     1     -14.087   0.422  10.764  1.00  0.00     0.000 A 
ENDBRANCH  69  82
ENDBRANCH  43  44
ENDBRANCH  35  38
ENDBRANCH  33  34
ENDBRANCH  32  33
ENDBRANCH  31  32
ENDBRANCH  30  31
ENDBRANCH  29  30
ENDBRANCH   1  29
TORSDOF 18
