REMARK SMILES CCCCOC(=O)c1ccc(N2C[C@H](C(=O)NCCCCCCNC(=O)c3ccc(-c4c5nc(c(-c6ccccc6)c6ccc([nH]6)c(-c6ccccc6)c6nc(c(-c7ccccc7)c7ccc4[nH]7)C=C6)C=C5)cc3)CC2=O)cc1
REMARK SMILES IDX 18 1 17 2 15 3 16 4 14 6 12 7 13 8 76 9 75 10 77 11 11 12
REMARK SMILES IDX 8 13 9 14 79 15 10 16 78 17 6 18 7 19 5 20 4 21 3 22 2 23
REMARK SMILES IDX 1 24 19 25 20 26 21 27 22 28 23 29 24 30 25 31 26 33 27 34
REMARK SMILES IDX 28 35 74 36 29 37 73 38 30 39 31 40 32 41 67 42 33 43 72 44
REMARK SMILES IDX 66 45 68 46 34 47 71 48 65 49 64 50 35 52 57 53 42 54 56 55
REMARK SMILES IDX 43 56 46 57 55 58 69 59 44 60 45 61 54 63 70 64 47 65 36 66
REMARK SMILES IDX 37 67 41 68 38 69 40 70 39 71 58 72 59 73 63 74 60 75 62 76
REMARK SMILES IDX 61 77 48 78 49 79 53 80 50 81 52 82 51 83
REMARK H PARENT 17 5 24 32 68 51 46 62
REMARK Flexibility Score: inf
ROOT
ATOM      1  C   UNL     1      -9.328   0.849  -1.541  1.00  0.00     0.116 C 
ENDROOT
BRANCH   1   2
ATOM      2  N   UNL     1      -9.903  -0.344  -0.949  1.00  0.00    -0.356 N 
ATOM      3  C   UNL     1     -10.130  -0.735   0.327  1.00  0.00     0.225 C 
ATOM      4  O   UNL     1     -10.722  -1.812   0.469  1.00  0.00    -0.275 OA
ATOM      5  H   UNL     1     -10.187  -1.010  -1.615  1.00  0.00     0.163 HD
BRANCH   3   6
ATOM      6  C   UNL     1      -9.618  -0.021   1.568  1.00  0.00     0.107 C 
ATOM      7  N   UNL     1      -7.451   0.913   1.568  1.00  0.00    -0.312 N 
ATOM      8  C   UNL     1      -8.153  -0.328   1.794  1.00  0.00     0.139 C 
ATOM      9  C   UNL     1      -8.335   1.994   1.494  1.00  0.00     0.227 C 
ATOM     10  C   UNL     1      -9.746   1.483   1.666  1.00  0.00     0.116 C 
ATOM     11  O   UNL     1      -8.091   3.175   1.294  1.00  0.00    -0.274 OA
BRANCH   7  12
ATOM     12  C   UNL     1      -6.031   0.982   1.500  1.00  0.00     0.044 A 
ATOM     13  C   UNL     1      -3.223   1.115   1.302  1.00  0.00     0.060 A 
ATOM     14  C   UNL     1      -3.862  -0.117   1.197  1.00  0.00     0.018 A 
ATOM     15  C   UNL     1      -3.960   2.276   1.519  1.00  0.00     0.018 A 
ATOM     16  C   UNL     1      -5.258  -0.180   1.310  1.00  0.00     0.027 A 
ATOM     17  C   UNL     1      -5.353   2.205   1.614  1.00  0.00     0.027 A 
BRANCH  13  18
ATOM     18  C   UNL     1      -1.774   1.220   1.114  1.00  0.00     0.338 C 
ATOM     19  O   UNL     1      -1.261   1.530   0.050  1.00  0.00    -0.246 OA
BRANCH  18  20
ATOM     20  O   UNL     1      -1.169   0.971   2.295  1.00  0.00    -0.462 OA
BRANCH  20  21
ATOM     21  C   UNL     1       0.254   1.170   2.329  1.00  0.00     0.233 C 
BRANCH  21  22
ATOM     22  C   UNL     1       0.985  -0.170   2.378  1.00  0.00     0.041 C 
BRANCH  22  23
ATOM     23  C   UNL     1       0.813  -1.038   1.130  1.00  0.00     0.000 C 
ATOM     24  C   UNL     1       1.510  -0.473  -0.099  1.00  0.00     0.004 C 
ENDBRANCH  22  23
ENDBRANCH  21  22
ENDBRANCH  20  21
ENDBRANCH  18  20
ENDBRANCH  13  18
ENDBRANCH   7  12
ENDBRANCH   3   6
ENDBRANCH   1   2
BRANCH   1  25
ATOM     25  C   UNL     1      -8.025   0.574  -2.288  1.00  0.00     0.021 C 
BRANCH  25  26
ATOM     26  C   UNL     1      -8.174  -0.223  -3.589  1.00  0.00     0.002 C 
BRANCH  26  27
ATOM     27  C   UNL     1      -9.152   0.346  -4.625  1.00  0.00     0.002 C 
BRANCH  27  28
ATOM     28  C   UNL     1      -8.972   1.824  -4.983  1.00  0.00     0.021 C 
BRANCH  28  29
ATOM     29  C   UNL     1      -7.599   2.205  -5.531  1.00  0.00     0.116 C 
BRANCH  29  30
ATOM     30  N   UNL     1      -7.318   1.580  -6.812  1.00  0.00    -0.352 N 
ATOM     31  C   UNL     1      -6.915   2.147  -7.995  1.00  0.00     0.251 C 
ATOM     32  H   UNL     1      -7.434   0.602  -6.835  1.00  0.00     0.163 HD
ATOM     33  O   UNL     1      -6.880   1.470  -9.019  1.00  0.00    -0.269 OA
BRANCH  31  34
ATOM     34  C   UNL     1      -6.540   3.579  -8.056  1.00  0.00     0.039 A 
ATOM     35  C   UNL     1      -7.005   4.349  -9.127  1.00  0.00     0.014 A 
ATOM     36  C   UNL     1      -5.709   4.155  -7.091  1.00  0.00     0.014 A 
ATOM     37  C   UNL     1      -6.683   5.706  -9.202  1.00  0.00     0.010 A 
ATOM     38  C   UNL     1      -5.433   5.522  -7.137  1.00  0.00     0.010 A 
ATOM     39  C   UNL     1      -5.915   6.309  -8.194  1.00  0.00    -0.014 A 
BRANCH  39  40
ATOM     40  C   UNL     1      -5.601   7.760  -8.232  1.00  0.00     0.031 A 
ATOM     41  C   UNL     1      -4.186   8.224  -8.440  1.00  0.00     0.074 A 
ATOM     42  C   UNL     1      -6.580   8.661  -8.027  1.00  0.00     0.049 A 
ATOM     43  N   UNL     1      -3.709   9.443  -8.441  1.00  0.00    -0.248 NA
ATOM     44  C   UNL     1      -3.172   7.180  -8.656  1.00  0.00     0.031 C 
ATOM     45  C   UNL     1      -7.990   8.345  -7.788  1.00  0.00     0.029 A 
ATOM     46  N   UNL     1      -6.534  10.032  -7.978  1.00  0.00    -0.354 N 
ATOM     47  C   UNL     1      -2.341   9.312  -8.639  1.00  0.00     0.074 A 
ATOM     48  C   UNL     1      -2.058   7.895  -8.718  1.00  0.00     0.031 C 
ATOM     49  C   UNL     1      -8.677   9.489  -7.639  1.00  0.00     0.029 A 
ATOM     50  C   UNL     1      -7.754  10.616  -7.738  1.00  0.00     0.049 A 
ATOM     51  H   UNL     1      -5.705  10.548  -8.104  1.00  0.00     0.167 HD
ATOM     52  C   UNL     1      -1.403  10.283  -8.759  1.00  0.00     0.031 A 
ATOM     53  C   UNL     1      -8.091  11.912  -7.606  1.00  0.00     0.031 A 
ATOM     54  C   UNL     1      -1.679  11.693  -8.694  1.00  0.00     0.049 A 
ATOM     55  C   UNL     1      -7.031  12.969  -7.732  1.00  0.00     0.074 A 
ATOM     56  C   UNL     1      -0.800  12.752  -8.850  1.00  0.00     0.029 A 
ATOM     57  N   UNL     1      -2.928  12.241  -8.454  1.00  0.00    -0.354 N 
ATOM     58  N   UNL     1      -5.750  12.829  -7.967  1.00  0.00    -0.248 NA
ATOM     59  C   UNL     1      -7.469  14.365  -7.582  1.00  0.00     0.031 C 
ATOM     60  C   UNL     1      -1.514  13.942  -8.671  1.00  0.00     0.029 A 
ATOM     61  C   UNL     1      -2.843  13.623  -8.443  1.00  0.00     0.049 A 
ATOM     62  H   UNL     1      -3.754  11.724  -8.312  1.00  0.00     0.167 HD
ATOM     63  C   UNL     1      -5.233  14.117  -8.017  1.00  0.00     0.074 A 
ATOM     64  C   UNL     1      -6.340  15.024  -7.800  1.00  0.00     0.031 C 
ATOM     65  C   UNL     1      -3.954  14.511  -8.226  1.00  0.00     0.031 A 
BRANCH  52  66
ATOM     66  C   UNL     1       0.017   9.843  -8.970  1.00  0.00    -0.014 A 
ATOM     67  C   UNL     1       0.436   9.313 -10.201  1.00  0.00     0.009 A 
ATOM     68  C   UNL     1       0.955   9.987  -7.936  1.00  0.00     0.009 A 
ATOM     69  C   UNL     1       1.758   8.904 -10.380  1.00  0.00     0.001 A 
ATOM     70  C   UNL     1       2.283   9.598  -8.127  1.00  0.00     0.001 A 
ATOM     71  C   UNL     1       2.681   9.050  -9.345  1.00  0.00     0.000 A 
ENDBRANCH  52  66
BRANCH  53  72
ATOM     72  C   UNL     1      -9.505  12.290  -7.356  1.00  0.00    -0.014 A 
ATOM     73  C   UNL     1     -10.272  12.873  -8.376  1.00  0.00     0.009 A 
ATOM     74  C   UNL     1     -10.091  12.078  -6.099  1.00  0.00     0.009 A 
ATOM     75  C   UNL     1     -11.593  13.257  -8.136  1.00  0.00     0.001 A 
ATOM     76  C   UNL     1     -11.419  12.442  -5.869  1.00  0.00     0.001 A 
ATOM     77  C   UNL     1     -12.166  13.038  -6.884  1.00  0.00     0.000 A 
ENDBRANCH  53  72
BRANCH  65  78
ATOM     78  C   UNL     1      -3.692  15.988  -8.263  1.00  0.00    -0.014 A 
ATOM     79  C   UNL     1      -3.664  16.750  -7.085  1.00  0.00     0.009 A 
ATOM     80  C   UNL     1      -3.436  16.618  -9.491  1.00  0.00     0.009 A 
ATOM     81  C   UNL     1      -3.413  18.122  -7.139  1.00  0.00     0.001 A 
ATOM     82  C   UNL     1      -3.163  17.986  -9.539  1.00  0.00     0.001 A 
ATOM     83  C   UNL     1      -3.159  18.738  -8.365  1.00  0.00     0.000 A 
ENDBRANCH  65  78
ENDBRANCH  39  40
ENDBRANCH  31  34
ENDBRANCH  29  30
ENDBRANCH  28  29
ENDBRANCH  27  28
ENDBRANCH  26  27
ENDBRANCH  25  26
ENDBRANCH   1  25
TORSDOF 19
