REMARK SMILES COc1cc(OC)cc(-c2ccc([C@@H](C)C(=O)NCCCCCCNC(=O)c3ccc(-c4c5nc(c(-c6ccccc6)c6ccc([nH]6)c(-c6ccccc6)c6nc(c(-c7ccccc7)c7ccc4[nH]7)C=C6)C=C5)cc3)cc2F)c1
REMARK SMILES IDX 21 1 20 2 19 3 18 4 16 5 17 6 14 8 15 9 13 10 10 11 11 12
REMARK SMILES IDX 77 13 12 14 76 15 78 16 9 17 3 18 4 19 79 20 5 21 8 22 2 23
REMARK SMILES IDX 1 24 6 25 7 26 22 27 23 28 24 29 25 30 26 31 27 33 28 34
REMARK SMILES IDX 29 35 75 36 30 37 74 38 31 39 32 40 33 41 68 42 34 43 73 44
REMARK SMILES IDX 67 45 69 46 35 47 72 48 66 49 65 50 36 52 58 53 43 54 57 55
REMARK SMILES IDX 44 56 47 57 56 58 70 59 45 60 46 61 55 63 71 64 48 65 37 66
REMARK SMILES IDX 38 67 42 68 39 69 41 70 40 71 59 72 60 73 64 74 61 75 63 76
REMARK SMILES IDX 62 77 49 78 50 79 54 80 51 81 53 82 52 83
REMARK H PARENT 18 7 25 32 69 51 47 62
REMARK Flexibility Score: inf
ROOT
ATOM      1  C   UNL     1       6.130  -7.723  -1.375  1.00  0.00     0.002 C 
ENDROOT
BRANCH   1   2
ATOM      2  C   UNL     1       6.104  -7.134   0.040  1.00  0.00     0.021 C 
BRANCH   2   3
ATOM      3  C   UNL     1       7.416  -7.306   0.809  1.00  0.00     0.116 C 
BRANCH   3   4
ATOM      4  N   UNL     1       8.330  -6.209   0.567  1.00  0.00    -0.356 N 
ATOM      5  C   UNL     1       8.649  -5.115   1.310  1.00  0.00     0.227 C 
ATOM      6  O   UNL     1       9.420  -4.301   0.788  1.00  0.00    -0.274 OA
ATOM      7  H   UNL     1       8.808  -6.266  -0.292  1.00  0.00     0.163 HD
BRANCH   5   8
ATOM      8  C   UNL     1       8.115  -4.861   2.727  1.00  0.00     0.105 C 
ATOM      9  C   UNL     1       8.497  -5.940   3.742  1.00  0.00     0.023 C 
BRANCH   8  10
ATOM     10  C   UNL     1       6.664  -4.404   2.752  1.00  0.00    -0.033 A 
ATOM     11  C   UNL     1       3.957  -3.470   2.691  1.00  0.00     0.018 A 
ATOM     12  C   UNL     1       4.269  -4.836   2.806  1.00  0.00     0.012 A 
ATOM     13  C   UNL     1       5.042  -2.587   2.612  1.00  0.00     0.131 A 
ATOM     14  C   UNL     1       5.591  -5.289   2.872  1.00  0.00     0.005 A 
ATOM     15  C   UNL     1       6.366  -3.039   2.624  1.00  0.00     0.044 A 
ATOM     16  F   UNL     1       4.838  -1.262   2.537  1.00  0.00    -0.206 F 
BRANCH  11  17
ATOM     17  C   UNL     1       2.544  -3.023   2.686  1.00  0.00    -0.008 A 
ATOM     18  C   UNL     1       0.747  -1.581   1.872  1.00  0.00     0.123 A 
ATOM     19  C   UNL     1      -0.157  -2.243   2.704  1.00  0.00     0.092 A 
ATOM     20  C   UNL     1       2.090  -1.974   1.863  1.00  0.00     0.055 A 
ATOM     21  C   UNL     1       0.257  -3.288   3.524  1.00  0.00     0.123 A 
ATOM     22  C   UNL     1       1.600  -3.663   3.516  1.00  0.00     0.055 A 
BRANCH  18  23
ATOM     23  O   UNL     1       0.200  -0.565   1.137  1.00  0.00    -0.497 OA
ATOM     24  C   UNL     1       0.987  -0.035   0.080  1.00  0.00     0.278 C 
ENDBRANCH  18  23
BRANCH  21  25
ATOM     25  O   UNL     1      -0.728  -3.863   4.280  1.00  0.00    -0.497 OA
ATOM     26  C   UNL     1      -0.337  -4.916   5.153  1.00  0.00     0.278 C 
ENDBRANCH  21  25
ENDBRANCH  11  17
ENDBRANCH   8  10
ENDBRANCH   5   8
ENDBRANCH   3   4
ENDBRANCH   2   3
ENDBRANCH   1   2
BRANCH   1  27
ATOM     27  C   UNL     1       6.329  -9.243  -1.446  1.00  0.00     0.002 C 
BRANCH  27  28
ATOM     28  C   UNL     1       5.333 -10.081  -0.636  1.00  0.00     0.021 C 
BRANCH  28  29
ATOM     29  C   UNL     1       3.870  -9.902  -1.032  1.00  0.00     0.116 C 
BRANCH  29  30
ATOM     30  N   UNL     1       3.622 -10.330  -2.399  1.00  0.00    -0.352 N 
ATOM     31  C   UNL     1       2.754 -11.277  -2.881  1.00  0.00     0.251 C 
ATOM     32  H   UNL     1       4.159  -9.870  -3.084  1.00  0.00     0.163 HD
ATOM     33  O   UNL     1       2.845 -11.654  -4.045  1.00  0.00    -0.269 OA
BRANCH  31  34
ATOM     34  C   UNL     1       1.710 -11.852  -2.006  1.00  0.00     0.039 A 
ATOM     35  C   UNL     1       1.452 -13.225  -2.079  1.00  0.00     0.014 A 
ATOM     36  C   UNL     1       0.947 -11.041  -1.160  1.00  0.00     0.014 A 
ATOM     37  C   UNL     1       0.457 -13.789  -1.276  1.00  0.00     0.010 A 
ATOM     38  C   UNL     1      -0.001 -11.614  -0.315  1.00  0.00     0.010 A 
ATOM     39  C   UNL     1      -0.264 -12.992  -0.374  1.00  0.00    -0.014 A 
BRANCH  39  40
ATOM     40  C   UNL     1      -1.319 -13.576   0.492  1.00  0.00     0.031 A 
ATOM     41  C   UNL     1      -2.759 -13.187   0.293  1.00  0.00     0.074 A 
ATOM     42  C   UNL     1      -0.980 -14.422   1.483  1.00  0.00     0.049 A 
ATOM     43  N   UNL     1      -3.814 -13.547   0.980  1.00  0.00    -0.248 NA
ATOM     44  C   UNL     1      -3.048 -12.254  -0.808  1.00  0.00     0.031 C 
ATOM     45  C   UNL     1       0.382 -14.861   1.796  1.00  0.00     0.029 A 
ATOM     46  N   UNL     1      -1.758 -15.063   2.414  1.00  0.00    -0.354 N 
ATOM     47  C   UNL     1      -4.886 -12.876   0.404  1.00  0.00     0.074 A 
ATOM     48  C   UNL     1      -4.349 -12.051  -0.656  1.00  0.00     0.031 C 
ATOM     49  C   UNL     1       0.339 -15.721   2.828  1.00  0.00     0.029 A 
ATOM     50  C   UNL     1      -1.045 -15.865   3.270  1.00  0.00     0.049 A 
ATOM     51  H   UNL     1      -2.736 -14.958   2.463  1.00  0.00     0.167 HD
ATOM     52  C   UNL     1      -6.202 -12.954   0.714  1.00  0.00     0.031 A 
ATOM     53  C   UNL     1      -1.459 -16.631   4.296  1.00  0.00     0.031 A 
ATOM     54  C   UNL     1      -6.742 -13.782   1.758  1.00  0.00     0.049 A 
ATOM     55  C   UNL     1      -2.924 -16.690   4.628  1.00  0.00     0.074 A 
ATOM     56  C   UNL     1      -8.065 -13.953   2.127  1.00  0.00     0.029 A 
ATOM     57  N   UNL     1      -5.985 -14.584   2.596  1.00  0.00    -0.354 N 
ATOM     58  N   UNL     1      -3.928 -16.081   4.045  1.00  0.00    -0.248 NA
ATOM     59  C   UNL     1      -3.312 -17.553   5.753  1.00  0.00     0.031 C 
ATOM     60  C   UNL     1      -8.105 -14.834   3.214  1.00  0.00     0.029 A 
ATOM     61  C   UNL     1      -6.811 -15.246   3.489  1.00  0.00     0.049 A 
ATOM     62  H   UNL     1      -5.005 -14.671   2.563  1.00  0.00     0.167 HD
ATOM     63  C   UNL     1      -5.068 -16.514   4.709  1.00  0.00     0.074 A 
ATOM     64  C   UNL     1      -4.633 -17.445   5.730  1.00  0.00     0.031 C 
ATOM     65  C   UNL     1      -6.362 -16.174   4.491  1.00  0.00     0.031 A 
BRANCH  52  66
ATOM     66  C   UNL     1      -7.152 -12.115  -0.095  1.00  0.00    -0.014 A 
ATOM     67  C   UNL     1      -7.441 -12.435  -1.431  1.00  0.00     0.009 A 
ATOM     68  C   UNL     1      -7.790 -11.012   0.493  1.00  0.00     0.009 A 
ATOM     69  C   UNL     1      -8.324 -11.646  -2.172  1.00  0.00     0.001 A 
ATOM     70  C   UNL     1      -8.693 -10.242  -0.242  1.00  0.00     0.001 A 
ATOM     71  C   UNL     1      -8.952 -10.554  -1.576  1.00  0.00     0.000 A 
ENDBRANCH  52  66
BRANCH  53  72
ATOM     72  C   UNL     1      -0.479 -17.430   5.077  1.00  0.00    -0.014 A 
ATOM     73  C   UNL     1      -0.449 -18.829   4.957  1.00  0.00     0.009 A 
ATOM     74  C   UNL     1       0.416 -16.805   5.958  1.00  0.00     0.009 A 
ATOM     75  C   UNL     1       0.435 -19.587   5.728  1.00  0.00     0.001 A 
ATOM     76  C   UNL     1       1.318 -17.564   6.707  1.00  0.00     0.001 A 
ATOM     77  C   UNL     1       1.319 -18.954   6.600  1.00  0.00     0.000 A 
ENDBRANCH  53  72
BRANCH  65  78
ATOM     78  C   UNL     1      -7.400 -16.849   5.341  1.00  0.00    -0.014 A 
ATOM     79  C   UNL     1      -7.573 -16.507   6.691  1.00  0.00     0.009 A 
ATOM     80  C   UNL     1      -8.237 -17.820   4.770  1.00  0.00     0.009 A 
ATOM     81  C   UNL     1      -8.543 -17.151   7.462  1.00  0.00     0.001 A 
ATOM     82  C   UNL     1      -9.224 -18.442   5.536  1.00  0.00     0.001 A 
ATOM     83  C   UNL     1      -9.370 -18.114   6.883  1.00  0.00     0.000 A 
ENDBRANCH  65  78
ENDBRANCH  39  40
ENDBRANCH  31  34
ENDBRANCH  29  30
ENDBRANCH  28  29
ENDBRANCH  27  28
ENDBRANCH   1  27
TORSDOF 17
