REMARK SMILES C=CCN1C(=O)/C(=C/c2ccccn2)S/C1=[NH+]\c1ccc(C(=O)NCCCCCCNC(=O)c2ccc(-c3c4nc(c(-c5ccccc5)c5ccc([nH]5)c(-c5ccccc5)c5nc(c(-c6ccccc6)c6ccc3[nH]6)C=C5)C=C4)cc2)cc1
REMARK SMILES IDX 27 1 26 2 25 3 24 4 22 5 23 6 21 8 18 9 19 10 83 11 20 12
REMARK SMILES IDX 82 13 17 14 4 15 5 16 16 17 6 18 7 19 15 20 8 21 3 23 2 24
REMARK SMILES IDX 1 25 9 26 10 27 14 28 11 29 13 30 12 31 28 32 29 33 30 34
REMARK SMILES IDX 31 35 32 36 33 38 34 39 35 40 81 41 36 42 80 43 37 44 38 45
REMARK SMILES IDX 39 46 74 47 40 48 79 49 73 50 75 51 41 52 78 53 72 54 71 55
REMARK SMILES IDX 42 57 64 58 49 59 63 60 50 61 53 62 62 63 76 64 51 65 52 66
REMARK SMILES IDX 61 68 77 69 54 70 43 71 44 72 48 73 45 74 47 75 46 76 65 77
REMARK SMILES IDX 66 78 70 79 67 80 69 81 68 82 55 83 56 84 60 85 57 86 59 87
REMARK SMILES IDX 58 88
REMARK H PARENT 24 7 17 22 31 37 75 56 53 67
REMARK Flexibility Score: inf
ROOT
ATOM      1  C   UNL     1      -5.565 -10.001  -0.586  1.00  0.00     0.002 C 
ENDROOT
BRANCH   1   2
ATOM      2  C   UNL     1      -5.165  -8.541  -0.335  1.00  0.00     0.021 C 
BRANCH   2   3
ATOM      3  C   UNL     1      -3.869  -8.407   0.468  1.00  0.00     0.116 C 
BRANCH   3   4
ATOM      4  N   UNL     1      -2.730  -8.655  -0.396  1.00  0.00    -0.352 N 
ATOM      5  C   UNL     1      -1.814  -7.814  -0.971  1.00  0.00     0.251 C 
ATOM      6  O   UNL     1      -0.939  -8.307  -1.681  1.00  0.00    -0.269 OA
ATOM      7  H   UNL     1      -2.589  -9.606  -0.608  1.00  0.00     0.163 HD
BRANCH   5   8
ATOM      8  C   UNL     1      -1.794  -6.352  -0.704  1.00  0.00     0.040 A 
ATOM      9  C   UNL     1      -1.568  -3.643   0.004  1.00  0.00     0.125 A 
ATOM     10  C   UNL     1      -0.427  -4.379  -0.311  1.00  0.00     0.052 A 
ATOM     11  C   UNL     1      -2.825  -4.235  -0.143  1.00  0.00     0.052 A 
ATOM     12  C   UNL     1      -0.538  -5.729  -0.656  1.00  0.00     0.018 A 
ATOM     13  C   UNL     1      -2.939  -5.576  -0.514  1.00  0.00     0.018 A 
BRANCH   9  14
ATOM     14  N   UNL     1      -1.461  -2.311   0.412  1.00  0.00    -0.234 N 
ATOM     15  N   UNL     1      -1.604  -0.701   2.099  1.00  0.00    -0.182 N 
ATOM     16  C   UNL     1      -1.950  -0.485   3.414  1.00  0.00     0.349 C 
ATOM     17  C   UNL     1      -1.630  -1.999   1.656  1.00  0.00     0.324 C 
ATOM     18  O   UNL     1      -2.056   0.603   3.968  1.00  0.00    -0.240 OA
ATOM     19  C   UNL     1      -2.178  -1.785   4.101  1.00  0.00     0.111 C 
ATOM     20  S   UNL     1      -1.933  -3.082   2.999  1.00  0.00     0.007 SA
ATOM     21  C   UNL     1      -2.527  -1.859   5.393  1.00  0.00     0.052 C 
ATOM     22  H   UNL     1      -1.257  -1.609  -0.248  1.00  0.00     0.313 HD
BRANCH  15  23
ATOM     23  C   UNL     1      -1.266   0.400   1.221  1.00  0.00     0.275 C 
BRANCH  23  24
ATOM     24  C   UNL     1       0.234   0.498   1.138  1.00  0.00     0.011 C 
ATOM     25  C   UNL     1       0.950   0.197   0.045  1.00  0.00     0.008 C 
ENDBRANCH  23  24
ENDBRANCH  15  23
BRANCH  21  26
ATOM     26  C   UNL     1      -2.683  -3.089   6.167  1.00  0.00     0.064 A 
ATOM     27  C   UNL     1      -1.613  -3.960   6.361  1.00  0.00     0.028 A 
ATOM     28  N   UNL     1      -3.897  -3.281   6.726  1.00  0.00    -0.257 NA
ATOM     29  C   UNL     1      -1.809  -5.101   7.133  1.00  0.00     0.004 A 
ATOM     30  C   UNL     1      -4.058  -4.400   7.469  1.00  0.00     0.111 A 
ATOM     31  C   UNL     1      -3.057  -5.332   7.695  1.00  0.00     0.020 A 
ENDBRANCH  21  26
ENDBRANCH   9  14
ENDBRANCH   5   8
ENDBRANCH   3   4
ENDBRANCH   2   3
ENDBRANCH   1   2
BRANCH   1  32
ATOM     32  C   UNL     1      -5.878 -10.802   0.683  1.00  0.00     0.002 C 
BRANCH  32  33
ATOM     33  C   UNL     1      -6.958 -10.188   1.577  1.00  0.00     0.021 C 
BRANCH  33  34
ATOM     34  C   UNL     1      -8.317 -10.048   0.900  1.00  0.00     0.116 C 
BRANCH  34  35
ATOM     35  N   UNL     1      -8.876 -11.345   0.551  1.00  0.00    -0.352 N 
ATOM     36  C   UNL     1     -10.068 -11.908   0.927  1.00  0.00     0.251 C 
ATOM     37  H   UNL     1      -8.316 -11.899  -0.040  1.00  0.00     0.163 HD
ATOM     38  O   UNL     1     -10.269 -13.105   0.751  1.00  0.00    -0.269 OA
BRANCH  36  39
ATOM     39  C   UNL     1     -11.111 -11.069   1.553  1.00  0.00     0.039 A 
ATOM     40  C   UNL     1     -11.823 -11.577   2.641  1.00  0.00     0.014 A 
ATOM     41  C   UNL     1     -11.400  -9.795   1.054  1.00  0.00     0.014 A 
ATOM     42  C   UNL     1     -12.794 -10.787   3.258  1.00  0.00     0.010 A 
ATOM     43  C   UNL     1     -12.311  -8.981   1.719  1.00  0.00     0.010 A 
ATOM     44  C   UNL     1     -13.025  -9.472   2.821  1.00  0.00    -0.014 A 
BRANCH  44  45
ATOM     45  C   UNL     1     -14.015  -8.604   3.506  1.00  0.00     0.031 A 
ATOM     46  C   UNL     1     -15.235  -8.117   2.773  1.00  0.00     0.074 A 
ATOM     47  C   UNL     1     -13.795  -8.223   4.780  1.00  0.00     0.049 A 
ATOM     48  N   UNL     1     -16.198  -7.340   3.200  1.00  0.00    -0.248 NA
ATOM     49  C   UNL     1     -15.385  -8.543   1.371  1.00  0.00     0.031 C 
ATOM     50  C   UNL     1     -12.633  -8.599   5.589  1.00  0.00     0.029 A 
ATOM     51  N   UNL     1     -14.543  -7.438   5.620  1.00  0.00    -0.354 N 
ATOM     52  C   UNL     1     -17.061  -7.180   2.122  1.00  0.00     0.074 A 
ATOM     53  C   UNL     1     -16.478  -7.890   1.005  1.00  0.00     0.031 C 
ATOM     54  C   UNL     1     -12.766  -8.078   6.819  1.00  0.00     0.029 A 
ATOM     55  C   UNL     1     -13.995  -7.294   6.872  1.00  0.00     0.049 A 
ATOM     56  H   UNL     1     -15.391  -7.018   5.352  1.00  0.00     0.167 HD
ATOM     57  C   UNL     1     -18.244  -6.524   2.072  1.00  0.00     0.031 A 
ATOM     58  C   UNL     1     -14.434  -6.606   7.943  1.00  0.00     0.031 A 
ATOM     59  C   UNL     1     -18.823  -5.817   3.183  1.00  0.00     0.049 A 
ATOM     60  C   UNL     1     -15.732  -5.852   7.846  1.00  0.00     0.074 A 
ATOM     61  C   UNL     1     -20.035  -5.151   3.244  1.00  0.00     0.029 A 
ATOM     62  N   UNL     1     -18.230  -5.683   4.429  1.00  0.00    -0.354 N 
ATOM     63  N   UNL     1     -16.567  -5.766   6.839  1.00  0.00    -0.248 NA
ATOM     64  C   UNL     1     -16.152  -5.109   9.042  1.00  0.00     0.031 C 
ATOM     65  C   UNL     1     -20.149  -4.566   4.508  1.00  0.00     0.029 A 
ATOM     66  C   UNL     1     -19.040  -4.924   5.257  1.00  0.00     0.049 A 
ATOM     67  H   UNL     1     -17.362  -6.070   4.686  1.00  0.00     0.167 HD
ATOM     68  C   UNL     1     -17.627  -4.991   7.291  1.00  0.00     0.074 A 
ATOM     69  C   UNL     1     -17.338  -4.649   8.668  1.00  0.00     0.031 C 
ATOM     70  C   UNL     1     -18.740  -4.596   6.627  1.00  0.00     0.031 A 
BRANCH  57  71
ATOM     71  C   UNL     1     -18.993  -6.539   0.767  1.00  0.00    -0.014 A 
ATOM     72  C   UNL     1     -19.582  -7.718   0.282  1.00  0.00     0.009 A 
ATOM     73  C   UNL     1     -19.155  -5.351   0.037  1.00  0.00     0.009 A 
ATOM     74  C   UNL     1     -20.287  -7.714  -0.923  1.00  0.00     0.001 A 
ATOM     75  C   UNL     1     -19.887  -5.343  -1.151  1.00  0.00     0.001 A 
ATOM     76  C   UNL     1     -20.445  -6.525  -1.635  1.00  0.00     0.000 A 
ENDBRANCH  57  71
BRANCH  58  77
ATOM     77  C   UNL     1     -13.650  -6.599   9.207  1.00  0.00    -0.014 A 
ATOM     78  C   UNL     1     -14.155  -7.215  10.363  1.00  0.00     0.009 A 
ATOM     79  C   UNL     1     -12.409  -5.948   9.276  1.00  0.00     0.009 A 
ATOM     80  C   UNL     1     -13.454  -7.144  11.569  1.00  0.00     0.001 A 
ATOM     81  C   UNL     1     -11.693  -5.909  10.474  1.00  0.00     0.001 A 
ATOM     82  C   UNL     1     -12.222  -6.493  11.623  1.00  0.00     0.000 A 
ENDBRANCH  58  77
BRANCH  70  83
ATOM     83  C   UNL     1     -19.750  -3.790   7.397  1.00  0.00    -0.014 A 
ATOM     84  C   UNL     1     -19.488  -2.468   7.789  1.00  0.00     0.009 A 
ATOM     85  C   UNL     1     -20.995  -4.357   7.708  1.00  0.00     0.009 A 
ATOM     86  C   UNL     1     -20.438  -1.746   8.515  1.00  0.00     0.001 A 
ATOM     87  C   UNL     1     -21.956  -3.622   8.402  1.00  0.00     0.001 A 
ATOM     88  C   UNL     1     -21.672  -2.321   8.816  1.00  0.00     0.000 A 
ENDBRANCH  70  83
ENDBRANCH  44  45
ENDBRANCH  36  39
ENDBRANCH  34  35
ENDBRANCH  33  34
ENDBRANCH  32  33
ENDBRANCH   1  32
TORSDOF 17
