REMARK SMILES O=C(NCCCCCCNC(=O)[C@H](Cc1ccc([N+](=O)[O-])cc1)c1ccccc1Br)c1ccc(-c2c3nc(c(-c4ccccc4)c4ccc([nH]4)c(-c4ccccc4)c4nc(c(-c5ccccc5)c5ccc2[nH]5)C=C4)C=C3)cc1
REMARK SMILES IDX 7 1 6 2 5 3 4 4 3 5 1 6 2 7 31 9 32 10 78 11 33 12 77 13
REMARK SMILES IDX 34 14 35 15 36 16 71 17 37 18 76 19 70 20 72 21 38 22 75 23
REMARK SMILES IDX 69 24 68 25 39 27 61 28 46 29 60 30 47 31 50 32 59 33 73 34
REMARK SMILES IDX 48 35 49 36 58 38 74 39 51 40 40 41 41 42 45 43 42 44 44 45
REMARK SMILES IDX 43 46 62 47 63 48 67 49 64 50 66 51 65 52 52 53 53 54 57 55
REMARK SMILES IDX 54 56 56 57 55 58 8 59 9 60 10 61 11 62 12 64 13 65 24 66
REMARK SMILES IDX 25 67 29 68 26 69 28 70 30 71 27 72 14 73 15 74 16 75 23 76
REMARK SMILES IDX 17 77 22 78 18 79 19 80 20 81 21 82
REMARK H PARENT 3 8 72 26 50 37 10 63
REMARK Flexibility Score: inf
ROOT
ATOM      1  C   UNL     1       8.373   8.663  -0.997  1.00  0.00     0.002 C 
ENDROOT
BRANCH   1   2
ATOM      2  C   UNL     1       8.417   9.992  -0.232  1.00  0.00     0.002 C 
BRANCH   2   3
ATOM      3  C   UNL     1       7.341  11.005  -0.609  1.00  0.00     0.021 C 
BRANCH   3   4
ATOM      4  C   UNL     1       5.933  10.539  -0.270  1.00  0.00     0.116 C 
BRANCH   4   5
ATOM      5  N   UNL     1       5.622  10.741   1.137  1.00  0.00    -0.352 N 
ATOM      6  O   UNL     1       5.018  11.964   2.948  1.00  0.00    -0.269 OA
ATOM      7  C   UNL     1       4.984  11.804   1.736  1.00  0.00     0.251 C 
ATOM      8  H   UNL     1       5.907  10.020   1.744  1.00  0.00     0.163 HD
BRANCH   7   9
ATOM      9  C   UNL     1       4.258  12.768   0.881  1.00  0.00     0.039 A 
ATOM     10  C   UNL     1       3.405  12.291  -0.113  1.00  0.00     0.014 A 
ATOM     11  C   UNL     1       4.430  14.142   1.064  1.00  0.00     0.014 A 
ATOM     12  C   UNL     1       2.862  13.174  -1.033  1.00  0.00     0.010 A 
ATOM     13  C   UNL     1       3.778  15.039   0.210  1.00  0.00     0.010 A 
ATOM     14  C   UNL     1       3.006  14.561  -0.860  1.00  0.00    -0.014 A 
BRANCH  14  15
ATOM     15  C   UNL     1       2.232  15.463  -1.751  1.00  0.00     0.031 A 
ATOM     16  C   UNL     1       2.901  16.440  -2.675  1.00  0.00     0.074 A 
ATOM     17  C   UNL     1       0.888  15.341  -1.751  1.00  0.00     0.049 A 
ATOM     18  N   UNL     1       2.352  17.245  -3.551  1.00  0.00    -0.248 NA
ATOM     19  C   UNL     1       4.368  16.536  -2.611  1.00  0.00     0.031 C 
ATOM     20  C   UNL     1       0.124  14.435  -0.885  1.00  0.00     0.029 A 
ATOM     21  N   UNL     1      -0.071  15.945  -2.520  1.00  0.00    -0.354 N 
ATOM     22  C   UNL     1       3.398  17.948  -4.135  1.00  0.00     0.074 A 
ATOM     23  C   UNL     1       4.615  17.497  -3.493  1.00  0.00     0.031 C 
ATOM     24  C   UNL     1      -1.171  14.491  -1.220  1.00  0.00     0.029 A 
ATOM     25  C   UNL     1      -1.343  15.497  -2.258  1.00  0.00     0.049 A 
ATOM     26  H   UNL     1       0.131  16.633  -3.195  1.00  0.00     0.167 HD
ATOM     27  C   UNL     1       3.345  18.879  -5.119  1.00  0.00     0.031 A 
ATOM     28  C   UNL     1      -2.528  15.870  -2.773  1.00  0.00     0.031 A 
ATOM     29  C   UNL     1       2.128  19.334  -5.743  1.00  0.00     0.049 A 
ATOM     30  C   UNL     1      -2.552  16.935  -3.827  1.00  0.00     0.074 A 
ATOM     31  C   UNL     1       1.975  20.267  -6.756  1.00  0.00     0.029 A 
ATOM     32  N   UNL     1       0.855  18.894  -5.414  1.00  0.00    -0.354 N 
ATOM     33  N   UNL     1      -1.548  17.564  -4.388  1.00  0.00    -0.248 NA
ATOM     34  C   UNL     1      -3.874  17.339  -4.320  1.00  0.00     0.031 C 
ATOM     35  C   UNL     1       0.607  20.432  -6.999  1.00  0.00     0.029 A 
ATOM     36  C   UNL     1      -0.089  19.553  -6.186  1.00  0.00     0.049 A 
ATOM     37  H   UNL     1       0.651  18.214  -4.731  1.00  0.00     0.167 HD
ATOM     38  C   UNL     1      -2.117  18.431  -5.309  1.00  0.00     0.074 A 
ATOM     39  C   UNL     1      -3.549  18.213  -5.260  1.00  0.00     0.031 C 
ATOM     40  C   UNL     1      -1.511  19.334  -6.117  1.00  0.00     0.031 A 
BRANCH  27  41
ATOM     41  C   UNL     1       4.642  19.489  -5.580  1.00  0.00    -0.014 A 
ATOM     42  C   UNL     1       5.563  18.753  -6.342  1.00  0.00     0.009 A 
ATOM     43  C   UNL     1       4.911  20.843  -5.317  1.00  0.00     0.009 A 
ATOM     44  C   UNL     1       6.734  19.353  -6.813  1.00  0.00     0.001 A 
ATOM     45  C   UNL     1       6.068  21.448  -5.813  1.00  0.00     0.001 A 
ATOM     46  C   UNL     1       6.981  20.701  -6.555  1.00  0.00     0.000 A 
ENDBRANCH  27  41
BRANCH  28  47
ATOM     47  C   UNL     1      -3.787  15.265  -2.263  1.00  0.00    -0.014 A 
ATOM     48  C   UNL     1      -4.599  14.479  -3.094  1.00  0.00     0.009 A 
ATOM     49  C   UNL     1      -4.193  15.493  -0.938  1.00  0.00     0.009 A 
ATOM     50  C   UNL     1      -5.809  13.967  -2.619  1.00  0.00     0.001 A 
ATOM     51  C   UNL     1      -5.381  14.946  -0.453  1.00  0.00     0.001 A 
ATOM     52  C   UNL     1      -6.196  14.197  -1.299  1.00  0.00     0.000 A 
ENDBRANCH  28  47
BRANCH  40  53
ATOM     53  C   UNL     1      -2.404  20.128  -7.029  1.00  0.00    -0.014 A 
ATOM     54  C   UNL     1      -3.289  21.095  -6.525  1.00  0.00     0.009 A 
ATOM     55  C   UNL     1      -2.367  19.897  -8.413  1.00  0.00     0.009 A 
ATOM     56  C   UNL     1      -4.155  21.775  -7.383  1.00  0.00     0.001 A 
ATOM     57  C   UNL     1      -3.208  20.605  -9.272  1.00  0.00     0.001 A 
ATOM     58  C   UNL     1      -4.111  21.532  -8.755  1.00  0.00     0.000 A 
ENDBRANCH  40  53
ENDBRANCH  14  15
ENDBRANCH   7   9
ENDBRANCH   4   5
ENDBRANCH   3   4
ENDBRANCH   2   3
ENDBRANCH   1   2
BRANCH   1  59
ATOM     59  C   UNL     1       8.359   8.822  -2.523  1.00  0.00     0.021 C 
BRANCH  59  60
ATOM     60  C   UNL     1       9.173   7.784  -3.307  1.00  0.00     0.116 C 
BRANCH  60  61
ATOM     61  N   UNL     1       9.146   6.449  -2.744  1.00  0.00    -0.356 N 
ATOM     62  C   UNL     1       8.984   5.225  -3.323  1.00  0.00     0.227 C 
ATOM     63  H   UNL     1       9.266   6.420  -1.767  1.00  0.00     0.163 HD
ATOM     64  O   UNL     1       9.162   4.244  -2.595  1.00  0.00    -0.274 OA
BRANCH  62  65
ATOM     65  C   UNL     1       8.566   5.099  -4.795  1.00  0.00     0.114 C 
BRANCH  65  66
ATOM     66  C   UNL     1       9.165   3.842  -5.445  1.00  0.00    -0.021 A 
ATOM     67  C   UNL     1       8.630   2.579  -5.114  1.00  0.00     0.006 A 
ATOM     68  C   UNL     1      10.245   3.867  -6.345  1.00  0.00     0.021 A 
ATOM     69  C   UNL     1       9.103   1.402  -5.692  1.00  0.00     0.000 A 
ATOM     70  C   UNL     1      10.720   2.682  -6.926  1.00  0.00     0.016 A 
ATOM     71  Br  UNL     1      11.156   5.464  -6.832  1.00  0.00    -0.051 Br
ATOM     72  C   UNL     1      10.143   1.454  -6.609  1.00  0.00     0.001 A 
ENDBRANCH  65  66
BRANCH  65  73
ATOM     73  C   UNL     1       7.027   5.200  -5.033  1.00  0.00     0.053 C 
BRANCH  73  74
ATOM     74  C   UNL     1       6.148   5.382  -3.816  1.00  0.00    -0.046 A 
ATOM     75  C   UNL     1       5.841   4.299  -2.978  1.00  0.00     0.011 A 
ATOM     76  C   UNL     1       5.673   6.657  -3.480  1.00  0.00     0.011 A 
ATOM     77  C   UNL     1       5.156   4.495  -1.777  1.00  0.00     0.086 A 
ATOM     78  C   UNL     1       4.996   6.868  -2.279  1.00  0.00     0.086 A 
ATOM     79  C   UNL     1       4.770   5.788  -1.421  1.00  0.00     0.269 A 
BRANCH  79  80
ATOM     80  N   UNL     1       4.165   6.027  -0.113  1.00  0.00     0.062 N 
ATOM     81  O   UNL     1       3.530   5.099   0.406  1.00  0.00    -0.258 OA
ATOM     82  O   UNL     1       4.335   7.146   0.395  1.00  0.00    -0.258 OA
ENDBRANCH  79  80
ENDBRANCH  73  74
ENDBRANCH  65  73
ENDBRANCH  62  65
ENDBRANCH  60  61
ENDBRANCH  59  60
ENDBRANCH   1  59
TORSDOF 17
