REMARK SMILES C[N@@H+]1CCN(C(=O)c2ccc3[nH]c4c(c3c2)CSCC4)C[C@H]1C(=O)NCCCCCCNC(=O)c1ccc(-c2c3nc(c(-c4ccccc4)c4ccc([nH]4)c(-c4ccccc4)c4nc(c(-c5ccccc5)c5ccc2[nH]5)C=C4)C=C3)cc1
REMARK SMILES IDX 28 1 27 2 26 3 25 4 23 5 24 6 22 8 1 9 2 10 3 11 4 13 21 14
REMARK SMILES IDX 5 15 6 16 7 17 8 18 9 19 16 20 10 21 15 22 11 23 14 24 12 25
REMARK SMILES IDX 13 26 17 27 20 29 18 30 19 31 29 32 30 33 31 34 32 35 33 36
REMARK SMILES IDX 34 38 35 39 36 40 82 41 37 42 81 43 38 44 39 45 40 46 75 47
REMARK SMILES IDX 41 48 80 49 74 50 76 51 42 52 79 53 73 54 72 55 43 57 65 58
REMARK SMILES IDX 50 59 64 60 51 61 54 62 63 63 77 64 52 65 53 66 62 68 78 69
REMARK SMILES IDX 55 70 44 71 45 72 49 73 46 74 48 75 47 76 66 77 67 78 71 79
REMARK SMILES IDX 68 80 70 81 69 82 56 83 57 84 61 85 58 86 60 87 59 88
REMARK H PARENT 25 7 2 12 12 28 32 37 76 56 54 67
REMARK Flexibility Score: inf
ROOT
ATOM      1  C   UNL     1       2.382  -2.565  -4.453  1.00  0.00     0.002 C 
ENDROOT
BRANCH   1   2
ATOM      2  C   UNL     1       1.837  -1.386  -3.642  1.00  0.00     0.021 C 
BRANCH   2   3
ATOM      3  C   UNL     1       0.654  -1.737  -2.747  1.00  0.00     0.116 C 
BRANCH   3   4
ATOM      4  N   UNL     1       1.043  -2.637  -1.677  1.00  0.00    -0.351 N 
ATOM      5  C   UNL     1       1.004  -2.446  -0.327  1.00  0.00     0.280 C 
ATOM      6  O   UNL     1       1.448  -3.341   0.398  1.00  0.00    -0.268 OA
ATOM      7  H   UNL     1       1.384  -3.514  -1.968  1.00  0.00     0.163 HD
BRANCH   5   8
ATOM      8  C   UNL     1       0.371  -1.187   0.283  1.00  0.00     0.293 C 
ATOM      9  C   UNL     1       2.429   0.129   0.188  1.00  0.00     0.333 C 
ATOM     10  N   UNL     1       1.016   0.073  -0.198  1.00  0.00    -0.324 N 
ATOM     11  C   UNL     1       0.292   1.234   0.367  1.00  0.00     0.284 C 
ATOM     12  H   UNL     1       0.971   0.094  -1.217  1.00  0.00     0.348 HD
ATOM     13  C   UNL     1      -1.217   1.211   0.059  1.00  0.00     0.181 C 
ATOM     14  C   UNL     1      -1.146  -1.248   0.009  1.00  0.00     0.195 C 
ATOM     15  N   UNL     1      -1.847  -0.045   0.467  1.00  0.00    -0.326 N 
BRANCH  15  16
ATOM     16  C   UNL     1      -3.162  -0.013   0.929  1.00  0.00     0.254 C 
ATOM     17  O   UNL     1      -3.806   1.018   1.063  1.00  0.00    -0.269 OA
BRANCH  16  18
ATOM     18  C   UNL     1      -3.837  -1.295   1.238  1.00  0.00     0.040 A 
ATOM     19  C   UNL     1      -3.305  -2.177   2.182  1.00  0.00     0.016 A 
ATOM     20  C   UNL     1      -5.031  -1.587   0.564  1.00  0.00     0.024 A 
ATOM     21  C   UNL     1      -3.906  -3.416   2.417  1.00  0.00     0.027 A 
ATOM     22  C   UNL     1      -5.669  -2.818   0.811  1.00  0.00     0.004 A 
ATOM     23  C   UNL     1      -5.083  -3.707   1.716  1.00  0.00     0.046 A 
ATOM     24  C   UNL     1      -6.877  -3.421   0.340  1.00  0.00    -0.009 A 
ATOM     25  N   UNL     1      -5.880  -4.828   1.760  1.00  0.00    -0.358 N 
ATOM     26  C   UNL     1      -6.982  -4.646   0.972  1.00  0.00     0.021 A 
ATOM     27  C   UNL     1      -7.878  -2.823  -0.596  1.00  0.00     0.107 C 
ATOM     28  H   UNL     1      -5.686  -5.640   2.281  1.00  0.00     0.166 HD
ATOM     29  C   UNL     1      -8.094  -5.631   0.857  1.00  0.00     0.065 C 
ATOM     30  S   UNL     1      -9.199  -3.986  -1.105  1.00  0.00    -0.157 SA
ATOM     31  C   UNL     1      -9.393  -4.923   0.458  1.00  0.00     0.076 C 
ENDBRANCH  16  18
ENDBRANCH  15  16
ENDBRANCH   5   8
ENDBRANCH   3   4
ENDBRANCH   2   3
ENDBRANCH   1   2
BRANCH   1  32
ATOM     32  C   UNL     1       1.364  -3.254  -5.367  1.00  0.00     0.002 C 
BRANCH  32  33
ATOM     33  C   UNL     1       0.633  -2.335  -6.351  1.00  0.00     0.021 C 
BRANCH  33  34
ATOM     34  C   UNL     1       1.547  -1.513  -7.262  1.00  0.00     0.116 C 
BRANCH  34  35
ATOM     35  N   UNL     1       2.460  -2.308  -8.057  1.00  0.00    -0.352 N 
ATOM     36  C   UNL     1       2.382  -2.954  -9.258  1.00  0.00     0.251 C 
ATOM     37  H   UNL     1       3.343  -2.406  -7.632  1.00  0.00     0.163 HD
ATOM     38  O   UNL     1       3.441  -3.411  -9.699  1.00  0.00    -0.269 OA
BRANCH  36  39
ATOM     39  C   UNL     1       1.128  -3.205 -10.022  1.00  0.00     0.039 A 
ATOM     40  C   UNL     1      -0.131  -2.699  -9.710  1.00  0.00     0.014 A 
ATOM     41  C   UNL     1       1.242  -4.083 -11.120  1.00  0.00     0.014 A 
ATOM     42  C   UNL     1      -1.257  -3.141 -10.399  1.00  0.00     0.010 A 
ATOM     43  C   UNL     1       0.122  -4.512 -11.829  1.00  0.00     0.010 A 
ATOM     44  C   UNL     1      -1.135  -4.072 -11.437  1.00  0.00    -0.014 A 
BRANCH  44  45
ATOM     45  C   UNL     1      -2.350  -4.432 -12.164  1.00  0.00     0.031 A 
ATOM     46  C   UNL     1      -3.034  -3.284 -12.819  1.00  0.00     0.074 A 
ATOM     47  C   UNL     1      -2.821  -5.684 -12.324  1.00  0.00     0.049 A 
ATOM     48  N   UNL     1      -4.210  -2.817 -12.558  1.00  0.00    -0.248 NA
ATOM     49  C   UNL     1      -2.277  -2.494 -13.801  1.00  0.00     0.031 C 
ATOM     50  C   UNL     1      -2.166  -6.953 -12.006  1.00  0.00     0.029 A 
ATOM     51  N   UNL     1      -3.988  -6.081 -12.913  1.00  0.00    -0.354 N 
ATOM     52  C   UNL     1      -4.415  -1.761 -13.442  1.00  0.00     0.074 A 
ATOM     53  C   UNL     1      -3.152  -1.533 -14.098  1.00  0.00     0.031 C 
ATOM     54  C   UNL     1      -2.832  -7.962 -12.617  1.00  0.00     0.029 A 
ATOM     55  C   UNL     1      -4.032  -7.429 -13.243  1.00  0.00     0.049 A 
ATOM     56  H   UNL     1      -4.735  -5.464 -13.088  1.00  0.00     0.167 HD
ATOM     57  C   UNL     1      -5.661  -1.271 -13.694  1.00  0.00     0.031 A 
ATOM     58  C   UNL     1      -4.954  -8.040 -14.029  1.00  0.00     0.031 A 
ATOM     59  C   UNL     1      -6.601  -1.661 -12.676  1.00  0.00     0.049 A 
ATOM     60  C   UNL     1      -6.163  -7.186 -14.060  1.00  0.00     0.074 A 
ATOM     61  C   UNL     1      -6.677  -1.468 -11.310  1.00  0.00     0.029 A 
ATOM     62  N   UNL     1      -7.470  -2.687 -12.960  1.00  0.00    -0.354 N 
ATOM     63  N   UNL     1      -6.955  -7.014 -13.043  1.00  0.00    -0.248 NA
ATOM     64  C   UNL     1      -6.267  -6.190 -15.114  1.00  0.00     0.031 C 
ATOM     65  C   UNL     1      -7.183  -2.696 -10.797  1.00  0.00     0.029 A 
ATOM     66  C   UNL     1      -7.464  -3.530 -11.880  1.00  0.00     0.049 A 
ATOM     67  H   UNL     1      -7.998  -2.795 -13.784  1.00  0.00     0.167 HD
ATOM     68  C   UNL     1      -7.311  -5.676 -13.105  1.00  0.00     0.074 A 
ATOM     69  C   UNL     1      -6.943  -5.247 -14.453  1.00  0.00     0.031 C 
ATOM     70  C   UNL     1      -7.602  -4.966 -11.975  1.00  0.00     0.031 A 
BRANCH  57  71
ATOM     71  C   UNL     1      -6.103  -0.748 -15.038  1.00  0.00    -0.014 A 
ATOM     72  C   UNL     1      -5.350  -0.898 -16.216  1.00  0.00     0.009 A 
ATOM     73  C   UNL     1      -7.439  -0.331 -15.196  1.00  0.00     0.009 A 
ATOM     74  C   UNL     1      -5.903  -0.689 -17.483  1.00  0.00     0.001 A 
ATOM     75  C   UNL     1      -8.009  -0.163 -16.464  1.00  0.00     0.001 A 
ATOM     76  C   UNL     1      -7.242  -0.352 -17.608  1.00  0.00     0.000 A 
ENDBRANCH  57  71
BRANCH  58  77
ATOM     77  C   UNL     1      -4.757  -9.126 -15.018  1.00  0.00    -0.014 A 
ATOM     78  C   UNL     1      -3.497  -9.337 -15.603  1.00  0.00     0.009 A 
ATOM     79  C   UNL     1      -5.867  -9.747 -15.620  1.00  0.00     0.009 A 
ATOM     80  C   UNL     1      -3.356 -10.085 -16.777  1.00  0.00     0.001 A 
ATOM     81  C   UNL     1      -5.727 -10.490 -16.800  1.00  0.00     0.001 A 
ATOM     82  C   UNL     1      -4.474 -10.643 -17.388  1.00  0.00     0.000 A 
ENDBRANCH  58  77
BRANCH  70  83
ATOM     83  C   UNL     1      -7.796  -5.701 -10.667  1.00  0.00    -0.014 A 
ATOM     84  C   UNL     1      -8.889  -5.333  -9.865  1.00  0.00     0.009 A 
ATOM     85  C   UNL     1      -6.846  -6.582 -10.123  1.00  0.00     0.009 A 
ATOM     86  C   UNL     1      -9.020  -5.808  -8.558  1.00  0.00     0.001 A 
ATOM     87  C   UNL     1      -6.994  -7.085  -8.825  1.00  0.00     0.001 A 
ATOM     88  C   UNL     1      -8.073  -6.686  -8.039  1.00  0.00     0.000 A 
ENDBRANCH  70  83
ENDBRANCH  44  45
ENDBRANCH  36  39
ENDBRANCH  34  35
ENDBRANCH  33  34
ENDBRANCH  32  33
ENDBRANCH   1  32
TORSDOF 15
