REMARK SMILES O=C(COCCNC(=O)[C@@H]1CCCCO1)NCCCCCCNC(=O)c1ccc(-c2c3nc(c(-c4ccccc4)c4ccc([nH]4)c(-c4ccccc4)c4nc(c(-c5ccccc5)c5ccc2[nH]5)C=C4)C=C3)cc1
REMARK SMILES IDX 18 1 17 2 16 3 1 4 2 5 3 7 4 8 5 9 6 10 7 11 8 12 9 14 10 15
REMARK SMILES IDX 11 16 15 17 12 18 14 19 13 20 19 21 20 22 21 23 22 24 23 25
REMARK SMILES IDX 24 26 25 28 26 29 27 30 73 31 28 32 72 33 29 34 30 35 31 36
REMARK SMILES IDX 66 37 32 38 71 39 65 40 67 41 33 42 70 43 64 44 63 45 34 47
REMARK SMILES IDX 56 48 41 49 55 50 42 51 45 52 54 53 68 54 43 55 44 56 53 58
REMARK SMILES IDX 69 59 46 60 35 61 36 62 40 63 37 64 39 65 38 66 57 67 58 68
REMARK SMILES IDX 62 69 59 70 61 71 60 72 47 73 48 74 52 75 49 76 51 77 50 78
REMARK H PARENT 16 6 7 13 23 27 67 46 45 57
REMARK Flexibility Score: inf
ROOT
ATOM      1  C   UNL     1       2.627   0.897   3.229  1.00  0.00     0.021 C 
ENDROOT
BRANCH   1   2
ATOM      2  C   UNL     1       2.111   1.445   1.899  1.00  0.00     0.116 C 
BRANCH   2   3
ATOM      3  N   UNL     1       2.803   0.858   0.774  1.00  0.00    -0.354 N 
ATOM      4  O   UNL     1       1.259  -0.795   0.378  1.00  0.00    -0.272 OA
ATOM      5  C   UNL     1       2.322  -0.247   0.108  1.00  0.00     0.245 C 
ATOM      6  H   UNL     1       3.649   1.262   0.474  1.00  0.00     0.163 HD
BRANCH   5   7
ATOM      7  C   UNL     1       3.266  -0.751  -0.992  1.00  0.00     0.260 C 
BRANCH   7   8
ATOM      8  O   UNL     1       3.765   0.202  -1.922  1.00  0.00    -0.370 OA
BRANCH   8   9
ATOM      9  C   UNL     1       2.781   1.028  -2.552  1.00  0.00     0.182 C 
BRANCH   9  10
ATOM     10  C   UNL     1       1.977   0.348  -3.671  1.00  0.00     0.144 C 
BRANCH  10  11
ATOM     11  N   UNL     1       1.049  -0.662  -3.195  1.00  0.00    -0.352 N 
ATOM     12  C   UNL     1      -0.303  -0.652  -3.028  1.00  0.00     0.249 C 
ATOM     13  H   UNL     1       1.477  -1.514  -2.946  1.00  0.00     0.163 HD
ATOM     14  O   UNL     1      -0.810  -1.712  -2.649  1.00  0.00    -0.272 OA
BRANCH  12  15
ATOM     15  C   UNL     1      -1.150   0.597  -3.391  1.00  0.00     0.207 C 
ATOM     16  C   UNL     1      -0.896   1.828  -2.516  1.00  0.00     0.042 C 
ATOM     17  O   UNL     1      -2.560   0.359  -3.476  1.00  0.00    -0.368 OA
ATOM     18  C   UNL     1      -1.565   1.714  -1.151  1.00  0.00     0.006 C 
ATOM     19  C   UNL     1      -3.190   0.139  -2.212  1.00  0.00     0.161 C 
ATOM     20  C   UNL     1      -3.035   1.352  -1.309  1.00  0.00     0.029 C 
ENDBRANCH  12  15
ENDBRANCH  10  11
ENDBRANCH   9  10
ENDBRANCH   8   9
ENDBRANCH   7   8
ENDBRANCH   5   7
ENDBRANCH   2   3
ENDBRANCH   1   2
BRANCH   1  21
ATOM     21  C   UNL     1       4.131   1.097   3.457  1.00  0.00     0.002 C 
BRANCH  21  22
ATOM     22  C   UNL     1       4.626   2.542   3.352  1.00  0.00     0.002 C 
BRANCH  22  23
ATOM     23  C   UNL     1       3.946   3.538   4.295  1.00  0.00     0.021 C 
BRANCH  23  24
ATOM     24  C   UNL     1       4.046   3.197   5.779  1.00  0.00     0.116 C 
BRANCH  24  25
ATOM     25  N   UNL     1       5.419   3.163   6.254  1.00  0.00    -0.352 N 
ATOM     26  C   UNL     1       5.979   3.743   7.365  1.00  0.00     0.251 C 
ATOM     27  H   UNL     1       6.042   2.645   5.694  1.00  0.00     0.163 HD
ATOM     28  O   UNL     1       7.196   3.724   7.515  1.00  0.00    -0.269 OA
BRANCH  26  29
ATOM     29  C   UNL     1       5.127   4.416   8.371  1.00  0.00     0.039 A 
ATOM     30  C   UNL     1       5.556   5.636   8.899  1.00  0.00     0.014 A 
ATOM     31  C   UNL     1       3.928   3.848   8.812  1.00  0.00     0.014 A 
ATOM     32  C   UNL     1       4.757   6.314   9.823  1.00  0.00     0.010 A 
ATOM     33  C   UNL     1       3.100   4.556   9.681  1.00  0.00     0.010 A 
ATOM     34  C   UNL     1       3.507   5.795  10.197  1.00  0.00    -0.014 A 
BRANCH  34  35
ATOM     35  C   UNL     1       2.616   6.552  11.112  1.00  0.00     0.031 A 
ATOM     36  C   UNL     1       2.281   6.020  12.477  1.00  0.00     0.074 A 
ATOM     37  C   UNL     1       2.070   7.710  10.692  1.00  0.00     0.049 A 
ATOM     38  N   UNL     1       1.541   6.559  13.414  1.00  0.00    -0.248 NA
ATOM     39  C   UNL     1       2.831   4.702  12.830  1.00  0.00     0.031 C 
ATOM     40  C   UNL     1       2.273   8.315   9.374  1.00  0.00     0.029 A 
ATOM     41  N   UNL     1       1.236   8.590  11.336  1.00  0.00    -0.354 N 
ATOM     42  C   UNL     1       1.521   5.641  14.456  1.00  0.00     0.074 A 
ATOM     43  C   UNL     1       2.287   4.492  14.020  1.00  0.00     0.031 C 
ATOM     44  C   UNL     1       1.621   9.487   9.323  1.00  0.00     0.029 A 
ATOM     45  C   UNL     1       0.928   9.701  10.589  1.00  0.00     0.049 A 
ATOM     46  H   UNL     1       0.892   8.440  12.246  1.00  0.00     0.167 HD
ATOM     47  C   UNL     1       0.935   5.748  15.673  1.00  0.00     0.031 A 
ATOM     48  C   UNL     1       0.181  10.778  10.893  1.00  0.00     0.031 A 
ATOM     49  C   UNL     1       0.182   6.893  16.114  1.00  0.00     0.049 A 
ATOM     50  C   UNL     1      -0.458  10.874  12.249  1.00  0.00     0.074 A 
ATOM     51  C   UNL     1      -0.384   7.128  17.355  1.00  0.00     0.029 A 
ATOM     52  N   UNL     1      -0.117   7.992  15.324  1.00  0.00    -0.354 N 
ATOM     53  N   UNL     1      -0.393  10.037  13.255  1.00  0.00    -0.248 NA
ATOM     54  C   UNL     1      -1.264  12.074  12.511  1.00  0.00     0.031 C 
ATOM     55  C   UNL     1      -1.071   8.346  17.299  1.00  0.00     0.029 A 
ATOM     56  C   UNL     1      -0.887   8.894  16.040  1.00  0.00     0.049 A 
ATOM     57  H   UNL     1       0.174   8.114  14.392  1.00  0.00     0.167 HD
ATOM     58  C   UNL     1      -1.128  10.619  14.278  1.00  0.00     0.074 A 
ATOM     59  C   UNL     1      -1.614  11.889  13.776  1.00  0.00     0.031 C 
ATOM     60  C   UNL     1      -1.377  10.146  15.524  1.00  0.00     0.031 A 
BRANCH  47  61
ATOM     61  C   UNL     1       1.075   4.580  16.610  1.00  0.00    -0.014 A 
ATOM     62  C   UNL     1       2.308   4.263  17.204  1.00  0.00     0.009 A 
ATOM     63  C   UNL     1      -0.048   3.798  16.921  1.00  0.00     0.009 A 
ATOM     64  C   UNL     1       2.421   3.161  18.054  1.00  0.00     0.001 A 
ATOM     65  C   UNL     1       0.062   2.714  17.795  1.00  0.00     0.001 A 
ATOM     66  C   UNL     1       1.298   2.390  18.351  1.00  0.00     0.000 A 
ENDBRANCH  47  61
BRANCH  48  67
ATOM     67  C   UNL     1       0.030  11.878   9.907  1.00  0.00    -0.014 A 
ATOM     68  C   UNL     1       0.680  13.105  10.114  1.00  0.00     0.009 A 
ATOM     69  C   UNL     1      -0.759  11.711   8.759  1.00  0.00     0.009 A 
ATOM     70  C   UNL     1       0.524  14.151   9.202  1.00  0.00     0.001 A 
ATOM     71  C   UNL     1      -0.891  12.750   7.835  1.00  0.00     0.001 A 
ATOM     72  C   UNL     1      -0.257  13.971   8.062  1.00  0.00     0.000 A 
ENDBRANCH  48  67
BRANCH  60  73
ATOM     73  C   UNL     1      -2.196  11.020  16.432  1.00  0.00    -0.014 A 
ATOM     74  C   UNL     1      -3.571  11.203  16.222  1.00  0.00     0.009 A 
ATOM     75  C   UNL     1      -1.582  11.662  17.519  1.00  0.00     0.009 A 
ATOM     76  C   UNL     1      -4.307  12.046  17.057  1.00  0.00     0.001 A 
ATOM     77  C   UNL     1      -2.326  12.481  18.369  1.00  0.00     0.001 A 
ATOM     78  C   UNL     1      -3.685  12.682  18.131  1.00  0.00     0.000 A 
ENDBRANCH  60  73
ENDBRANCH  34  35
ENDBRANCH  26  29
ENDBRANCH  24  25
ENDBRANCH  23  24
ENDBRANCH  22  23
ENDBRANCH  21  22
ENDBRANCH   1  21
TORSDOF 18
