REMARK SMILES COc1cccc([C@@H]2CC(c3cccc(C)c3)=NN2C(=O)CCC(=O)NCCCCCCNC(=O)c2ccc(-c3c4nc(c(-c5ccccc5)c5ccc([nH]5)c(-c5ccccc5)c5nc(c(-c6ccccc6)c6ccc3[nH]6)C=C5)C=C4)cc2)c1
REMARK SMILES IDX 28 1 27 2 26 3 24 4 25 5 23 7 22 8 20 9 21 10 19 11 8 12
REMARK SMILES IDX 9 13 10 14 18 15 7 16 3 17 4 18 84 19 5 20 6 21 2 22 1 23
REMARK SMILES IDX 11 24 12 25 17 26 13 27 15 28 14 29 16 30 29 31 30 32 31 33
REMARK SMILES IDX 32 34 33 35 34 36 35 38 36 39 37 40 83 41 38 42 82 43 39 44
REMARK SMILES IDX 40 45 41 46 76 47 42 48 81 49 75 50 77 51 43 52 80 53 74 54
REMARK SMILES IDX 73 55 44 57 66 58 51 59 65 60 52 61 55 62 64 63 78 64 53 65
REMARK SMILES IDX 54 66 63 68 79 69 56 70 45 71 46 72 50 73 47 74 49 75 48 76
REMARK SMILES IDX 67 77 68 78 72 79 69 80 71 81 70 82 57 83 58 84 62 85 59 86
REMARK SMILES IDX 61 87 60 88
REMARK H PARENT 26 6 33 37 77 56 55 67
REMARK Flexibility Score: inf
ROOT
ATOM      1  C   UNL     1       5.792  -3.578  -0.290  1.00  0.00     0.021 C 
ENDROOT
BRANCH   1   2
ATOM      2  C   UNL     1       4.361  -3.257   0.143  1.00  0.00     0.116 C 
BRANCH   2   3
ATOM      3  N   UNL     1       3.513  -2.555  -0.803  1.00  0.00    -0.356 N 
ATOM      4  C   UNL     1       2.511  -3.011  -1.599  1.00  0.00     0.220 C 
ATOM      5  O   UNL     1       1.736  -2.195  -2.102  1.00  0.00    -0.275 OA
ATOM      6  H   UNL     1       3.693  -1.590  -0.880  1.00  0.00     0.163 HD
BRANCH   4   7
ATOM      7  C   UNL     1       2.419  -4.479  -1.944  1.00  0.00     0.110 C 
BRANCH   7   8
ATOM      8  C   UNL     1       2.923  -4.744  -3.363  1.00  0.00     0.112 C 
BRANCH   8   9
ATOM      9  C   UNL     1       4.270  -4.082  -3.595  1.00  0.00     0.243 C 
ATOM     10  O   UNL     1       5.298  -4.687  -3.285  1.00  0.00    -0.273 OA
BRANCH   9  11
ATOM     11  N   UNL     1       4.246  -2.772  -4.051  1.00  0.00    -0.225 N 
ATOM     12  C   UNL     1       3.245  -2.152  -4.928  1.00  0.00     0.147 C 
ATOM     13  C   UNL     1       3.673  -0.688  -4.999  1.00  0.00     0.091 C 
ATOM     14  C   UNL     1       4.993  -0.781  -4.295  1.00  0.00     0.071 C 
ATOM     15  N   UNL     1       5.311  -1.944  -3.825  1.00  0.00    -0.174 NA
BRANCH  12  16
ATOM     16  C   UNL     1       3.247  -2.890  -6.258  1.00  0.00    -0.019 A 
ATOM     17  C   UNL     1       2.019  -4.203  -7.893  1.00  0.00     0.119 A 
ATOM     18  C   UNL     1       3.227  -4.646  -8.435  1.00  0.00     0.046 A 
ATOM     19  C   UNL     1       2.031  -3.329  -6.804  1.00  0.00     0.052 A 
ATOM     20  C   UNL     1       4.441  -4.185  -7.933  1.00  0.00     0.004 A 
ATOM     21  C   UNL     1       4.451  -3.297  -6.862  1.00  0.00     0.006 A 
BRANCH  17  22
ATOM     22  O   UNL     1       0.896  -4.727  -8.472  1.00  0.00    -0.497 OA
ATOM     23  C   UNL     1      -0.326  -4.062  -8.175  1.00  0.00     0.278 C 
ENDBRANCH  17  22
ENDBRANCH  12  16
BRANCH  14  24
ATOM     24  C   UNL     1       5.872   0.382  -4.148  1.00  0.00    -0.002 A 
ATOM     25  C   UNL     1       7.122   0.336  -4.764  1.00  0.00     0.010 A 
ATOM     26  C   UNL     1       5.525   1.434  -3.290  1.00  0.00     0.013 A 
ATOM     27  C   UNL     1       8.017   1.381  -4.568  1.00  0.00     0.001 A 
ATOM     28  C   UNL     1       6.442   2.468  -3.060  1.00  0.00    -0.050 A 
ATOM     29  C   UNL     1       7.673   2.445  -3.732  1.00  0.00     0.003 A 
ATOM     30  C   UNL     1       6.198   3.523  -2.019  1.00  0.00     0.044 C 
ENDBRANCH  14  24
ENDBRANCH   9  11
ENDBRANCH   8   9
ENDBRANCH   7   8
ENDBRANCH   4   7
ENDBRANCH   2   3
ENDBRANCH   1   2
BRANCH   1  31
ATOM     31  C   UNL     1       6.674  -2.481  -0.898  1.00  0.00     0.002 C 
BRANCH  31  32
ATOM     32  C   UNL     1       6.410  -1.030  -0.487  1.00  0.00     0.002 C 
BRANCH  32  33
ATOM     33  C   UNL     1       7.329  -0.516   0.615  1.00  0.00     0.021 C 
BRANCH  33  34
ATOM     34  C   UNL     1       8.746  -0.253   0.128  1.00  0.00     0.116 C 
BRANCH  34  35
ATOM     35  N   UNL     1       8.862   0.883  -0.784  1.00  0.00    -0.352 N 
ATOM     36  C   UNL     1      10.014   1.574  -1.095  1.00  0.00     0.251 C 
ATOM     37  H   UNL     1       8.033   1.185  -1.221  1.00  0.00     0.163 HD
ATOM     38  O   UNL     1      10.020   2.601  -1.762  1.00  0.00    -0.269 OA
BRANCH  36  39
ATOM     39  C   UNL     1      11.267   1.074  -0.516  1.00  0.00     0.039 A 
ATOM     40  C   UNL     1      11.952   1.901   0.373  1.00  0.00     0.014 A 
ATOM     41  C   UNL     1      11.617  -0.267  -0.692  1.00  0.00     0.014 A 
ATOM     42  C   UNL     1      12.921   1.339   1.192  1.00  0.00     0.010 A 
ATOM     43  C   UNL     1      12.512  -0.843   0.191  1.00  0.00     0.010 A 
ATOM     44  C   UNL     1      13.149  -0.046   1.153  1.00  0.00    -0.014 A 
BRANCH  44  45
ATOM     45  C   UNL     1      14.030  -0.674   2.156  1.00  0.00     0.031 A 
ATOM     46  C   UNL     1      15.323  -1.287   1.721  1.00  0.00     0.074 A 
ATOM     47  C   UNL     1      13.633  -0.698   3.443  1.00  0.00     0.049 A 
ATOM     48  N   UNL     1      16.261  -1.827   2.451  1.00  0.00    -0.248 NA
ATOM     49  C   UNL     1      15.589  -1.319   0.273  1.00  0.00     0.031 C 
ATOM     50  C   UNL     1      12.353  -0.184   3.945  1.00  0.00     0.029 A 
ATOM     51  N   UNL     1      14.268  -1.154   4.567  1.00  0.00    -0.354 N 
ATOM     52  C   UNL     1      17.224  -2.265   1.552  1.00  0.00     0.074 A 
ATOM     53  C   UNL     1      16.730  -1.988   0.223  1.00  0.00     0.031 C 
ATOM     54  C   UNL     1      12.326  -0.300   5.283  1.00  0.00     0.029 A 
ATOM     55  C   UNL     1      13.569  -0.919   5.727  1.00  0.00     0.049 A 
ATOM     56  H   UNL     1      15.142  -1.606   4.546  1.00  0.00     0.167 HD
ATOM     57  C   UNL     1      18.426  -2.823   1.818  1.00  0.00     0.031 A 
ATOM     58  C   UNL     1      13.911  -1.160   7.005  1.00  0.00     0.031 A 
ATOM     59  C   UNL     1      18.896  -3.090   3.149  1.00  0.00     0.049 A 
ATOM     60  C   UNL     1      15.263  -1.759   7.274  1.00  0.00     0.074 A 
ATOM     61  C   UNL     1      20.104  -3.628   3.550  1.00  0.00     0.029 A 
ATOM     62  N   UNL     1      18.165  -2.832   4.301  1.00  0.00    -0.354 N 
ATOM     63  N   UNL     1      16.198  -2.101   6.419  1.00  0.00    -0.248 NA
ATOM     64  C   UNL     1      15.616  -1.989   8.680  1.00  0.00     0.031 C 
ATOM     65  C   UNL     1      20.089  -3.729   4.946  1.00  0.00     0.029 A 
ATOM     66  C   UNL     1      18.891  -3.210   5.415  1.00  0.00     0.049 A 
ATOM     67  H   UNL     1      17.263  -2.438   4.321  1.00  0.00     0.167 HD
ATOM     68  C   UNL     1      17.257  -2.570   7.182  1.00  0.00     0.074 A 
ATOM     69  C   UNL     1      16.857  -2.441   8.570  1.00  0.00     0.031 C 
ATOM     70  C   UNL     1      18.452  -3.068   6.779  1.00  0.00     0.031 A 
BRANCH  57  71
ATOM     71  C   UNL     1      19.289  -3.175   0.641  1.00  0.00    -0.014 A 
ATOM     72  C   UNL     1      19.872  -2.175  -0.156  1.00  0.00     0.009 A 
ATOM     73  C   UNL     1      19.508  -4.520   0.308  1.00  0.00     0.009 A 
ATOM     74  C   UNL     1      20.619  -2.514  -1.286  1.00  0.00     0.001 A 
ATOM     75  C   UNL     1      20.280  -4.856  -0.806  1.00  0.00     0.001 A 
ATOM     76  C   UNL     1      20.824  -3.854  -1.609  1.00  0.00     0.000 A 
ENDBRANCH  57  71
BRANCH  58  77
ATOM     77  C   UNL     1      12.991  -0.796   8.116  1.00  0.00    -0.014 A 
ATOM     78  C   UNL     1      13.305   0.258   8.989  1.00  0.00     0.009 A 
ATOM     79  C   UNL     1      11.792  -1.499   8.311  1.00  0.00     0.009 A 
ATOM     80  C   UNL     1      12.454   0.580  10.050  1.00  0.00     0.001 A 
ATOM     81  C   UNL     1      10.929  -1.157   9.356  1.00  0.00     0.001 A 
ATOM     82  C   UNL     1      11.265  -0.125  10.230  1.00  0.00     0.000 A 
ENDBRANCH  58  77
BRANCH  70  83
ATOM     83  C   UNL     1      19.405  -3.486   7.859  1.00  0.00    -0.014 A 
ATOM     84  C   UNL     1      19.188  -4.657   8.601  1.00  0.00     0.009 A 
ATOM     85  C   UNL     1      20.551  -2.717   8.110  1.00  0.00     0.009 A 
ATOM     86  C   UNL     1      20.086  -5.031   9.601  1.00  0.00     0.001 A 
ATOM     87  C   UNL     1      21.461  -3.109   9.090  1.00  0.00     0.001 A 
ATOM     88  C   UNL     1      21.223  -4.260   9.841  1.00  0.00     0.000 A 
ENDBRANCH  70  83
ENDBRANCH  44  45
ENDBRANCH  36  39
ENDBRANCH  34  35
ENDBRANCH  33  34
ENDBRANCH  32  33
ENDBRANCH  31  32
ENDBRANCH   1  31
TORSDOF 19
