REMARK SMILES Cc1cc(N(C)[C@H]2CC[C@@H](C)CC2)cc(C(=O)NCCCCCCNC(=O)c2ccc(-c3c4nc(c(-c5ccccc5)c5ccc([nH]5)c(-c5ccccc5)c5nc(c(-c6ccccc6)c6ccc3[nH]6)C=C5)C=C4)cc2)c1N
REMARK SMILES IDX 21 1 20 2 19 3 18 4 16 5 17 6 15 8 1 9 2 10 3 11 76 12 4 13
REMARK SMILES IDX 14 14 77 15 5 18 6 19 7 20 8 21 13 22 9 23 12 24 10 25 11 26
REMARK SMILES IDX 22 27 23 28 24 29 25 30 26 31 27 33 28 34 29 35 75 36 30 37
REMARK SMILES IDX 74 38 31 39 32 40 33 41 68 42 34 43 73 44 67 45 69 46 35 47
REMARK SMILES IDX 72 48 66 49 65 50 36 52 58 53 43 54 57 55 44 56 47 57 56 58
REMARK SMILES IDX 70 59 45 60 46 61 55 63 71 64 48 65 37 66 38 67 42 68 39 69
REMARK SMILES IDX 41 70 40 71 59 72 60 73 64 74 61 75 63 76 62 77 49 78 50 79
REMARK SMILES IDX 54 80 51 81 53 82 52 83
REMARK H PARENT 18 7 77 16 77 17 25 32 69 51 47 62
REMARK Flexibility Score: inf
ROOT
ATOM      1  C   UNL     1      -4.239  -5.150  -1.055  1.00  0.00     0.002 C 
ENDROOT
BRANCH   1   2
ATOM      2  C   UNL     1      -3.892  -3.671  -0.841  1.00  0.00     0.021 C 
BRANCH   2   3
ATOM      3  C   UNL     1      -3.017  -3.466   0.395  1.00  0.00     0.116 C 
BRANCH   3   4
ATOM      4  N   UNL     1      -1.658  -3.826   0.051  1.00  0.00    -0.352 N 
ATOM      5  C   UNL     1      -0.569  -3.062  -0.284  1.00  0.00     0.253 C 
ATOM      6  O   UNL     1       0.420  -3.656  -0.717  1.00  0.00    -0.269 OA
ATOM      7  H   UNL     1      -1.483  -4.795   0.059  1.00  0.00     0.163 HD
BRANCH   5   8
ATOM      8  C   UNL     1      -0.524  -1.599   0.007  1.00  0.00     0.065 A 
ATOM      9  C   UNL     1       1.893   1.017   1.311  1.00  0.00     0.046 C 
ATOM     10  C   UNL     1       0.643   0.231   1.028  1.00  0.00    -0.025 A 
ATOM     11  C   UNL     1      -0.595   0.867   1.195  1.00  0.00     0.031 A 
ATOM     12  C   UNL     1       0.686  -1.046   0.467  1.00  0.00     0.047 A 
ATOM     13  C   UNL     1      -1.695   0.514   0.419  1.00  0.00     0.038 A 
ATOM     14  C   UNL     1      -1.642  -0.762  -0.154  1.00  0.00     0.042 A 
BRANCH  12  15
ATOM     15  N   UNL     1       1.905  -1.686   0.272  1.00  0.00    -0.398 N 
ATOM     16  H   UNL     1       2.735  -1.276   0.605  1.00  0.00     0.156 HD
ATOM     17  H   UNL     1       1.937  -2.550  -0.199  1.00  0.00     0.156 HD
ENDBRANCH  12  15
BRANCH  13  18
ATOM     18  N   UNL     1      -2.723   1.406   0.130  1.00  0.00    -0.372 N 
ATOM     19  C   UNL     1      -4.094   0.905   0.279  1.00  0.00     0.144 C 
BRANCH  18  20
ATOM     20  C   UNL     1      -2.562   2.895  -0.016  1.00  0.00     0.082 C 
ATOM     21  C   UNL     1      -3.244   3.439  -1.295  1.00  0.00     0.025 C 
ATOM     22  C   UNL     1      -1.137   3.471  -0.065  1.00  0.00     0.025 C 
ATOM     23  C   UNL     1      -2.471   3.220  -2.609  1.00  0.00     0.005 C 
ATOM     24  C   UNL     1      -0.340   2.910  -1.233  1.00  0.00     0.005 C 
ATOM     25  C   UNL     1      -0.936   3.365  -2.556  1.00  0.00    -0.014 C 
ATOM     26  C   UNL     1      -0.272   2.589  -3.700  1.00  0.00     0.007 C 
ENDBRANCH  18  20
ENDBRANCH  13  18
ENDBRANCH   5   8
ENDBRANCH   3   4
ENDBRANCH   2   3
ENDBRANCH   1   2
BRANCH   1  27
ATOM     27  C   UNL     1      -5.073  -5.759   0.079  1.00  0.00     0.002 C 
BRANCH  27  28
ATOM     28  C   UNL     1      -6.375  -5.008   0.367  1.00  0.00     0.021 C 
BRANCH  28  29
ATOM     29  C   UNL     1      -7.318  -4.956  -0.828  1.00  0.00     0.116 C 
BRANCH  29  30
ATOM     30  N   UNL     1      -7.732  -6.295  -1.223  1.00  0.00    -0.352 N 
ATOM     31  C   UNL     1      -8.993  -6.816  -1.277  1.00  0.00     0.251 C 
ATOM     32  H   UNL     1      -7.006  -6.906  -1.487  1.00  0.00     0.163 HD
ATOM     33  O   UNL     1      -9.165  -8.037  -1.339  1.00  0.00    -0.269 OA
BRANCH  31  34
ATOM     34  C   UNL     1     -10.151  -5.908  -1.260  1.00  0.00     0.039 A 
ATOM     35  C   UNL     1     -11.250  -6.214  -0.457  1.00  0.00     0.014 A 
ATOM     36  C   UNL     1     -10.145  -4.753  -2.049  1.00  0.00     0.014 A 
ATOM     37  C   UNL     1     -12.331  -5.335  -0.413  1.00  0.00     0.010 A 
ATOM     38  C   UNL     1     -11.188  -3.842  -1.945  1.00  0.00     0.010 A 
ATOM     39  C   UNL     1     -12.296  -4.131  -1.136  1.00  0.00    -0.014 A 
BRANCH  39  40
ATOM     40  C   UNL     1     -13.418  -3.165  -1.070  1.00  0.00     0.031 A 
ATOM     41  C   UNL     1     -14.220  -2.859  -2.304  1.00  0.00     0.074 A 
ATOM     42  C   UNL     1     -13.673  -2.523   0.086  1.00  0.00     0.049 A 
ATOM     43  N   UNL     1     -15.200  -2.006  -2.459  1.00  0.00    -0.248 NA
ATOM     44  C   UNL     1     -13.858  -3.587  -3.532  1.00  0.00     0.031 C 
ATOM     45  C   UNL     1     -12.939  -2.708   1.340  1.00  0.00     0.029 A 
ATOM     46  N   UNL     1     -14.620  -1.580   0.392  1.00  0.00    -0.354 N 
ATOM     47  C   UNL     1     -15.559  -2.084  -3.798  1.00  0.00     0.074 A 
ATOM     48  C   UNL     1     -14.660  -3.027  -4.425  1.00  0.00     0.031 C 
ATOM     49  C   UNL     1     -13.482  -1.926   2.287  1.00  0.00     0.029 A 
ATOM     50  C   UNL     1     -14.571  -1.154   1.697  1.00  0.00     0.049 A 
ATOM     51  H   UNL     1     -15.274  -1.240  -0.262  1.00  0.00     0.167 HD
ATOM     52  C   UNL     1     -16.562  -1.443  -4.444  1.00  0.00     0.031 A 
ATOM     53  C   UNL     1     -15.316  -0.238   2.344  1.00  0.00     0.031 A 
ATOM     54  C   UNL     1     -17.462  -0.515  -3.815  1.00  0.00     0.049 A 
ATOM     55  C   UNL     1     -16.410   0.473   1.596  1.00  0.00     0.074 A 
ATOM     56  C   UNL     1     -18.544   0.145  -4.369  1.00  0.00     0.029 A 
ATOM     57  N   UNL     1     -17.382  -0.114  -2.490  1.00  0.00    -0.354 N 
ATOM     58  N   UNL     1     -16.782   0.335   0.347  1.00  0.00    -0.248 NA
ATOM     59  C   UNL     1     -17.195   1.457   2.354  1.00  0.00     0.031 C 
ATOM     60  C   UNL     1     -19.085   0.989  -3.394  1.00  0.00     0.029 A 
ATOM     61  C   UNL     1     -18.380   0.805  -2.216  1.00  0.00     0.049 A 
ATOM     62  H   UNL     1     -16.715  -0.435  -1.841  1.00  0.00     0.167 HD
ATOM     63  C   UNL     1     -17.864   1.190   0.178  1.00  0.00     0.074 A 
ATOM     64  C   UNL     1     -18.098   1.828   1.457  1.00  0.00     0.031 C 
ATOM     65  C   UNL     1     -18.599   1.426  -0.936  1.00  0.00     0.031 A 
BRANCH  52  66
ATOM     66  C   UNL     1     -16.735  -1.720  -5.912  1.00  0.00    -0.014 A 
ATOM     67  C   UNL     1     -17.200  -2.964  -6.369  1.00  0.00     0.009 A 
ATOM     68  C   UNL     1     -16.476  -0.707  -6.848  1.00  0.00     0.009 A 
ATOM     69  C   UNL     1     -17.373  -3.197  -7.735  1.00  0.00     0.001 A 
ATOM     70  C   UNL     1     -16.678  -0.933  -8.211  1.00  0.00     0.001 A 
ATOM     71  C   UNL     1     -17.118  -2.179  -8.654  1.00  0.00     0.000 A 
ENDBRANCH  52  66
BRANCH  53  72
ATOM     72  C   UNL     1     -15.061   0.058   3.778  1.00  0.00    -0.014 A 
ATOM     73  C   UNL     1     -15.999  -0.301   4.758  1.00  0.00     0.009 A 
ATOM     74  C   UNL     1     -13.888   0.720   4.174  1.00  0.00     0.009 A 
ATOM     75  C   UNL     1     -15.785   0.030   6.099  1.00  0.00     0.001 A 
ATOM     76  C   UNL     1     -13.662   1.020   5.519  1.00  0.00     0.001 A 
ATOM     77  C   UNL     1     -14.616   0.686   6.478  1.00  0.00     0.000 A 
ENDBRANCH  53  72
BRANCH  65  78
ATOM     78  C   UNL     1     -19.752   2.382  -0.809  1.00  0.00    -0.014 A 
ATOM     79  C   UNL     1     -19.546   3.761  -0.653  1.00  0.00     0.009 A 
ATOM     80  C   UNL     1     -21.066   1.895  -0.890  1.00  0.00     0.009 A 
ATOM     81  C   UNL     1     -20.634   4.629  -0.544  1.00  0.00     0.001 A 
ATOM     82  C   UNL     1     -22.152   2.768  -0.814  1.00  0.00     0.001 A 
ATOM     83  C   UNL     1     -21.935   4.132  -0.631  1.00  0.00     0.000 A 
ENDBRANCH  65  78
ENDBRANCH  39  40
ENDBRANCH  31  34
ENDBRANCH  29  30
ENDBRANCH  28  29
ENDBRANCH  27  28
ENDBRANCH   1  27
TORSDOF 16
