REMARK SMILES COC(=O)c1ccc(NC(=O)[C@@H]2CC=CC[C@@H]2C(=O)NCCCCCCNC(=O)c2ccc(-c3c4nc(c(-c5ccccc5)c5ccc([nH]5)c(-c5ccccc5)c5nc(c(-c6ccccc6)c6ccc3[nH]6)C=C5)C=C4)cc2)c(C)c1
REMARK SMILES IDX 22 1 21 2 20 3 18 4 19 5 17 7 12 8 13 9 14 10 16 11 15 12
REMARK SMILES IDX 10 13 9 14 11 16 8 17 5 18 6 19 80 20 7 21 78 22 79 23 3 24
REMARK SMILES IDX 4 25 2 26 1 27 23 28 24 29 25 30 26 31 27 32 28 33 29 35
REMARK SMILES IDX 30 36 31 37 77 38 32 39 76 40 33 41 34 42 35 43 70 44 36 45
REMARK SMILES IDX 75 46 69 47 71 48 37 49 74 50 68 51 67 52 38 54 60 55 45 56
REMARK SMILES IDX 59 57 46 58 49 59 58 60 72 61 47 62 48 63 57 65 73 66 50 67
REMARK SMILES IDX 39 68 40 69 44 70 41 71 43 72 42 73 61 74 62 75 66 76 63 77
REMARK SMILES IDX 65 78 64 79 51 80 52 81 56 82 53 83 55 84 54 85
REMARK H PARENT 20 6 9 15 27 34 71 53 49 64
REMARK Flexibility Score: inf
ROOT
ATOM      1  C   UNL     1       2.388  -5.138   1.337  1.00  0.00     0.021 C 
ENDROOT
BRANCH   1   2
ATOM      2  C   UNL     1       3.011  -5.989   0.239  1.00  0.00     0.116 C 
BRANCH   2   3
ATOM      3  N   UNL     1       2.884  -5.449  -1.082  1.00  0.00    -0.356 N 
ATOM      4  C   UNL     1       3.860  -5.129  -1.963  1.00  0.00     0.224 C 
ATOM      5  O   UNL     1       3.513  -5.036  -3.148  1.00  0.00    -0.275 OA
ATOM      6  H   UNL     1       1.963  -5.288  -1.390  1.00  0.00     0.163 HD
BRANCH   4   7
ATOM      7  C   UNL     1       5.296  -4.739  -1.575  1.00  0.00     0.095 C 
ATOM      8  C   UNL     1       6.313  -5.716  -0.943  1.00  0.00     0.095 C 
ATOM      9  C   UNL     1       6.406  -5.734   0.594  1.00  0.00     0.041 C 
ATOM     10  C   UNL     1       6.111  -4.398   1.213  1.00  0.00    -0.030 C 
ATOM     11  C   UNL     1       5.353  -3.348  -0.938  1.00  0.00     0.041 C 
ATOM     12  C   UNL     1       5.661  -3.338   0.527  1.00  0.00    -0.030 C 
BRANCH   8  13
ATOM     13  C   UNL     1       6.203  -7.098  -1.547  1.00  0.00     0.228 C 
ATOM     14  N   UNL     1       6.975  -7.489  -2.608  1.00  0.00    -0.326 N 
ATOM     15  H   UNL     1       6.803  -8.421  -2.875  1.00  0.00     0.169 HD
ATOM     16  O   UNL     1       5.422  -7.928  -1.069  1.00  0.00    -0.274 OA
BRANCH  14  17
ATOM     17  C   UNL     1       7.963  -6.868  -3.412  1.00  0.00     0.044 A 
ATOM     18  C   UNL     1      10.034  -5.726  -4.987  1.00  0.00     0.060 A 
ATOM     19  C   UNL     1       9.217  -4.920  -4.212  1.00  0.00     0.018 A 
ATOM     20  C   UNL     1       9.804  -7.106  -5.002  1.00  0.00     0.021 A 
ATOM     21  C   UNL     1       8.197  -5.489  -3.451  1.00  0.00     0.027 A 
ATOM     22  C   UNL     1       8.765  -7.685  -4.240  1.00  0.00    -0.027 A 
ATOM     23  C   UNL     1       8.579  -9.178  -4.335  1.00  0.00     0.046 C 
BRANCH  18  24
ATOM     24  C   UNL     1      11.074  -5.066  -5.809  1.00  0.00     0.337 C 
ATOM     25  O   UNL     1      11.361  -3.872  -5.729  1.00  0.00    -0.246 OA
BRANCH  24  26
ATOM     26  O   UNL     1      11.629  -5.926  -6.684  1.00  0.00    -0.465 OA
ATOM     27  C   UNL     1      11.018  -5.855  -7.973  1.00  0.00     0.282 C 
ENDBRANCH  24  26
ENDBRANCH  18  24
ENDBRANCH  14  17
ENDBRANCH   8  13
ENDBRANCH   4   7
ENDBRANCH   2   3
ENDBRANCH   1   2
BRANCH   1  28
ATOM     28  C   UNL     1       0.936  -5.490   1.678  1.00  0.00     0.002 C 
BRANCH  28  29
ATOM     29  C   UNL     1       0.613  -6.983   1.867  1.00  0.00     0.002 C 
BRANCH  29  30
ATOM     30  C   UNL     1       1.598  -7.792   2.717  1.00  0.00     0.021 C 
BRANCH  30  31
ATOM     31  C   UNL     1       1.573  -7.424   4.188  1.00  0.00     0.116 C 
BRANCH  31  32
ATOM     32  N   UNL     1       0.489  -8.047   4.934  1.00  0.00    -0.352 N 
ATOM     33  C   UNL     1       0.040  -7.817   6.220  1.00  0.00     0.251 C 
ATOM     34  H   UNL     1      -0.002  -8.745   4.444  1.00  0.00     0.163 HD
ATOM     35  O   UNL     1      -0.850  -8.524   6.683  1.00  0.00    -0.269 OA
BRANCH  33  36
ATOM     36  C   UNL     1       0.525  -6.647   6.994  1.00  0.00     0.039 A 
ATOM     37  C   UNL     1      -0.385  -5.974   7.826  1.00  0.00     0.014 A 
ATOM     38  C   UNL     1       1.788  -6.110   6.782  1.00  0.00     0.014 A 
ATOM     39  C   UNL     1      -0.112  -4.673   8.246  1.00  0.00     0.010 A 
ATOM     40  C   UNL     1       2.006  -4.787   7.079  1.00  0.00     0.010 A 
ATOM     41  C   UNL     1       1.041  -4.055   7.780  1.00  0.00    -0.014 A 
BRANCH  41  42
ATOM     42  C   UNL     1       1.372  -2.648   7.928  1.00  0.00     0.031 A 
ATOM     43  C   UNL     1       2.498  -2.255   8.797  1.00  0.00     0.074 A 
ATOM     44  C   UNL     1       0.850  -1.767   7.048  1.00  0.00     0.049 A 
ATOM     45  N   UNL     1       2.797  -1.035   9.079  1.00  0.00    -0.248 NA
ATOM     46  C   UNL     1       3.364  -3.224   9.463  1.00  0.00     0.031 C 
ATOM     47  C   UNL     1       1.409  -0.483   6.635  1.00  0.00     0.029 A 
ATOM     48  N   UNL     1      -0.425  -1.784   6.488  1.00  0.00    -0.354 N 
ATOM     49  C   UNL     1       4.036  -1.040   9.672  1.00  0.00     0.074 A 
ATOM     50  C   UNL     1       4.299  -2.424   9.984  1.00  0.00     0.031 C 
ATOM     51  C   UNL     1       0.436   0.261   6.088  1.00  0.00     0.029 A 
ATOM     52  C   UNL     1      -0.815  -0.438   6.322  1.00  0.00     0.049 A 
ATOM     53  H   UNL     1      -0.952  -2.581   6.252  1.00  0.00     0.167 HD
ATOM     54  C   UNL     1       4.747   0.120   9.710  1.00  0.00     0.031 A 
ATOM     55  C   UNL     1      -1.861   0.076   7.041  1.00  0.00     0.031 A 
ATOM     56  C   UNL     1       3.970   1.250   9.200  1.00  0.00     0.049 A 
ATOM     57  C   UNL     1      -1.500   1.222   7.971  1.00  0.00     0.074 A 
ATOM     58  C   UNL     1       3.988   2.000   8.036  1.00  0.00     0.029 A 
ATOM     59  N   UNL     1       2.795   1.581   9.850  1.00  0.00    -0.354 N 
ATOM     60  N   UNL     1      -0.282   1.623   8.208  1.00  0.00    -0.248 NA
ATOM     61  C   UNL     1      -2.482   1.937   8.788  1.00  0.00     0.031 C 
ATOM     62  C   UNL     1       2.815   2.810   8.016  1.00  0.00     0.029 A 
ATOM     63  C   UNL     1       2.103   2.560   9.173  1.00  0.00     0.049 A 
ATOM     64  H   UNL     1       2.492   1.168  10.691  1.00  0.00     0.167 HD
ATOM     65  C   UNL     1      -0.290   2.549   9.217  1.00  0.00     0.074 A 
ATOM     66  C   UNL     1      -1.693   2.725   9.541  1.00  0.00     0.031 C 
ATOM     67  C   UNL     1       0.862   3.049   9.749  1.00  0.00     0.031 A 
BRANCH  54  68
ATOM     68  C   UNL     1       6.217   0.230  10.036  1.00  0.00    -0.014 A 
ATOM     69  C   UNL     1       6.905   1.411   9.697  1.00  0.00     0.009 A 
ATOM     70  C   UNL     1       6.993  -0.779  10.628  1.00  0.00     0.009 A 
ATOM     71  C   UNL     1       8.288   1.546   9.873  1.00  0.00     0.001 A 
ATOM     72  C   UNL     1       8.380  -0.660  10.793  1.00  0.00     0.001 A 
ATOM     73  C   UNL     1       9.030   0.502  10.406  1.00  0.00     0.000 A 
ENDBRANCH  54  68
BRANCH  55  74
ATOM     74  C   UNL     1      -2.900  -0.950   7.347  1.00  0.00    -0.014 A 
ATOM     75  C   UNL     1      -3.656  -1.476   6.281  1.00  0.00     0.009 A 
ATOM     76  C   UNL     1      -2.837  -1.670   8.550  1.00  0.00     0.009 A 
ATOM     77  C   UNL     1      -4.223  -2.751   6.373  1.00  0.00     0.001 A 
ATOM     78  C   UNL     1      -3.418  -2.940   8.640  1.00  0.00     0.001 A 
ATOM     79  C   UNL     1      -4.075  -3.494   7.542  1.00  0.00     0.000 A 
ENDBRANCH  55  74
BRANCH  67  80
ATOM     80  C   UNL     1       0.937   4.005  10.909  1.00  0.00    -0.014 A 
ATOM     81  C   UNL     1       0.063   5.085  11.069  1.00  0.00     0.009 A 
ATOM     82  C   UNL     1       2.003   3.904  11.831  1.00  0.00     0.009 A 
ATOM     83  C   UNL     1       0.220   5.989  12.132  1.00  0.00     0.001 A 
ATOM     84  C   UNL     1       2.176   4.812  12.876  1.00  0.00     0.001 A 
ATOM     85  C   UNL     1       1.275   5.852  13.032  1.00  0.00     0.000 A 
ENDBRANCH  67  80
ENDBRANCH  41  42
ENDBRANCH  33  36
ENDBRANCH  31  32
ENDBRANCH  30  31
ENDBRANCH  29  30
ENDBRANCH  28  29
ENDBRANCH   1  28
TORSDOF 17
