REMARK SMILES CCOc1cc(/C=C2/C(=O)N(c3cccc(C(=O)NCCCCCCNC(=O)c4ccc(-c5c6nc(c(-c7ccccc7)c7ccc([nH]7)c(-c7ccccc7)c7nc(c(-c8ccccc8)c8ccc5[nH]8)C=C7)C=C6)cc4)c3)N=C2C)cc(Cl)c1O
REMARK SMILES IDX 21 1 20 2 19 3 17 4 18 5 16 7 12 8 13 9 77 10 14 11 15 12
REMARK SMILES IDX 11 13 7 14 8 15 9 16 79 17 10 18 78 19 80 20 6 21 4 22 5 23
REMARK SMILES IDX 84 24 82 25 81 26 83 27 3 28 2 29 1 30 85 31 22 33 23 34
REMARK SMILES IDX 24 35 25 36 26 37 27 38 28 40 29 41 30 42 76 43 31 44 75 45
REMARK SMILES IDX 32 46 33 47 34 48 69 49 35 50 74 51 68 52 70 53 36 54 73 55
REMARK SMILES IDX 67 56 66 57 37 59 59 60 44 61 58 62 45 63 48 64 57 65 71 66
REMARK SMILES IDX 46 67 47 68 56 70 72 71 49 72 38 73 39 74 43 75 40 76 42 77
REMARK SMILES IDX 41 78 60 79 61 80 65 81 62 82 64 83 63 84 50 85 51 86 55 87
REMARK SMILES IDX 52 88 54 89 53 90
REMARK H PARENT 19 6 85 32 26 39 70 58 48 69
REMARK Flexibility Score: inf
ROOT
ATOM      1  C   UNL     1       1.359  11.367   0.681  1.00  0.00     0.021 C 
ENDROOT
BRANCH   1   2
ATOM      2  C   UNL     1       2.869  11.274   0.881  1.00  0.00     0.116 C 
BRANCH   2   3
ATOM      3  N   UNL     1       3.467  12.445   1.502  1.00  0.00    -0.352 N 
ATOM      4  C   UNL     1       4.433  12.560   2.481  1.00  0.00     0.251 C 
ATOM      5  O   UNL     1       4.764  13.684   2.855  1.00  0.00    -0.269 OA
ATOM      6  H   UNL     1       3.123  13.304   1.167  1.00  0.00     0.163 HD
BRANCH   4   7
ATOM      7  C   UNL     1       5.016  11.368   3.155  1.00  0.00     0.041 A 
ATOM      8  C   UNL     1       5.392   8.976   3.213  1.00  0.00     0.069 A 
ATOM      9  C   UNL     1       5.618   9.061   4.594  1.00  0.00     0.028 A 
ATOM     10  C   UNL     1       5.223  10.159   2.488  1.00  0.00     0.042 A 
ATOM     11  C   UNL     1       5.623  10.299   5.239  1.00  0.00     0.003 A 
ATOM     12  C   UNL     1       5.282  11.448   4.527  1.00  0.00     0.014 A 
BRANCH   8  13
ATOM     13  N   UNL     1       5.176   7.722   2.595  1.00  0.00    -0.196 N 
ATOM     14  C   UNL     1       4.488   5.415   0.013  1.00  0.00     0.024 C 
ATOM     15  C   UNL     1       4.575   6.080   1.170  1.00  0.00     0.065 C 
ATOM     16  C   UNL     1       5.134   7.455   1.218  1.00  0.00     0.280 C 
ATOM     17  C   UNL     1       4.265   5.758   2.569  1.00  0.00     0.071 C 
ATOM     18  O   UNL     1       5.433   8.128   0.253  1.00  0.00    -0.267 OA
ATOM     19  N   UNL     1       4.660   6.697   3.389  1.00  0.00    -0.169 NA
ATOM     20  C   UNL     1       3.506   4.555   3.013  1.00  0.00     0.069 C 
BRANCH  14  21
ATOM     21  C   UNL     1       4.077   4.027  -0.195  1.00  0.00    -0.019 A 
ATOM     22  C   UNL     1       2.395   2.335  -0.566  1.00  0.00     0.163 A 
ATOM     23  C   UNL     1       2.730   3.650  -0.239  1.00  0.00     0.058 A 
ATOM     24  C   UNL     1       3.387   1.415  -0.913  1.00  0.00     0.176 A 
ATOM     25  C   UNL     1       4.729   1.772  -0.819  1.00  0.00     0.087 A 
ATOM     26  C   UNL     1       5.074   3.076  -0.458  1.00  0.00     0.032 A 
ATOM     27  Cl  UNL     1       5.989   0.655  -1.190  1.00  0.00    -0.080 Cl
BRANCH  22  28
ATOM     28  O   UNL     1       1.077   1.970  -0.662  1.00  0.00    -0.490 OA
BRANCH  28  29
ATOM     29  C   UNL     1       0.577   1.437   0.577  1.00  0.00     0.226 C 
ATOM     30  C   UNL     1       0.525  -0.082   0.523  1.00  0.00     0.049 C 
ENDBRANCH  28  29
ENDBRANCH  22  28
BRANCH  24  31
ATOM     31  O   UNL     1       3.030   0.184  -1.393  1.00  0.00    -0.503 OA
ATOM     32  H   UNL     1       2.125  -0.050  -1.454  1.00  0.00     0.293 HD
ENDBRANCH  24  31
ENDBRANCH  14  21
ENDBRANCH   8  13
ENDBRANCH   4   7
ENDBRANCH   2   3
ENDBRANCH   1   2
BRANCH   1  33
ATOM     33  C   UNL     1       0.864  12.449  -0.278  1.00  0.00     0.002 C 
BRANCH  33  34
ATOM     34  C   UNL     1       1.473  12.440  -1.682  1.00  0.00     0.002 C 
BRANCH  34  35
ATOM     35  C   UNL     1       1.420  11.108  -2.433  1.00  0.00     0.021 C 
BRANCH  35  36
ATOM     36  C   UNL     1       0.035  10.484  -2.568  1.00  0.00     0.116 C 
BRANCH  36  37
ATOM     37  N   UNL     1      -0.886  11.315  -3.326  1.00  0.00    -0.352 N 
ATOM     38  C   UNL     1      -1.635  11.000  -4.434  1.00  0.00     0.251 C 
ATOM     39  H   UNL     1      -0.989  12.237  -2.997  1.00  0.00     0.163 HD
ATOM     40  O   UNL     1      -2.243  11.875  -5.042  1.00  0.00    -0.269 OA
BRANCH  38  41
ATOM     41  C   UNL     1      -1.690   9.601  -4.911  1.00  0.00     0.039 A 
ATOM     42  C   UNL     1      -1.515   9.344  -6.274  1.00  0.00     0.014 A 
ATOM     43  C   UNL     1      -1.907   8.549  -4.019  1.00  0.00     0.014 A 
ATOM     44  C   UNL     1      -1.485   8.024  -6.730  1.00  0.00     0.010 A 
ATOM     45  C   UNL     1      -1.803   7.234  -4.463  1.00  0.00     0.010 A 
ATOM     46  C   UNL     1      -1.589   6.957  -5.823  1.00  0.00    -0.014 A 
BRANCH  46  47
ATOM     47  C   UNL     1      -1.466   5.545  -6.267  1.00  0.00     0.031 A 
ATOM     48  C   UNL     1      -2.625   4.600  -6.107  1.00  0.00     0.074 A 
ATOM     49  C   UNL     1      -0.288   5.093  -6.739  1.00  0.00     0.049 A 
ATOM     50  N   UNL     1      -2.680   3.313  -6.341  1.00  0.00    -0.248 NA
ATOM     51  C   UNL     1      -3.880   5.172  -5.593  1.00  0.00     0.031 C 
ATOM     52  C   UNL     1       0.921   5.899  -6.918  1.00  0.00     0.029 A 
ATOM     53  N   UNL     1       0.089   3.836  -7.144  1.00  0.00    -0.354 N 
ATOM     54  C   UNL     1      -3.965   2.921  -5.987  1.00  0.00     0.074 A 
ATOM     55  C   UNL     1      -4.640   4.093  -5.476  1.00  0.00     0.031 C 
ATOM     56  C   UNL     1       1.897   5.124  -7.416  1.00  0.00     0.029 A 
ATOM     57  C   UNL     1       1.402   3.757  -7.544  1.00  0.00     0.049 A 
ATOM     58  H   UNL     1      -0.522   3.064  -7.147  1.00  0.00     0.167 HD
ATOM     59  C   UNL     1      -4.537   1.698  -6.093  1.00  0.00     0.031 A 
ATOM     60  C   UNL     1       2.131   2.701  -7.953  1.00  0.00     0.031 A 
ATOM     61  C   UNL     1      -3.865   0.533  -6.605  1.00  0.00     0.049 A 
ATOM     62  C   UNL     1       1.484   1.345  -8.025  1.00  0.00     0.074 A 
ATOM     63  C   UNL     1      -4.375  -0.739  -6.799  1.00  0.00     0.029 A 
ATOM     64  N   UNL     1      -2.537   0.497  -7.002  1.00  0.00    -0.354 N 
ATOM     65  N   UNL     1       0.250   1.003  -7.743  1.00  0.00    -0.248 NA
ATOM     66  C   UNL     1       2.329   0.231  -8.478  1.00  0.00     0.031 C 
ATOM     67  C   UNL     1      -3.338  -1.560  -7.252  1.00  0.00     0.029 A 
ATOM     68  C   UNL     1      -2.202  -0.783  -7.408  1.00  0.00     0.049 A 
ATOM     69  H   UNL     1      -1.924   1.268  -6.995  1.00  0.00     0.167 HD
ATOM     70  C   UNL     1       0.162  -0.356  -8.019  1.00  0.00     0.074 A 
ATOM     71  C   UNL     1       1.463  -0.772  -8.499  1.00  0.00     0.031 C 
ATOM     72  C   UNL     1      -0.904  -1.183  -7.889  1.00  0.00     0.031 A 
BRANCH  59  73
ATOM     73  C   UNL     1      -5.960   1.553  -5.627  1.00  0.00    -0.014 A 
ATOM     74  C   UNL     1      -7.021   2.158  -6.321  1.00  0.00     0.009 A 
ATOM     75  C   UNL     1      -6.249   0.768  -4.500  1.00  0.00     0.009 A 
ATOM     76  C   UNL     1      -8.336   2.011  -5.872  1.00  0.00     0.001 A 
ATOM     77  C   UNL     1      -7.567   0.596  -4.073  1.00  0.00     0.001 A 
ATOM     78  C   UNL     1      -8.608   1.226  -4.753  1.00  0.00     0.000 A 
ENDBRANCH  59  73
BRANCH  60  79
ATOM     79  C   UNL     1       3.558   2.881  -8.330  1.00  0.00    -0.014 A 
ATOM     80  C   UNL     1       3.967   2.740  -9.665  1.00  0.00     0.009 A 
ATOM     81  C   UNL     1       4.522   3.185  -7.355  1.00  0.00     0.009 A 
ATOM     82  C   UNL     1       5.314   2.872 -10.012  1.00  0.00     0.001 A 
ATOM     83  C   UNL     1       5.863   3.348  -7.710  1.00  0.00     0.001 A 
ATOM     84  C   UNL     1       6.259   3.181  -9.035  1.00  0.00     0.000 A 
ENDBRANCH  60  79
BRANCH  72  85
ATOM     85  C   UNL     1      -0.729  -2.615  -8.313  1.00  0.00    -0.014 A 
ATOM     86  C   UNL     1       0.041  -3.514  -7.560  1.00  0.00     0.009 A 
ATOM     87  C   UNL     1      -1.398  -3.083  -9.456  1.00  0.00     0.009 A 
ATOM     88  C   UNL     1       0.156  -4.848  -7.957  1.00  0.00     0.001 A 
ATOM     89  C   UNL     1      -1.307  -4.423  -9.832  1.00  0.00     0.001 A 
ATOM     90  C   UNL     1      -0.524  -5.303  -9.087  1.00  0.00     0.000 A 
ENDBRANCH  72  85
ENDBRANCH  46  47
ENDBRANCH  38  41
ENDBRANCH  36  37
ENDBRANCH  35  36
ENDBRANCH  34  35
ENDBRANCH  33  34
ENDBRANCH   1  33
TORSDOF 18
