REMARK SMILES O=C(NCCCCCCNC(=O)c1cccc(Nc2ccc([N+](=O)[O-])cc2)c1)c1ccc(-c2c3nc(c(-c4ccccc4)c4ccc([nH]4)c(-c4ccccc4)c4nc(c(-c5ccccc5)c5ccc2[nH]5)C=C4)C=C3)cc1
REMARK SMILES IDX 7 1 6 2 5 3 4 4 3 5 1 6 2 7 29 9 30 10 76 11 31 12 75 13
REMARK SMILES IDX 32 14 33 15 34 16 69 17 35 18 74 19 68 20 70 21 36 22 73 23
REMARK SMILES IDX 67 24 66 25 37 27 59 28 44 29 58 30 45 31 48 32 57 33 71 34
REMARK SMILES IDX 46 35 47 36 56 38 72 39 49 40 38 41 39 42 43 43 40 44 42 45
REMARK SMILES IDX 41 46 60 47 61 48 65 49 62 50 64 51 63 52 50 53 51 54 55 55
REMARK SMILES IDX 52 56 54 57 53 58 8 59 9 60 10 61 11 62 12 64 13 65 14 66
REMARK SMILES IDX 28 67 15 68 17 69 16 70 18 71 19 73 20 74 27 75 21 76 26 77
REMARK SMILES IDX 22 78 23 79 24 80 25 81
REMARK H PARENT 3 8 70 26 48 37 10 63 18 72
REMARK Flexibility Score: inf
ROOT
ATOM      1  C   UNL     1       4.829  -2.216  -3.861  1.00  0.00     0.002 C 
ENDROOT
BRANCH   1   2
ATOM      2  C   UNL     1       4.253  -2.957  -2.651  1.00  0.00     0.002 C 
BRANCH   2   3
ATOM      3  C   UNL     1       4.706  -2.445  -1.285  1.00  0.00     0.021 C 
BRANCH   3   4
ATOM      4  C   UNL     1       4.486  -0.957  -1.043  1.00  0.00     0.116 C 
BRANCH   4   5
ATOM      5  N   UNL     1       3.082  -0.585  -1.020  1.00  0.00    -0.352 N 
ATOM      6  O   UNL     1       1.167   0.243  -0.152  1.00  0.00    -0.269 OA
ATOM      7  C   UNL     1       2.387   0.128  -0.071  1.00  0.00     0.251 C 
ATOM      8  H   UNL     1       2.552  -0.886  -1.793  1.00  0.00     0.163 HD
BRANCH   7   9
ATOM      9  C   UNL     1       3.109   0.729   1.071  1.00  0.00     0.039 A 
ATOM     10  C   UNL     1       4.305   1.422   0.877  1.00  0.00     0.014 A 
ATOM     11  C   UNL     1       2.586   0.584   2.360  1.00  0.00     0.014 A 
ATOM     12  C   UNL     1       5.056   1.826   1.976  1.00  0.00     0.010 A 
ATOM     13  C   UNL     1       3.299   1.072   3.459  1.00  0.00     0.010 A 
ATOM     14  C   UNL     1       4.560   1.659   3.280  1.00  0.00    -0.014 A 
BRANCH  14  15
ATOM     15  C   UNL     1       5.368   2.144   4.428  1.00  0.00     0.031 A 
ATOM     16  C   UNL     1       5.926   1.191   5.450  1.00  0.00     0.074 A 
ATOM     17  C   UNL     1       5.637   3.461   4.520  1.00  0.00     0.049 A 
ATOM     18  N   UNL     1       6.708   1.446   6.470  1.00  0.00    -0.248 NA
ATOM     19  C   UNL     1       5.557  -0.227   5.318  1.00  0.00     0.031 C 
ATOM     20  C   UNL     1       5.149   4.488   3.596  1.00  0.00     0.029 A 
ATOM     21  N   UNL     1       6.412   4.158   5.412  1.00  0.00    -0.354 N 
ATOM     22  C   UNL     1       6.902   0.230   7.115  1.00  0.00     0.074 A 
ATOM     23  C   UNL     1       6.141  -0.759   6.383  1.00  0.00     0.031 C 
ATOM     24  C   UNL     1       5.689   5.670   3.928  1.00  0.00     0.029 A 
ATOM     25  C   UNL     1       6.509   5.497   5.121  1.00  0.00     0.049 A 
ATOM     26  H   UNL     1       6.855   3.739   6.185  1.00  0.00     0.167 HD
ATOM     27  C   UNL     1       7.648  -0.038   8.214  1.00  0.00     0.031 A 
ATOM     28  C   UNL     1       7.180   6.481   5.745  1.00  0.00     0.031 A 
ATOM     29  C   UNL     1       8.414   0.944   8.938  1.00  0.00     0.049 A 
ATOM     30  C   UNL     1       7.984   6.158   6.969  1.00  0.00     0.074 A 
ATOM     31  C   UNL     1       9.236   0.758  10.037  1.00  0.00     0.029 A 
ATOM     32  N   UNL     1       8.447   2.297   8.639  1.00  0.00    -0.354 N 
ATOM     33  N   UNL     1       8.190   4.995   7.537  1.00  0.00    -0.248 NA
ATOM     34  C   UNL     1       8.649   7.285   7.635  1.00  0.00     0.031 C 
ATOM     35  C   UNL     1       9.728   2.007  10.432  1.00  0.00     0.029 A 
ATOM     36  C   UNL     1       9.255   2.962   9.548  1.00  0.00     0.049 A 
ATOM     37  H   UNL     1       7.968   2.723   7.892  1.00  0.00     0.167 HD
ATOM     38  C   UNL     1       9.023   5.248   8.618  1.00  0.00     0.074 A 
ATOM     39  C   UNL     1       9.300   6.670   8.612  1.00  0.00     0.031 C 
ATOM     40  C   UNL     1       9.515   4.378   9.534  1.00  0.00     0.031 A 
BRANCH  27  41
ATOM     41  C   UNL     1       7.648  -1.453   8.726  1.00  0.00    -0.014 A 
ATOM     42  C   UNL     1       8.326  -2.478   8.048  1.00  0.00     0.009 A 
ATOM     43  C   UNL     1       6.994  -1.754   9.931  1.00  0.00     0.009 A 
ATOM     44  C   UNL     1       8.319  -3.782   8.549  1.00  0.00     0.001 A 
ATOM     45  C   UNL     1       7.010  -3.053  10.443  1.00  0.00     0.001 A 
ATOM     46  C   UNL     1       7.665  -4.067   9.748  1.00  0.00     0.000 A 
ENDBRANCH  27  41
BRANCH  28  47
ATOM     47  C   UNL     1       7.123   7.866   5.213  1.00  0.00    -0.014 A 
ATOM     48  C   UNL     1       8.251   8.444   4.610  1.00  0.00     0.009 A 
ATOM     49  C   UNL     1       5.937   8.612   5.293  1.00  0.00     0.009 A 
ATOM     50  C   UNL     1       8.196   9.748   4.114  1.00  0.00     0.001 A 
ATOM     51  C   UNL     1       5.877   9.905   4.771  1.00  0.00     0.001 A 
ATOM     52  C   UNL     1       7.008  10.474   4.189  1.00  0.00     0.000 A 
ENDBRANCH  28  47
BRANCH  40  53
ATOM     53  C   UNL     1      10.425   4.944  10.586  1.00  0.00    -0.014 A 
ATOM     54  C   UNL     1       9.927   5.738  11.630  1.00  0.00     0.009 A 
ATOM     55  C   UNL     1      11.800   4.666  10.536  1.00  0.00     0.009 A 
ATOM     56  C   UNL     1      10.795   6.276  12.583  1.00  0.00     0.001 A 
ATOM     57  C   UNL     1      12.661   5.182  11.506  1.00  0.00     0.001 A 
ATOM     58  C   UNL     1      12.160   5.995  12.521  1.00  0.00     0.000 A 
ENDBRANCH  40  53
ENDBRANCH  14  15
ENDBRANCH   7   9
ENDBRANCH   4   5
ENDBRANCH   3   4
ENDBRANCH   2   3
ENDBRANCH   1   2
BRANCH   1  59
ATOM     59  C   UNL     1       6.356  -2.088  -3.904  1.00  0.00     0.021 C 
BRANCH  59  60
ATOM     60  C   UNL     1       7.127  -3.402  -3.791  1.00  0.00     0.116 C 
BRANCH  60  61
ATOM     61  N   UNL     1       6.803  -4.316  -4.870  1.00  0.00    -0.352 N 
ATOM     62  C   UNL     1       7.636  -4.916  -5.777  1.00  0.00     0.251 C 
ATOM     63  H   UNL     1       5.849  -4.537  -4.963  1.00  0.00     0.163 HD
ATOM     64  O   UNL     1       7.171  -5.516  -6.741  1.00  0.00    -0.269 OA
BRANCH  62  65
ATOM     65  C   UNL     1       9.100  -4.839  -5.602  1.00  0.00     0.041 A 
ATOM     66  C   UNL     1       9.882  -4.441  -6.686  1.00  0.00     0.014 A 
ATOM     67  C   UNL     1       9.698  -5.216  -4.392  1.00  0.00     0.039 A 
ATOM     68  C   UNL     1      11.264  -4.378  -6.543  1.00  0.00     0.003 A 
ATOM     69  C   UNL     1      11.088  -5.165  -4.237  1.00  0.00     0.039 A 
ATOM     70  C   UNL     1      11.857  -4.728  -5.325  1.00  0.00     0.026 A 
BRANCH  69  71
ATOM     71  N   UNL     1      11.649  -5.527  -2.997  1.00  0.00    -0.356 N 
ATOM     72  H   UNL     1      11.019  -5.940  -2.363  1.00  0.00     0.167 HD
BRANCH  71  73
ATOM     73  C   UNL     1      12.963  -5.393  -2.522  1.00  0.00     0.039 A 
ATOM     74  C   UNL     1      13.586  -6.503  -1.932  1.00  0.00     0.033 A 
ATOM     75  C   UNL     1      13.710  -4.223  -2.710  1.00  0.00     0.033 A 
ATOM     76  C   UNL     1      14.934  -6.460  -1.566  1.00  0.00     0.088 A 
ATOM     77  C   UNL     1      15.058  -4.161  -2.341  1.00  0.00     0.088 A 
ATOM     78  C   UNL     1      15.669  -5.290  -1.784  1.00  0.00     0.269 A 
BRANCH  78  79
ATOM     79  N   UNL     1      17.099  -5.255  -1.451  1.00  0.00     0.062 N 
ATOM     80  O   UNL     1      17.605  -6.283  -0.980  1.00  0.00    -0.258 OA
ATOM     81  O   UNL     1      17.715  -4.202  -1.667  1.00  0.00    -0.258 OA
ENDBRANCH  78  79
ENDBRANCH  71  73
ENDBRANCH  69  71
ENDBRANCH  62  65
ENDBRANCH  60  61
ENDBRANCH  59  60
ENDBRANCH   1  59
TORSDOF 16
