REMARK SMILES Cc1ccc(NC(=O)C[C@@H](C(=O)NCCCCCCNC(=O)c2ccc(-c3c4nc(c(-c5ccccc5)c5ccc([nH]5)c(-c5ccccc5)c5nc(c(-c6ccccc6)c6ccc3[nH]6)C=C5)C=C4)cc2)[C@@H](C)c2ccccc2)cc1Br
REMARK SMILES IDX 16 1 15 2 14 3 13 4 11 5 12 6 10 8 9 9 7 10 6 11 8 13 5 14
REMARK SMILES IDX 1 15 2 16 3 17 80 18 4 19 79 20 81 21 71 22 72 23 73 24
REMARK SMILES IDX 74 25 78 26 75 27 77 28 76 29 17 30 18 31 19 32 20 33 21 34
REMARK SMILES IDX 22 36 23 37 24 38 70 39 25 40 69 41 26 42 27 43 28 44 63 45
REMARK SMILES IDX 29 46 68 47 62 48 64 49 30 50 67 51 61 52 60 53 31 55 53 56
REMARK SMILES IDX 38 57 52 58 39 59 42 60 51 61 65 62 40 63 41 64 50 66 66 67
REMARK SMILES IDX 43 68 32 69 33 70 37 71 34 72 36 73 35 74 54 75 55 76 59 77
REMARK SMILES IDX 56 78 58 79 57 80 44 81 45 82 49 83 46 84 48 85 47 86
REMARK H PARENT 13 7 6 12 20 35 64 54 42 65
REMARK Flexibility Score: inf
ROOT
ATOM      1  C   UNL     1       5.148   1.448  -0.888  1.00  0.00     0.002 C 
ENDROOT
BRANCH   1   2
ATOM      2  C   UNL     1       4.484   2.829  -0.765  1.00  0.00     0.021 C 
BRANCH   2   3
ATOM      3  C   UNL     1       3.434   3.173  -1.829  1.00  0.00     0.116 C 
BRANCH   3   4
ATOM      4  N   UNL     1       2.432   2.135  -1.922  1.00  0.00    -0.356 N 
ATOM      5  C   UNL     1       1.110   2.069  -1.646  1.00  0.00     0.224 C 
ATOM      6  O   UNL     1       0.656   0.926  -1.676  1.00  0.00    -0.275 OA
ATOM      7  H   UNL     1       2.794   1.285  -2.262  1.00  0.00     0.163 HD
BRANCH   5   8
ATOM      8  C   UNL     1       0.249   3.302  -1.354  1.00  0.00     0.095 C 
BRANCH   8   9
ATOM      9  C   UNL     1       0.431   3.933   0.054  1.00  0.00     0.114 C 
BRANCH   9  10
ATOM     10  C   UNL     1       1.654   3.744   0.915  1.00  0.00     0.225 C 
ATOM     11  N   UNL     1       1.966   2.581   1.551  1.00  0.00    -0.326 N 
ATOM     12  H   UNL     1       2.688   2.661   2.215  1.00  0.00     0.169 HD
ATOM     13  O   UNL     1       2.431   4.695   1.070  1.00  0.00    -0.275 OA
BRANCH  11  14
ATOM     14  C   UNL     1       1.437   1.292   1.424  1.00  0.00     0.042 A 
ATOM     15  C   UNL     1       0.201  -2.651   0.217  1.00  0.00     0.045 C 
ATOM     16  C   UNL     1       0.597  -1.307   0.757  1.00  0.00    -0.037 A 
ATOM     17  C   UNL     1       1.956  -1.024   0.945  1.00  0.00     0.007 A 
ATOM     18  C   UNL     1      -0.338  -0.295   1.027  1.00  0.00     0.022 A 
ATOM     19  C   UNL     1       2.367   0.255   1.314  1.00  0.00     0.026 A 
ATOM     20  C   UNL     1       0.080   1.004   1.346  1.00  0.00     0.042 A 
ATOM     21  Br  UNL     1      -2.210  -0.615   0.941  1.00  0.00    -0.050 Br
ENDBRANCH  11  14
ENDBRANCH   9  10
ENDBRANCH   8   9
BRANCH   8  22
ATOM     22  C   UNL     1      -1.312   3.062  -1.554  1.00  0.00     0.029 C 
ATOM     23  C   UNL     1      -2.094   4.390  -1.377  1.00  0.00     0.013 C 
BRANCH  22  24
ATOM     24  C   UNL     1      -1.795   2.340  -2.817  1.00  0.00    -0.044 A 
ATOM     25  C   UNL     1      -2.276   3.004  -3.955  1.00  0.00     0.004 A 
ATOM     26  C   UNL     1      -1.881   0.936  -2.812  1.00  0.00     0.004 A 
ATOM     27  C   UNL     1      -2.812   2.289  -5.034  1.00  0.00     0.000 A 
ATOM     28  C   UNL     1      -2.369   0.218  -3.903  1.00  0.00     0.000 A 
ATOM     29  C   UNL     1      -2.844   0.897  -5.016  1.00  0.00     0.000 A 
ENDBRANCH  22  24
ENDBRANCH   8  22
ENDBRANCH   5   8
ENDBRANCH   3   4
ENDBRANCH   2   3
ENDBRANCH   1   2
BRANCH   1  30
ATOM     30  C   UNL     1       6.193   1.329  -1.994  1.00  0.00     0.002 C 
BRANCH  30  31
ATOM     31  C   UNL     1       7.278   2.402  -1.952  1.00  0.00     0.021 C 
BRANCH  31  32
ATOM     32  C   UNL     1       7.913   2.610  -0.582  1.00  0.00     0.116 C 
BRANCH  32  33
ATOM     33  N   UNL     1       8.698   1.463  -0.157  1.00  0.00    -0.352 N 
ATOM     34  C   UNL     1      10.045   1.409   0.105  1.00  0.00     0.251 C 
ATOM     35  H   UNL     1       8.203   0.620  -0.042  1.00  0.00     0.163 HD
ATOM     36  O   UNL     1      10.617   0.337   0.272  1.00  0.00    -0.269 OA
BRANCH  34  37
ATOM     37  C   UNL     1      10.802   2.674   0.154  1.00  0.00     0.039 A 
ATOM     38  C   UNL     1      11.930   2.823  -0.652  1.00  0.00     0.014 A 
ATOM     39  C   UNL     1      10.343   3.731   0.946  1.00  0.00     0.014 A 
ATOM     40  C   UNL     1      12.571   4.060  -0.707  1.00  0.00     0.010 A 
ATOM     41  C   UNL     1      10.931   4.984   0.823  1.00  0.00     0.010 A 
ATOM     42  C   UNL     1      12.057   5.159   0.004  1.00  0.00    -0.014 A 
BRANCH  42  43
ATOM     43  C   UNL     1      12.695   6.496  -0.087  1.00  0.00     0.031 A 
ATOM     44  C   UNL     1      13.303   7.121   1.138  1.00  0.00     0.074 A 
ATOM     45  C   UNL     1      12.685   7.166  -1.256  1.00  0.00     0.049 A 
ATOM     46  N   UNL     1      13.880   8.289   1.269  1.00  0.00    -0.248 NA
ATOM     47  C   UNL     1      13.231   6.344   2.387  1.00  0.00     0.031 C 
ATOM     48  C   UNL     1      12.090   6.686  -2.505  1.00  0.00     0.029 A 
ATOM     49  N   UNL     1      13.192   8.399  -1.582  1.00  0.00    -0.354 N 
ATOM     50  C   UNL     1      14.225   8.389   2.611  1.00  0.00     0.074 A 
ATOM     51  C   UNL     1      13.740   7.194   3.264  1.00  0.00     0.031 C 
ATOM     52  C   UNL     1      12.298   7.598  -3.469  1.00  0.00     0.029 A 
ATOM     53  C   UNL     1      13.001   8.742  -2.899  1.00  0.00     0.049 A 
ATOM     54  H   UNL     1      13.649   8.982  -0.934  1.00  0.00     0.167 HD
ATOM     55  C   UNL     1      14.906   9.376   3.240  1.00  0.00     0.031 A 
ATOM     56  C   UNL     1      13.349   9.856  -3.570  1.00  0.00     0.031 A 
ATOM     57  C   UNL     1      15.392  10.561   2.588  1.00  0.00     0.049 A 
ATOM     58  C   UNL     1      14.083  10.949  -2.843  1.00  0.00     0.074 A 
ATOM     59  C   UNL     1      16.139  11.595   3.124  1.00  0.00     0.029 A 
ATOM     60  N   UNL     1      15.172  10.874   1.255  1.00  0.00    -0.354 N 
ATOM     61  N   UNL     1      14.469  10.995  -1.590  1.00  0.00    -0.248 NA
ATOM     62  C   UNL     1      14.439  12.140  -3.627  1.00  0.00     0.031 C 
ATOM     63  C   UNL     1      16.319  12.562   2.131  1.00  0.00     0.029 A 
ATOM     64  C   UNL     1      15.743  12.100   0.958  1.00  0.00     0.049 A 
ATOM     65  H   UNL     1      14.683  10.308   0.615  1.00  0.00     0.167 HD
ATOM     66  C   UNL     1      15.137  12.204  -1.444  1.00  0.00     0.074 A 
ATOM     67  C   UNL     1      15.120  12.851  -2.740  1.00  0.00     0.031 C 
ATOM     68  C   UNL     1      15.714  12.731  -0.336  1.00  0.00     0.031 A 
BRANCH  55  69
ATOM     69  C   UNL     1      15.153   9.213   4.715  1.00  0.00    -0.014 A 
ATOM     70  C   UNL     1      16.023   8.226   5.205  1.00  0.00     0.009 A 
ATOM     71  C   UNL     1      14.527  10.076   5.627  1.00  0.00     0.009 A 
ATOM     72  C   UNL     1      16.228   8.079   6.579  1.00  0.00     0.001 A 
ATOM     73  C   UNL     1      14.759   9.950   6.998  1.00  0.00     0.001 A 
ATOM     74  C   UNL     1      15.600   8.945   7.473  1.00  0.00     0.000 A 
ENDBRANCH  55  69
BRANCH  56  75
ATOM     75  C   UNL     1      13.023   9.991  -5.015  1.00  0.00    -0.014 A 
ATOM     76  C   UNL     1      14.040   9.980  -5.981  1.00  0.00     0.009 A 
ATOM     77  C   UNL     1      11.692  10.143  -5.436  1.00  0.00     0.009 A 
ATOM     78  C   UNL     1      13.735  10.147  -7.334  1.00  0.00     0.001 A 
ATOM     79  C   UNL     1      11.387  10.278  -6.792  1.00  0.00     0.001 A 
ATOM     80  C   UNL     1      12.409  10.291  -7.739  1.00  0.00     0.000 A 
ENDBRANCH  56  75
BRANCH  68  81
ATOM     81  C   UNL     1      16.404  14.059  -0.485  1.00  0.00    -0.014 A 
ATOM     82  C   UNL     1      15.678  15.243  -0.681  1.00  0.00     0.009 A 
ATOM     83  C   UNL     1      17.803  14.127  -0.385  1.00  0.00     0.009 A 
ATOM     84  C   UNL     1      16.342  16.465  -0.810  1.00  0.00     0.001 A 
ATOM     85  C   UNL     1      18.461  15.354  -0.480  1.00  0.00     0.001 A 
ATOM     86  C   UNL     1      17.731  16.520  -0.704  1.00  0.00     0.000 A 
ENDBRANCH  68  81
ENDBRANCH  42  43
ENDBRANCH  34  37
ENDBRANCH  32  33
ENDBRANCH  31  32
ENDBRANCH  30  31
ENDBRANCH   1  30
TORSDOF 18
