REMARK SMILES CCN(CC)C(=O)COc1cc(C)ccc1C(=O)NCCCCCCNC(=O)c1ccc(-c2c3nc(c(-c4ccccc4)c4ccc([nH]4)c(-c4ccccc4)c4nc(c(-c5ccccc5)c5ccc2[nH]5)C=C4)C=C3)cc1
REMARK SMILES IDX 21 1 20 2 19 3 17 4 18 5 16 7 10 8 11 9 12 10 15 11 13 12
REMARK SMILES IDX 14 13 9 14 8 15 6 16 3 17 7 18 2 19 1 20 4 21 5 22 22 23
REMARK SMILES IDX 23 24 24 25 25 26 26 27 27 28 28 30 29 31 30 32 76 33 31 34
REMARK SMILES IDX 75 35 32 36 33 37 34 38 69 39 35 40 74 41 68 42 70 43 36 44
REMARK SMILES IDX 73 45 67 46 66 47 37 49 59 50 44 51 58 52 45 53 48 54 57 55
REMARK SMILES IDX 71 56 46 57 47 58 56 60 72 61 49 62 38 63 39 64 43 65 40 66
REMARK SMILES IDX 42 67 41 68 60 69 61 70 65 71 62 72 64 73 63 74 50 75 51 76
REMARK SMILES IDX 55 77 52 78 54 79 53 80
REMARK H PARENT 19 6 26 29 70 48 48 59
REMARK Flexibility Score: inf
ROOT
ATOM      1  C   UNL     1       2.851   6.684  -1.406  1.00  0.00     0.021 C 
ENDROOT
BRANCH   1   2
ATOM      2  C   UNL     1       2.190   6.155  -2.685  1.00  0.00     0.116 C 
BRANCH   2   3
ATOM      3  N   UNL     1       3.178   5.986  -3.725  1.00  0.00    -0.352 N 
ATOM      4  C   UNL     1       3.853   4.906  -4.225  1.00  0.00     0.255 C 
ATOM      5  O   UNL     1       4.675   5.167  -5.112  1.00  0.00    -0.269 OA
ATOM      6  H   UNL     1       3.418   6.831  -4.170  1.00  0.00     0.163 HD
BRANCH   4   7
ATOM      7  C   UNL     1       3.645   3.466  -3.866  1.00  0.00     0.081 A 
ATOM      8  C   UNL     1       3.339   2.906  -2.612  1.00  0.00     0.133 A 
ATOM      9  C   UNL     1       3.253   1.504  -2.493  1.00  0.00     0.050 A 
ATOM     10  C   UNL     1       3.495   0.645  -3.572  1.00  0.00    -0.047 A 
ATOM     11  C   UNL     1       3.911   2.582  -4.940  1.00  0.00     0.018 A 
ATOM     12  C   UNL     1       3.428  -0.844  -3.399  1.00  0.00     0.044 C 
ATOM     13  C   UNL     1       3.845   1.196  -4.798  1.00  0.00     0.004 A 
BRANCH   8  14
ATOM     14  O   UNL     1       3.080   3.724  -1.550  1.00  0.00    -0.483 OA
BRANCH  14  15
ATOM     15  C   UNL     1       3.416   3.297  -0.243  1.00  0.00     0.329 C 
BRANCH  15  16
ATOM     16  C   UNL     1       2.628   2.212   0.524  1.00  0.00     0.260 C 
ATOM     17  N   UNL     1       1.239   2.171   0.466  1.00  0.00    -0.340 N 
ATOM     18  O   UNL     1       3.261   1.385   1.191  1.00  0.00    -0.271 OA
BRANCH  17  19
ATOM     19  C   UNL     1       0.570   1.029   1.094  1.00  0.00     0.116 C 
ATOM     20  C   UNL     1       0.638  -0.208   0.208  1.00  0.00     0.027 C 
ENDBRANCH  17  19
BRANCH  17  21
ATOM     21  C   UNL     1       0.382   3.168  -0.175  1.00  0.00     0.116 C 
ATOM     22  C   UNL     1       0.152   4.373   0.723  1.00  0.00     0.027 C 
ENDBRANCH  17  21
ENDBRANCH  15  16
ENDBRANCH  14  15
ENDBRANCH   8  14
ENDBRANCH   4   7
ENDBRANCH   2   3
ENDBRANCH   1   2
BRANCH   1  23
ATOM     23  C   UNL     1       2.986   8.212  -1.334  1.00  0.00     0.002 C 
BRANCH  23  24
ATOM     24  C   UNL     1       1.675   9.015  -1.392  1.00  0.00     0.002 C 
BRANCH  24  25
ATOM     25  C   UNL     1       0.540   8.510  -0.498  1.00  0.00     0.021 C 
BRANCH  25  26
ATOM     26  C   UNL     1       0.793   8.707   0.991  1.00  0.00     0.116 C 
BRANCH  26  27
ATOM     27  N   UNL     1       0.223   9.936   1.527  1.00  0.00    -0.352 N 
ATOM     28  C   UNL     1       0.332  10.505   2.784  1.00  0.00     0.251 C 
ATOM     29  H   UNL     1      -0.330  10.445   0.891  1.00  0.00     0.163 HD
ATOM     30  O   UNL     1      -0.302  11.512   3.047  1.00  0.00    -0.269 OA
BRANCH  28  31
ATOM     31  C   UNL     1       1.330   9.985   3.757  1.00  0.00     0.039 A 
ATOM     32  C   UNL     1       2.054  10.929   4.500  1.00  0.00     0.014 A 
ATOM     33  C   UNL     1       1.704   8.646   3.787  1.00  0.00     0.014 A 
ATOM     34  C   UNL     1       3.290  10.578   5.035  1.00  0.00     0.010 A 
ATOM     35  C   UNL     1       2.972   8.320   4.216  1.00  0.00     0.010 A 
ATOM     36  C   UNL     1       3.790   9.305   4.772  1.00  0.00    -0.014 A 
BRANCH  36  37
ATOM     37  C   UNL     1       5.191   8.951   4.932  1.00  0.00     0.031 A 
ATOM     38  C   UNL     1       5.629   8.161   6.095  1.00  0.00     0.074 A 
ATOM     39  C   UNL     1       6.083   9.305   3.980  1.00  0.00     0.049 A 
ATOM     40  N   UNL     1       6.798   8.257   6.634  1.00  0.00    -0.248 NA
ATOM     41  C   UNL     1       4.745   7.228   6.783  1.00  0.00     0.031 C 
ATOM     42  C   UNL     1       7.459   8.836   3.846  1.00  0.00     0.029 A 
ATOM     43  N   UNL     1       5.988  10.341   3.050  1.00  0.00    -0.354 N 
ATOM     44  C   UNL     1       6.925   7.199   7.505  1.00  0.00     0.074 A 
ATOM     45  C   UNL     1       5.591   6.663   7.649  1.00  0.00     0.031 C 
ATOM     46  C   UNL     1       8.154   9.745   3.144  1.00  0.00     0.029 A 
ATOM     47  C   UNL     1       7.275  10.884   2.925  1.00  0.00     0.049 A 
ATOM     48  H   UNL     1       5.176  10.634   2.575  1.00  0.00     0.167 HD
ATOM     49  C   UNL     1       8.167   6.779   7.878  1.00  0.00     0.031 A 
ATOM     50  C   UNL     1       7.584  12.184   3.197  1.00  0.00     0.031 A 
ATOM     51  C   UNL     1       9.219   7.598   7.282  1.00  0.00     0.049 A 
ATOM     52  C   UNL     1       8.663  12.320   4.247  1.00  0.00     0.074 A 
ATOM     53  C   UNL     1      10.042   7.398   6.185  1.00  0.00     0.029 A 
ATOM     54  N   UNL     1       9.341   8.936   7.631  1.00  0.00    -0.354 N 
ATOM     55  N   UNL     1       8.975  11.372   5.084  1.00  0.00    -0.248 NA
ATOM     56  C   UNL     1       9.428  13.543   4.481  1.00  0.00     0.031 C 
ATOM     57  C   UNL     1      10.627   8.641   5.843  1.00  0.00     0.029 A 
ATOM     58  C   UNL     1      10.177   9.588   6.746  1.00  0.00     0.049 A 
ATOM     59  H   UNL     1       8.895   9.360   8.400  1.00  0.00     0.167 HD
ATOM     60  C   UNL     1       9.955  11.813   5.934  1.00  0.00     0.074 A 
ATOM     61  C   UNL     1      10.201  13.182   5.522  1.00  0.00     0.031 C 
ATOM     62  C   UNL     1      10.471  11.005   6.904  1.00  0.00     0.031 A 
BRANCH  49  63
ATOM     63  C   UNL     1       8.438   5.430   8.506  1.00  0.00    -0.014 A 
ATOM     64  C   UNL     1       9.691   4.817   8.313  1.00  0.00     0.009 A 
ATOM     65  C   UNL     1       7.502   4.689   9.246  1.00  0.00     0.009 A 
ATOM     66  C   UNL     1       9.953   3.506   8.730  1.00  0.00     0.001 A 
ATOM     67  C   UNL     1       7.742   3.363   9.635  1.00  0.00     0.001 A 
ATOM     68  C   UNL     1       8.965   2.766   9.364  1.00  0.00     0.000 A 
ENDBRANCH  49  63
BRANCH  50  69
ATOM     69  C   UNL     1       6.450  13.133   3.045  1.00  0.00    -0.014 A 
ATOM     70  C   UNL     1       5.986  13.421   1.748  1.00  0.00     0.009 A 
ATOM     71  C   UNL     1       5.621  13.429   4.138  1.00  0.00     0.009 A 
ATOM     72  C   UNL     1       4.686  13.893   1.544  1.00  0.00     0.001 A 
ATOM     73  C   UNL     1       4.321  13.902   3.928  1.00  0.00     0.001 A 
ATOM     74  C   UNL     1       3.844  14.103   2.632  1.00  0.00     0.000 A 
ENDBRANCH  50  69
BRANCH  62  75
ATOM     75  C   UNL     1      11.368  11.421   8.044  1.00  0.00    -0.014 A 
ATOM     76  C   UNL     1      11.487  12.731   8.522  1.00  0.00     0.009 A 
ATOM     77  C   UNL     1      12.037  10.415   8.783  1.00  0.00     0.009 A 
ATOM     78  C   UNL     1      12.261  13.025   9.655  1.00  0.00     0.001 A 
ATOM     79  C   UNL     1      12.771  10.697   9.936  1.00  0.00     0.001 A 
ATOM     80  C   UNL     1      12.892  12.008  10.367  1.00  0.00     0.000 A 
ENDBRANCH  62  75
ENDBRANCH  36  37
ENDBRANCH  28  31
ENDBRANCH  26  27
ENDBRANCH  25  26
ENDBRANCH  24  25
ENDBRANCH  23  24
ENDBRANCH   1  23
TORSDOF 18
