REMARK SMILES CN1C(=O)CC[C@H]([NH2+]Cc2ccc(C(=O)NCCCCCCNC(=O)c3ccc(-c4c5nc(c(-c6ccccc6)c6ccc([nH]6)c(-c6ccccc6)c6nc(c(-c7ccccc7)c7ccc4[nH]7)C=C6)C=C5)cc3)cn2)C1=O
REMARK SMILES IDX 19 1 18 2 17 3 16 4 14 5 15 6 13 8 10 9 11 10 75 11 12 12
REMARK SMILES IDX 74 13 9 14 8 15 7 18 1 19 2 20 3 21 76 22 4 23 5 24 77 25
REMARK SMILES IDX 6 26 20 27 21 28 22 29 23 30 24 31 25 33 26 34 27 35 73 36
REMARK SMILES IDX 28 37 72 38 29 39 30 40 31 41 66 42 32 43 71 44 65 45 67 46
REMARK SMILES IDX 33 47 70 48 64 49 63 50 34 52 56 53 41 54 55 55 42 56 45 57
REMARK SMILES IDX 54 58 68 59 43 60 44 61 53 63 69 64 46 65 35 66 36 67 40 68
REMARK SMILES IDX 37 69 39 70 38 71 57 72 58 73 62 74 59 75 61 76 60 77 47 78
REMARK SMILES IDX 48 79 52 80 49 81 51 82 50 83
REMARK H PARENT 16 7 8 16 8 17 23 32 67 51 45 62
REMARK Flexibility Score: inf
ROOT
ATOM      1  C   UNL     1       9.087  -7.789   6.622  1.00  0.00     0.002 C 
ENDROOT
BRANCH   1   2
ATOM      2  C   UNL     1       8.143  -6.888   5.815  1.00  0.00     0.021 C 
BRANCH   2   3
ATOM      3  C   UNL     1       7.598  -7.555   4.550  1.00  0.00     0.116 C 
BRANCH   3   4
ATOM      4  N   UNL     1       6.513  -8.459   4.883  1.00  0.00    -0.352 N 
ATOM      5  C   UNL     1       5.152  -8.348   4.756  1.00  0.00     0.252 C 
ATOM      6  O   UNL     1       4.461  -9.311   5.088  1.00  0.00    -0.269 OA
ATOM      7  H   UNL     1       6.810  -9.312   5.274  1.00  0.00     0.163 HD
BRANCH   5   8
ATOM      8  C   UNL     1       4.487  -7.153   4.189  1.00  0.00     0.058 A 
ATOM      9  C   UNL     1       3.109  -5.111   2.931  1.00  0.00     0.094 A 
ATOM     10  C   UNL     1       4.270  -4.815   3.643  1.00  0.00     0.030 A 
ATOM     11  N   UNL     1       2.590  -6.364   2.881  1.00  0.00    -0.255 NA
ATOM     12  C   UNL     1       4.949  -5.844   4.296  1.00  0.00     0.017 A 
ATOM     13  C   UNL     1       3.286  -7.347   3.512  1.00  0.00     0.125 A 
BRANCH   9  14
ATOM     14  C   UNL     1       2.396  -4.023   2.145  1.00  0.00     0.318 C 
BRANCH  14  15
ATOM     15  N   UNL     1       1.038  -3.793   2.646  1.00  0.00    -0.331 N 
ATOM     16  H   UNL     1       0.595  -4.701   2.780  1.00  0.00     0.347 HD
ATOM     17  H   UNL     1       1.146  -3.254   3.505  1.00  0.00     0.347 HD
BRANCH  15  18
ATOM     18  C   UNL     1       0.160  -2.983   1.768  1.00  0.00     0.274 C 
ATOM     19  C   UNL     1       0.839   0.561   0.448  1.00  0.00     0.156 C 
ATOM     20  N   UNL     1       0.157  -0.556   1.080  1.00  0.00    -0.281 N 
ATOM     21  C   UNL     1      -1.140  -0.346   1.534  1.00  0.00     0.229 C 
ATOM     22  C   UNL     1       0.847  -1.770   1.094  1.00  0.00     0.287 C 
ATOM     23  O   UNL     1      -1.698   0.751   1.525  1.00  0.00    -0.274 OA
ATOM     24  C   UNL     1      -1.899  -1.576   1.958  1.00  0.00     0.107 C 
ATOM     25  O   UNL     1       1.925  -1.887   0.500  1.00  0.00    -0.267 OA
ATOM     26  C   UNL     1      -0.994  -2.552   2.669  1.00  0.00     0.085 C 
ENDBRANCH  15  18
ENDBRANCH  14  15
ENDBRANCH   9  14
ENDBRANCH   5   8
ENDBRANCH   3   4
ENDBRANCH   2   3
ENDBRANCH   1   2
BRANCH   1  27
ATOM     27  C   UNL     1      10.389  -8.168   5.905  1.00  0.00     0.002 C 
BRANCH  27  28
ATOM     28  C   UNL     1      11.231  -6.984   5.420  1.00  0.00     0.021 C 
BRANCH  28  29
ATOM     29  C   UNL     1      11.704  -6.049   6.531  1.00  0.00     0.116 C 
BRANCH  29  30
ATOM     30  N   UNL     1      12.606  -6.721   7.452  1.00  0.00    -0.352 N 
ATOM     31  C   UNL     1      13.905  -6.418   7.779  1.00  0.00     0.251 C 
ATOM     32  H   UNL     1      12.231  -7.509   7.908  1.00  0.00     0.163 HD
ATOM     33  O   UNL     1      14.594  -7.224   8.393  1.00  0.00    -0.269 OA
BRANCH  31  34
ATOM     34  C   UNL     1      14.476  -5.115   7.379  1.00  0.00     0.039 A 
ATOM     35  C   UNL     1      15.753  -5.080   6.814  1.00  0.00     0.014 A 
ATOM     36  C   UNL     1      13.757  -3.933   7.573  1.00  0.00     0.014 A 
ATOM     37  C   UNL     1      16.283  -3.864   6.381  1.00  0.00     0.010 A 
ATOM     38  C   UNL     1      14.259  -2.730   7.085  1.00  0.00     0.010 A 
ATOM     39  C   UNL     1      15.524  -2.686   6.480  1.00  0.00    -0.014 A 
BRANCH  39  40
ATOM     40  C   UNL     1      16.022  -1.403   5.927  1.00  0.00     0.031 A 
ATOM     41  C   UNL     1      16.328  -0.248   6.837  1.00  0.00     0.074 A 
ATOM     42  C   UNL     1      16.126  -1.258   4.593  1.00  0.00     0.049 A 
ATOM     43  N   UNL     1      16.711   0.965   6.528  1.00  0.00    -0.248 NA
ATOM     44  C   UNL     1      16.159  -0.479   8.280  1.00  0.00     0.031 C 
ATOM     45  C   UNL     1      15.824  -2.294   3.602  1.00  0.00     0.029 A 
ATOM     46  N   UNL     1      16.506  -0.177   3.839  1.00  0.00    -0.354 N 
ATOM     47  C   UNL     1      16.816   1.645   7.735  1.00  0.00     0.074 A 
ATOM     48  C   UNL     1      16.412   0.724   8.775  1.00  0.00     0.031 C 
ATOM     49  C   UNL     1      16.056  -1.806   2.373  1.00  0.00     0.029 A 
ATOM     50  C   UNL     1      16.480  -0.415   2.486  1.00  0.00     0.049 A 
ATOM     51  H   UNL     1      16.771   0.687   4.230  1.00  0.00     0.167 HD
ATOM     52  C   UNL     1      17.227   2.917   7.957  1.00  0.00     0.031 A 
ATOM     53  C   UNL     1      16.757   0.399   1.451  1.00  0.00     0.031 A 
ATOM     54  C   UNL     1      17.627   3.831   6.921  1.00  0.00     0.049 A 
ATOM     55  C   UNL     1      17.173   1.816   1.721  1.00  0.00     0.074 A 
ATOM     56  C   UNL     1      18.122   5.117   7.050  1.00  0.00     0.029 A 
ATOM     57  N   UNL     1      17.567   3.560   5.563  1.00  0.00    -0.354 N 
ATOM     58  N   UNL     1      17.338   2.422   2.872  1.00  0.00    -0.248 NA
ATOM     59  C   UNL     1      17.441   2.660   0.549  1.00  0.00     0.031 C 
ATOM     60  C   UNL     1      18.307   5.644   5.766  1.00  0.00     0.029 A 
ATOM     61  C   UNL     1      17.977   4.668   4.840  1.00  0.00     0.049 A 
ATOM     62  H   UNL     1      17.275   2.705   5.170  1.00  0.00     0.167 HD
ATOM     63  C   UNL     1      17.742   3.714   2.564  1.00  0.00     0.074 A 
ATOM     64  C   UNL     1      17.817   3.797   1.119  1.00  0.00     0.031 C 
ATOM     65  C   UNL     1      18.025   4.740   3.403  1.00  0.00     0.031 A 
BRANCH  52  66
ATOM     66  C   UNL     1      17.244   3.394   9.383  1.00  0.00    -0.014 A 
ATOM     67  C   UNL     1      18.179   2.898  10.307  1.00  0.00     0.009 A 
ATOM     68  C   UNL     1      16.326   4.368   9.805  1.00  0.00     0.009 A 
ATOM     69  C   UNL     1      18.165   3.335  11.633  1.00  0.00     0.001 A 
ATOM     70  C   UNL     1      16.333   4.824  11.125  1.00  0.00     0.001 A 
ATOM     71  C   UNL     1      17.244   4.299  12.040  1.00  0.00     0.000 A 
ENDBRANCH  52  66
BRANCH  53  72
ATOM     72  C   UNL     1      16.659  -0.115   0.062  1.00  0.00    -0.014 A 
ATOM     73  C   UNL     1      17.820  -0.357  -0.688  1.00  0.00     0.009 A 
ATOM     74  C   UNL     1      15.408  -0.385  -0.516  1.00  0.00     0.009 A 
ATOM     75  C   UNL     1      17.730  -0.844  -1.993  1.00  0.00     0.001 A 
ATOM     76  C   UNL     1      15.322  -0.896  -1.812  1.00  0.00     0.001 A 
ATOM     77  C   UNL     1      16.482  -1.119  -2.552  1.00  0.00     0.000 A 
ENDBRANCH  53  72
BRANCH  65  78
ATOM     78  C   UNL     1      18.443   6.039   2.775  1.00  0.00    -0.014 A 
ATOM     79  C   UNL     1      17.511   6.860   2.122  1.00  0.00     0.009 A 
ATOM     80  C   UNL     1      19.778   6.463   2.868  1.00  0.00     0.009 A 
ATOM     81  C   UNL     1      17.914   8.067   1.548  1.00  0.00     0.001 A 
ATOM     82  C   UNL     1      20.172   7.683   2.317  1.00  0.00     0.001 A 
ATOM     83  C   UNL     1      19.242   8.480   1.650  1.00  0.00     0.000 A 
ENDBRANCH  65  78
ENDBRANCH  39  40
ENDBRANCH  31  34
ENDBRANCH  29  30
ENDBRANCH  28  29
ENDBRANCH  27  28
ENDBRANCH   1  27
TORSDOF 16
