REMARK SMILES O=C(NCCCCCCNC(=O)c1ccc(-c2c3nc(c(-c4ccccc4)c4ccc([nH]4)c(-c4ccccc4)c4nc(c(-c5ccccc5)c5ccc2[nH]5)C=C4)C=C3)cc1)C1=Cc2cc(Cl)cc(-c3ccccc3)c2O[C@@H]1C(F)(F)F
REMARK SMILES IDX 7 1 6 2 5 3 4 4 3 5 1 6 2 7 61 9 62 10 77 11 63 12 76 13
REMARK SMILES IDX 64 14 75 15 65 16 68 17 66 18 67 19 78 20 79 21 80 22 81 23
REMARK SMILES IDX 69 24 70 25 74 26 71 27 73 28 72 29 8 30 9 31 10 32 11 33
REMARK SMILES IDX 12 35 13 36 14 37 60 38 15 39 59 40 16 41 17 42 18 43 53 44
REMARK SMILES IDX 19 45 58 46 52 47 54 48 20 49 57 50 51 51 50 52 21 54 43 55
REMARK SMILES IDX 28 56 42 57 29 58 32 59 41 60 55 61 30 62 31 63 40 65 56 66
REMARK SMILES IDX 33 67 22 68 23 69 27 70 24 71 26 72 25 73 44 74 45 75 49 76
REMARK SMILES IDX 46 77 48 78 47 79 34 80 35 81 39 82 36 83 38 84 37 85
REMARK H PARENT 3 8 10 34 54 53 32 64
REMARK Flexibility Score: inf
ROOT
ATOM      1  C   UNL     1       4.386   4.723   0.516  1.00  0.00     0.002 C 
ENDROOT
BRANCH   1   2
ATOM      2  C   UNL     1       3.794   4.494  -0.879  1.00  0.00     0.002 C 
BRANCH   2   3
ATOM      3  C   UNL     1       4.204   3.211  -1.604  1.00  0.00     0.021 C 
BRANCH   3   4
ATOM      4  C   UNL     1       3.984   1.897  -0.858  1.00  0.00     0.116 C 
BRANCH   4   5
ATOM      5  N   UNL     1       2.679   1.287  -1.046  1.00  0.00    -0.352 N 
ATOM      6  O   UNL     1       1.073  -0.275  -0.916  1.00  0.00    -0.270 OA
ATOM      7  C   UNL     1       2.269   0.002  -0.818  1.00  0.00     0.251 C 
ATOM      8  H   UNL     1       1.982   1.891  -1.391  1.00  0.00     0.163 HD
BRANCH   7   9
ATOM      9  C   UNL     1       3.202  -1.075  -0.365  1.00  0.00     0.067 C 
ATOM     10  C   UNL     1       4.463  -1.164  -0.818  1.00  0.00     0.025 C 
ATOM     11  C   UNL     1       2.926  -1.515   1.055  1.00  0.00     0.314 C 
ATOM     12  C   UNL     1       5.462  -0.776   0.210  1.00  0.00     0.019 A 
ATOM     13  O   UNL     1       3.789  -0.808   1.984  1.00  0.00    -0.475 OA
ATOM     14  C   UNL     1       6.740  -0.423  -0.234  1.00  0.00     0.032 A 
ATOM     15  C   UNL     1       5.044  -0.472   1.524  1.00  0.00     0.135 A 
ATOM     16  C   UNL     1       7.571   0.307   0.605  1.00  0.00     0.042 A 
ATOM     17  C   UNL     1       5.860   0.321   2.353  1.00  0.00     0.026 A 
ATOM     18  Cl  UNL     1       9.080   0.884   0.015  1.00  0.00    -0.084 Cl
ATOM     19  C   UNL     1       7.136   0.685   1.874  1.00  0.00     0.033 A 
BRANCH  11  20
ATOM     20  C   UNL     1       3.016  -3.045   1.209  1.00  0.00     0.429 C 
ATOM     21  F   UNL     1       2.639  -3.445   2.447  1.00  0.00    -0.167 F 
ATOM     22  F   UNL     1       2.205  -3.681   0.327  1.00  0.00    -0.167 F 
ATOM     23  F   UNL     1       4.268  -3.519   1.001  1.00  0.00    -0.167 F 
ENDBRANCH  11  20
BRANCH  17  24
ATOM     24  C   UNL     1       5.366   0.961   3.588  1.00  0.00    -0.015 A 
ATOM     25  C   UNL     1       5.246   2.363   3.623  1.00  0.00     0.009 A 
ATOM     26  C   UNL     1       5.023   0.252   4.741  1.00  0.00     0.009 A 
ATOM     27  C   UNL     1       4.833   3.045   4.766  1.00  0.00     0.001 A 
ATOM     28  C   UNL     1       4.608   0.932   5.895  1.00  0.00     0.001 A 
ATOM     29  C   UNL     1       4.521   2.325   5.909  1.00  0.00     0.000 A 
ENDBRANCH  17  24
ENDBRANCH   7   9
ENDBRANCH   4   5
ENDBRANCH   3   4
ENDBRANCH   2   3
ENDBRANCH   1   2
BRANCH   1  30
ATOM     30  C   UNL     1       5.900   4.539   0.663  1.00  0.00     0.021 C 
BRANCH  30  31
ATOM     31  C   UNL     1       6.777   5.477  -0.153  1.00  0.00     0.116 C 
BRANCH  31  32
ATOM     32  N   UNL     1       6.666   6.854   0.299  1.00  0.00    -0.352 N 
ATOM     33  C   UNL     1       7.603   7.710   0.824  1.00  0.00     0.251 C 
ATOM     34  H   UNL     1       5.764   7.239   0.213  1.00  0.00     0.163 HD
ATOM     35  O   UNL     1       7.225   8.759   1.341  1.00  0.00    -0.269 OA
BRANCH  33  36
ATOM     36  C   UNL     1       9.055   7.401   0.789  1.00  0.00     0.039 A 
ATOM     37  C   UNL     1       9.865   7.868   1.832  1.00  0.00     0.014 A 
ATOM     38  C   UNL     1       9.645   6.729  -0.283  1.00  0.00     0.014 A 
ATOM     39  C   UNL     1      11.243   7.628   1.817  1.00  0.00     0.010 A 
ATOM     40  C   UNL     1      11.002   6.410  -0.254  1.00  0.00     0.010 A 
ATOM     41  C   UNL     1      11.822   6.875   0.785  1.00  0.00    -0.014 A 
BRANCH  41  42
ATOM     42  C   UNL     1      13.281   6.594   0.749  1.00  0.00     0.031 A 
ATOM     43  C   UNL     1      14.124   7.117  -0.387  1.00  0.00     0.074 A 
ATOM     44  C   UNL     1      13.842   5.822   1.701  1.00  0.00     0.049 A 
ATOM     45  N   UNL     1      15.394   6.915  -0.636  1.00  0.00    -0.248 NA
ATOM     46  C   UNL     1      13.444   7.953  -1.390  1.00  0.00     0.031 C 
ATOM     47  C   UNL     1      13.135   5.227   2.837  1.00  0.00     0.029 A 
ATOM     48  N   UNL     1      15.139   5.402   1.860  1.00  0.00    -0.354 N 
ATOM     49  C   UNL     1      15.653   7.568  -1.835  1.00  0.00     0.074 A 
ATOM     50  C   UNL     1      14.402   8.137  -2.286  1.00  0.00     0.031 C 
ATOM     51  C   UNL     1      14.012   4.545   3.592  1.00  0.00     0.029 A 
ATOM     52  C   UNL     1      15.331   4.617   2.972  1.00  0.00     0.049 A 
ATOM     53  H   UNL     1      15.863   5.639   1.237  1.00  0.00     0.167 HD
ATOM     54  C   UNL     1      16.828   7.699  -2.495  1.00  0.00     0.031 A 
ATOM     55  C   UNL     1      16.444   4.019   3.438  1.00  0.00     0.031 A 
ATOM     56  C   UNL     1      18.080   7.164  -2.031  1.00  0.00     0.049 A 
ATOM     57  C   UNL     1      17.736   4.181   2.686  1.00  0.00     0.074 A 
ATOM     58  C   UNL     1      19.338   7.308  -2.590  1.00  0.00     0.029 A 
ATOM     59  N   UNL     1      18.231   6.387  -0.895  1.00  0.00    -0.354 N 
ATOM     60  N   UNL     1      17.975   4.859   1.589  1.00  0.00    -0.248 NA
ATOM     61  C   UNL     1      18.915   3.502   3.243  1.00  0.00     0.031 C 
ATOM     62  C   UNL     1      20.244   6.575  -1.817  1.00  0.00     0.029 A 
ATOM     63  C   UNL     1      19.558   6.022  -0.748  1.00  0.00     0.049 A 
ATOM     64  H   UNL     1      17.503   6.132  -0.283  1.00  0.00     0.167 HD
ATOM     65  C   UNL     1      19.334   4.714   1.345  1.00  0.00     0.074 A 
ATOM     66  C   UNL     1      19.870   3.897   2.413  1.00  0.00     0.031 C 
ATOM     67  C   UNL     1      20.075   5.214   0.326  1.00  0.00     0.031 A 
BRANCH  54  68
ATOM     68  C   UNL     1      16.817   8.449  -3.799  1.00  0.00    -0.014 A 
ATOM     69  C   UNL     1      16.630   9.840  -3.841  1.00  0.00     0.009 A 
ATOM     70  C   UNL     1      17.043   7.759  -5.001  1.00  0.00     0.009 A 
ATOM     71  C   UNL     1      16.636  10.519  -5.061  1.00  0.00     0.001 A 
ATOM     72  C   UNL     1      17.077   8.444  -6.217  1.00  0.00     0.001 A 
ATOM     73  C   UNL     1      16.865   9.822  -6.247  1.00  0.00     0.000 A 
ENDBRANCH  54  68
BRANCH  55  74
ATOM     74  C   UNL     1      16.398   3.222   4.692  1.00  0.00    -0.014 A 
ATOM     75  C   UNL     1      17.030   3.693   5.854  1.00  0.00     0.009 A 
ATOM     76  C   UNL     1      15.742   1.982   4.732  1.00  0.00     0.009 A 
ATOM     77  C   UNL     1      17.032   2.925   7.021  1.00  0.00     0.001 A 
ATOM     78  C   UNL     1      15.721   1.230   5.909  1.00  0.00     0.001 A 
ATOM     79  C   UNL     1      16.375   1.696   7.048  1.00  0.00     0.000 A 
ENDBRANCH  55  74
BRANCH  67  80
ATOM     80  C   UNL     1      21.549   4.927   0.342  1.00  0.00    -0.014 A 
ATOM     81  C   UNL     1      22.046   3.650   0.043  1.00  0.00     0.009 A 
ATOM     82  C   UNL     1      22.453   5.964   0.620  1.00  0.00     0.009 A 
ATOM     83  C   UNL     1      23.422   3.409   0.056  1.00  0.00     0.001 A 
ATOM     84  C   UNL     1      23.828   5.727   0.604  1.00  0.00     0.001 A 
ATOM     85  C   UNL     1      24.311   4.448   0.331  1.00  0.00     0.000 A 
ENDBRANCH  67  80
ENDBRANCH  41  42
ENDBRANCH  33  36
ENDBRANCH  31  32
ENDBRANCH  30  31
ENDBRANCH   1  30
TORSDOF 15
