REMARK SMILES CCCCS[C@@H]1CCC[C@]([NH3+])(C(=O)NCCCCCCNC(=O)c2ccc(-c3c4nc(c(-c5ccccc5)c5ccc([nH]5)c(-c5ccccc5)c5nc(c(-c6ccccc6)c6ccc3[nH]6)C=C5)C=C4)cc2)C1
REMARK SMILES IDX 16 1 15 2 14 3 12 4 13 5 10 7 6 8 7 9 72 10 8 11 9 12 5 13
REMARK SMILES IDX 4 14 3 15 2 16 1 17 11 18 17 22 18 23 19 24 20 25 21 26
REMARK SMILES IDX 22 27 23 29 24 30 25 31 71 32 26 33 70 34 27 35 28 36 29 37
REMARK SMILES IDX 64 38 30 39 69 40 63 41 65 42 31 43 68 44 62 45 61 46 32 48
REMARK SMILES IDX 54 49 39 50 53 51 40 52 43 53 52 54 66 55 41 56 42 57 51 59
REMARK SMILES IDX 67 60 44 61 33 62 34 63 38 64 35 65 37 66 36 67 55 68 56 69
REMARK SMILES IDX 60 70 57 71 59 72 58 73 45 74 46 75 50 76 47 77 49 78 48 79
REMARK H PARENT 14 6 11 19 11 20 11 21 21 28 65 47 43 58
REMARK Flexibility Score: inf
ROOT
ATOM      1  C   UNL     1       2.172  -1.872   1.158  1.00  0.00     0.021 C 
ENDROOT
BRANCH   1   2
ATOM      2  C   UNL     1       1.279  -2.343   0.005  1.00  0.00     0.116 C 
BRANCH   2   3
ATOM      3  N   UNL     1       0.145  -3.151   0.458  1.00  0.00    -0.351 N 
ATOM      4  C   UNL     1      -1.218  -3.040   0.425  1.00  0.00     0.281 C 
ATOM      5  O   UNL     1      -1.839  -4.045   0.792  1.00  0.00    -0.268 OA
ATOM      6  H   UNL     1       0.436  -3.983   0.895  1.00  0.00     0.163 HD
BRANCH   4   7
ATOM      7  C   UNL     1      -1.978  -1.735   0.010  1.00  0.00     0.175 C 
ATOM      8  C   UNL     1      -2.495   0.649   0.922  1.00  0.00     0.053 C 
ATOM      9  C   UNL     1      -3.997   0.397   0.700  1.00  0.00     0.015 C 
ATOM     10  C   UNL     1      -1.679  -0.647   1.053  1.00  0.00     0.093 C 
ATOM     11  C   UNL     1      -4.295  -0.707  -0.309  1.00  0.00     0.008 C 
ATOM     12  C   UNL     1      -3.507  -1.979   0.012  1.00  0.00     0.079 C 
BRANCH   8  13
ATOM     13  S   UNL     1      -2.361   1.605   2.510  1.00  0.00    -0.158 SA
BRANCH  13  14
ATOM     14  C   UNL     1      -1.240   2.973   2.071  1.00  0.00     0.070 C 
BRANCH  14  15
ATOM     15  C   UNL     1       0.193   2.778   2.577  1.00  0.00     0.011 C 
BRANCH  15  16
ATOM     16  C   UNL     1       0.980   1.650   1.924  1.00  0.00    -0.003 C 
ATOM     17  C   UNL     1       1.093   1.776   0.409  1.00  0.00     0.004 C 
ENDBRANCH  15  16
ENDBRANCH  14  15
ENDBRANCH  13  14
ENDBRANCH   8  13
BRANCH   7  18
ATOM     18  N   UNL     1      -1.620  -1.342  -1.372  1.00  0.00    -0.345 N 
ATOM     19  H   UNL     1      -2.124  -0.492  -1.625  1.00  0.00     0.345 HD
ATOM     20  H   UNL     1      -1.875  -2.092  -2.015  1.00  0.00     0.345 HD
ATOM     21  H   UNL     1      -0.616  -1.173  -1.429  1.00  0.00     0.345 HD
ENDBRANCH   7  18
ENDBRANCH   4   7
ENDBRANCH   2   3
ENDBRANCH   1   2
BRANCH   1  22
ATOM     22  C   UNL     1       3.680  -2.105   0.980  1.00  0.00     0.002 C 
BRANCH  22  23
ATOM     23  C   UNL     1       4.376  -1.488  -0.239  1.00  0.00     0.002 C 
BRANCH  23  24
ATOM     24  C   UNL     1       4.274   0.027  -0.439  1.00  0.00     0.021 C 
BRANCH  24  25
ATOM     25  C   UNL     1       4.621   0.916   0.757  1.00  0.00     0.116 C 
BRANCH  25  26
ATOM     26  N   UNL     1       6.008   0.814   1.167  1.00  0.00    -0.352 N 
ATOM     27  C   UNL     1       7.019   1.740   1.169  1.00  0.00     0.251 C 
ATOM     28  H   UNL     1       6.269  -0.074   1.501  1.00  0.00     0.163 HD
ATOM     29  O   UNL     1       8.163   1.366   1.447  1.00  0.00    -0.269 OA
BRANCH  27  30
ATOM     30  C   UNL     1       6.801   3.171   0.841  1.00  0.00     0.039 A 
ATOM     31  C   UNL     1       7.776   3.823   0.074  1.00  0.00     0.014 A 
ATOM     32  C   UNL     1       5.738   3.914   1.365  1.00  0.00     0.014 A 
ATOM     33  C   UNL     1       7.678   5.195  -0.186  1.00  0.00     0.010 A 
ATOM     34  C   UNL     1       5.615   5.278   1.065  1.00  0.00     0.010 A 
ATOM     35  C   UNL     1       6.592   5.938   0.301  1.00  0.00    -0.014 A 
BRANCH  35  36
ATOM     36  C   UNL     1       6.501   7.405   0.051  1.00  0.00     0.031 A 
ATOM     37  C   UNL     1       6.650   8.385   1.186  1.00  0.00     0.074 A 
ATOM     38  C   UNL     1       6.273   7.869  -1.194  1.00  0.00     0.049 A 
ATOM     39  N   UNL     1       6.574   9.694   1.167  1.00  0.00    -0.248 NA
ATOM     40  C   UNL     1       6.905   7.820   2.520  1.00  0.00     0.031 C 
ATOM     41  C   UNL     1       6.102   7.043  -2.389  1.00  0.00     0.029 A 
ATOM     42  N   UNL     1       6.145   9.156  -1.659  1.00  0.00    -0.354 N 
ATOM     43  C   UNL     1       6.755  10.105   2.482  1.00  0.00     0.074 A 
ATOM     44  C   UNL     1       6.907   8.906   3.279  1.00  0.00     0.031 C 
ATOM     45  C   UNL     1       5.912   7.842  -3.452  1.00  0.00     0.029 A 
ATOM     46  C   UNL     1       5.916   9.234  -3.011  1.00  0.00     0.049 A 
ATOM     47  H   UNL     1       6.212   9.948  -1.077  1.00  0.00     0.167 HD
ATOM     48  C   UNL     1       6.807  11.364   2.984  1.00  0.00     0.031 A 
ATOM     49  C   UNL     1       5.727  10.303  -3.810  1.00  0.00     0.031 A 
ATOM     50  C   UNL     1       6.672  12.564   2.202  1.00  0.00     0.049 A 
ATOM     51  C   UNL     1       5.770  11.688  -3.226  1.00  0.00     0.074 A 
ATOM     52  C   UNL     1       6.746  13.882   2.623  1.00  0.00     0.029 A 
ATOM     53  N   UNL     1       6.440  12.595   0.837  1.00  0.00    -0.354 N 
ATOM     54  N   UNL     1       5.982  12.057  -1.987  1.00  0.00    -0.248 NA
ATOM     55  C   UNL     1       5.561  12.806  -4.159  1.00  0.00     0.031 C 
ATOM     56  C   UNL     1       6.520  14.710   1.518  1.00  0.00     0.029 A 
ATOM     57  C   UNL     1       6.354  13.907   0.402  1.00  0.00     0.049 A 
ATOM     58  H   UNL     1       6.349  11.801   0.261  1.00  0.00     0.167 HD
ATOM     59  C   UNL     1       5.964  13.446  -1.997  1.00  0.00     0.074 A 
ATOM     60  C   UNL     1       5.731  13.855  -3.366  1.00  0.00     0.031 C 
ATOM     61  C   UNL     1       6.131  14.305  -0.963  1.00  0.00     0.031 A 
BRANCH  48  62
ATOM     62  C   UNL     1       7.012  11.507   4.467  1.00  0.00    -0.014 A 
ATOM     63  C   UNL     1       8.255  11.228   5.059  1.00  0.00     0.009 A 
ATOM     64  C   UNL     1       5.962  11.964   5.278  1.00  0.00     0.009 A 
ATOM     65  C   UNL     1       8.429  11.368   6.437  1.00  0.00     0.001 A 
ATOM     66  C   UNL     1       6.147  12.129   6.652  1.00  0.00     0.001 A 
ATOM     67  C   UNL     1       7.377  11.822   7.232  1.00  0.00     0.000 A 
ENDBRANCH  48  62
BRANCH  49  68
ATOM     68  C   UNL     1       5.494  10.113  -5.265  1.00  0.00    -0.014 A 
ATOM     69  C   UNL     1       6.485  10.463  -6.196  1.00  0.00     0.009 A 
ATOM     70  C   UNL     1       4.274   9.600  -5.732  1.00  0.00     0.009 A 
ATOM     71  C   UNL     1       6.248  10.327  -7.565  1.00  0.00     0.001 A 
ATOM     72  C   UNL     1       4.051   9.441  -7.101  1.00  0.00     0.001 A 
ATOM     73  C   UNL     1       5.034   9.813  -8.017  1.00  0.00     0.000 A 
ENDBRANCH  49  68
BRANCH  61  74
ATOM     74  C   UNL     1       6.115  15.775  -1.277  1.00  0.00    -0.014 A 
ATOM     75  C   UNL     1       4.920  16.443  -1.585  1.00  0.00     0.009 A 
ATOM     76  C   UNL     1       7.311  16.507  -1.226  1.00  0.00     0.009 A 
ATOM     77  C   UNL     1       4.931  17.811  -1.868  1.00  0.00     0.001 A 
ATOM     78  C   UNL     1       7.315  17.878  -1.484  1.00  0.00     0.001 A 
ATOM     79  C   UNL     1       6.126  18.528  -1.814  1.00  0.00     0.000 A 
ENDBRANCH  61  74
ENDBRANCH  35  36
ENDBRANCH  27  30
ENDBRANCH  25  26
ENDBRANCH  24  25
ENDBRANCH  23  24
ENDBRANCH  22  23
ENDBRANCH   1  22
TORSDOF 18
