REMARK SMILES Cc1c(Cl)cccc1NC(=O)C[C@](C)(C(=O)NCCCCCCNC(=O)c1ccc(-c2c3nc(c(-c4ccccc4)c4ccc([nH]4)c(-c4ccccc4)c4nc(c(-c5ccccc5)c5ccc2[nH]5)C=C4)C=C3)cc1)c1ccccc1
REMARK SMILES IDX 20 1 19 2 18 3 17 4 15 5 16 6 13 8 14 9 12 10 10 11 9 12
REMARK SMILES IDX 11 14 8 15 1 16 2 17 3 18 4 19 5 20 7 21 6 22 75 23 76 24
REMARK SMILES IDX 80 25 77 26 79 27 78 28 21 29 22 30 23 31 24 32 25 33 26 35
REMARK SMILES IDX 27 36 28 37 74 38 29 39 73 40 30 41 31 42 32 43 67 44 33 45
REMARK SMILES IDX 72 46 66 47 68 48 34 49 71 50 65 51 64 52 35 54 57 55 42 56
REMARK SMILES IDX 56 57 43 58 46 59 55 60 69 61 44 62 45 63 54 65 70 66 47 67
REMARK SMILES IDX 36 68 37 69 41 70 38 71 40 72 39 73 58 74 59 75 63 76 60 77
REMARK SMILES IDX 62 78 61 79 48 80 49 81 53 82 50 83 52 84 51 85
REMARK H PARENT 17 7 9 13 24 34 68 53 46 64
REMARK Flexibility Score: inf
ROOT
ATOM      1  C   UNL     1      -5.758  -3.543   3.508  1.00  0.00     0.002 C 
ENDROOT
BRANCH   1   2
ATOM      2  C   UNL     1      -5.202  -2.170   3.117  1.00  0.00     0.021 C 
BRANCH   2   3
ATOM      3  C   UNL     1      -4.522  -2.142   1.560  1.00  0.00     0.116 C 
BRANCH   3   4
ATOM      4  N   UNL     1      -5.224  -1.391  -0.260  1.00  0.00    -0.355 N 
ATOM      5  C   UNL     1      -5.188  -0.528  -1.391  1.00  0.00     0.230 C 
ATOM      6  O   UNL     1      -6.142  -0.825  -2.136  1.00  0.00    -0.274 OA
ATOM      7  H   UNL     1      -6.026  -1.938  -0.428  1.00  0.00     0.163 HD
BRANCH   5   8
ATOM      8  C   UNL     1      -4.223   0.711  -1.773  1.00  0.00     0.080 C 
ATOM      9  C   UNL     1      -4.550   1.890  -0.780  1.00  0.00     0.027 C 
BRANCH   8  10
ATOM     10  C   UNL     1      -2.685   0.403  -1.839  1.00  0.00     0.121 C 
BRANCH  10  11
ATOM     11  C   UNL     1      -2.208  -1.008  -2.123  1.00  0.00     0.225 C 
ATOM     12  N   UNL     1      -2.330  -1.988  -1.183  1.00  0.00    -0.326 N 
ATOM     13  H   UNL     1      -1.706  -2.749  -1.214  1.00  0.00     0.169 HD
ATOM     14  O   UNL     1      -1.653  -1.292  -3.186  1.00  0.00    -0.275 OA
BRANCH  12  15
ATOM     15  C   UNL     1      -3.296  -1.963  -0.180  1.00  0.00     0.045 A 
ATOM     16  C   UNL     1      -4.021  -4.700  -0.701  1.00  0.00     0.048 C 
ATOM     17  C   UNL     1      -4.485  -3.330  -0.289  1.00  0.00    -0.009 A 
ATOM     18  C   UNL     1      -6.104  -3.154   0.472  1.00  0.00     0.046 A 
ATOM     19  Cl  UNL     1      -7.257  -4.430   0.368  1.00  0.00    -0.084 Cl
ATOM     20  C   UNL     1      -6.599  -1.594   1.229  1.00  0.00     0.021 A 
ATOM     21  C   UNL     1      -3.729  -0.413   0.694  1.00  0.00     0.026 A 
ATOM     22  C   UNL     1      -5.402  -0.237   1.392  1.00  0.00     0.004 A 
ENDBRANCH  12  15
ENDBRANCH  10  11
ENDBRANCH   8  10
BRANCH   8  23
ATOM     23  C   UNL     1      -4.527   1.401  -3.165  1.00  0.00    -0.032 A 
ATOM     24  C   UNL     1      -4.051   2.727  -3.374  1.00  0.00     0.005 A 
ATOM     25  C   UNL     1      -5.258   0.828  -4.207  1.00  0.00     0.005 A 
ATOM     26  C   UNL     1      -4.417   3.485  -4.482  1.00  0.00     0.000 A 
ATOM     27  C   UNL     1      -5.618   1.587  -5.330  1.00  0.00     0.000 A 
ATOM     28  C   UNL     1      -5.223   2.918  -5.454  1.00  0.00     0.000 A 
ENDBRANCH   8  23
ENDBRANCH   5   8
ENDBRANCH   3   4
ENDBRANCH   2   3
ENDBRANCH   1   2
BRANCH   1  29
ATOM     29  C   UNL     1      -4.754  -4.696   3.323  1.00  0.00     0.002 C 
BRANCH  29  30
ATOM     30  C   UNL     1      -3.487  -4.501   4.154  1.00  0.00     0.021 C 
BRANCH  30  31
ATOM     31  C   UNL     1      -3.833  -4.268   5.613  1.00  0.00     0.116 C 
BRANCH  31  32
ATOM     32  N   UNL     1      -4.878  -5.201   6.046  1.00  0.00    -0.352 N 
ATOM     33  C   UNL     1      -4.966  -5.888   7.215  1.00  0.00     0.251 C 
ATOM     34  H   UNL     1      -5.612  -5.349   5.406  1.00  0.00     0.163 HD
ATOM     35  O   UNL     1      -5.738  -6.819   7.380  1.00  0.00    -0.269 OA
BRANCH  33  36
ATOM     36  C   UNL     1      -4.081  -5.411   8.264  1.00  0.00     0.039 A 
ATOM     37  C   UNL     1      -3.123  -6.271   8.781  1.00  0.00     0.014 A 
ATOM     38  C   UNL     1      -4.102  -4.037   8.535  1.00  0.00     0.014 A 
ATOM     39  C   UNL     1      -2.158  -5.732   9.612  1.00  0.00     0.010 A 
ATOM     40  C   UNL     1      -3.055  -3.489   9.235  1.00  0.00     0.010 A 
ATOM     41  C   UNL     1      -2.118  -4.342   9.828  1.00  0.00    -0.014 A 
BRANCH  41  42
ATOM     42  C   UNL     1      -1.152  -3.766  10.771  1.00  0.00     0.031 A 
ATOM     43  C   UNL     1      -1.672  -3.088  12.004  1.00  0.00     0.074 A 
ATOM     44  C   UNL     1       0.161  -3.862  10.506  1.00  0.00     0.049 A 
ATOM     45  N   UNL     1      -1.002  -2.544  12.984  1.00  0.00    -0.248 NA
ATOM     46  C   UNL     1      -3.137  -2.970  12.143  1.00  0.00     0.031 C 
ATOM     47  C   UNL     1       0.745  -4.468   9.306  1.00  0.00     0.029 A 
ATOM     48  N   UNL     1       1.240  -3.473  11.246  1.00  0.00    -0.354 N 
ATOM     49  C   UNL     1      -1.962  -2.017  13.837  1.00  0.00     0.074 A 
ATOM     50  C   UNL     1      -3.250  -2.214  13.220  1.00  0.00     0.031 C 
ATOM     51  C   UNL     1       2.082  -4.473   9.427  1.00  0.00     0.029 A 
ATOM     52  C   UNL     1       2.441  -3.826  10.684  1.00  0.00     0.049 A 
ATOM     53  H   UNL     1       1.165  -2.988  12.099  1.00  0.00     0.167 HD
ATOM     54  C   UNL     1      -1.786  -1.456  15.052  1.00  0.00     0.031 A 
ATOM     55  C   UNL     1       3.689  -3.650  11.149  1.00  0.00     0.031 A 
ATOM     56  C   UNL     1      -0.495  -1.278  15.652  1.00  0.00     0.049 A 
ATOM     57  C   UNL     1       3.860  -2.992  12.490  1.00  0.00     0.074 A 
ATOM     58  C   UNL     1      -0.185  -0.756  16.892  1.00  0.00     0.029 A 
ATOM     59  N   UNL     1       0.703  -1.619  15.041  1.00  0.00    -0.354 N 
ATOM     60  N   UNL     1       2.944  -2.557  13.323  1.00  0.00    -0.248 NA
ATOM     61  C   UNL     1       5.238  -2.817  12.960  1.00  0.00     0.031 C 
ATOM     62  C   UNL     1       1.207  -0.713  17.002  1.00  0.00     0.029 A 
ATOM     63  C   UNL     1       1.761  -1.289  15.867  1.00  0.00     0.049 A 
ATOM     64  H   UNL     1       0.788  -2.035  14.152  1.00  0.00     0.167 HD
ATOM     65  C   UNL     1       3.633  -2.086  14.432  1.00  0.00     0.074 A 
ATOM     66  C   UNL     1       5.041  -2.311  14.169  1.00  0.00     0.031 C 
ATOM     67  C   UNL     1       3.152  -1.522  15.568  1.00  0.00     0.031 A 
BRANCH  54  68
ATOM     68  C   UNL     1      -3.016  -0.990  15.780  1.00  0.00    -0.014 A 
ATOM     69  C   UNL     1      -3.994  -1.896  16.227  1.00  0.00     0.009 A 
ATOM     70  C   UNL     1      -3.207   0.380  16.013  1.00  0.00     0.009 A 
ATOM     71  C   UNL     1      -5.156  -1.435  16.849  1.00  0.00     0.001 A 
ATOM     72  C   UNL     1      -4.351   0.834  16.670  1.00  0.00     0.001 A 
ATOM     73  C   UNL     1      -5.330  -0.071  17.076  1.00  0.00     0.000 A 
ENDBRANCH  54  68
BRANCH  55  74
ATOM     74  C   UNL     1       4.854  -4.121  10.358  1.00  0.00    -0.014 A 
ATOM     75  C   UNL     1       5.656  -5.175  10.820  1.00  0.00     0.009 A 
ATOM     76  C   UNL     1       5.171  -3.517   9.131  1.00  0.00     0.009 A 
ATOM     77  C   UNL     1       6.772  -5.589  10.090  1.00  0.00     0.001 A 
ATOM     78  C   UNL     1       6.266  -3.956   8.385  1.00  0.00     0.001 A 
ATOM     79  C   UNL     1       7.074  -4.982   8.871  1.00  0.00     0.000 A 
ENDBRANCH  55  74
BRANCH  67  80
ATOM     80  C   UNL     1       4.156  -1.154  16.624  1.00  0.00    -0.014 A 
ATOM     81  C   UNL     1       5.072  -0.108  16.436  1.00  0.00     0.009 A 
ATOM     82  C   UNL     1       4.155  -1.849  17.844  1.00  0.00     0.009 A 
ATOM     83  C   UNL     1       6.001   0.200  17.431  1.00  0.00     0.001 A 
ATOM     84  C   UNL     1       5.055  -1.509  18.853  1.00  0.00     0.001 A 
ATOM     85  C   UNL     1       5.987  -0.496  18.640  1.00  0.00     0.000 A 
ENDBRANCH  67  80
ENDBRANCH  41  42
ENDBRANCH  33  36
ENDBRANCH  31  32
ENDBRANCH  30  31
ENDBRANCH  29  30
ENDBRANCH   1  29
TORSDOF 17
