REMARK SMILES Cn1nc(N2CCC(CC(=O)NCCCCCCNC(=O)c3ccc(-c4c5nc(c(-c6ccccc6)c6ccc([nH]6)c(-c6ccccc6)c6nc(c(-c7ccccc7)c7ccc4[nH]7)C=C6)C=C5)cc3)CC2)c(=O)n(C)c1=O
REMARK SMILES IDX 15 1 14 2 13 3 12 4 10 5 11 6 9 8 8 9 5 10 6 11 71 12 7 13
REMARK SMILES IDX 70 14 4 15 1 16 2 17 3 18 76 19 74 20 77 21 72 22 75 23
REMARK SMILES IDX 73 24 16 25 17 26 18 27 19 28 20 29 21 31 22 32 23 33 69 34
REMARK SMILES IDX 24 35 68 36 25 37 26 38 27 39 62 40 28 41 67 42 61 43 63 44
REMARK SMILES IDX 29 45 66 46 60 47 59 48 30 50 52 51 37 52 51 53 38 54 41 55
REMARK SMILES IDX 50 56 64 57 39 58 40 59 49 61 65 62 42 63 31 64 32 65 36 66
REMARK SMILES IDX 33 67 35 68 34 69 53 70 54 71 58 72 55 73 57 74 56 75 43 76
REMARK SMILES IDX 44 77 48 78 45 79 47 80 46 81
REMARK H PARENT 12 7 19 30 63 49 41 60
REMARK Flexibility Score: inf
ROOT
ATOM      1  C   UNL     1       8.013  -5.005   1.172  1.00  0.00     0.002 C 
ENDROOT
BRANCH   1   2
ATOM      2  C   UNL     1       6.687  -4.982   0.417  1.00  0.00     0.021 C 
BRANCH   2   3
ATOM      3  C   UNL     1       6.803  -4.671  -1.082  1.00  0.00     0.116 C 
BRANCH   3   4
ATOM      4  N   UNL     1       6.897  -5.900  -1.851  1.00  0.00    -0.356 N 
ATOM      5  C   UNL     1       5.992  -6.527  -2.654  1.00  0.00     0.220 C 
ATOM      6  O   UNL     1       6.289  -7.639  -3.097  1.00  0.00    -0.275 OA
ATOM      7  H   UNL     1       7.764  -6.359  -1.780  1.00  0.00     0.163 HD
BRANCH   5   8
ATOM      8  C   UNL     1       4.663  -5.881  -3.019  1.00  0.00     0.103 C 
BRANCH   8   9
ATOM      9  C   UNL     1       3.487  -6.236  -2.082  1.00  0.00     0.002 C 
ATOM     10  N   UNL     1       1.334  -5.088  -0.555  1.00  0.00    -0.351 N 
ATOM     11  C   UNL     1       2.463  -5.577   0.195  1.00  0.00     0.118 C 
ATOM     12  C   UNL     1       0.976  -5.871  -1.723  1.00  0.00     0.118 C 
ATOM     13  C   UNL     1       3.676  -5.578  -0.711  1.00  0.00     0.025 C 
ATOM     14  C   UNL     1       2.143  -5.815  -2.716  1.00  0.00     0.025 C 
BRANCH  10  15
ATOM     15  C   UNL     1       0.629  -3.970  -0.155  1.00  0.00     0.215 A 
ATOM     16  C   UNL     1       1.048  -0.407   0.052  1.00  0.00     0.180 C 
ATOM     17  N   UNL     1       0.415  -1.708   0.200  1.00  0.00    -0.216 N 
ATOM     18  N   UNL     1       1.171  -2.787  -0.179  1.00  0.00    -0.145 NA
ATOM     19  C   UNL     1      -0.913  -1.764   0.618  1.00  0.00     0.346 A 
ATOM     20  N   UNL     1      -1.472  -3.022   0.706  1.00  0.00    -0.259 N 
ATOM     21  O   UNL     1      -1.550  -0.744   0.890  1.00  0.00    -0.246 OA
ATOM     22  C   UNL     1      -0.796  -4.167   0.355  1.00  0.00     0.299 A 
ATOM     23  C   UNL     1      -2.823  -3.182   1.197  1.00  0.00     0.159 C 
ATOM     24  O   UNL     1      -1.243  -5.307   0.448  1.00  0.00    -0.265 OA
ENDBRANCH  10  15
ENDBRANCH   8   9
ENDBRANCH   5   8
ENDBRANCH   3   4
ENDBRANCH   2   3
ENDBRANCH   1   2
BRANCH   1  25
ATOM     25  C   UNL     1       8.683  -3.640   1.326  1.00  0.00     0.002 C 
BRANCH  25  26
ATOM     26  C   UNL     1       7.816  -2.561   1.979  1.00  0.00     0.021 C 
BRANCH  26  27
ATOM     27  C   UNL     1       7.232  -2.946   3.336  1.00  0.00     0.116 C 
BRANCH  27  28
ATOM     28  N   UNL     1       8.273  -3.238   4.310  1.00  0.00    -0.352 N 
ATOM     29  C   UNL     1       8.615  -2.546   5.446  1.00  0.00     0.251 C 
ATOM     30  H   UNL     1       8.808  -4.045   4.129  1.00  0.00     0.163 HD
ATOM     31  O   UNL     1       9.667  -2.776   6.027  1.00  0.00    -0.269 OA
BRANCH  29  32
ATOM     32  C   UNL     1       7.699  -1.506   5.954  1.00  0.00     0.039 A 
ATOM     33  C   UNL     1       8.210  -0.251   6.285  1.00  0.00     0.014 A 
ATOM     34  C   UNL     1       6.333  -1.776   6.087  1.00  0.00     0.014 A 
ATOM     35  C   UNL     1       7.337   0.758   6.690  1.00  0.00     0.010 A 
ATOM     36  C   UNL     1       5.457  -0.749   6.418  1.00  0.00     0.010 A 
ATOM     37  C   UNL     1       5.950   0.528   6.726  1.00  0.00    -0.014 A 
BRANCH  37  38
ATOM     38  C   UNL     1       5.006   1.612   7.091  1.00  0.00     0.031 A 
ATOM     39  C   UNL     1       4.186   1.505   8.346  1.00  0.00     0.074 A 
ATOM     40  C   UNL     1       4.873   2.680   6.279  1.00  0.00     0.049 A 
ATOM     41  N   UNL     1       3.302   2.344   8.824  1.00  0.00    -0.248 NA
ATOM     42  C   UNL     1       4.369   0.296   9.168  1.00  0.00     0.031 C 
ATOM     43  C   UNL     1       5.599   2.887   5.023  1.00  0.00     0.029 A 
ATOM     44  N   UNL     1       4.088   3.800   6.394  1.00  0.00    -0.354 N 
ATOM     45  C   UNL     1       2.833   1.770   9.998  1.00  0.00     0.074 A 
ATOM     46  C   UNL     1       3.479   0.484  10.132  1.00  0.00     0.031 C 
ATOM     47  C   UNL     1       5.261   4.082   4.511  1.00  0.00     0.029 A 
ATOM     48  C   UNL     1       4.263   4.705   5.373  1.00  0.00     0.049 A 
ATOM     49  H   UNL     1       3.459   3.943   7.137  1.00  0.00     0.167 HD
ATOM     50  C   UNL     1       1.967   2.283  10.901  1.00  0.00     0.031 A 
ATOM     51  C   UNL     1       3.686   5.904   5.160  1.00  0.00     0.031 A 
ATOM     52  C   UNL     1       1.333   3.566  10.774  1.00  0.00     0.049 A 
ATOM     53  C   UNL     1       2.680   6.418   6.154  1.00  0.00     0.074 A 
ATOM     54  C   UNL     1       0.456   4.179  11.651  1.00  0.00     0.029 A 
ATOM     55  N   UNL     1       1.512   4.433   9.709  1.00  0.00    -0.354 N 
ATOM     56  N   UNL     1       2.288   5.883   7.285  1.00  0.00    -0.248 NA
ATOM     57  C   UNL     1       2.043   7.707   5.847  1.00  0.00     0.031 C 
ATOM     58  C   UNL     1       0.065   5.398  11.093  1.00  0.00     0.029 A 
ATOM     59  C   UNL     1       0.748   5.570   9.899  1.00  0.00     0.049 A 
ATOM     60  H   UNL     1       2.096   4.266   8.934  1.00  0.00     0.167 HD
ATOM     61  C   UNL     1       1.389   6.785   7.839  1.00  0.00     0.074 A 
ATOM     62  C   UNL     1       1.304   7.908   6.930  1.00  0.00     0.031 C 
ATOM     63  C   UNL     1       0.694   6.689   8.997  1.00  0.00     0.031 A 
BRANCH  50  64
ATOM     64  C   UNL     1       1.670   1.476  12.133  1.00  0.00    -0.014 A 
ATOM     65  C   UNL     1       2.627   1.350  13.152  1.00  0.00     0.009 A 
ATOM     66  C   UNL     1       0.390   0.936  12.330  1.00  0.00     0.009 A 
ATOM     67  C   UNL     1       2.309   0.693  14.342  1.00  0.00     0.001 A 
ATOM     68  C   UNL     1       0.067   0.303  13.531  1.00  0.00     0.001 A 
ATOM     69  C   UNL     1       1.026   0.182  14.536  1.00  0.00     0.000 A 
ENDBRANCH  50  64
BRANCH  51  70
ATOM     70  C   UNL     1       4.054   6.719   3.971  1.00  0.00    -0.014 A 
ATOM     71  C   UNL     1       4.726   7.942   4.129  1.00  0.00     0.009 A 
ATOM     72  C   UNL     1       3.712   6.300   2.676  1.00  0.00     0.009 A 
ATOM     73  C   UNL     1       5.015   8.743   3.021  1.00  0.00     0.001 A 
ATOM     74  C   UNL     1       4.032   7.086   1.566  1.00  0.00     0.001 A 
ATOM     75  C   UNL     1       4.671   8.312   1.740  1.00  0.00     0.000 A 
ENDBRANCH  51  70
BRANCH  63  76
ATOM     76  C   UNL     1      -0.189   7.842   9.383  1.00  0.00    -0.014 A 
ATOM     77  C   UNL     1      -1.398   8.087   8.716  1.00  0.00     0.009 A 
ATOM     78  C   UNL     1       0.151   8.632  10.493  1.00  0.00     0.009 A 
ATOM     79  C   UNL     1      -2.241   9.115   9.142  1.00  0.00     0.001 A 
ATOM     80  C   UNL     1      -0.709   9.637  10.937  1.00  0.00     0.001 A 
ATOM     81  C   UNL     1      -1.901   9.881  10.258  1.00  0.00     0.000 A 
ENDBRANCH  63  76
ENDBRANCH  37  38
ENDBRANCH  29  32
ENDBRANCH  27  28
ENDBRANCH  26  27
ENDBRANCH  25  26
ENDBRANCH   1  25
TORSDOF 15
