REMARK SMILES CC[C@H](NC(=O)N1CCO[C@@H](CC(=O)NCCCCCCNC(=O)c2ccc(-c3c4nc(c(-c5ccccc5)c5ccc([nH]5)c(-c5ccccc5)c5nc(c(-c6ccccc6)c6ccc3[nH]6)C=C5)C=C4)cc2)C1)c1cccs1
REMARK SMILES IDX 17 1 16 2 15 3 13 4 14 5 12 7 11 8 7 9 8 10 73 11 9 12 10 13
REMARK SMILES IDX 5 14 4 15 6 17 3 18 2 19 1 20 74 21 75 22 78 23 76 24 77 25
REMARK SMILES IDX 18 26 19 27 20 28 21 29 22 30 23 31 24 33 25 34 26 35 72 36
REMARK SMILES IDX 27 37 71 38 28 39 29 40 30 41 65 42 31 43 70 44 64 45 66 46
REMARK SMILES IDX 32 47 69 48 63 49 62 50 33 52 55 53 40 54 54 55 41 56 44 57
REMARK SMILES IDX 53 58 67 59 42 60 43 61 52 63 68 64 45 65 34 66 35 67 39 68
REMARK SMILES IDX 36 69 38 70 37 71 56 72 57 73 61 74 58 75 60 76 59 77 46 78
REMARK SMILES IDX 47 79 51 80 48 81 50 82 49 83
REMARK H PARENT 15 6 4 16 22 32 66 51 44 62
REMARK Flexibility Score: inf
ROOT
ATOM      1  C   UNL     1       2.328   1.701   5.138  1.00  0.00     0.021 C 
ENDROOT
BRANCH   1   2
ATOM      2  C   UNL     1       3.288   2.815   5.572  1.00  0.00     0.116 C 
BRANCH   2   3
ATOM      3  N   UNL     1       4.618   2.572   5.032  1.00  0.00    -0.356 N 
ATOM      4  C   UNL     1       5.282   3.178   4.007  1.00  0.00     0.222 C 
ATOM      5  O   UNL     1       6.329   2.672   3.602  1.00  0.00    -0.275 OA
ATOM      6  H   UNL     1       5.119   1.853   5.480  1.00  0.00     0.163 HD
BRANCH   4   7
ATOM      7  C   UNL     1       4.748   4.447   3.392  1.00  0.00     0.133 C 
BRANCH   7   8
ATOM      8  C   UNL     1       4.002   4.249   2.070  1.00  0.00     0.147 C 
ATOM      9  N   UNL     1       1.796   3.348   1.221  1.00  0.00    -0.320 N 
ATOM     10  C   UNL     1       1.389   4.737   1.065  1.00  0.00     0.150 C 
ATOM     11  C   UNL     1       2.852   3.225   2.213  1.00  0.00     0.154 C 
ATOM     12  C   UNL     1       2.589   5.565   0.644  1.00  0.00     0.182 C 
ATOM     13  O   UNL     1       3.539   5.576   1.716  1.00  0.00    -0.374 OA
BRANCH   9  14
ATOM     14  C   UNL     1       0.878   2.331   1.132  1.00  0.00     0.318 C 
ATOM     15  N   UNL     1       0.202   2.148  -0.031  1.00  0.00    -0.330 N 
ATOM     16  H   UNL     1      -0.647   1.657   0.048  1.00  0.00     0.166 HD
ATOM     17  O   UNL     1       0.664   1.550   2.059  1.00  0.00    -0.249 OA
BRANCH  15  18
ATOM     18  C   UNL     1       0.553   2.576  -1.384  1.00  0.00     0.124 C 
BRANCH  18  19
ATOM     19  C   UNL     1       0.149   1.532  -2.444  1.00  0.00     0.027 C 
ATOM     20  C   UNL     1       0.644   0.121  -2.155  1.00  0.00     0.006 C 
ENDBRANCH  18  19
BRANCH  18  21
ATOM     21  C   UNL     1      -0.143   3.885  -1.675  1.00  0.00     0.027 A 
ATOM     22  C   UNL     1      -1.391   4.320  -1.256  1.00  0.00     0.017 A 
ATOM     23  S   UNL     1       0.665   5.106  -2.577  1.00  0.00    -0.147 S 
ATOM     24  C   UNL     1      -1.593   5.706  -1.514  1.00  0.00     0.012 A 
ATOM     25  C   UNL     1      -0.537   6.262  -2.200  1.00  0.00     0.065 A 
ENDBRANCH  18  21
ENDBRANCH  15  18
ENDBRANCH   9  14
ENDBRANCH   7   8
ENDBRANCH   4   7
ENDBRANCH   2   3
ENDBRANCH   1   2
BRANCH   1  26
ATOM     26  C   UNL     1       2.280   0.511   6.093  1.00  0.00     0.002 C 
BRANCH  26  27
ATOM     27  C   UNL     1       1.545   0.784   7.407  1.00  0.00     0.002 C 
BRANCH  27  28
ATOM     28  C   UNL     1       0.104   1.285   7.261  1.00  0.00     0.021 C 
BRANCH  28  29
ATOM     29  C   UNL     1      -0.794   0.418   6.381  1.00  0.00     0.116 C 
BRANCH  29  30
ATOM     30  N   UNL     1      -0.929  -0.931   6.910  1.00  0.00    -0.352 N 
ATOM     31  C   UNL     1      -2.030  -1.559   7.435  1.00  0.00     0.251 C 
ATOM     32  H   UNL     1      -0.108  -1.473   6.889  1.00  0.00     0.163 HD
ATOM     33  O   UNL     1      -1.909  -2.612   8.051  1.00  0.00    -0.269 OA
BRANCH  31  34
ATOM     34  C   UNL     1      -3.370  -0.961   7.263  1.00  0.00     0.039 A 
ATOM     35  C   UNL     1      -4.232  -0.902   8.360  1.00  0.00     0.014 A 
ATOM     36  C   UNL     1      -3.784  -0.488   6.014  1.00  0.00     0.014 A 
ATOM     37  C   UNL     1      -5.493  -0.317   8.218  1.00  0.00     0.010 A 
ATOM     38  C   UNL     1      -5.013   0.153   5.890  1.00  0.00     0.010 A 
ATOM     39  C   UNL     1      -5.881   0.239   6.989  1.00  0.00    -0.014 A 
BRANCH  39  40
ATOM     40  C   UNL     1      -7.196   0.907   6.827  1.00  0.00     0.031 A 
ATOM     41  C   UNL     1      -8.233   0.321   5.909  1.00  0.00     0.074 A 
ATOM     42  C   UNL     1      -7.434   2.074   7.456  1.00  0.00     0.049 A 
ATOM     43  N   UNL     1      -9.410   0.793   5.584  1.00  0.00    -0.248 NA
ATOM     44  C   UNL     1      -7.891  -0.950   5.251  1.00  0.00     0.031 C 
ATOM     45  C   UNL     1      -6.501   2.762   8.351  1.00  0.00     0.029 A 
ATOM     46  N   UNL     1      -8.536   2.892   7.432  1.00  0.00    -0.354 N 
ATOM     47  C   UNL     1      -9.940  -0.113   4.674  1.00  0.00     0.074 A 
ATOM     48  C   UNL     1      -8.939  -1.136   4.462  1.00  0.00     0.031 C 
ATOM     49  C   UNL     1      -7.080   3.883   8.811  1.00  0.00     0.029 A 
ATOM     50  C   UNL     1      -8.405   4.014   8.214  1.00  0.00     0.049 A 
ATOM     51  H   UNL     1      -9.344   2.693   6.905  1.00  0.00     0.167 HD
ATOM     52  C   UNL     1     -11.158  -0.106   4.082  1.00  0.00     0.031 A 
ATOM     53  C   UNL     1      -9.256   5.036   8.421  1.00  0.00     0.031 A 
ATOM     54  C   UNL     1     -12.158   0.905   4.298  1.00  0.00     0.049 A 
ATOM     55  C   UNL     1     -10.592   5.034   7.733  1.00  0.00     0.074 A 
ATOM     56  C   UNL     1     -13.441   0.975   3.783  1.00  0.00     0.029 A 
ATOM     57  N   UNL     1     -11.985   2.025   5.096  1.00  0.00    -0.354 N 
ATOM     58  N   UNL     1     -11.101   4.141   6.919  1.00  0.00    -0.248 NA
ATOM     59  C   UNL     1     -11.475   6.178   8.001  1.00  0.00     0.031 C 
ATOM     60  C   UNL     1     -14.028   2.162   4.232  1.00  0.00     0.029 A 
ATOM     61  C   UNL     1     -13.130   2.804   5.070  1.00  0.00     0.049 A 
ATOM     62  H   UNL     1     -11.170   2.235   5.607  1.00  0.00     0.167 HD
ATOM     63  C   UNL     1     -12.372   4.599   6.602  1.00  0.00     0.074 A 
ATOM     64  C   UNL     1     -12.562   5.843   7.320  1.00  0.00     0.031 C 
ATOM     65  C   UNL     1     -13.302   4.038   5.791  1.00  0.00     0.031 A 
BRANCH  52  66
ATOM     66  C   UNL     1     -11.469  -1.230   3.132  1.00  0.00    -0.014 A 
ATOM     67  C   UNL     1     -11.672  -2.540   3.596  1.00  0.00     0.009 A 
ATOM     68  C   UNL     1     -11.585  -0.972   1.757  1.00  0.00     0.009 A 
ATOM     69  C   UNL     1     -11.943  -3.575   2.699  1.00  0.00     0.001 A 
ATOM     70  C   UNL     1     -11.885  -2.004   0.865  1.00  0.00     0.001 A 
ATOM     71  C   UNL     1     -12.053  -3.305   1.335  1.00  0.00     0.000 A 
ENDBRANCH  52  66
BRANCH  53  72
ATOM     72  C   UNL     1      -8.879   6.143   9.339  1.00  0.00    -0.014 A 
ATOM     73  C   UNL     1      -9.510   6.274  10.586  1.00  0.00     0.009 A 
ATOM     74  C   UNL     1      -7.894   7.073   8.975  1.00  0.00     0.009 A 
ATOM     75  C   UNL     1      -9.181   7.330  11.438  1.00  0.00     0.001 A 
ATOM     76  C   UNL     1      -7.547   8.112   9.841  1.00  0.00     0.001 A 
ATOM     77  C   UNL     1      -8.197   8.245  11.068  1.00  0.00     0.000 A 
ENDBRANCH  53  72
BRANCH  65  78
ATOM     78  C   UNL     1     -14.621   4.746   5.667  1.00  0.00    -0.014 A 
ATOM     79  C   UNL     1     -14.744   5.937   4.934  1.00  0.00     0.009 A 
ATOM     80  C   UNL     1     -15.765   4.189   6.259  1.00  0.00     0.009 A 
ATOM     81  C   UNL     1     -15.982   6.572   4.825  1.00  0.00     0.001 A 
ATOM     82  C   UNL     1     -17.006   4.811   6.124  1.00  0.00     0.001 A 
ATOM     83  C   UNL     1     -17.113   6.006   5.415  1.00  0.00     0.000 A 
ENDBRANCH  65  78
ENDBRANCH  39  40
ENDBRANCH  31  34
ENDBRANCH  29  30
ENDBRANCH  28  29
ENDBRANCH  27  28
ENDBRANCH  26  27
ENDBRANCH   1  26
TORSDOF 18
