REMARK SMILES O=C(NCCCCCCNC(=O)[C@@H]1c2[nH]cnc2CCN1C(=O)CCCc1c[nH]c2ccccc12)c1ccc(-c2c3nc(c(-c4ccccc4)c4ccc([nH]4)c(-c4ccccc4)c4nc(c(-c5ccccc5)c5ccc2[nH]5)C=C4)C=C3)cc1
REMARK SMILES IDX 8 1 7 2 6 3 5 4 4 5 3 6 1 7 2 8 36 10 37 11 83 12 38 13
REMARK SMILES IDX 82 14 39 15 40 16 41 17 76 18 42 19 81 20 75 21 77 22 43 23
REMARK SMILES IDX 80 24 74 25 73 26 44 28 66 29 51 30 65 31 52 32 55 33 64 34
REMARK SMILES IDX 78 35 53 36 54 37 63 39 79 40 56 41 45 42 46 43 50 44 47 45
REMARK SMILES IDX 49 46 48 47 67 48 68 49 72 50 69 51 71 52 70 53 57 54 58 55
REMARK SMILES IDX 62 56 59 57 61 58 60 59 9 60 10 61 11 62 12 64 13 65 14 66
REMARK SMILES IDX 21 67 15 68 18 69 20 70 16 71 17 73 19 74 22 75 23 76 24 77
REMARK SMILES IDX 25 78 26 79 27 80 28 81 35 82 29 83 30 84 34 85 31 87 33 88
REMARK SMILES IDX 32 89
REMARK H PARENT 3 9 77 27 55 38 10 63 15 72 29 86
REMARK Flexibility Score: inf
ROOT
ATOM      1  C   UNL     1       6.148   2.549   6.270  1.00  0.00     0.021 C 
ENDROOT
BRANCH   1   2
ATOM      2  C   UNL     1       5.808   3.481   5.104  1.00  0.00     0.002 C 
BRANCH   2   3
ATOM      3  C   UNL     1       4.745   2.935   4.142  1.00  0.00     0.002 C 
BRANCH   3   4
ATOM      4  C   UNL     1       3.413   2.538   4.795  1.00  0.00     0.021 C 
BRANCH   4   5
ATOM      5  C   UNL     1       2.722   3.678   5.540  1.00  0.00     0.116 C 
BRANCH   5   6
ATOM      6  N   UNL     1       2.443   4.825   4.701  1.00  0.00    -0.352 N 
ATOM      7  O   UNL     1       1.552   6.288   3.312  1.00  0.00    -0.269 OA
ATOM      8  C   UNL     1       1.472   5.150   3.801  1.00  0.00     0.251 C 
ATOM      9  H   UNL     1       3.113   5.539   4.806  1.00  0.00     0.163 HD
BRANCH   8  10
ATOM     10  C   UNL     1       0.379   4.255   3.332  1.00  0.00     0.039 A 
ATOM     11  C   UNL     1       0.020   3.030   3.893  1.00  0.00     0.014 A 
ATOM     12  C   UNL     1      -0.351   4.713   2.215  1.00  0.00     0.014 A 
ATOM     13  C   UNL     1      -1.000   2.264   3.324  1.00  0.00     0.010 A 
ATOM     14  C   UNL     1      -1.373   3.957   1.645  1.00  0.00     0.010 A 
ATOM     15  C   UNL     1      -1.687   2.719   2.191  1.00  0.00    -0.014 A 
BRANCH  15  16
ATOM     16  C   UNL     1      -2.854   1.962   1.741  1.00  0.00     0.031 A 
ATOM     17  C   UNL     1      -3.974   1.931   2.722  1.00  0.00     0.074 A 
ATOM     18  C   UNL     1      -3.029   1.416   0.520  1.00  0.00     0.049 A 
ATOM     19  N   UNL     1      -4.402   0.912   3.391  1.00  0.00    -0.248 NA
ATOM     20  C   UNL     1      -4.626   3.200   3.074  1.00  0.00     0.031 C 
ATOM     21  C   UNL     1      -2.205   1.578  -0.677  1.00  0.00     0.029 A 
ATOM     22  N   UNL     1      -4.068   0.645   0.076  1.00  0.00    -0.354 N 
ATOM     23  C   UNL     1      -5.492   1.364   4.130  1.00  0.00     0.074 A 
ATOM     24  C   UNL     1      -5.504   2.800   3.997  1.00  0.00     0.031 C 
ATOM     25  C   UNL     1      -2.881   1.107  -1.753  1.00  0.00     0.029 A 
ATOM     26  C   UNL     1      -4.116   0.484  -1.303  1.00  0.00     0.049 A 
ATOM     27  H   UNL     1      -4.727   0.238   0.684  1.00  0.00     0.167 HD
ATOM     28  C   UNL     1      -6.424   0.504   4.626  1.00  0.00     0.031 A 
ATOM     29  C   UNL     1      -5.115  -0.089  -2.022  1.00  0.00     0.031 A 
ATOM     30  C   UNL     1      -5.964  -0.860   4.603  1.00  0.00     0.049 A 
ATOM     31  C   UNL     1      -5.903  -0.944  -1.109  1.00  0.00     0.074 A 
ATOM     32  C   UNL     1      -4.904  -1.547   5.159  1.00  0.00     0.029 A 
ATOM     33  N   UNL     1      -6.455  -1.668   3.606  1.00  0.00    -0.354 N 
ATOM     34  N   UNL     1      -5.463  -2.060  -0.609  1.00  0.00    -0.248 NA
ATOM     35  C   UNL     1      -7.052  -0.366  -0.433  1.00  0.00     0.031 C 
ATOM     36  C   UNL     1      -4.512  -2.485   4.159  1.00  0.00     0.029 A 
ATOM     37  C   UNL     1      -5.394  -2.358   3.085  1.00  0.00     0.049 A 
ATOM     38  H   UNL     1      -7.394  -1.738   3.320  1.00  0.00     0.167 HD
ATOM     39  C   UNL     1      -5.958  -2.079   0.685  1.00  0.00     0.074 A 
ATOM     40  C   UNL     1      -7.021  -1.077   0.697  1.00  0.00     0.031 C 
ATOM     41  C   UNL     1      -5.272  -2.703   1.687  1.00  0.00     0.031 A 
BRANCH  28  42
ATOM     42  C   UNL     1      -7.892   0.834   4.744  1.00  0.00    -0.014 A 
ATOM     43  C   UNL     1      -8.757  -0.131   5.296  1.00  0.00     0.009 A 
ATOM     44  C   UNL     1      -8.495   1.909   4.066  1.00  0.00     0.009 A 
ATOM     45  C   UNL     1     -10.141  -0.069   5.097  1.00  0.00     0.001 A 
ATOM     46  C   UNL     1      -9.880   1.996   3.903  1.00  0.00     0.001 A 
ATOM     47  C   UNL     1     -10.701   0.989   4.391  1.00  0.00     0.000 A 
ENDBRANCH  28  42
BRANCH  29  48
ATOM     48  C   UNL     1      -5.591   0.194  -3.394  1.00  0.00    -0.014 A 
ATOM     49  C   UNL     1      -6.413  -0.722  -4.074  1.00  0.00     0.009 A 
ATOM     50  C   UNL     1      -5.490   1.495  -3.917  1.00  0.00     0.009 A 
ATOM     51  C   UNL     1      -7.146  -0.335  -5.204  1.00  0.00     0.001 A 
ATOM     52  C   UNL     1      -6.220   1.880  -5.047  1.00  0.00     0.001 A 
ATOM     53  C   UNL     1      -7.062   0.971  -5.680  1.00  0.00     0.000 A 
ENDBRANCH  29  48
BRANCH  41  54
ATOM     54  C   UNL     1      -4.134  -3.618   1.310  1.00  0.00    -0.014 A 
ATOM     55  C   UNL     1      -3.026  -3.208   0.548  1.00  0.00     0.009 A 
ATOM     56  C   UNL     1      -4.123  -4.912   1.853  1.00  0.00     0.009 A 
ATOM     57  C   UNL     1      -1.963  -4.083   0.301  1.00  0.00     0.001 A 
ATOM     58  C   UNL     1      -3.051  -5.776   1.629  1.00  0.00     0.001 A 
ATOM     59  C   UNL     1      -1.975  -5.366   0.845  1.00  0.00     0.000 A 
ENDBRANCH  41  54
ENDBRANCH  15  16
ENDBRANCH   8  10
ENDBRANCH   5   6
ENDBRANCH   4   5
ENDBRANCH   3   4
ENDBRANCH   2   3
ENDBRANCH   1   2
BRANCH   1  60
ATOM     60  C   UNL     1       6.678   1.192   5.810  1.00  0.00     0.116 C 
BRANCH  60  61
ATOM     61  N   UNL     1       8.042   1.318   5.313  1.00  0.00    -0.354 N 
ATOM     62  C   UNL     1       9.232   0.950   5.902  1.00  0.00     0.249 C 
ATOM     63  H   UNL     1       8.126   1.728   4.422  1.00  0.00     0.163 HD
ATOM     64  O   UNL     1      10.283   1.368   5.410  1.00  0.00    -0.272 OA
BRANCH  62  65
ATOM     65  C   UNL     1       9.164   0.082   7.176  1.00  0.00     0.223 C 
ATOM     66  C   UNL     1       9.758   0.799   8.356  1.00  0.00     0.071 A 
ATOM     67  N   UNL     1       9.639  -1.315   7.255  1.00  0.00    -0.325 N 
ATOM     68  N   UNL     1       9.939   2.137   8.563  1.00  0.00    -0.346 N 
ATOM     69  C   UNL     1      10.184   0.199   9.518  1.00  0.00     0.066 A 
ATOM     70  C   UNL     1       9.384  -1.914   8.567  1.00  0.00     0.127 C 
ATOM     71  C   UNL     1      10.404   2.278   9.847  1.00  0.00     0.197 A 
ATOM     72  H   UNL     1       9.769   2.860   7.917  1.00  0.00     0.167 HD
ATOM     73  N   UNL     1      10.560   1.118  10.449  1.00  0.00    -0.242 NA
ATOM     74  C   UNL     1      10.224  -1.269   9.685  1.00  0.00     0.080 C 
BRANCH  67  75
ATOM     75  C   UNL     1       9.953  -2.046   6.126  1.00  0.00     0.223 C 
ATOM     76  O   UNL     1       9.898  -1.551   4.999  1.00  0.00    -0.275 OA
BRANCH  75  77
ATOM     77  C   UNL     1      10.289  -3.541   6.253  1.00  0.00     0.100 C 
BRANCH  77  78
ATOM     78  C   UNL     1      11.578  -3.954   6.994  1.00  0.00     0.015 C 
BRANCH  78  79
ATOM     79  C   UNL     1      11.468  -4.512   8.442  1.00  0.00     0.038 C 
BRANCH  79  80
ATOM     80  C   UNL     1      10.381  -5.536   8.612  1.00  0.00    -0.023 A 
ATOM     81  C   UNL     1      10.377  -6.768   7.989  1.00  0.00     0.087 A 
ATOM     82  C   UNL     1       9.145  -5.458   9.355  1.00  0.00     0.003 A 
ATOM     83  N   UNL     1       9.129  -7.306   8.117  1.00  0.00    -0.361 N 
ATOM     84  C   UNL     1       8.329  -6.479   8.866  1.00  0.00     0.046 A 
ATOM     85  C   UNL     1       8.589  -4.594  10.328  1.00  0.00     0.010 A 
ATOM     86  H   UNL     1       8.844  -8.164   7.729  1.00  0.00     0.166 HD
ATOM     87  C   UNL     1       6.963  -6.574   9.159  1.00  0.00     0.026 A 
ATOM     88  C   UNL     1       7.241  -4.723  10.695  1.00  0.00     0.001 A 
ATOM     89  C   UNL     1       6.431  -5.675  10.085  1.00  0.00     0.002 A 
ENDBRANCH  79  80
ENDBRANCH  78  79
ENDBRANCH  77  78
ENDBRANCH  75  77
ENDBRANCH  67  75
ENDBRANCH  62  65
ENDBRANCH  60  61
ENDBRANCH   1  60
TORSDOF 18
