REMARK SMILES O=C(Cc1csc(NC(=O)CS[C@@H]2CCS(=O)(=O)C2)n1)NCCCCCCNC(=O)c1ccc(-c2c3nc(c(-c4ccccc4)c4ccc([nH]4)c(-c4ccccc4)c4nc(c(-c5ccccc5)c5ccc2[nH]5)C=C4)C=C3)cc1
REMARK SMILES IDX 23 1 22 2 21 3 1 4 2 5 3 7 4 8 5 9 20 10 6 11 7 12 8 13 9 14
REMARK SMILES IDX 10 16 11 17 12 18 13 19 14 20 19 21 15 22 16 23 17 24 18 25
REMARK SMILES IDX 24 26 25 27 26 28 27 29 28 30 29 31 30 33 31 34 32 35 78 36
REMARK SMILES IDX 33 37 77 38 34 39 35 40 36 41 71 42 37 43 76 44 70 45 72 46
REMARK SMILES IDX 38 47 75 48 69 49 68 50 39 52 61 53 46 54 60 55 47 56 50 57
REMARK SMILES IDX 59 58 73 59 48 60 49 61 58 63 74 64 51 65 40 66 41 67 45 68
REMARK SMILES IDX 42 69 44 70 43 71 62 72 63 73 67 74 64 75 66 76 65 77 52 78
REMARK SMILES IDX 53 79 57 80 54 81 56 82 55 83
REMARK H PARENT 21 6 8 15 28 32 72 51 50 62
REMARK Flexibility Score: inf
ROOT
ATOM      1  C   UNL     1       2.672  -3.324   1.009  1.00  0.00     0.021 C 
ENDROOT
BRANCH   1   2
ATOM      2  C   UNL     1       2.098  -1.969   1.425  1.00  0.00     0.116 C 
BRANCH   2   3
ATOM      3  N   UNL     1       2.737  -0.899   0.689  1.00  0.00    -0.356 N 
ATOM      4  O   UNL     1       0.830   0.233   0.121  1.00  0.00    -0.275 OA
ATOM      5  C   UNL     1       2.052   0.126   0.074  1.00  0.00     0.226 C 
ATOM      6  H   UNL     1       3.719  -0.904   0.625  1.00  0.00     0.163 HD
BRANCH   5   7
ATOM      7  C   UNL     1       2.916   1.036  -0.784  1.00  0.00     0.157 C 
BRANCH   7   8
ATOM      8  C   UNL     1       4.006   1.728  -0.027  1.00  0.00     0.063 A 
ATOM      9  C   UNL     1       5.225   1.199   0.363  1.00  0.00     0.093 A 
ATOM     10  N   UNL     1       3.861   3.075   0.263  1.00  0.00    -0.224 NA
ATOM     11  S   UNL     1       6.165   2.396   1.143  1.00  0.00    -0.105 S 
ATOM     12  C   UNL     1       4.901   3.513   0.930  1.00  0.00     0.189 A 
BRANCH  12  13
ATOM     13  N   UNL     1       5.021   4.829   1.261  1.00  0.00    -0.301 N 
ATOM     14  C   UNL     1       5.832   5.482   2.129  1.00  0.00     0.236 C 
ATOM     15  H   UNL     1       4.399   5.419   0.777  1.00  0.00     0.172 HD
ATOM     16  O   UNL     1       5.961   6.699   1.948  1.00  0.00    -0.274 OA
BRANCH  14  17
ATOM     17  C   UNL     1       6.533   4.825   3.305  1.00  0.00     0.170 C 
BRANCH  17  18
ATOM     18  S   UNL     1       5.482   3.721   4.314  1.00  0.00    -0.148 SA
BRANCH  18  19
ATOM     19  C   UNL     1       4.371   4.810   5.289  1.00  0.00     0.063 C 
ATOM     20  C   UNL     1       3.241   5.500   4.522  1.00  0.00     0.031 C 
ATOM     21  C   UNL     1       5.029   5.810   6.227  1.00  0.00     0.151 C 
ATOM     22  C   UNL     1       3.610   6.952   4.261  1.00  0.00     0.138 C 
ATOM     23  S   UNL     1       4.789   7.417   5.513  1.00  0.00     0.151 S 
ATOM     24  O   UNL     1       6.031   7.815   4.883  1.00  0.00    -0.229 OA
ATOM     25  O   UNL     1       4.122   8.252   6.488  1.00  0.00    -0.229 OA
ENDBRANCH  18  19
ENDBRANCH  17  18
ENDBRANCH  14  17
ENDBRANCH  12  13
ENDBRANCH   7   8
ENDBRANCH   5   7
ENDBRANCH   2   3
ENDBRANCH   1   2
BRANCH   1  26
ATOM     26  C   UNL     1       4.185  -3.478   1.231  1.00  0.00     0.002 C 
BRANCH  26  27
ATOM     27  C   UNL     1       4.655  -3.303   2.678  1.00  0.00     0.002 C 
BRANCH  27  28
ATOM     28  C   UNL     1       4.000  -4.247   3.687  1.00  0.00     0.021 C 
BRANCH  28  29
ATOM     29  C   UNL     1       4.160  -5.729   3.369  1.00  0.00     0.116 C 
BRANCH  29  30
ATOM     30  N   UNL     1       5.547  -6.164   3.426  1.00  0.00    -0.352 N 
ATOM     31  C   UNL     1       6.087  -7.248   4.072  1.00  0.00     0.251 C 
ATOM     32  H   UNL     1       6.187  -5.602   2.933  1.00  0.00     0.163 HD
ATOM     33  O   UNL     1       7.305  -7.373   4.157  1.00  0.00    -0.269 OA
BRANCH  31  34
ATOM     34  C   UNL     1       5.197  -8.258   4.687  1.00  0.00     0.039 A 
ATOM     35  C   UNL     1       5.505  -8.745   5.960  1.00  0.00     0.014 A 
ATOM     36  C   UNL     1       4.069  -8.729   4.011  1.00  0.00     0.014 A 
ATOM     37  C   UNL     1       4.655  -9.668   6.572  1.00  0.00     0.010 A 
ATOM     38  C   UNL     1       3.179  -9.584   4.655  1.00  0.00     0.010 A 
ATOM     39  C   UNL     1       3.470 -10.076   5.937  1.00  0.00    -0.014 A 
BRANCH  39  40
ATOM     40  C   UNL     1       2.544 -11.044   6.579  1.00  0.00     0.031 A 
ATOM     41  C   UNL     1       2.292 -12.383   5.936  1.00  0.00     0.074 A 
ATOM     42  C   UNL     1       1.899 -10.711   7.715  1.00  0.00     0.049 A 
ATOM     43  N   UNL     1       1.475 -13.337   6.305  1.00  0.00    -0.248 NA
ATOM     44  C   UNL     1       3.039 -12.680   4.702  1.00  0.00     0.031 C 
ATOM     45  C   UNL     1       2.029  -9.437   8.425  1.00  0.00     0.029 A 
ATOM     46  N   UNL     1       0.997 -11.419   8.471  1.00  0.00    -0.354 N 
ATOM     47  C   UNL     1       1.609 -14.338   5.351  1.00  0.00     0.074 A 
ATOM     48  C   UNL     1       2.532 -13.852   4.351  1.00  0.00     0.031 C 
ATOM     49  C   UNL     1       1.256  -9.464   9.523  1.00  0.00     0.029 A 
ATOM     50  C   UNL     1       0.543 -10.736   9.573  1.00  0.00     0.049 A 
ATOM     51  H   UNL     1       0.704 -12.331   8.244  1.00  0.00     0.167 HD
ATOM     52  C   UNL     1       1.039 -15.567   5.323  1.00  0.00     0.031 A 
ATOM     53  C   UNL     1      -0.356 -11.089  10.512  1.00  0.00     0.031 A 
ATOM     54  C   UNL     1       0.124 -16.058   6.317  1.00  0.00     0.049 A 
ATOM     55  C   UNL     1      -1.003 -12.447  10.434  1.00  0.00     0.074 A 
ATOM     56  C   UNL     1      -0.492 -17.295   6.386  1.00  0.00     0.029 A 
ATOM     57  N   UNL     1      -0.302 -15.336   7.420  1.00  0.00    -0.354 N 
ATOM     58  N   UNL     1      -0.827 -13.399   9.550  1.00  0.00    -0.248 NA
ATOM     59  C   UNL     1      -1.960 -12.785  11.497  1.00  0.00     0.031 C 
ATOM     60  C   UNL     1      -1.328 -17.306   7.506  1.00  0.00     0.029 A 
ATOM     61  C   UNL     1      -1.180 -16.100   8.171  1.00  0.00     0.049 A 
ATOM     62  H   UNL     1      -0.023 -14.417   7.638  1.00  0.00     0.167 HD
ATOM     63  C   UNL     1      -1.615 -14.462   9.976  1.00  0.00     0.074 A 
ATOM     64  C   UNL     1      -2.256 -14.043  11.204  1.00  0.00     0.031 C 
ATOM     65  C   UNL     1      -1.793 -15.677   9.402  1.00  0.00     0.031 A 
BRANCH  52  66
ATOM     66  C   UNL     1       1.403 -16.476   4.181  1.00  0.00    -0.014 A 
ATOM     67  C   UNL     1       2.690 -17.030   4.082  1.00  0.00     0.009 A 
ATOM     68  C   UNL     1       0.438 -16.829   3.226  1.00  0.00     0.009 A 
ATOM     69  C   UNL     1       3.010 -17.896   3.034  1.00  0.00     0.001 A 
ATOM     70  C   UNL     1       0.751 -17.720   2.198  1.00  0.00     0.001 A 
ATOM     71  C   UNL     1       2.038 -18.246   2.098  1.00  0.00     0.000 A 
ENDBRANCH  52  66
BRANCH  53  72
ATOM     72  C   UNL     1      -0.713 -10.151  11.611  1.00  0.00    -0.014 A 
ATOM     73  C   UNL     1      -0.393 -10.451  12.945  1.00  0.00     0.009 A 
ATOM     74  C   UNL     1      -1.427  -8.974  11.338  1.00  0.00     0.009 A 
ATOM     75  C   UNL     1      -0.825  -9.621  13.983  1.00  0.00     0.001 A 
ATOM     76  C   UNL     1      -1.824  -8.126  12.374  1.00  0.00     0.001 A 
ATOM     77  C   UNL     1      -1.538  -8.459  13.696  1.00  0.00     0.000 A 
ENDBRANCH  53  72
BRANCH  65  78
ATOM     78  C   UNL     1      -2.658 -16.667  10.133  1.00  0.00    -0.014 A 
ATOM     79  C   UNL     1      -4.046 -16.497  10.242  1.00  0.00     0.009 A 
ATOM     80  C   UNL     1      -2.067 -17.810  10.695  1.00  0.00     0.009 A 
ATOM     81  C   UNL     1      -4.819 -17.430  10.937  1.00  0.00     0.001 A 
ATOM     82  C   UNL     1      -2.846 -18.759  11.358  1.00  0.00     0.001 A 
ATOM     83  C   UNL     1      -4.219 -18.562  11.489  1.00  0.00     0.000 A 
ENDBRANCH  65  78
ENDBRANCH  39  40
ENDBRANCH  31  34
ENDBRANCH  29  30
ENDBRANCH  28  29
ENDBRANCH  27  28
ENDBRANCH  26  27
ENDBRANCH   1  26
TORSDOF 18
