REMARK SMILES O=C(NCCCCCCNC(=O)c1ccccc1NC(=O)c1ccc(N2C(=O)[C@H]3CC=CC[C@H]3C2=O)cc1)c1ccc(-c2c3nc(c(-c4ccccc4)c4ccc([nH]4)c(-c4ccccc4)c4nc(c(-c5ccccc5)c5ccc2[nH]5)C=C4)C=C3)cc1
REMARK SMILES IDX 7 1 6 2 5 3 4 4 3 5 1 6 2 7 39 9 40 10 86 11 41 12 85 13
REMARK SMILES IDX 42 14 43 15 44 16 79 17 45 18 84 19 78 20 80 21 46 22 83 23
REMARK SMILES IDX 77 24 76 25 47 27 69 28 54 29 68 30 55 31 58 32 67 33 81 34
REMARK SMILES IDX 56 35 57 36 66 38 82 39 59 40 48 41 49 42 53 43 50 44 52 45
REMARK SMILES IDX 51 46 70 47 71 48 75 49 72 50 74 51 73 52 60 53 61 54 65 55
REMARK SMILES IDX 62 56 64 57 63 58 8 59 9 60 10 61 11 62 12 64 13 65 14 66
REMARK SMILES IDX 18 67 15 68 17 69 16 70 19 71 20 72 21 74 22 75 23 76 38 77
REMARK SMILES IDX 24 78 37 79 25 80 26 81 27 82 35 83 28 84 29 85 34 86 36 87
REMARK SMILES IDX 30 88 33 89 31 90 32 91
REMARK H PARENT 3 8 80 26 58 37 10 63 19 73
REMARK Flexibility Score: inf
ROOT
ATOM      1  C   UNL     1       4.689   4.310  -1.076  1.00  0.00     0.002 C 
ENDROOT
BRANCH   1   2
ATOM      2  C   UNL     1       4.171   3.362  -2.162  1.00  0.00     0.002 C 
BRANCH   2   3
ATOM      3  C   UNL     1       4.624   1.909  -2.046  1.00  0.00     0.021 C 
BRANCH   3   4
ATOM      4  C   UNL     1       4.355   1.253  -0.700  1.00  0.00     0.116 C 
BRANCH   4   5
ATOM      5  N   UNL     1       2.939   1.124  -0.401  1.00  0.00    -0.352 N 
ATOM      6  O   UNL     1       1.027   0.041   0.128  1.00  0.00    -0.269 OA
ATOM      7  C   UNL     1       2.251   0.020   0.041  1.00  0.00     0.251 C 
ATOM      8  H   UNL     1       2.400   1.937  -0.533  1.00  0.00     0.163 HD
BRANCH   7   9
ATOM      9  C   UNL     1       2.994  -1.211   0.391  1.00  0.00     0.039 A 
ATOM     10  C   UNL     1       4.150  -1.146   1.171  1.00  0.00     0.014 A 
ATOM     11  C   UNL     1       2.525  -2.445  -0.069  1.00  0.00     0.014 A 
ATOM     12  C   UNL     1       4.908  -2.292   1.378  1.00  0.00     0.010 A 
ATOM     13  C   UNL     1       3.243  -3.611   0.215  1.00  0.00     0.010 A 
ATOM     14  C   UNL     1       4.452  -3.541   0.922  1.00  0.00    -0.014 A 
BRANCH  14  15
ATOM     15  C   UNL     1       5.217  -4.760   1.281  1.00  0.00     0.031 A 
ATOM     16  C   UNL     1       5.896  -5.601   0.237  1.00  0.00     0.074 A 
ATOM     17  C   UNL     1       5.323  -5.084   2.585  1.00  0.00     0.049 A 
ATOM     18  N   UNL     1       6.637  -6.669   0.400  1.00  0.00    -0.248 NA
ATOM     19  C   UNL     1       5.721  -5.200  -1.167  1.00  0.00     0.031 C 
ATOM     20  C   UNL     1       4.699  -4.348   3.689  1.00  0.00     0.029 A 
ATOM     21  N   UNL     1       6.011  -6.093   3.207  1.00  0.00    -0.354 N 
ATOM     22  C   UNL     1       7.005  -7.077  -0.876  1.00  0.00     0.074 A 
ATOM     23  C   UNL     1       6.387  -6.155  -1.806  1.00  0.00     0.031 C 
ATOM     24  C   UNL     1       5.078  -4.895   4.853  1.00  0.00     0.029 A 
ATOM     25  C   UNL     1       5.915  -6.056   4.577  1.00  0.00     0.049 A 
ATOM     26  H   UNL     1       6.524  -6.777   2.720  1.00  0.00     0.167 HD
ATOM     27  C   UNL     1       7.789  -8.121  -1.237  1.00  0.00     0.031 A 
ATOM     28  C   UNL     1       6.430  -6.873   5.513  1.00  0.00     0.031 A 
ATOM     29  C   UNL     1       8.400  -9.038  -0.309  1.00  0.00     0.049 A 
ATOM     30  C   UNL     1       7.268  -8.038   5.079  1.00  0.00     0.074 A 
ATOM     31  C   UNL     1       9.231 -10.113  -0.580  1.00  0.00     0.029 A 
ATOM     32  N   UNL     1       8.243  -8.993   1.067  1.00  0.00    -0.354 N 
ATOM     33  N   UNL     1       7.632  -8.387   3.869  1.00  0.00    -0.248 NA
ATOM     34  C   UNL     1       7.766  -8.922   6.141  1.00  0.00     0.031 C 
ATOM     35  C   UNL     1       9.537 -10.746   0.630  1.00  0.00     0.029 A 
ATOM     36  C   UNL     1       8.941 -10.034   1.658  1.00  0.00     0.049 A 
ATOM     37  H   UNL     1       7.714  -8.320   1.554  1.00  0.00     0.167 HD
ATOM     38  C   UNL     1       8.410  -9.525   4.024  1.00  0.00     0.074 A 
ATOM     39  C   UNL     1       8.490  -9.788   5.447  1.00  0.00     0.031 C 
ATOM     40  C   UNL     1       9.000 -10.288   3.073  1.00  0.00     0.031 A 
BRANCH  27  41
ATOM     41  C   UNL     1       8.020  -8.348  -2.706  1.00  0.00    -0.014 A 
ATOM     42  C   UNL     1       8.864  -7.507  -3.449  1.00  0.00     0.009 A 
ATOM     43  C   UNL     1       7.439  -9.457  -3.340  1.00  0.00     0.009 A 
ATOM     44  C   UNL     1       9.101  -7.760  -4.802  1.00  0.00     0.001 A 
ATOM     45  C   UNL     1       7.697  -9.722  -4.687  1.00  0.00     0.001 A 
ATOM     46  C   UNL     1       8.523  -8.870  -5.418  1.00  0.00     0.000 A 
ENDBRANCH  27  41
BRANCH  28  47
ATOM     47  C   UNL     1       6.147  -6.626   6.950  1.00  0.00    -0.014 A 
ATOM     48  C   UNL     1       7.165  -6.210   7.820  1.00  0.00     0.009 A 
ATOM     49  C   UNL     1       4.850  -6.804   7.457  1.00  0.00     0.009 A 
ATOM     50  C   UNL     1       6.895  -6.001   9.174  1.00  0.00     0.001 A 
ATOM     51  C   UNL     1       4.576  -6.564   8.804  1.00  0.00     0.001 A 
ATOM     52  C   UNL     1       5.600  -6.173   9.663  1.00  0.00     0.000 A 
ENDBRANCH  28  47
BRANCH  40  53
ATOM     53  C   UNL     1       9.798 -11.466   3.553  1.00  0.00    -0.014 A 
ATOM     54  C   UNL     1       9.166 -12.608   4.071  1.00  0.00     0.009 A 
ATOM     55  C   UNL     1      11.198 -11.437   3.477  1.00  0.00     0.009 A 
ATOM     56  C   UNL     1       9.924 -13.681   4.541  1.00  0.00     0.001 A 
ATOM     57  C   UNL     1      11.953 -12.523   3.922  1.00  0.00     0.001 A 
ATOM     58  C   UNL     1      11.316 -13.639   4.464  1.00  0.00     0.000 A 
ENDBRANCH  40  53
ENDBRANCH  14  15
ENDBRANCH   7   9
ENDBRANCH   4   5
ENDBRANCH   3   4
ENDBRANCH   2   3
ENDBRANCH   1   2
BRANCH   1  59
ATOM     59  C   UNL     1       6.209   4.333  -0.865  1.00  0.00     0.021 C 
BRANCH  59  60
ATOM     60  C   UNL     1       7.043   4.562  -2.123  1.00  0.00     0.116 C 
BRANCH  60  61
ATOM     61  N   UNL     1       6.689   5.800  -2.793  1.00  0.00    -0.352 N 
ATOM     62  C   UNL     1       7.490   6.817  -3.235  1.00  0.00     0.253 C 
ATOM     63  H   UNL     1       5.726   5.927  -2.953  1.00  0.00     0.163 HD
ATOM     64  O   UNL     1       6.982   7.867  -3.618  1.00  0.00    -0.269 OA
BRANCH  62  65
ATOM     65  C   UNL     1       8.961   6.672  -3.269  1.00  0.00     0.063 A 
ATOM     66  C   UNL     1       9.685   7.675  -2.603  1.00  0.00     0.016 A 
ATOM     67  C   UNL     1       9.621   5.658  -3.998  1.00  0.00     0.054 A 
ATOM     68  C   UNL     1      11.075   7.687  -2.655  1.00  0.00     0.001 A 
ATOM     69  C   UNL     1      11.014   5.742  -4.095  1.00  0.00     0.027 A 
ATOM     70  C   UNL     1      11.737   6.732  -3.417  1.00  0.00     0.002 A 
BRANCH  67  71
ATOM     71  N   UNL     1       8.857   4.634  -4.608  1.00  0.00    -0.321 N 
ATOM     72  C   UNL     1       9.158   3.381  -5.095  1.00  0.00     0.255 C 
ATOM     73  H   UNL     1       7.906   4.868  -4.706  1.00  0.00     0.170 HD
ATOM     74  O   UNL     1       8.273   2.689  -5.594  1.00  0.00    -0.269 OA
BRANCH  72  75
ATOM     75  C   UNL     1      10.513   2.821  -5.013  1.00  0.00     0.040 A 
ATOM     76  C   UNL     1      11.184   2.572  -6.208  1.00  0.00     0.016 A 
ATOM     77  C   UNL     1      11.143   2.594  -3.789  1.00  0.00     0.016 A 
ATOM     78  C   UNL     1      12.538   2.235  -6.178  1.00  0.00     0.027 A 
ATOM     79  C   UNL     1      12.500   2.246  -3.770  1.00  0.00     0.027 A 
ATOM     80  C   UNL     1      13.236   2.122  -4.964  1.00  0.00     0.052 A 
BRANCH  80  81
ATOM     81  N   UNL     1      14.655   1.984  -4.941  1.00  0.00    -0.250 N 
ATOM     82  C   UNL     1      15.482   2.419  -5.952  1.00  0.00     0.238 C 
ATOM     83  C   UNL     1      15.368   1.475  -3.884  1.00  0.00     0.238 C 
ATOM     84  O   UNL     1      15.174   2.909  -7.032  1.00  0.00    -0.274 OA
ATOM     85  C   UNL     1      16.924   2.250  -5.536  1.00  0.00     0.096 C 
ATOM     86  C   UNL     1      16.845   1.674  -4.123  1.00  0.00     0.096 C 
ATOM     87  O   UNL     1      14.941   0.904  -2.888  1.00  0.00    -0.274 OA
ATOM     88  C   UNL     1      17.663   3.585  -5.672  1.00  0.00     0.041 C 
ATOM     89  C   UNL     1      17.425   2.539  -2.999  1.00  0.00     0.041 C 
ATOM     90  C   UNL     1      17.432   4.497  -4.505  1.00  0.00    -0.030 C 
ATOM     91  C   UNL     1      17.316   4.010  -3.264  1.00  0.00    -0.030 C 
ENDBRANCH  80  81
ENDBRANCH  72  75
ENDBRANCH  67  71
ENDBRANCH  62  65
ENDBRANCH  60  61
ENDBRANCH  59  60
ENDBRANCH   1  59
TORSDOF 16
