REMARK SMILES O=C(NCCCCCCNC(=O)[C@@H]1[C@H](C(=O)Nc2ccccc2Cc2ccccc2)[C@H]2C=C[C@@H]1O2)c1ccc(-c2c3nc(c(-c4ccccc4)c4ccc([nH]4)c(-c4ccccc4)c4nc(c(-c5ccccc5)c5ccc2[nH]5)C=C4)C=C3)cc1
REMARK SMILES IDX 7 1 6 2 5 3 4 4 3 5 1 6 2 7 36 9 37 10 83 11 38 12 82 13
REMARK SMILES IDX 39 14 40 15 41 16 76 17 42 18 81 19 75 20 77 21 43 22 80 23
REMARK SMILES IDX 74 24 73 25 44 27 66 28 51 29 65 30 52 31 55 32 64 33 78 34
REMARK SMILES IDX 53 35 54 36 63 38 79 39 56 40 45 41 46 42 50 43 47 44 49 45
REMARK SMILES IDX 48 46 67 47 68 48 72 49 69 50 71 51 70 52 57 53 58 54 62 55
REMARK SMILES IDX 59 56 61 57 60 58 8 59 9 60 10 61 11 62 12 64 13 65 14 66
REMARK SMILES IDX 34 67 31 68 33 69 35 70 32 71 15 72 16 73 17 74 18 76 19 77
REMARK SMILES IDX 23 78 20 79 22 80 21 81 24 82 25 83 26 84 30 85 27 86 29 87
REMARK SMILES IDX 28 88
REMARK H PARENT 3 8 77 26 55 37 10 63 17 75
REMARK Flexibility Score: inf
ROOT
ATOM      1  C   UNL     1       3.213  -1.954  -4.361  1.00  0.00     0.002 C 
ENDROOT
BRANCH   1   2
ATOM      2  C   UNL     1       3.209  -2.468  -2.927  1.00  0.00     0.002 C 
BRANCH   2   3
ATOM      3  C   UNL     1       4.014  -1.722  -1.859  1.00  0.00     0.021 C 
BRANCH   3   4
ATOM      4  C   UNL     1       3.789  -0.237  -1.603  1.00  0.00     0.116 C 
BRANCH   4   5
ATOM      5  N   UNL     1       2.445   0.096  -1.168  1.00  0.00    -0.352 N 
ATOM      6  O   UNL     1       0.721   0.511   0.218  1.00  0.00    -0.269 OA
ATOM      7  C   UNL     1       1.947   0.426   0.068  1.00  0.00     0.251 C 
ATOM      8  H   UNL     1       1.771   0.082  -1.886  1.00  0.00     0.163 HD
BRANCH   7   9
ATOM      9  C   UNL     1       2.827   0.676   1.234  1.00  0.00     0.039 A 
ATOM     10  C   UNL     1       4.014   1.398   1.108  1.00  0.00     0.014 A 
ATOM     11  C   UNL     1       2.417   0.251   2.505  1.00  0.00     0.014 A 
ATOM     12  C   UNL     1       4.852   1.564   2.208  1.00  0.00     0.010 A 
ATOM     13  C   UNL     1       3.207   0.516   3.631  1.00  0.00     0.010 A 
ATOM     14  C   UNL     1       4.444   1.161   3.490  1.00  0.00    -0.014 A 
BRANCH  14  15
ATOM     15  C   UNL     1       5.279   1.527   4.668  1.00  0.00     0.031 A 
ATOM     16  C   UNL     1       5.881   0.480   5.565  1.00  0.00     0.074 A 
ATOM     17  C   UNL     1       5.510   2.834   4.910  1.00  0.00     0.049 A 
ATOM     18  N   UNL     1       6.650   0.640   6.614  1.00  0.00    -0.248 NA
ATOM     19  C   UNL     1       5.576  -0.924   5.255  1.00  0.00     0.031 C 
ATOM     20  C   UNL     1       4.973   3.944   4.116  1.00  0.00     0.029 A 
ATOM     21  N   UNL     1       6.274   3.454   5.864  1.00  0.00    -0.354 N 
ATOM     22  C   UNL     1       6.896  -0.636   7.106  1.00  0.00     0.074 A 
ATOM     23  C   UNL     1       6.177  -1.558   6.253  1.00  0.00     0.031 C 
ATOM     24  C   UNL     1       5.485   5.097   4.566  1.00  0.00     0.029 A 
ATOM     25  C   UNL     1       6.313   4.821   5.732  1.00  0.00     0.049 A 
ATOM     26  H   UNL     1       6.749   2.966   6.576  1.00  0.00     0.167 HD
ATOM     27  C   UNL     1       7.650  -1.003   8.172  1.00  0.00     0.031 A 
ATOM     28  C   UNL     1       6.929   5.758   6.475  1.00  0.00     0.031 A 
ATOM     29  C   UNL     1       8.359  -0.077   9.020  1.00  0.00     0.049 A 
ATOM     30  C   UNL     1       7.722   5.325   7.670  1.00  0.00     0.074 A 
ATOM     31  C   UNL     1       9.176  -0.351  10.104  1.00  0.00     0.029 A 
ATOM     32  N   UNL     1       8.328   1.303   8.884  1.00  0.00    -0.354 N 
ATOM     33  N   UNL     1       7.970   4.112   8.100  1.00  0.00    -0.248 NA
ATOM     34  C   UNL     1       8.317   6.391   8.485  1.00  0.00     0.031 C 
ATOM     35  C   UNL     1       9.587   0.865  10.661  1.00  0.00     0.029 A 
ATOM     36  C   UNL     1       9.085   1.895   9.883  1.00  0.00     0.049 A 
ATOM     37  H   UNL     1       7.839   1.790   8.182  1.00  0.00     0.167 HD
ATOM     38  C   UNL     1       8.769   4.266   9.224  1.00  0.00     0.074 A 
ATOM     39  C   UNL     1       8.981   5.690   9.393  1.00  0.00     0.031 C 
ATOM     40  C   UNL     1       9.280   3.314  10.042  1.00  0.00     0.031 A 
BRANCH  27  41
ATOM     41  C   UNL     1       7.711  -2.471   8.510  1.00  0.00    -0.014 A 
ATOM     42  C   UNL     1       8.381  -3.391   7.687  1.00  0.00     0.009 A 
ATOM     43  C   UNL     1       7.111  -2.936   9.692  1.00  0.00     0.009 A 
ATOM     44  C   UNL     1       8.410  -4.749   8.019  1.00  0.00     0.001 A 
ATOM     45  C   UNL     1       7.168  -4.287  10.037  1.00  0.00     0.001 A 
ATOM     46  C   UNL     1       7.807  -5.195   9.194  1.00  0.00     0.000 A 
ENDBRANCH  27  41
BRANCH  28  47
ATOM     47  C   UNL     1       6.805   7.196   6.113  1.00  0.00    -0.014 A 
ATOM     48  C   UNL     1       7.920   7.916   5.658  1.00  0.00     0.009 A 
ATOM     49  C   UNL     1       5.568   7.853   6.212  1.00  0.00     0.009 A 
ATOM     50  C   UNL     1       7.802   9.268   5.330  1.00  0.00     0.001 A 
ATOM     51  C   UNL     1       5.446   9.195   5.849  1.00  0.00     0.001 A 
ATOM     52  C   UNL     1       6.565   9.905   5.418  1.00  0.00     0.000 A 
ENDBRANCH  28  47
BRANCH  40  53
ATOM     53  C   UNL     1      10.154   3.790  11.169  1.00  0.00    -0.014 A 
ATOM     54  C   UNL     1       9.623   4.483  12.268  1.00  0.00     0.009 A 
ATOM     55  C   UNL     1      11.533   3.529  11.131  1.00  0.00     0.009 A 
ATOM     56  C   UNL     1      10.463   4.944  13.284  1.00  0.00     0.001 A 
ATOM     57  C   UNL     1      12.365   3.960  12.164  1.00  0.00     0.001 A 
ATOM     58  C   UNL     1      11.831   4.678  13.233  1.00  0.00     0.000 A 
ENDBRANCH  40  53
ENDBRANCH  14  15
ENDBRANCH   7   9
ENDBRANCH   4   5
ENDBRANCH   3   4
ENDBRANCH   2   3
ENDBRANCH   1   2
BRANCH   1  59
ATOM     59  C   UNL     1       4.510  -1.806  -5.141  1.00  0.00     0.021 C 
BRANCH  59  60
ATOM     60  C   UNL     1       5.661  -2.793  -5.585  1.00  0.00     0.116 C 
BRANCH  60  61
ATOM     61  N   UNL     1       6.025  -4.219  -5.968  1.00  0.00    -0.356 N 
ATOM     62  C   UNL     1       7.128  -5.020  -6.414  1.00  0.00     0.227 C 
ATOM     63  H   UNL     1       5.228  -4.790  -5.878  1.00  0.00     0.163 HD
ATOM     64  O   UNL     1       6.646  -6.071  -6.914  1.00  0.00    -0.275 OA
BRANCH  62  65
ATOM     65  C   UNL     1       8.968  -5.042  -6.558  1.00  0.00     0.127 C 
ATOM     66  C   UNL     1       9.670  -6.285  -5.979  1.00  0.00     0.127 C 
ATOM     67  C   UNL     1      10.217  -4.106  -6.237  1.00  0.00     0.155 C 
ATOM     68  C   UNL     1      10.800  -5.805  -5.047  1.00  0.00     0.155 C 
ATOM     69  C   UNL     1      11.615  -4.522  -6.687  1.00  0.00     0.004 C 
ATOM     70  O   UNL     1      10.421  -4.438  -4.833  1.00  0.00    -0.365 OA
ATOM     71  C   UNL     1      12.001  -5.517  -5.876  1.00  0.00     0.004 C 
BRANCH  66  72
ATOM     72  C   UNL     1       8.717  -7.081  -5.257  1.00  0.00     0.231 C 
ATOM     73  O   UNL     1       8.608  -8.288  -5.479  1.00  0.00    -0.274 OA
ATOM     74  N   UNL     1       7.994  -6.519  -4.288  1.00  0.00    -0.325 N 
ATOM     75  H   UNL     1       7.379  -7.200  -3.932  1.00  0.00     0.169 HD
BRANCH  74  76
ATOM     76  C   UNL     1       7.775  -5.307  -3.573  1.00  0.00     0.044 A 
ATOM     77  C   UNL     1       7.240  -5.848  -2.343  1.00  0.00     0.026 A 
ATOM     78  C   UNL     1       7.875  -3.844  -3.744  1.00  0.00    -0.020 A 
ATOM     79  C   UNL     1       6.689  -5.115  -1.329  1.00  0.00     0.002 A 
ATOM     80  C   UNL     1       7.306  -3.156  -2.613  1.00  0.00     0.006 A 
ATOM     81  C   UNL     1       6.707  -3.760  -1.482  1.00  0.00     0.000 A 
BRANCH  78  82
ATOM     82  C   UNL     1       8.502  -2.628  -4.843  1.00  0.00     0.073 C 
BRANCH  82  83
ATOM     83  C   UNL     1       8.098  -1.999  -6.394  1.00  0.00    -0.044 A 
ATOM     84  C   UNL     1       8.001  -2.640  -7.670  1.00  0.00     0.004 A 
ATOM     85  C   UNL     1       7.717  -0.642  -6.492  1.00  0.00     0.004 A 
ATOM     86  C   UNL     1       7.296  -2.161  -8.795  1.00  0.00     0.000 A 
ATOM     87  C   UNL     1       7.056  -0.116  -7.647  1.00  0.00     0.000 A 
ATOM     88  C   UNL     1       6.773  -0.897  -8.766  1.00  0.00     0.000 A 
ENDBRANCH  82  83
ENDBRANCH  78  82
ENDBRANCH  74  76
ENDBRANCH  66  72
ENDBRANCH  62  65
ENDBRANCH  60  61
ENDBRANCH  59  60
ENDBRANCH   1  59
TORSDOF 17
