REMARK SMILES Cc1cccc(S(=O)(=O)Nc2cc(C(=O)NCCCCCCNC(=O)c3ccc(-c4c5nc(c(-c6ccccc6)c6ccc([nH]6)c(-c6ccccc6)c6nc(c(-c7ccccc7)c7ccc4[nH]7)C=C6)C=C5)cc3)ccc2N2CCC[C@H](C[NH+]3CCCC3)C2)c1
REMARK SMILES IDX 19 1 18 2 17 3 16 4 14 5 15 6 13 8 11 9 12 10 76 11 75 12
REMARK SMILES IDX 74 13 10 14 7 16 8 17 9 18 6 19 1 20 2 21 3 22 89 23 4 24
REMARK SMILES IDX 5 25 77 26 78 27 88 28 79 29 81 30 80 31 82 32 83 33 84 34
REMARK SMILES IDX 87 35 85 37 86 38 20 39 21 40 22 41 23 42 24 43 25 45 26 46
REMARK SMILES IDX 27 47 73 48 28 49 72 50 29 51 30 52 31 53 66 54 32 55 71 56
REMARK SMILES IDX 65 57 67 58 33 59 70 60 64 61 63 62 34 64 56 65 41 66 55 67
REMARK SMILES IDX 42 68 45 69 54 70 68 71 43 72 44 73 53 75 69 76 46 77 35 78
REMARK SMILES IDX 36 79 40 80 37 81 39 82 38 83 57 84 58 85 62 86 59 87 61 88
REMARK SMILES IDX 60 89 47 90 48 91 52 92 49 93 51 94 50 95
REMARK H PARENT 16 7 10 15 83 36 23 44 67 63 45 74
REMARK Flexibility Score: inf
ROOT
ATOM      1  C   UNL     1       0.696   0.066  -5.338  1.00  0.00     0.002 C 
ENDROOT
BRANCH   1   2
ATOM      2  C   UNL     1       0.505   1.104  -4.224  1.00  0.00     0.021 C 
BRANCH   2   3
ATOM      3  C   UNL     1       1.190   0.723  -2.912  1.00  0.00     0.116 C 
BRANCH   3   4
ATOM      4  N   UNL     1       2.575   1.155  -2.905  1.00  0.00    -0.352 N 
ATOM      5  C   UNL     1       3.235   2.155  -2.239  1.00  0.00     0.251 C 
ATOM      6  O   UNL     1       4.453   2.241  -2.396  1.00  0.00    -0.269 OA
ATOM      7  H   UNL     1       3.157   0.623  -3.495  1.00  0.00     0.163 HD
BRANCH   5   8
ATOM      8  C   UNL     1       2.567   3.082  -1.284  1.00  0.00     0.042 A 
ATOM      9  C   UNL     1       0.640   4.146  -0.293  1.00  0.00     0.073 A 
ATOM     10  C   UNL     1       1.222   3.438  -1.347  1.00  0.00     0.042 A 
ATOM     11  C   UNL     1       1.419   4.700   0.745  1.00  0.00     0.061 A 
ATOM     12  C   UNL     1       2.790   4.428   0.735  1.00  0.00     0.029 A 
ATOM     13  C   UNL     1       3.352   3.603  -0.244  1.00  0.00     0.016 A 
BRANCH   9  14
ATOM     14  N   UNL     1      -0.778   4.299  -0.272  1.00  0.00    -0.277 N 
ATOM     15  H   UNL     1      -1.167   5.178  -0.486  1.00  0.00     0.180 HD
BRANCH  14  16
ATOM     16  S   UNL     1      -1.816   3.012   0.114  1.00  0.00     0.261 S 
ATOM     17  O   UNL     1      -2.703   2.902  -1.032  1.00  0.00    -0.201 OA
ATOM     18  O   UNL     1      -2.358   3.321   1.421  1.00  0.00    -0.201 OA
BRANCH  16  19
ATOM     19  C   UNL     1      -1.029   1.414   0.270  1.00  0.00     0.088 A 
ATOM     20  C   UNL     1       2.323  -0.267   0.928  1.00  0.00     0.044 C 
ATOM     21  C   UNL     1       0.858  -0.066   0.655  1.00  0.00    -0.050 A 
ATOM     22  C   UNL     1       0.084  -1.160   0.249  1.00  0.00     0.003 A 
ATOM     23  C   UNL     1       0.270   1.210   0.736  1.00  0.00     0.025 A 
ATOM     24  C   UNL     1      -1.248  -0.981  -0.113  1.00  0.00     0.002 A 
ATOM     25  C   UNL     1      -1.793   0.303  -0.128  1.00  0.00     0.022 A 
ENDBRANCH  16  19
ENDBRANCH  14  16
ENDBRANCH   9  14
BRANCH  11  26
ATOM     26  N   UNL     1       0.901   5.532   1.720  1.00  0.00    -0.369 N 
ATOM     27  C   UNL     1       1.162   6.965   1.609  1.00  0.00     0.116 C 
ATOM     28  C   UNL     1      -0.015   5.068   2.759  1.00  0.00     0.126 C 
ATOM     29  C   UNL     1       1.611   7.511   2.961  1.00  0.00     0.022 C 
ATOM     30  C   UNL     1       0.428   5.585   4.145  1.00  0.00     0.064 C 
ATOM     31  C   UNL     1       0.634   7.110   4.066  1.00  0.00     0.013 C 
BRANCH  30  32
ATOM     32  C   UNL     1       1.653   4.769   4.636  1.00  0.00     0.267 C 
BRANCH  32  33
ATOM     33  N   UNL     1       2.082   4.850   6.035  1.00  0.00    -0.335 N 
ATOM     34  C   UNL     1       1.054   4.568   7.033  1.00  0.00     0.262 C 
ATOM     35  C   UNL     1       2.777   6.070   6.434  1.00  0.00     0.262 C 
ATOM     36  H   UNL     1       2.759   4.086   6.032  1.00  0.00     0.348 HD
ATOM     37  C   UNL     1       0.646   5.923   7.574  1.00  0.00     0.067 C 
ATOM     38  C   UNL     1       1.923   6.740   7.505  1.00  0.00     0.067 C 
ENDBRANCH  32  33
ENDBRANCH  30  32
ENDBRANCH  11  26
ENDBRANCH   5   8
ENDBRANCH   3   4
ENDBRANCH   2   3
ENDBRANCH   1   2
BRANCH   1  39
ATOM     39  C   UNL     1       0.222  -1.363  -5.012  1.00  0.00     0.002 C 
BRANCH  39  40
ATOM     40  C   UNL     1      -1.166  -1.475  -4.374  1.00  0.00     0.021 C 
BRANCH  40  41
ATOM     41  C   UNL     1      -2.304  -1.136  -5.326  1.00  0.00     0.116 C 
BRANCH  41  42
ATOM     42  N   UNL     1      -2.821  -2.291  -6.049  1.00  0.00    -0.352 N 
ATOM     43  C   UNL     1      -3.721  -2.354  -7.104  1.00  0.00     0.251 C 
ATOM     44  H   UNL     1      -2.479  -3.161  -5.741  1.00  0.00     0.163 HD
ATOM     45  O   UNL     1      -4.072  -3.423  -7.546  1.00  0.00    -0.269 OA
BRANCH  43  46
ATOM     46  C   UNL     1      -4.133  -1.092  -7.776  1.00  0.00     0.039 A 
ATOM     47  C   UNL     1      -4.069  -1.066  -9.174  1.00  0.00     0.014 A 
ATOM     48  C   UNL     1      -4.342   0.081  -7.059  1.00  0.00     0.014 A 
ATOM     49  C   UNL     1      -3.943   0.157  -9.825  1.00  0.00     0.010 A 
ATOM     50  C   UNL     1      -4.122   1.289  -7.689  1.00  0.00     0.010 A 
ATOM     51  C   UNL     1      -3.843   1.316  -9.059  1.00  0.00    -0.014 A 
BRANCH  51  52
ATOM     52  C   UNL     1      -3.308   2.565  -9.582  1.00  0.00     0.031 A 
ATOM     53  C   UNL     1      -4.193   3.708  -9.854  1.00  0.00     0.074 A 
ATOM     54  C   UNL     1      -1.975   2.694  -9.757  1.00  0.00     0.049 A 
ATOM     55  N   UNL     1      -3.895   4.674 -10.657  1.00  0.00    -0.248 NA
ATOM     56  C   UNL     1      -5.528   3.820  -9.283  1.00  0.00     0.031 C 
ATOM     57  C   UNL     1      -1.213   3.918  -9.985  1.00  0.00     0.029 A 
ATOM     58  N   UNL     1      -1.062   1.668  -9.996  1.00  0.00    -0.354 N 
ATOM     59  C   UNL     1      -4.834   5.659 -10.478  1.00  0.00     0.074 A 
ATOM     60  C   UNL     1      -5.879   5.042  -9.692  1.00  0.00     0.031 C 
ATOM     61  C   UNL     1      -0.046   3.598 -10.566  1.00  0.00     0.029 A 
ATOM     62  C   UNL     1      -0.097   2.181 -10.884  1.00  0.00     0.049 A 
ATOM     63  H   UNL     1      -1.087   0.759  -9.617  1.00  0.00     0.167 HD
ATOM     64  C   UNL     1      -4.558   6.926 -10.896  1.00  0.00     0.031 A 
ATOM     65  C   UNL     1       0.044   1.653 -12.136  1.00  0.00     0.031 A 
ATOM     66  C   UNL     1      -3.290   7.009 -11.625  1.00  0.00     0.049 A 
ATOM     67  C   UNL     1      -0.211   2.630 -13.270  1.00  0.00     0.074 A 
ATOM     68  C   UNL     1      -2.029   7.502 -11.331  1.00  0.00     0.029 A 
ATOM     69  N   UNL     1      -3.145   6.271 -12.789  1.00  0.00    -0.354 N 
ATOM     70  N   UNL     1      -0.650   3.849 -13.119  1.00  0.00    -0.248 NA
ATOM     71  C   UNL     1      -0.101   2.254 -14.681  1.00  0.00     0.031 C 
ATOM     72  C   UNL     1      -1.130   7.066 -12.347  1.00  0.00     0.029 A 
ATOM     73  C   UNL     1      -1.849   6.319 -13.260  1.00  0.00     0.049 A 
ATOM     74  H   UNL     1      -3.875   5.774 -13.224  1.00  0.00     0.167 HD
ATOM     75  C   UNL     1      -0.946   4.384 -14.346  1.00  0.00     0.074 A 
ATOM     76  C   UNL     1      -0.578   3.350 -15.295  1.00  0.00     0.031 C 
ATOM     77  C   UNL     1      -1.527   5.611 -14.488  1.00  0.00     0.031 A 
BRANCH  64  78
ATOM     78  C   UNL     1      -5.329   8.138 -10.428  1.00  0.00    -0.014 A 
ATOM     79  C   UNL     1      -4.699   9.396 -10.406  1.00  0.00     0.009 A 
ATOM     80  C   UNL     1      -6.649   8.108  -9.947  1.00  0.00     0.009 A 
ATOM     81  C   UNL     1      -5.309  10.525  -9.842  1.00  0.00     0.001 A 
ATOM     82  C   UNL     1      -7.252   9.221  -9.345  1.00  0.00     0.001 A 
ATOM     83  C   UNL     1      -6.575  10.429  -9.281  1.00  0.00     0.000 A 
ENDBRANCH  64  78
BRANCH  65  84
ATOM     84  C   UNL     1      -0.279   0.198 -12.206  1.00  0.00    -0.014 A 
ATOM     85  C   UNL     1       0.499  -0.706 -11.453  1.00  0.00     0.009 A 
ATOM     86  C   UNL     1      -1.510  -0.241 -12.713  1.00  0.00     0.009 A 
ATOM     87  C   UNL     1       0.005  -1.970 -11.120  1.00  0.00     0.001 A 
ATOM     88  C   UNL     1      -1.991  -1.517 -12.395  1.00  0.00     0.001 A 
ATOM     89  C   UNL     1      -1.252  -2.364 -11.570  1.00  0.00     0.000 A 
ENDBRANCH  65  84
BRANCH  77  90
ATOM     90  C   UNL     1      -1.903   6.235 -15.807  1.00  0.00    -0.014 A 
ATOM     91  C   UNL     1      -1.140   6.093 -16.974  1.00  0.00     0.009 A 
ATOM     92  C   UNL     1      -3.019   7.097 -15.880  1.00  0.00     0.009 A 
ATOM     93  C   UNL     1      -1.517   6.723 -18.169  1.00  0.00     0.001 A 
ATOM     94  C   UNL     1      -3.385   7.746 -17.061  1.00  0.00     0.001 A 
ATOM     95  C   UNL     1      -2.640   7.545 -18.213  1.00  0.00     0.000 A 
ENDBRANCH  77  90
ENDBRANCH  51  52
ENDBRANCH  43  46
ENDBRANCH  41  42
ENDBRANCH  40  41
ENDBRANCH  39  40
ENDBRANCH   1  39
TORSDOF 19
