REMARK SMILES CC(C)[NH2+][C@@]1(C(=O)NCCCCCCNC(=O)c2ccc(-c3c4nc(c(-c5ccccc5)c5ccc([nH]5)c(-c5ccccc5)c5nc(c(-c6ccccc6)c6ccc3[nH]6)C=C5)C=C4)cc2)CCC[C@H](SC2CCCCC2)C1
REMARK SMILES IDX 11 1 10 2 9 3 8 4 6 5 7 6 5 8 66 9 77 10 67 11 69 12 68 13
REMARK SMILES IDX 4 14 2 17 1 18 3 19 70 20 71 21 72 22 76 23 73 24 75 25
REMARK SMILES IDX 74 26 12 27 13 28 14 29 15 30 16 31 17 33 18 34 19 35 65 36
REMARK SMILES IDX 20 37 64 38 21 39 22 40 23 41 58 42 24 43 63 44 57 45 59 46
REMARK SMILES IDX 25 47 62 48 56 49 55 50 26 52 48 53 33 54 47 55 34 56 37 57
REMARK SMILES IDX 46 58 60 59 35 60 36 61 45 63 61 64 38 65 27 66 28 67 32 68
REMARK SMILES IDX 29 69 31 70 30 71 49 72 50 73 54 74 51 75 53 76 52 77 39 78
REMARK SMILES IDX 40 79 44 80 41 81 43 82 42 83
REMARK H PARENT 8 7 4 15 4 16 15 32 59 51 37 62
REMARK Flexibility Score: inf
ROOT
ATOM      1  C   UNL     1      -6.082  -5.521   1.278  1.00  0.00     0.002 C 
ENDROOT
BRANCH   1   2
ATOM      2  C   UNL     1      -4.598  -5.201   1.056  1.00  0.00     0.021 C 
BRANCH   2   3
ATOM      3  C   UNL     1      -4.220  -4.483  -0.241  1.00  0.00     0.116 C 
BRANCH   3   4
ATOM      4  N   UNL     1      -3.975  -3.066  -0.006  1.00  0.00    -0.351 N 
ATOM      5  C   UNL     1      -2.949  -2.292   0.424  1.00  0.00     0.281 C 
ATOM      6  O   UNL     1      -3.298  -1.117   0.657  1.00  0.00    -0.268 OA
ATOM      7  H   UNL     1      -4.770  -2.524  -0.217  1.00  0.00     0.163 HD
BRANCH   5   8
ATOM      8  C   UNL     1      -1.409  -2.694   0.693  1.00  0.00     0.176 C 
ATOM      9  C   UNL     1      -0.899  -3.823  -0.216  1.00  0.00     0.079 C 
ATOM     10  C   UNL     1      -1.255  -2.897   2.236  1.00  0.00     0.093 C 
ATOM     11  C   UNL     1      -0.875  -5.205   0.423  1.00  0.00     0.008 C 
ATOM     12  C   UNL     1      -0.930  -4.314   2.796  1.00  0.00     0.053 C 
ATOM     13  C   UNL     1      -0.187  -5.155   1.768  1.00  0.00     0.015 C 
BRANCH   8  14
ATOM     14  N   UNL     1      -0.716  -1.413   0.304  1.00  0.00    -0.332 N 
ATOM     15  H   UNL     1      -1.085  -1.175  -0.616  1.00  0.00     0.347 HD
ATOM     16  H   UNL     1      -0.909  -0.847   1.131  1.00  0.00     0.347 HD
BRANCH  14  17
ATOM     17  C   UNL     1       0.730  -1.229   0.200  1.00  0.00     0.176 C 
ATOM     18  C   UNL     1       0.969   0.243  -0.174  1.00  0.00     0.075 C 
ATOM     19  C   UNL     1       1.572  -1.537   1.439  1.00  0.00     0.075 C 
ENDBRANCH  14  17
ENDBRANCH   8  14
BRANCH  12  20
ATOM     20  S   UNL     1      -2.458  -4.833   3.684  1.00  0.00    -0.155 SA
BRANCH  20  21
ATOM     21  C   UNL     1      -2.635  -6.647   3.821  1.00  0.00     0.047 C 
ATOM     22  C   UNL     1      -1.771  -7.606   3.016  1.00  0.00     0.014 C 
ATOM     23  C   UNL     1      -2.621  -7.016   5.314  1.00  0.00     0.014 C 
ATOM     24  C   UNL     1      -2.209  -9.056   3.217  1.00  0.00     0.001 C 
ATOM     25  C   UNL     1      -3.058  -8.465   5.518  1.00  0.00     0.001 C 
ATOM     26  C   UNL     1      -2.215  -9.431   4.693  1.00  0.00     0.000 C 
ENDBRANCH  20  21
ENDBRANCH  12  20
ENDBRANCH   5   8
ENDBRANCH   3   4
ENDBRANCH   2   3
ENDBRANCH   1   2
BRANCH   1  27
ATOM     27  C   UNL     1      -6.582  -6.852   0.697  1.00  0.00     0.002 C 
BRANCH  27  28
ATOM     28  C   UNL     1      -5.934  -8.140   1.239  1.00  0.00     0.021 C 
BRANCH  28  29
ATOM     29  C   UNL     1      -6.173  -8.469   2.720  1.00  0.00     0.116 C 
BRANCH  29  30
ATOM     30  N   UNL     1      -7.480  -9.057   2.974  1.00  0.00    -0.352 N 
ATOM     31  C   UNL     1      -7.849 -10.312   3.401  1.00  0.00     0.251 C 
ATOM     32  H   UNL     1      -8.235  -8.448   2.811  1.00  0.00     0.163 HD
ATOM     33  O   UNL     1      -9.043 -10.605   3.406  1.00  0.00    -0.269 OA
BRANCH  31  34
ATOM     34  C   UNL     1      -6.867 -11.343   3.841  1.00  0.00     0.039 A 
ATOM     35  C   UNL     1      -7.071 -12.668   3.435  1.00  0.00     0.014 A 
ATOM     36  C   UNL     1      -5.830 -11.073   4.734  1.00  0.00     0.014 A 
ATOM     37  C   UNL     1      -6.212 -13.690   3.865  1.00  0.00     0.010 A 
ATOM     38  C   UNL     1      -4.940 -12.090   5.127  1.00  0.00     0.010 A 
ATOM     39  C   UNL     1      -5.108 -13.414   4.690  1.00  0.00    -0.014 A 
BRANCH  39  40
ATOM     40  C   UNL     1      -4.138 -14.498   5.050  1.00  0.00     0.031 A 
ATOM     41  C   UNL     1      -3.923 -14.947   6.476  1.00  0.00     0.074 A 
ATOM     42  C   UNL     1      -3.416 -15.098   4.079  1.00  0.00     0.049 A 
ATOM     43  N   UNL     1      -3.170 -15.924   6.928  1.00  0.00    -0.248 NA
ATOM     44  C   UNL     1      -4.624 -14.200   7.529  1.00  0.00     0.031 C 
ATOM     45  C   UNL     1      -3.454 -14.752   2.658  1.00  0.00     0.029 A 
ATOM     46  N   UNL     1      -2.514 -16.137   4.141  1.00  0.00    -0.354 N 
ATOM     47  C   UNL     1      -3.300 -15.904   8.312  1.00  0.00     0.074 A 
ATOM     48  C   UNL     1      -4.169 -14.788   8.628  1.00  0.00     0.031 C 
ATOM     49  C   UNL     1      -2.656 -15.591   1.978  1.00  0.00     0.029 A 
ATOM     50  C   UNL     1      -2.023 -16.516   2.914  1.00  0.00     0.049 A 
ATOM     51  H   UNL     1      -2.246 -16.568   4.985  1.00  0.00     0.167 HD
ATOM     52  C   UNL     1      -2.770 -16.740   9.238  1.00  0.00     0.031 A 
ATOM     53  C   UNL     1      -1.170 -17.500   2.565  1.00  0.00     0.031 A 
ATOM     54  C   UNL     1      -1.916 -17.866   8.953  1.00  0.00     0.049 A 
ATOM     55  C   UNL     1      -0.597 -18.416   3.609  1.00  0.00     0.074 A 
ATOM     56  C   UNL     1      -1.408 -18.807   9.836  1.00  0.00     0.029 A 
ATOM     57  N   UNL     1      -1.436 -18.201   7.699  1.00  0.00    -0.354 N 
ATOM     58  N   UNL     1      -0.811 -18.434   4.900  1.00  0.00    -0.248 NA
ATOM     59  C   UNL     1       0.331 -19.458   3.138  1.00  0.00     0.031 C 
ATOM     60  C   UNL     1      -0.582 -19.683   9.123  1.00  0.00     0.029 A 
ATOM     61  C   UNL     1      -0.614 -19.315   7.789  1.00  0.00     0.049 A 
ATOM     62  H   UNL     1      -1.647 -17.720   6.866  1.00  0.00     0.167 HD
ATOM     63  C   UNL     1      -0.065 -19.498   5.391  1.00  0.00     0.074 A 
ATOM     64  C   UNL     1       0.595 -20.113   4.260  1.00  0.00     0.031 C 
ATOM     65  C   UNL     1       0.056 -19.925   6.671  1.00  0.00     0.031 A 
BRANCH  52  66
ATOM     66  C   UNL     1      -3.103 -16.476  10.682  1.00  0.00    -0.014 A 
ATOM     67  C   UNL     1      -4.381 -16.752  11.191  1.00  0.00     0.009 A 
ATOM     68  C   UNL     1      -2.108 -16.011  11.557  1.00  0.00     0.009 A 
ATOM     69  C   UNL     1      -4.666 -16.535  12.541  1.00  0.00     0.001 A 
ATOM     70  C   UNL     1      -2.389 -15.820  12.911  1.00  0.00     0.001 A 
ATOM     71  C   UNL     1      -3.669 -16.073  13.400  1.00  0.00     0.000 A 
ENDBRANCH  52  66
BRANCH  53  72
ATOM     72  C   UNL     1      -0.818 -17.697   1.135  1.00  0.00    -0.014 A 
ATOM     73  C   UNL     1      -1.333 -18.790   0.422  1.00  0.00     0.009 A 
ATOM     74  C   UNL     1       0.044 -16.803   0.484  1.00  0.00     0.009 A 
ATOM     75  C   UNL     1      -0.974 -18.996  -0.911  1.00  0.00     0.001 A 
ATOM     76  C   UNL     1       0.382 -16.998  -0.857  1.00  0.00     0.001 A 
ATOM     77  C   UNL     1      -0.121 -18.098  -1.550  1.00  0.00     0.000 A 
ENDBRANCH  53  72
BRANCH  65  78
ATOM     78  C   UNL     1       0.921 -21.129   6.921  1.00  0.00    -0.014 A 
ATOM     79  C   UNL     1       2.321 -21.047   6.844  1.00  0.00     0.009 A 
ATOM     80  C   UNL     1       0.331 -22.356   7.262  1.00  0.00     0.009 A 
ATOM     81  C   UNL     1       3.109 -22.178   7.072  1.00  0.00     0.001 A 
ATOM     82  C   UNL     1       1.123 -23.479   7.513  1.00  0.00     0.001 A 
ATOM     83  C   UNL     1       2.510 -23.391   7.409  1.00  0.00     0.000 A 
ENDBRANCH  65  78
ENDBRANCH  39  40
ENDBRANCH  31  34
ENDBRANCH  29  30
ENDBRANCH  28  29
ENDBRANCH  27  28
ENDBRANCH   1  27
TORSDOF 17
