REMARK SMILES CC(C)n1ncnc1C[C@@H](C(=O)NCCCCCCNC(=O)c1ccc(-c2c3nc(c(-c4ccccc4)c4ccc([nH]4)c(-c4ccccc4)c4nc(c(-c5ccccc5)c5ccc2[nH]5)C=C4)C=C3)cc1)c1cccc(Br)c1
REMARK SMILES IDX 16 1 15 2 14 3 13 4 11 5 12 6 10 8 9 9 8 10 4 11 5 12 6 13
REMARK SMILES IDX 7 14 2 15 1 16 3 17 71 18 72 19 77 20 73 21 75 22 74 23
REMARK SMILES IDX 76 24 17 25 18 26 19 27 20 28 21 29 22 31 23 32 24 33 70 34
REMARK SMILES IDX 25 35 69 36 26 37 27 38 28 39 63 40 29 41 68 42 62 43 64 44
REMARK SMILES IDX 30 45 67 46 61 47 60 48 31 50 53 51 38 52 52 53 39 54 42 55
REMARK SMILES IDX 51 56 65 57 40 58 41 59 50 61 66 62 43 63 32 64 33 65 37 66
REMARK SMILES IDX 34 67 36 68 35 69 54 70 55 71 59 72 56 73 58 74 57 75 44 76
REMARK SMILES IDX 45 77 49 78 46 79 48 80 47 81
REMARK H PARENT 13 7 20 30 64 49 42 60
REMARK Flexibility Score: inf
ROOT
ATOM      1  C   UNL     1      -5.796  -0.930  -2.115  1.00  0.00     0.002 C 
ENDROOT
BRANCH   1   2
ATOM      2  C   UNL     1      -4.324  -0.570  -1.928  1.00  0.00     0.021 C 
BRANCH   2   3
ATOM      3  C   UNL     1      -3.678   0.260  -3.042  1.00  0.00     0.116 C 
BRANCH   3   4
ATOM      4  N   UNL     1      -3.957   1.664  -2.821  1.00  0.00    -0.356 N 
ATOM      5  C   UNL     1      -3.213   2.539  -2.074  1.00  0.00     0.228 C 
ATOM      6  O   UNL     1      -3.838   3.368  -1.407  1.00  0.00    -0.274 OA
ATOM      7  H   UNL     1      -4.764   2.027  -3.252  1.00  0.00     0.163 HD
BRANCH   5   8
ATOM      8  C   UNL     1      -1.667   2.545  -2.177  1.00  0.00     0.116 C 
BRANCH   8   9
ATOM      9  C   UNL     1      -1.050   1.965  -0.877  1.00  0.00     0.095 C 
BRANCH   9  10
ATOM     10  C   UNL     1      -1.335   0.537  -0.533  1.00  0.00     0.128 A 
ATOM     11  N   UNL     1      -0.512  -0.551  -0.770  1.00  0.00    -0.248 N 
ATOM     12  N   UNL     1      -1.071  -1.680  -0.280  1.00  0.00    -0.159 NA
ATOM     13  C   UNL     1      -2.103  -1.198   0.404  1.00  0.00     0.246 A 
ATOM     14  N   UNL     1      -2.304   0.140   0.269  1.00  0.00    -0.220 NA
BRANCH  11  15
ATOM     15  C   UNL     1       0.912  -0.556  -1.098  1.00  0.00     0.103 C 
ATOM     16  C   UNL     1       1.705  -0.119   0.138  1.00  0.00     0.033 C 
ATOM     17  C   UNL     1       1.423  -1.926  -1.572  1.00  0.00     0.033 C 
ENDBRANCH  11  15
ENDBRANCH   9  10
ENDBRANCH   8   9
BRANCH   8  18
ATOM     18  C   UNL     1      -1.121   3.996  -2.407  1.00  0.00    -0.034 A 
ATOM     19  C   UNL     1       0.223   4.324  -2.135  1.00  0.00     0.004 A 
ATOM     20  C   UNL     1      -1.949   5.049  -2.846  1.00  0.00     0.020 A 
ATOM     21  C   UNL     1       0.671   5.651  -2.138  1.00  0.00     0.001 A 
ATOM     22  C   UNL     1      -1.497   6.375  -2.849  1.00  0.00     0.018 A 
ATOM     23  C   UNL     1      -0.198   6.683  -2.468  1.00  0.00     0.016 A 
ATOM     24  Br  UNL     1      -2.678   7.773  -3.332  1.00  0.00    -0.051 Br
ENDBRANCH   8  18
ENDBRANCH   5   8
ENDBRANCH   3   4
ENDBRANCH   2   3
ENDBRANCH   1   2
BRANCH   1  25
ATOM     25  C   UNL     1      -6.100  -1.866  -3.288  1.00  0.00     0.002 C 
BRANCH  25  26
ATOM     26  C   UNL     1      -5.252  -3.143  -3.378  1.00  0.00     0.021 C 
BRANCH  26  27
ATOM     27  C   UNL     1      -5.357  -4.044  -2.157  1.00  0.00     0.116 C 
BRANCH  27  28
ATOM     28  N   UNL     1      -6.690  -4.615  -1.989  1.00  0.00    -0.352 N 
ATOM     29  C   UNL     1      -7.102  -5.598  -1.109  1.00  0.00     0.251 C 
ATOM     30  H   UNL     1      -7.388  -4.252  -2.580  1.00  0.00     0.163 HD
ATOM     31  O   UNL     1      -8.143  -6.206  -1.292  1.00  0.00    -0.269 OA
BRANCH  29  32
ATOM     32  C   UNL     1      -6.267  -5.895   0.071  1.00  0.00     0.039 A 
ATOM     33  C   UNL     1      -6.146  -7.199   0.563  1.00  0.00     0.014 A 
ATOM     34  C   UNL     1      -5.620  -4.838   0.706  1.00  0.00     0.014 A 
ATOM     35  C   UNL     1      -5.327  -7.431   1.666  1.00  0.00     0.010 A 
ATOM     36  C   UNL     1      -4.697  -5.085   1.686  1.00  0.00     0.010 A 
ATOM     37  C   UNL     1      -4.603  -6.364   2.217  1.00  0.00    -0.014 A 
BRANCH  37  38
ATOM     38  C   UNL     1      -3.648  -6.571   3.296  1.00  0.00     0.031 A 
ATOM     39  C   UNL     1      -2.547  -7.508   2.962  1.00  0.00     0.074 A 
ATOM     40  C   UNL     1      -3.622  -5.794   4.401  1.00  0.00     0.049 A 
ATOM     41  N   UNL     1      -2.324  -8.670   3.478  1.00  0.00    -0.248 NA
ATOM     42  C   UNL     1      -1.668  -7.178   1.827  1.00  0.00     0.031 C 
ATOM     43  C   UNL     1      -4.448  -4.618   4.704  1.00  0.00     0.029 A 
ATOM     44  N   UNL     1      -2.747  -5.815   5.441  1.00  0.00    -0.354 N 
ATOM     45  C   UNL     1      -1.156  -9.134   2.882  1.00  0.00     0.074 A 
ATOM     46  C   UNL     1      -0.910  -8.273   1.753  1.00  0.00     0.031 C 
ATOM     47  C   UNL     1      -3.879  -3.909   5.705  1.00  0.00     0.029 A 
ATOM     48  C   UNL     1      -2.755  -4.667   6.225  1.00  0.00     0.049 A 
ATOM     49  H   UNL     1      -2.156  -6.581   5.624  1.00  0.00     0.167 HD
ATOM     50  C   UNL     1      -0.342 -10.017   3.525  1.00  0.00     0.031 A 
ATOM     51  C   UNL     1      -1.881  -4.350   7.212  1.00  0.00     0.031 A 
ATOM     52  C   UNL     1      -1.004 -10.612   4.660  1.00  0.00     0.049 A 
ATOM     53  C   UNL     1      -1.214  -5.605   7.625  1.00  0.00     0.074 A 
ATOM     54  C   UNL     1      -2.140 -11.375   4.840  1.00  0.00     0.029 A 
ATOM     55  N   UNL     1      -0.699 -10.088   5.895  1.00  0.00    -0.354 N 
ATOM     56  N   UNL     1      -1.832  -6.576   8.233  1.00  0.00    -0.248 NA
ATOM     57  C   UNL     1       0.028  -5.971   6.965  1.00  0.00     0.031 C 
ATOM     58  C   UNL     1      -2.722 -10.886   6.048  1.00  0.00     0.029 A 
ATOM     59  C   UNL     1      -1.872  -9.914   6.580  1.00  0.00     0.049 A 
ATOM     60  H   UNL     1       0.203  -9.876   6.227  1.00  0.00     0.167 HD
ATOM     61  C   UNL     1      -1.327  -7.728   7.649  1.00  0.00     0.074 A 
ATOM     62  C   UNL     1      -0.107  -7.301   6.965  1.00  0.00     0.031 C 
ATOM     63  C   UNL     1      -2.099  -8.849   7.532  1.00  0.00     0.031 A 
BRANCH  50  64
ATOM     64  C   UNL     1       1.164 -10.002   3.412  1.00  0.00    -0.014 A 
ATOM     65  C   UNL     1       1.898 -10.962   4.133  1.00  0.00     0.009 A 
ATOM     66  C   UNL     1       1.893  -8.924   2.877  1.00  0.00     0.009 A 
ATOM     67  C   UNL     1       3.266 -10.799   4.382  1.00  0.00     0.001 A 
ATOM     68  C   UNL     1       3.267  -8.780   3.087  1.00  0.00     0.001 A 
ATOM     69  C   UNL     1       3.948  -9.701   3.868  1.00  0.00     0.000 A 
ENDBRANCH  50  64
BRANCH  51  70
ATOM     70  C   UNL     1      -1.397  -3.028   7.662  1.00  0.00    -0.014 A 
ATOM     71  C   UNL     1      -0.774  -2.881   8.912  1.00  0.00     0.009 A 
ATOM     72  C   UNL     1      -1.283  -1.968   6.744  1.00  0.00     0.009 A 
ATOM     73  C   UNL     1      -0.023  -1.736   9.213  1.00  0.00     0.001 A 
ATOM     74  C   UNL     1      -0.534  -0.825   7.046  1.00  0.00     0.001 A 
ATOM     75  C   UNL     1       0.111  -0.717   8.274  1.00  0.00     0.000 A 
ENDBRANCH  51  70
BRANCH  63  76
ATOM     76  C   UNL     1      -3.417  -8.876   8.271  1.00  0.00    -0.014 A 
ATOM     77  C   UNL     1      -4.460  -7.963   8.031  1.00  0.00     0.009 A 
ATOM     78  C   UNL     1      -3.662  -9.947   9.142  1.00  0.00     0.009 A 
ATOM     79  C   UNL     1      -5.697  -8.102   8.671  1.00  0.00     0.001 A 
ATOM     80  C   UNL     1      -4.903 -10.099   9.763  1.00  0.00     0.001 A 
ATOM     81  C   UNL     1      -5.918  -9.174   9.534  1.00  0.00     0.000 A 
ENDBRANCH  63  76
ENDBRANCH  37  38
ENDBRANCH  29  32
ENDBRANCH  27  28
ENDBRANCH  26  27
ENDBRANCH  25  26
ENDBRANCH   1  25
TORSDOF 17
