REMARK SMILES O=C(NCCCCCCNC(=O)[C@H](CO)NC(=O)[C@H](Cc1c[nH]c2ccccc12)NC(=O)c1ccc(F)cc1)c1ccc(-c2c3nc(c(-c4ccccc4)c4ccc([nH]4)c(-c4ccccc4)c4nc(c(-c5ccccc5)c5ccc2[nH]5)C=C4)C=C3)cc1
REMARK SMILES IDX 7 1 6 2 5 3 4 4 3 5 1 6 2 7 40 9 41 10 87 11 42 12 86 13
REMARK SMILES IDX 43 14 44 15 45 16 80 17 46 18 85 19 79 20 81 21 47 22 84 23
REMARK SMILES IDX 78 24 77 25 48 27 70 28 55 29 69 30 56 31 59 32 68 33 82 34
REMARK SMILES IDX 57 35 58 36 67 38 83 39 60 40 49 41 50 42 54 43 51 44 53 45
REMARK SMILES IDX 52 46 71 47 72 48 76 49 73 50 75 51 74 52 61 53 62 54 66 55
REMARK SMILES IDX 63 56 65 57 64 58 8 59 9 60 10 61 11 62 12 64 13 65 16 66
REMARK SMILES IDX 17 67 18 69 19 70 30 71 31 72 32 74 33 75 34 76 39 77 35 78
REMARK SMILES IDX 38 79 36 80 37 81 20 82 21 83 22 84 29 85 23 86 24 87 28 88
REMARK SMILES IDX 25 90 27 91 26 92 14 93 15 94
REMARK H PARENT 3 8 81 26 59 37 10 63 16 68 30 73 23 89 15 95
REMARK Flexibility Score: inf
ROOT
ATOM      1  C   UNL     1       8.725 -12.349  -8.223  1.00  0.00     0.002 C 
ENDROOT
BRANCH   1   2
ATOM      2  C   UNL     1       9.223 -13.706  -8.732  1.00  0.00     0.002 C 
BRANCH   2   3
ATOM      3  C   UNL     1       8.459 -14.922  -8.210  1.00  0.00     0.021 C 
BRANCH   3   4
ATOM      4  C   UNL     1       6.952 -14.871  -8.417  1.00  0.00     0.116 C 
BRANCH   4   5
ATOM      5  N   UNL     1       6.575 -14.842  -9.820  1.00  0.00    -0.352 N 
ATOM      6  O   UNL     1       5.543 -15.555 -11.700  1.00  0.00    -0.269 OA
ATOM      7  C   UNL     1       5.648 -15.613 -10.478  1.00  0.00     0.251 C 
ATOM      8  H   UNL     1       7.049 -14.181 -10.374  1.00  0.00     0.163 HD
BRANCH   7   9
ATOM      9  C   UNL     1       4.799 -16.543  -9.705  1.00  0.00     0.039 A 
ATOM     10  C   UNL     1       4.169 -16.122  -8.532  1.00  0.00     0.014 A 
ATOM     11  C   UNL     1       4.660 -17.861 -10.146  1.00  0.00     0.014 A 
ATOM     12  C   UNL     1       3.531 -17.054  -7.722  1.00  0.00     0.010 A 
ATOM     13  C   UNL     1       3.943 -18.778  -9.372  1.00  0.00     0.010 A 
ATOM     14  C   UNL     1       3.409 -18.391  -8.133  1.00  0.00    -0.014 A 
BRANCH  14  15
ATOM     15  C   UNL     1       2.695 -19.356  -7.260  1.00  0.00     0.031 A 
ATOM     16  C   UNL     1       3.415 -20.517  -6.629  1.00  0.00     0.074 A 
ATOM     17  C   UNL     1       1.388 -19.154  -7.003  1.00  0.00     0.049 A 
ATOM     18  N   UNL     1       2.953 -21.418  -5.798  1.00  0.00    -0.248 NA
ATOM     19  C   UNL     1       4.833 -20.696  -6.978  1.00  0.00     0.031 C 
ATOM     20  C   UNL     1       0.578 -18.067  -7.558  1.00  0.00     0.029 A 
ATOM     21  N   UNL     1       0.520 -19.834  -6.188  1.00  0.00    -0.354 N 
ATOM     22  C   UNL     1       4.009 -22.285  -5.549  1.00  0.00     0.074 A 
ATOM     23  C   UNL     1       5.133 -21.814  -6.330  1.00  0.00     0.031 C 
ATOM     24  C   UNL     1      -0.650 -18.117  -7.020  1.00  0.00     0.029 A 
ATOM     25  C   UNL     1      -0.731 -19.270  -6.131  1.00  0.00     0.049 A 
ATOM     26  H   UNL     1       0.769 -20.647  -5.692  1.00  0.00     0.167 HD
ATOM     27  C   UNL     1       4.042 -23.373  -4.741  1.00  0.00     0.031 A 
ATOM     28  C   UNL     1      -1.825 -19.638  -5.442  1.00  0.00     0.031 A 
ATOM     29  C   UNL     1       2.928 -23.835  -3.955  1.00  0.00     0.049 A 
ATOM     30  C   UNL     1      -1.762 -20.850  -4.562  1.00  0.00     0.074 A 
ATOM     31  C   UNL     1       2.877 -24.906  -3.078  1.00  0.00     0.029 A 
ATOM     32  N   UNL     1       1.669 -23.255  -3.951  1.00  0.00    -0.354 N 
ATOM     33  N   UNL     1      -0.744 -21.636  -4.311  1.00  0.00    -0.248 NA
ATOM     34  C   UNL     1      -3.001 -21.222  -3.865  1.00  0.00     0.031 C 
ATOM     35  C   UNL     1       1.573 -24.999  -2.577  1.00  0.00     0.029 A 
ATOM     36  C   UNL     1       0.828 -23.956  -3.103  1.00  0.00     0.049 A 
ATOM     37  H   UNL     1       1.411 -22.462  -4.474  1.00  0.00     0.167 HD
ATOM     38  C   UNL     1      -1.212 -22.583  -3.410  1.00  0.00     0.074 A 
ATOM     39  C   UNL     1      -2.600 -22.261  -3.146  1.00  0.00     0.031 C 
ATOM     40  C   UNL     1      -0.550 -23.625  -2.851  1.00  0.00     0.031 A 
BRANCH  27  41
ATOM     41  C   UNL     1       5.322 -24.161  -4.690  1.00  0.00    -0.014 A 
ATOM     42  C   UNL     1       6.459 -23.671  -4.028  1.00  0.00     0.009 A 
ATOM     43  C   UNL     1       5.376 -25.434  -5.280  1.00  0.00     0.009 A 
ATOM     44  C   UNL     1       7.633 -24.427  -3.988  1.00  0.00     0.001 A 
ATOM     45  C   UNL     1       6.543 -26.197  -5.216  1.00  0.00     0.001 A 
ATOM     46  C   UNL     1       7.673 -25.690  -4.578  1.00  0.00     0.000 A 
ENDBRANCH  27  41
BRANCH  28  47
ATOM     47  C   UNL     1      -3.072 -18.839  -5.554  1.00  0.00    -0.014 A 
ATOM     48  C   UNL     1      -3.515 -18.060  -4.475  1.00  0.00     0.009 A 
ATOM     49  C   UNL     1      -3.816 -18.841  -6.744  1.00  0.00     0.009 A 
ATOM     50  C   UNL     1      -4.691 -17.314  -4.580  1.00  0.00     0.001 A 
ATOM     51  C   UNL     1      -4.975 -18.073  -6.855  1.00  0.00     0.001 A 
ATOM     52  C   UNL     1      -5.417 -17.317  -5.771  1.00  0.00     0.000 A 
ENDBRANCH  28  47
BRANCH  40  53
ATOM     53  C   UNL     1      -1.313 -24.465  -1.868  1.00  0.00    -0.014 A 
ATOM     54  C   UNL     1      -2.314 -25.353  -2.290  1.00  0.00     0.009 A 
ATOM     55  C   UNL     1      -1.014 -24.373  -0.500  1.00  0.00     0.009 A 
ATOM     56  C   UNL     1      -3.027 -26.106  -1.355  1.00  0.00     0.001 A 
ATOM     57  C   UNL     1      -1.710 -25.147   0.429  1.00  0.00     0.001 A 
ATOM     58  C   UNL     1      -2.723 -26.005   0.002  1.00  0.00     0.000 A 
ENDBRANCH  40  53
ENDBRANCH  14  15
ENDBRANCH   7   9
ENDBRANCH   4   5
ENDBRANCH   3   4
ENDBRANCH   2   3
ENDBRANCH   1   2
BRANCH   1  59
ATOM     59  C   UNL     1       8.585 -12.227  -6.701  1.00  0.00     0.021 C 
BRANCH  59  60
ATOM     60  C   UNL     1       9.857 -12.545  -5.926  1.00  0.00     0.116 C 
BRANCH  60  61
ATOM     61  N   UNL     1      10.881 -11.553  -6.173  1.00  0.00    -0.354 N 
ATOM     62  C   UNL     1      11.714 -10.904  -5.316  1.00  0.00     0.244 C 
ATOM     63  H   UNL     1      10.993 -11.307  -7.120  1.00  0.00     0.163 HD
ATOM     64  O   UNL     1      12.561 -10.156  -5.808  1.00  0.00    -0.273 OA
BRANCH  62  65
ATOM     65  C   UNL     1      11.667 -11.155  -3.803  1.00  0.00     0.197 C 
BRANCH  65  66
ATOM     66  N   UNL     1      10.398 -10.737  -3.196  1.00  0.00    -0.340 N 
ATOM     67  C   UNL     1      10.048  -9.726  -2.362  1.00  0.00     0.243 C 
ATOM     68  H   UNL     1       9.640 -11.313  -3.447  1.00  0.00     0.164 HD
ATOM     69  O   UNL     1       8.898  -9.816  -1.914  1.00  0.00    -0.273 OA
BRANCH  67  70
ATOM     70  C   UNL     1      11.037  -8.664  -1.821  1.00  0.00     0.176 C 
BRANCH  70  71
ATOM     71  N   UNL     1      12.097  -8.184  -2.712  1.00  0.00    -0.340 N 
ATOM     72  C   UNL     1      13.464  -8.166  -2.651  1.00  0.00     0.251 C 
ATOM     73  H   UNL     1      11.747  -7.787  -3.542  1.00  0.00     0.164 HD
ATOM     74  O   UNL     1      14.033  -7.404  -3.436  1.00  0.00    -0.269 OA
BRANCH  72  75
ATOM     75  C   UNL     1      14.310  -9.006  -1.747  1.00  0.00     0.040 A 
ATOM     76  C   UNL     1      13.890 -10.165  -1.087  1.00  0.00     0.017 A 
ATOM     77  C   UNL     1      15.675  -8.665  -1.673  1.00  0.00     0.017 A 
ATOM     78  C   UNL     1      14.800 -10.963  -0.381  1.00  0.00     0.040 A 
ATOM     79  C   UNL     1      16.587  -9.462  -0.972  1.00  0.00     0.040 A 
ATOM     80  C   UNL     1      16.140 -10.608  -0.335  1.00  0.00     0.123 A 
ATOM     81  F   UNL     1      17.011 -11.396   0.307  1.00  0.00    -0.207 F 
ENDBRANCH  72  75
ENDBRANCH  70  71
BRANCH  70  82
ATOM     82  C   UNL     1      10.265  -7.477  -1.213  1.00  0.00     0.072 C 
BRANCH  82  83
ATOM     83  C   UNL     1       9.377  -6.602  -2.069  1.00  0.00    -0.020 A 
ATOM     84  C   UNL     1       8.647  -5.566  -1.503  1.00  0.00     0.087 A 
ATOM     85  C   UNL     1       9.054  -6.592  -3.477  1.00  0.00     0.003 A 
ATOM     86  N   UNL     1       7.919  -4.947  -2.473  1.00  0.00    -0.361 N 
ATOM     87  C   UNL     1       8.149  -5.544  -3.687  1.00  0.00     0.046 A 
ATOM     88  C   UNL     1       9.417  -7.351  -4.615  1.00  0.00     0.010 A 
ATOM     89  H   UNL     1       7.316  -4.183  -2.325  1.00  0.00     0.166 HD
ATOM     90  C   UNL     1       7.611  -5.223  -4.941  1.00  0.00     0.026 A 
ATOM     91  C   UNL     1       8.896  -7.039  -5.878  1.00  0.00     0.001 A 
ATOM     92  C   UNL     1       8.004  -5.987  -6.037  1.00  0.00     0.002 A 
ENDBRANCH  82  83
ENDBRANCH  70  82
ENDBRANCH  67  70
ENDBRANCH  65  66
BRANCH  65  93
ATOM     93  C   UNL     1      11.982 -12.636  -3.504  1.00  0.00     0.191 C 
BRANCH  93  94
ATOM     94  O   UNL     1      12.986 -12.775  -2.500  1.00  0.00    -0.394 OA
ATOM     95  H   UNL     1      13.808 -12.361  -2.806  1.00  0.00     0.210 HD
ENDBRANCH  93  94
ENDBRANCH  65  93
ENDBRANCH  62  65
ENDBRANCH  60  61
ENDBRANCH  59  60
ENDBRANCH   1  59
TORSDOF 21
