REMARK SMILES C[C@@H](C(=O)NCCCCCCNC(=O)c1ccc(-c2c3nc(c(-c4ccccc4)c4ccc([nH]4)c(-c4ccccc4)c4nc(c(-c5ccccc5)c5ccc2[nH]5)C=C4)C=C3)cc1)c1ccc(N[C@H]2CCC[C@@H]2O)cc1F
REMARK SMILES IDX 7 1 6 2 5 3 3 4 4 5 2 7 1 8 63 9 64 10 75 11 65 12 74 13
REMARK SMILES IDX 76 14 66 15 67 16 68 18 69 19 72 20 70 21 71 22 73 23 8 25
REMARK SMILES IDX 9 26 10 27 11 28 12 29 13 30 14 32 15 33 16 34 62 35 17 36
REMARK SMILES IDX 61 37 18 38 19 39 20 40 55 41 21 42 60 43 54 44 56 45 22 46
REMARK SMILES IDX 59 47 53 48 52 49 23 51 45 52 30 53 44 54 31 55 34 56 43 57
REMARK SMILES IDX 57 58 32 59 33 60 42 62 58 63 35 64 24 65 25 66 29 67 26 68
REMARK SMILES IDX 28 69 27 70 46 71 47 72 51 73 48 74 50 75 49 76 36 77 37 78
REMARK SMILES IDX 41 79 38 80 40 81 39 82
REMARK H PARENT 5 6 67 17 73 24 12 31 56 50 34 61
REMARK Flexibility Score: inf
ROOT
ATOM      1  C   UNL     1       4.254  -0.243  -1.592  1.00  0.00     0.021 C 
ENDROOT
BRANCH   1   2
ATOM      2  C   UNL     1       3.410   1.025  -1.726  1.00  0.00     0.116 C 
BRANCH   2   3
ATOM      3  N   UNL     1       2.299   0.800  -2.624  1.00  0.00    -0.356 N 
ATOM      4  C   UNL     1       0.988   0.543  -2.347  1.00  0.00     0.227 C 
ATOM      5  O   UNL     1       0.269   0.245  -3.302  1.00  0.00    -0.274 OA
ATOM      6  H   UNL     1       2.523   0.838  -3.582  1.00  0.00     0.163 HD
BRANCH   4   7
ATOM      7  C   UNL     1       0.468   0.699  -0.909  1.00  0.00     0.108 C 
ATOM      8  C   UNL     1       0.961  -0.405   0.030  1.00  0.00     0.023 C 
BRANCH   7   9
ATOM      9  C   UNL     1      -1.047   0.818  -0.884  1.00  0.00     0.000 A 
ATOM     10  C   UNL     1      -1.651   2.072  -0.760  1.00  0.00     0.009 A 
ATOM     11  C   UNL     1      -1.881  -0.292  -1.028  1.00  0.00     0.129 A 
ATOM     12  C   UNL     1      -3.046   2.195  -0.759  1.00  0.00     0.026 A 
ATOM     13  C   UNL     1      -3.269  -0.164  -1.027  1.00  0.00     0.065 A 
ATOM     14  F   UNL     1      -1.361  -1.520  -1.165  1.00  0.00    -0.207 F 
ATOM     15  C   UNL     1      -3.885   1.087  -0.903  1.00  0.00     0.037 A 
BRANCH  15  16
ATOM     16  N   UNL     1      -5.263   1.138  -0.890  1.00  0.00    -0.380 N 
ATOM     17  H   UNL     1      -5.717   0.265  -0.915  1.00  0.00     0.160 HD
BRANCH  16  18
ATOM     18  C   UNL     1      -6.145   2.296  -0.845  1.00  0.00     0.107 C 
ATOM     19  C   UNL     1      -6.011   3.144   0.424  1.00  0.00     0.027 C 
ATOM     20  C   UNL     1      -6.002   3.265  -2.036  1.00  0.00     0.136 C 
ATOM     21  C   UNL     1      -5.985   4.599  -0.048  1.00  0.00     0.005 C 
ATOM     22  C   UNL     1      -6.536   4.573  -1.467  1.00  0.00     0.034 C 
BRANCH  20  23
ATOM     23  O   UNL     1      -6.748   2.872  -3.182  1.00  0.00    -0.391 OA
ATOM     24  H   UNL     1      -7.687   2.803  -2.948  1.00  0.00     0.211 HD
ENDBRANCH  20  23
ENDBRANCH  16  18
ENDBRANCH  15  16
ENDBRANCH   7   9
ENDBRANCH   4   7
ENDBRANCH   2   3
ENDBRANCH   1   2
BRANCH   1  25
ATOM     25  C   UNL     1       4.981  -0.646  -2.882  1.00  0.00     0.002 C 
BRANCH  25  26
ATOM     26  C   UNL     1       5.932   0.413  -3.449  1.00  0.00     0.002 C 
BRANCH  26  27
ATOM     27  C   UNL     1       6.984   0.929  -2.464  1.00  0.00     0.021 C 
BRANCH  27  28
ATOM     28  C   UNL     1       7.897  -0.149  -1.889  1.00  0.00     0.116 C 
BRANCH  28  29
ATOM     29  N   UNL     1       8.720  -0.772  -2.913  1.00  0.00    -0.352 N 
ATOM     30  C   UNL     1      10.075  -0.976  -2.928  1.00  0.00     0.251 C 
ATOM     31  H   UNL     1       8.235  -1.093  -3.707  1.00  0.00     0.163 HD
ATOM     32  O   UNL     1      10.633  -1.351  -3.958  1.00  0.00    -0.269 OA
BRANCH  30  33
ATOM     33  C   UNL     1      10.873  -0.728  -1.710  1.00  0.00     0.039 A 
ATOM     34  C   UNL     1      12.082  -0.036  -1.825  1.00  0.00     0.014 A 
ATOM     35  C   UNL     1      10.444  -1.192  -0.462  1.00  0.00     0.014 A 
ATOM     36  C   UNL     1      12.837   0.233  -0.682  1.00  0.00     0.010 A 
ATOM     37  C   UNL     1      11.164  -0.865   0.684  1.00  0.00     0.010 A 
ATOM     38  C   UNL     1      12.371  -0.157   0.584  1.00  0.00    -0.014 A 
BRANCH  38  39
ATOM     39  C   UNL     1      13.142   0.155   1.812  1.00  0.00     0.031 A 
ATOM     40  C   UNL     1      13.740  -0.954   2.633  1.00  0.00     0.074 A 
ATOM     41  C   UNL     1      13.261   1.434   2.219  1.00  0.00     0.049 A 
ATOM     42  N   UNL     1      14.408  -0.882   3.757  1.00  0.00    -0.248 NA
ATOM     43  C   UNL     1      13.540  -2.326   2.139  1.00  0.00     0.031 C 
ATOM     44  C   UNL     1      12.697   2.598   1.532  1.00  0.00     0.029 A 
ATOM     45  N   UNL     1      13.893   1.966   3.314  1.00  0.00    -0.354 N 
ATOM     46  C   UNL     1      14.692  -2.195   4.111  1.00  0.00     0.074 A 
ATOM     47  C   UNL     1      14.084  -3.045   3.111  1.00  0.00     0.031 C 
ATOM     48  C   UNL     1      13.034   3.710   2.207  1.00  0.00     0.029 A 
ATOM     49  C   UNL     1      13.804   3.335   3.389  1.00  0.00     0.049 A 
ATOM     50  H   UNL     1      14.366   1.420   3.982  1.00  0.00     0.167 HD
ATOM     51  C   UNL     1      15.409  -2.653   5.165  1.00  0.00     0.031 A 
ATOM     52  C   UNL     1      14.287   4.192   4.307  1.00  0.00     0.031 A 
ATOM     53  C   UNL     1      16.026  -1.810   6.153  1.00  0.00     0.049 A 
ATOM     54  C   UNL     1      15.076   3.658   5.470  1.00  0.00     0.074 A 
ATOM     55  C   UNL     1      16.820  -2.177   7.226  1.00  0.00     0.029 A 
ATOM     56  N   UNL     1      15.918  -0.429   6.189  1.00  0.00    -0.354 N 
ATOM     57  N   UNL     1      15.389   2.418   5.756  1.00  0.00    -0.248 NA
ATOM     58  C   UNL     1      15.587   4.647   6.429  1.00  0.00     0.031 C 
ATOM     59  C   UNL     1      17.155  -1.020   7.937  1.00  0.00     0.029 A 
ATOM     60  C   UNL     1      16.613   0.071   7.277  1.00  0.00     0.049 A 
ATOM     61  H   UNL     1      15.420   0.116   5.537  1.00  0.00     0.167 HD
ATOM     62  C   UNL     1      16.157   2.479   6.911  1.00  0.00     0.074 A 
ATOM     63  C   UNL     1      16.274   3.879   7.264  1.00  0.00     0.031 C 
ATOM     64  C   UNL     1      16.718   1.466   7.615  1.00  0.00     0.031 A 
BRANCH  51  65
ATOM     65  C   UNL     1      15.558  -4.143   5.301  1.00  0.00    -0.014 A 
ATOM     66  C   UNL     1      16.359  -4.878   4.412  1.00  0.00     0.009 A 
ATOM     67  C   UNL     1      14.912  -4.817   6.349  1.00  0.00     0.009 A 
ATOM     68  C   UNL     1      16.477  -6.263   4.546  1.00  0.00     0.001 A 
ATOM     69  C   UNL     1      15.055  -6.198   6.497  1.00  0.00     0.001 A 
ATOM     70  C   UNL     1      15.828  -6.921   5.590  1.00  0.00     0.000 A 
ENDBRANCH  51  65
BRANCH  52  71
ATOM     71  C   UNL     1      14.062   5.652   4.152  1.00  0.00    -0.014 A 
ATOM     72  C   UNL     1      15.123   6.501   3.802  1.00  0.00     0.009 A 
ATOM     73  C   UNL     1      12.789   6.206   4.359  1.00  0.00     0.009 A 
ATOM     74  C   UNL     1      14.920   7.878   3.688  1.00  0.00     0.001 A 
ATOM     75  C   UNL     1      12.583   7.580   4.218  1.00  0.00     0.001 A 
ATOM     76  C   UNL     1      13.650   8.415   3.891  1.00  0.00     0.000 A 
ENDBRANCH  52  71
BRANCH  64  77
ATOM     77  C   UNL     1      17.538   1.840   8.817  1.00  0.00    -0.014 A 
ATOM     78  C   UNL     1      16.933   2.292  10.000  1.00  0.00     0.009 A 
ATOM     79  C   UNL     1      18.934   1.704   8.774  1.00  0.00     0.009 A 
ATOM     80  C   UNL     1      17.715   2.633  11.105  1.00  0.00     0.001 A 
ATOM     81  C   UNL     1      19.711   2.019   9.889  1.00  0.00     0.001 A 
ATOM     82  C   UNL     1      19.101   2.492  11.050  1.00  0.00     0.000 A 
ENDBRANCH  64  77
ENDBRANCH  38  39
ENDBRANCH  30  33
ENDBRANCH  28  29
ENDBRANCH  27  28
ENDBRANCH  26  27
ENDBRANCH  25  26
ENDBRANCH   1  25
TORSDOF 17
