REMARK SMILES Cc1nn(CC(=O)NCCCCCCNC(=O)c2ccc(-c3c4nc(c(-c5ccccc5)c5ccc([nH]5)c(-c5ccccc5)c5nc(c(-c6ccccc6)c6ccc3[nH]6)C=C5)C=C4)cc2)c(C)c1NC(=O)C(=O)Nc1ccc(F)cc1
REMARK SMILES IDX 10 1 9 2 8 3 6 4 7 5 5 7 4 8 1 9 2 10 3 11 68 12 66 13 67 14
REMARK SMILES IDX 69 15 70 16 71 18 72 19 73 20 74 21 75 23 76 24 81 25 77 26
REMARK SMILES IDX 80 27 78 28 79 29 11 30 12 31 13 32 14 33 15 34 16 35 17 37
REMARK SMILES IDX 18 38 19 39 65 40 20 41 64 42 21 43 22 44 23 45 58 46 24 47
REMARK SMILES IDX 63 48 57 49 59 50 25 51 62 52 56 53 55 54 26 56 48 57 33 58
REMARK SMILES IDX 47 59 34 60 37 61 46 62 60 63 35 64 36 65 45 67 61 68 38 69
REMARK SMILES IDX 27 70 28 71 32 72 29 73 31 74 30 75 49 76 50 77 54 78 51 79
REMARK SMILES IDX 53 80 52 81 39 82 40 83 44 84 41 85 43 86 42 87
REMARK H PARENT 8 6 69 17 74 22 15 36 59 55 37 66
REMARK Flexibility Score: inf
ROOT
ATOM      1  C   UNL     1      -3.568  -2.377   2.228  1.00  0.00     0.021 C 
ENDROOT
BRANCH   1   2
ATOM      2  C   UNL     1      -2.995  -2.871   3.551  1.00  0.00     0.116 C 
BRANCH   2   3
ATOM      3  N   UNL     1      -2.280  -4.120   3.407  1.00  0.00    -0.354 N 
ATOM      4  C   UNL     1      -0.951  -4.419   3.429  1.00  0.00     0.241 C 
ATOM      5  O   UNL     1      -0.667  -5.609   3.233  1.00  0.00    -0.273 OA
ATOM      6  H   UNL     1      -2.863  -4.901   3.266  1.00  0.00     0.163 HD
BRANCH   4   7
ATOM      7  C   UNL     1       0.137  -3.450   3.840  1.00  0.00     0.244 C 
BRANCH   7   8
ATOM      8  N   UNL     1       0.096  -2.132   3.227  1.00  0.00    -0.258 N 
ATOM      9  C   UNL     1       0.789  -0.248   0.329  1.00  0.00     0.071 C 
ATOM     10  C   UNL     1       0.391  -0.720   1.682  1.00  0.00     0.083 A 
ATOM     11  N   UNL     1       0.459  -2.025   1.942  1.00  0.00    -0.175 NA
ATOM     12  C   UNL     1      -0.049   0.033   2.818  1.00  0.00     0.086 A 
ATOM     13  C   UNL     1      -0.200  -0.915   3.821  1.00  0.00     0.060 A 
ATOM     14  C   UNL     1      -0.658  -0.861   5.239  1.00  0.00     0.069 C 
BRANCH  12  15
ATOM     15  N   UNL     1      -0.266   1.402   2.761  1.00  0.00    -0.315 N 
ATOM     16  C   UNL     1      -0.506   2.387   3.686  1.00  0.00     0.314 C 
ATOM     17  H   UNL     1      -0.243   1.748   1.840  1.00  0.00     0.170 HD
ATOM     18  O   UNL     1      -0.735   3.531   3.300  1.00  0.00    -0.263 OA
BRANCH  16  19
ATOM     19  C   UNL     1      -0.364   2.103   5.168  1.00  0.00     0.314 C 
ATOM     20  O   UNL     1       0.716   1.705   5.598  1.00  0.00    -0.263 OA
ATOM     21  N   UNL     1      -1.445   2.257   6.025  1.00  0.00    -0.318 N 
ATOM     22  H   UNL     1      -1.751   1.482   6.549  1.00  0.00     0.170 HD
BRANCH  21  23
ATOM     23  C   UNL     1      -2.117   3.485   6.170  1.00  0.00     0.041 A 
ATOM     24  C   UNL     1      -1.927   4.147   7.390  1.00  0.00     0.029 A 
ATOM     25  C   UNL     1      -2.872   4.080   5.161  1.00  0.00     0.029 A 
ATOM     26  C   UNL     1      -2.383   5.451   7.555  1.00  0.00     0.041 A 
ATOM     27  C   UNL     1      -3.346   5.383   5.337  1.00  0.00     0.041 A 
ATOM     28  C   UNL     1      -3.072   6.065   6.519  1.00  0.00     0.123 A 
ATOM     29  F   UNL     1      -3.468   7.337   6.657  1.00  0.00    -0.207 F 
ENDBRANCH  21  23
ENDBRANCH  16  19
ENDBRANCH  12  15
ENDBRANCH   7   8
ENDBRANCH   4   7
ENDBRANCH   2   3
ENDBRANCH   1   2
BRANCH   1  30
ATOM     30  C   UNL     1      -4.785  -3.176   1.754  1.00  0.00     0.002 C 
BRANCH  30  31
ATOM     31  C   UNL     1      -5.945  -3.287   2.759  1.00  0.00     0.002 C 
BRANCH  31  32
ATOM     32  C   UNL     1      -6.486  -1.972   3.340  1.00  0.00     0.021 C 
BRANCH  32  33
ATOM     33  C   UNL     1      -7.124  -1.061   2.306  1.00  0.00     0.116 C 
BRANCH  33  34
ATOM     34  N   UNL     1      -8.319  -1.647   1.688  1.00  0.00    -0.352 N 
ATOM     35  C   UNL     1      -9.107  -1.137   0.667  1.00  0.00     0.251 C 
ATOM     36  H   UNL     1      -8.599  -2.519   2.047  1.00  0.00     0.163 HD
ATOM     37  O   UNL     1     -10.244  -1.531   0.481  1.00  0.00    -0.269 OA
BRANCH  35  38
ATOM     38  C   UNL     1      -8.518  -0.108  -0.208  1.00  0.00     0.039 A 
ATOM     39  C   UNL     1      -9.238   0.990  -0.685  1.00  0.00     0.014 A 
ATOM     40  C   UNL     1      -7.172  -0.259  -0.508  1.00  0.00     0.014 A 
ATOM     41  C   UNL     1      -8.557   1.963  -1.417  1.00  0.00     0.010 A 
ATOM     42  C   UNL     1      -6.468   0.807  -0.973  1.00  0.00     0.010 A 
ATOM     43  C   UNL     1      -7.164   1.858  -1.546  1.00  0.00    -0.014 A 
BRANCH  43  44
ATOM     44  C   UNL     1      -6.357   2.844  -2.244  1.00  0.00     0.031 A 
ATOM     45  C   UNL     1      -6.430   4.216  -1.686  1.00  0.00     0.074 A 
ATOM     46  C   UNL     1      -5.413   2.475  -3.140  1.00  0.00     0.049 A 
ATOM     47  N   UNL     1      -6.917   5.269  -2.250  1.00  0.00    -0.248 NA
ATOM     48  C   UNL     1      -6.028   4.419  -0.284  1.00  0.00     0.031 C 
ATOM     49  C   UNL     1      -4.987   1.119  -3.526  1.00  0.00     0.029 A 
ATOM     50  N   UNL     1      -4.525   3.254  -3.804  1.00  0.00    -0.354 N 
ATOM     51  C   UNL     1      -6.714   6.313  -1.354  1.00  0.00     0.074 A 
ATOM     52  C   UNL     1      -6.334   5.705  -0.104  1.00  0.00     0.031 C 
ATOM     53  C   UNL     1      -3.783   1.176  -4.138  1.00  0.00     0.029 A 
ATOM     54  C   UNL     1      -3.449   2.569  -4.357  1.00  0.00     0.049 A 
ATOM     55  H   UNL     1      -4.633   4.229  -3.889  1.00  0.00     0.167 HD
ATOM     56  C   UNL     1      -6.636   7.605  -1.779  1.00  0.00     0.031 A 
ATOM     57  C   UNL     1      -2.349   3.119  -4.927  1.00  0.00     0.031 A 
ATOM     58  C   UNL     1      -7.091   7.742  -3.140  1.00  0.00     0.049 A 
ATOM     59  C   UNL     1      -2.695   4.520  -5.267  1.00  0.00     0.074 A 
ATOM     60  C   UNL     1      -8.285   7.511  -3.793  1.00  0.00     0.029 A 
ATOM     61  N   UNL     1      -6.124   7.771  -4.119  1.00  0.00    -0.354 N 
ATOM     62  N   UNL     1      -3.588   4.837  -6.162  1.00  0.00    -0.248 NA
ATOM     63  C   UNL     1      -2.408   5.547  -4.279  1.00  0.00     0.031 C 
ATOM     64  C   UNL     1      -7.910   6.925  -5.038  1.00  0.00     0.029 A 
ATOM     65  C   UNL     1      -6.515   6.907  -5.109  1.00  0.00     0.049 A 
ATOM     66  H   UNL     1      -5.302   8.313  -4.109  1.00  0.00     0.167 HD
ATOM     67  C   UNL     1      -4.286   5.899  -5.604  1.00  0.00     0.074 A 
ATOM     68  C   UNL     1      -3.454   6.353  -4.488  1.00  0.00     0.031 C 
ATOM     69  C   UNL     1      -5.599   6.121  -5.909  1.00  0.00     0.031 A 
BRANCH  56  70
ATOM     70  C   UNL     1      -5.777   8.657  -1.125  1.00  0.00    -0.014 A 
ATOM     71  C   UNL     1      -5.818   9.968  -1.631  1.00  0.00     0.009 A 
ATOM     72  C   UNL     1      -4.736   8.359  -0.226  1.00  0.00     0.009 A 
ATOM     73  C   UNL     1      -4.825  10.903  -1.315  1.00  0.00     0.001 A 
ATOM     74  C   UNL     1      -3.766   9.302   0.125  1.00  0.00     0.001 A 
ATOM     75  C   UNL     1      -3.795  10.566  -0.444  1.00  0.00     0.000 A 
ENDBRANCH  56  70
BRANCH  57  76
ATOM     76  C   UNL     1      -0.956   2.624  -4.924  1.00  0.00    -0.014 A 
ATOM     77  C   UNL     1      -0.014   3.115  -5.842  1.00  0.00     0.009 A 
ATOM     78  C   UNL     1      -0.476   1.872  -3.834  1.00  0.00     0.009 A 
ATOM     79  C   UNL     1       1.359   2.897  -5.652  1.00  0.00     0.001 A 
ATOM     80  C   UNL     1       0.893   1.654  -3.646  1.00  0.00     0.001 A 
ATOM     81  C   UNL     1       1.812   2.181  -4.547  1.00  0.00     0.000 A 
ENDBRANCH  57  76
BRANCH  69  82
ATOM     82  C   UNL     1      -6.219   5.297  -7.014  1.00  0.00    -0.014 A 
ATOM     83  C   UNL     1      -6.365   3.899  -6.946  1.00  0.00     0.009 A 
ATOM     84  C   UNL     1      -6.831   5.974  -8.079  1.00  0.00     0.009 A 
ATOM     85  C   UNL     1      -7.083   3.202  -7.925  1.00  0.00     0.001 A 
ATOM     86  C   UNL     1      -7.563   5.281  -9.045  1.00  0.00     0.001 A 
ATOM     87  C   UNL     1      -7.687   3.896  -8.971  1.00  0.00     0.000 A 
ENDBRANCH  69  82
ENDBRANCH  43  44
ENDBRANCH  35  38
ENDBRANCH  33  34
ENDBRANCH  32  33
ENDBRANCH  31  32
ENDBRANCH  30  31
ENDBRANCH   1  30
TORSDOF 17
