REMARK SMILES COC(=O)Oc1cncc(C(=O)NCCCCCCNC(=O)c2ccc(-c3c4nc(c(-c5ccccc5)c5ccc([nH]5)c(-c5ccccc5)c5nc(c(-c6ccccc6)c6ccc3[nH]6)C=C5)C=C4)cc2)c1
REMARK SMILES IDX 16 1 15 2 14 3 13 4 11 5 12 6 10 8 6 9 7 10 71 11 8 12 9 13
REMARK SMILES IDX 5 14 3 15 4 16 2 17 1 18 17 19 18 20 19 21 20 22 21 23 22 25
REMARK SMILES IDX 23 26 24 27 70 28 25 29 69 30 26 31 27 32 28 33 63 34 29 35
REMARK SMILES IDX 68 36 62 37 64 38 30 39 67 40 61 41 60 42 31 44 53 45 38 46
REMARK SMILES IDX 52 47 39 48 42 49 51 50 65 51 40 52 41 53 50 55 66 56 43 57
REMARK SMILES IDX 32 58 33 59 37 60 34 61 36 62 35 63 54 64 55 65 59 66 56 67
REMARK SMILES IDX 58 68 57 69 44 70 45 71 49 72 46 73 48 74 47 75
REMARK H PARENT 13 7 20 24 64 43 42 54
REMARK Flexibility Score: inf
ROOT
ATOM      1  C   UNL     1       6.970  -4.340  -2.391  1.00  0.00     0.002 C 
ENDROOT
BRANCH   1   2
ATOM      2  C   UNL     1       5.464  -4.292  -2.097  1.00  0.00     0.021 C 
BRANCH   2   3
ATOM      3  C   UNL     1       4.667  -3.642  -3.231  1.00  0.00     0.116 C 
BRANCH   3   4
ATOM      4  N   UNL     1       4.408  -4.625  -4.265  1.00  0.00    -0.352 N 
ATOM      5  C   UNL     1       3.309  -5.366  -4.609  1.00  0.00     0.252 C 
ATOM      6  O   UNL     1       3.441  -6.174  -5.529  1.00  0.00    -0.269 OA
ATOM      7  H   UNL     1       5.187  -4.795  -4.842  1.00  0.00     0.163 HD
BRANCH   5   8
ATOM      8  C   UNL     1       1.969  -5.197  -3.996  1.00  0.00     0.061 A 
ATOM      9  C   UNL     1       0.385  -4.315  -2.423  1.00  0.00     0.153 A 
ATOM     10  C   UNL     1      -0.644  -4.738  -3.247  1.00  0.00     0.158 A 
ATOM     11  C   UNL     1       1.700  -4.640  -2.751  1.00  0.00     0.064 A 
ATOM     12  N   UNL     1      -0.429  -5.401  -4.403  1.00  0.00    -0.260 NA
ATOM     13  C   UNL     1       0.870  -5.590  -4.761  1.00  0.00     0.125 A 
BRANCH   9  14
ATOM     14  O   UNL     1       0.086  -3.557  -1.290  1.00  0.00    -0.393 OA
BRANCH  14  15
ATOM     15  C   UNL     1       0.631  -2.276  -1.335  1.00  0.00     0.513 C 
ATOM     16  O   UNL     1       1.334  -1.811  -2.220  1.00  0.00    -0.203 OA
BRANCH  15  17
ATOM     17  O   UNL     1       0.275  -1.616  -0.200  1.00  0.00    -0.437 OA
ATOM     18  C   UNL     1       0.818  -0.297  -0.117  1.00  0.00     0.286 C 
ENDBRANCH  15  17
ENDBRANCH  14  15
ENDBRANCH   9  14
ENDBRANCH   5   8
ENDBRANCH   3   4
ENDBRANCH   2   3
ENDBRANCH   1   2
BRANCH   1  19
ATOM     19  C   UNL     1       7.627  -2.962  -2.550  1.00  0.00     0.002 C 
BRANCH  19  20
ATOM     20  C   UNL     1       7.411  -2.013  -1.368  1.00  0.00     0.021 C 
BRANCH  20  21
ATOM     21  C   UNL     1       7.978  -2.529  -0.051  1.00  0.00     0.116 C 
BRANCH  21  22
ATOM     22  N   UNL     1       9.420  -2.702  -0.129  1.00  0.00    -0.352 N 
ATOM     23  C   UNL     1      10.409  -2.148   0.640  1.00  0.00     0.251 C 
ATOM     24  H   UNL     1       9.732  -3.307  -0.840  1.00  0.00     0.163 HD
ATOM     25  O   UNL     1      11.575  -2.189   0.261  1.00  0.00    -0.269 OA
BRANCH  23  26
ATOM     26  C   UNL     1      10.074  -1.502   1.925  1.00  0.00     0.039 A 
ATOM     27  C   UNL     1      10.768  -0.349   2.297  1.00  0.00     0.014 A 
ATOM     28  C   UNL     1       9.117  -2.053   2.783  1.00  0.00     0.014 A 
ATOM     29  C   UNL     1      10.481   0.265   3.515  1.00  0.00     0.010 A 
ATOM     30  C   UNL     1       8.768  -1.388   3.954  1.00  0.00     0.010 A 
ATOM     31  C   UNL     1       9.463  -0.236   4.344  1.00  0.00    -0.014 A 
BRANCH  31  32
ATOM     32  C   UNL     1       9.135   0.436   5.624  1.00  0.00     0.031 A 
ATOM     33  C   UNL     1       9.348  -0.268   6.936  1.00  0.00     0.074 A 
ATOM     34  C   UNL     1       8.633   1.685   5.602  1.00  0.00     0.049 A 
ATOM     35  N   UNL     1       9.188   0.190   8.153  1.00  0.00    -0.248 NA
ATOM     36  C   UNL     1       9.774  -1.675   6.876  1.00  0.00     0.031 C 
ATOM     37  C   UNL     1       8.345   2.459   4.393  1.00  0.00     0.029 A 
ATOM     38  N   UNL     1       8.298   2.532   6.628  1.00  0.00    -0.354 N 
ATOM     39  C   UNL     1       9.487  -0.873   8.997  1.00  0.00     0.074 A 
ATOM     40  C   UNL     1       9.768  -2.014   8.155  1.00  0.00     0.031 C 
ATOM     41  C   UNL     1       7.942   3.689   4.746  1.00  0.00     0.029 A 
ATOM     42  C   UNL     1       7.902   3.776   6.202  1.00  0.00     0.049 A 
ATOM     43  H   UNL     1       8.338   2.273   7.577  1.00  0.00     0.167 HD
ATOM     44  C   UNL     1       9.547  -0.893  10.351  1.00  0.00     0.031 A 
ATOM     45  C   UNL     1       7.563   4.871   6.906  1.00  0.00     0.031 A 
ATOM     46  C   UNL     1       9.251   0.241  11.187  1.00  0.00     0.049 A 
ATOM     47  C   UNL     1       7.603   4.816   8.407  1.00  0.00     0.074 A 
ATOM     48  C   UNL     1       9.323   0.342  12.565  1.00  0.00     0.029 A 
ATOM     49  N   UNL     1       8.812   1.471  10.718  1.00  0.00    -0.354 N 
ATOM     50  N   UNL     1       7.962   3.829   9.191  1.00  0.00    -0.248 NA
ATOM     51  C   UNL     1       7.204   6.038   9.117  1.00  0.00     0.031 C 
ATOM     52  C   UNL     1       8.862   1.611  12.934  1.00  0.00     0.029 A 
ATOM     53  C   UNL     1       8.577   2.327  11.782  1.00  0.00     0.049 A 
ATOM     54  H   UNL     1       8.687   1.702   9.770  1.00  0.00     0.167 HD
ATOM     55  C   UNL     1       7.869   4.321  10.487  1.00  0.00     0.074 A 
ATOM     56  C   UNL     1       7.433   5.699  10.377  1.00  0.00     0.031 C 
ATOM     57  C   UNL     1       8.130   3.693  11.660  1.00  0.00     0.031 A 
BRANCH  44  58
ATOM     58  C   UNL     1       9.924  -2.200  11.001  1.00  0.00    -0.014 A 
ATOM     59  C   UNL     1      11.201  -2.762  10.835  1.00  0.00     0.009 A 
ATOM     60  C   UNL     1       8.984  -2.885  11.786  1.00  0.00     0.009 A 
ATOM     61  C   UNL     1      11.508  -4.008  11.387  1.00  0.00     0.001 A 
ATOM     62  C   UNL     1       9.306  -4.113  12.371  1.00  0.00     0.001 A 
ATOM     63  C   UNL     1      10.561  -4.681  12.157  1.00  0.00     0.000 A 
ENDBRANCH  44  58
BRANCH  45  64
ATOM     64  C   UNL     1       7.213   6.129   6.197  1.00  0.00    -0.014 A 
ATOM     65  C   UNL     1       8.078   7.234   6.247  1.00  0.00     0.009 A 
ATOM     66  C   UNL     1       6.024   6.231   5.458  1.00  0.00     0.009 A 
ATOM     67  C   UNL     1       7.748   8.422   5.592  1.00  0.00     0.001 A 
ATOM     68  C   UNL     1       5.712   7.411   4.778  1.00  0.00     0.001 A 
ATOM     69  C   UNL     1       6.569   8.507   4.854  1.00  0.00     0.000 A 
ENDBRANCH  45  64
BRANCH  57  70
ATOM     70  C   UNL     1       7.990   4.508  12.918  1.00  0.00    -0.014 A 
ATOM     71  C   UNL     1       6.739   4.950  13.376  1.00  0.00     0.009 A 
ATOM     72  C   UNL     1       9.137   4.829  13.662  1.00  0.00     0.009 A 
ATOM     73  C   UNL     1       6.646   5.739  14.525  1.00  0.00     0.001 A 
ATOM     74  C   UNL     1       9.037   5.585  14.831  1.00  0.00     0.001 A 
ATOM     75  C   UNL     1       7.794   6.052  15.253  1.00  0.00     0.000 A 
ENDBRANCH  57  70
ENDBRANCH  31  32
ENDBRANCH  23  26
ENDBRANCH  21  22
ENDBRANCH  20  21
ENDBRANCH  19  20
ENDBRANCH   1  19
TORSDOF 16
