REMARK SMILES COc1ccc(OC)c(-c2cc(C(=O)NCCCCCCNC(=O)c3ccc(-c4c5nc(c(-c6ccccc6)c6ccc([nH]6)c(-c6ccccc6)c6nc(c(-c7ccccc7)c7ccc4[nH]7)C=C6)C=C5)cc3)c3ccc(C)c(C)c3n2)c1
REMARK SMILES IDX 18 1 17 2 16 3 15 4 13 5 14 6 12 8 10 9 11 10 81 11 80 12
REMARK SMILES IDX 73 13 78 14 74 15 76 16 79 17 75 18 77 19 9 20 3 21 4 22
REMARK SMILES IDX 82 23 5 24 6 25 2 26 1 27 7 28 8 29 19 30 20 31 21 32 22 33
REMARK SMILES IDX 23 34 24 36 25 37 26 38 72 39 27 40 71 41 28 42 29 43 30 44
REMARK SMILES IDX 65 45 31 46 70 47 64 48 66 49 32 50 69 51 63 52 62 53 33 55
REMARK SMILES IDX 55 56 40 57 54 58 41 59 44 60 53 61 67 62 42 63 43 64 52 66
REMARK SMILES IDX 68 67 45 68 34 69 35 70 39 71 36 72 38 73 37 74 56 75 57 76
REMARK SMILES IDX 61 77 58 78 60 79 59 80 46 81 47 82 51 83 48 84 50 85 49 86
REMARK H PARENT 15 7 22 35 66 54 44 65
REMARK Flexibility Score: inf
ROOT
ATOM      1  C   UNL     1       9.382   1.898   0.274  1.00  0.00     0.002 C 
ENDROOT
BRANCH   1   2
ATOM      2  C   UNL     1       8.251   2.394  -0.641  1.00  0.00     0.021 C 
BRANCH   2   3
ATOM      3  C   UNL     1       7.609   1.273  -1.462  1.00  0.00     0.116 C 
BRANCH   3   4
ATOM      4  N   UNL     1       6.900   0.388  -0.558  1.00  0.00    -0.352 N 
ATOM      5  C   UNL     1       5.596   0.021  -0.387  1.00  0.00     0.252 C 
ATOM      6  O   UNL     1       5.359  -0.632   0.627  1.00  0.00    -0.269 OA
ATOM      7  H   UNL     1       7.502  -0.054   0.084  1.00  0.00     0.163 HD
BRANCH   5   8
ATOM      8  C   UNL     1       4.541   0.311  -1.395  1.00  0.00     0.051 A 
ATOM      9  C   UNL     1       3.539   1.687  -3.032  1.00  0.00     0.076 A 
ATOM     10  C   UNL     1       4.543   1.514  -2.105  1.00  0.00     0.043 A 
ATOM     11  N   UNL     1       2.976   0.584  -3.557  1.00  0.00    -0.247 NA
ATOM     12  C   UNL     1       2.613  -0.338  -2.669  1.00  0.00     0.075 A 
ATOM     13  C   UNL     1       3.369  -0.497  -1.498  1.00  0.00     0.013 A 
ATOM     14  C   UNL     1       1.369  -0.966  -2.826  1.00  0.00    -0.022 A 
ATOM     15  C   UNL     1       2.818  -1.301  -0.473  1.00  0.00     0.011 A 
ATOM     16  C   UNL     1       0.762  -1.589  -1.720  1.00  0.00    -0.046 A 
ATOM     17  C   UNL     1       0.613  -0.808  -4.124  1.00  0.00     0.047 C 
ATOM     18  C   UNL     1       1.510  -1.776  -0.557  1.00  0.00     0.004 A 
ATOM     19  C   UNL     1      -0.715  -1.881  -1.694  1.00  0.00     0.044 C 
BRANCH   9  20
ATOM     20  C   UNL     1       2.467   2.709  -2.806  1.00  0.00     0.046 A 
ATOM     21  C   UNL     1       0.562   2.926  -1.306  1.00  0.00     0.119 A 
ATOM     22  C   UNL     1      -0.283   3.091  -2.397  1.00  0.00     0.050 A 
ATOM     23  C   UNL     1       1.933   2.786  -1.497  1.00  0.00     0.060 A 
ATOM     24  C   UNL     1       0.260   3.214  -3.677  1.00  0.00     0.051 A 
ATOM     25  C   UNL     1       1.639   3.101  -3.873  1.00  0.00     0.128 A 
BRANCH  21  26
ATOM     26  O   UNL     1       0.020   2.913  -0.051  1.00  0.00    -0.497 OA
ATOM     27  C   UNL     1       0.029   1.602   0.518  1.00  0.00     0.278 C 
ENDBRANCH  21  26
BRANCH  25  28
ATOM     28  O   UNL     1       2.082   3.280  -5.158  1.00  0.00    -0.496 OA
ATOM     29  C   UNL     1       3.237   4.120  -5.216  1.00  0.00     0.278 C 
ENDBRANCH  25  28
ENDBRANCH   9  20
ENDBRANCH   5   8
ENDBRANCH   3   4
ENDBRANCH   2   3
ENDBRANCH   1   2
BRANCH   1  30
ATOM     30  C   UNL     1      10.514   1.170  -0.460  1.00  0.00     0.002 C 
BRANCH  30  31
ATOM     31  C   UNL     1      11.131   1.970  -1.607  1.00  0.00     0.021 C 
BRANCH  31  32
ATOM     32  C   UNL     1      11.717   3.305  -1.169  1.00  0.00     0.116 C 
BRANCH  32  33
ATOM     33  N   UNL     1      12.851   3.126  -0.275  1.00  0.00    -0.352 N 
ATOM     34  C   UNL     1      14.111   3.654  -0.388  1.00  0.00     0.251 C 
ATOM     35  H   UNL     1      12.693   2.553   0.510  1.00  0.00     0.163 HD
ATOM     36  O   UNL     1      15.034   3.249   0.314  1.00  0.00    -0.269 OA
BRANCH  34  37
ATOM     37  C   UNL     1      14.343   4.710  -1.389  1.00  0.00     0.039 A 
ATOM     38  C   UNL     1      15.406   4.584  -2.284  1.00  0.00     0.014 A 
ATOM     39  C   UNL     1      13.463   5.793  -1.471  1.00  0.00     0.014 A 
ATOM     40  C   UNL     1      15.551   5.519  -3.308  1.00  0.00     0.010 A 
ATOM     41  C   UNL     1      13.560   6.674  -2.539  1.00  0.00     0.010 A 
ATOM     42  C   UNL     1      14.608   6.548  -3.465  1.00  0.00    -0.014 A 
BRANCH  42  43
ATOM     43  C   UNL     1      14.690   7.510  -4.590  1.00  0.00     0.031 A 
ATOM     44  C   UNL     1      14.877   8.974  -4.311  1.00  0.00     0.074 A 
ATOM     45  C   UNL     1      14.503   7.080  -5.852  1.00  0.00     0.049 A 
ATOM     46  N   UNL     1      14.872   9.982  -5.146  1.00  0.00    -0.248 NA
ATOM     47  C   UNL     1      15.060   9.358  -2.902  1.00  0.00     0.031 C 
ATOM     48  C   UNL     1      14.265   5.691  -6.249  1.00  0.00     0.029 A 
ATOM     49  N   UNL     1      14.466   7.775  -7.034  1.00  0.00    -0.354 N 
ATOM     50  C   UNL     1      15.032  11.117  -4.362  1.00  0.00     0.074 A 
ATOM     51  C   UNL     1      15.067  10.679  -2.984  1.00  0.00     0.031 C 
ATOM     52  C   UNL     1      14.123   5.634  -7.582  1.00  0.00     0.029 A 
ATOM     53  C   UNL     1      14.213   6.985  -8.128  1.00  0.00     0.049 A 
ATOM     54  H   UNL     1      14.607   8.748  -7.092  1.00  0.00     0.167 HD
ATOM     55  C   UNL     1      15.160  12.407  -4.754  1.00  0.00     0.031 A 
ATOM     56  C   UNL     1      14.053   7.311  -9.424  1.00  0.00     0.031 A 
ATOM     57  C   UNL     1      15.116  12.840  -6.125  1.00  0.00     0.049 A 
ATOM     58  C   UNL     1      14.177   8.750  -9.838  1.00  0.00     0.074 A 
ATOM     59  C   UNL     1      15.284  14.115  -6.634  1.00  0.00     0.029 A 
ATOM     60  N   UNL     1      14.878  12.005  -7.207  1.00  0.00    -0.354 N 
ATOM     61  N   UNL     1      14.399   9.807  -9.095  1.00  0.00    -0.248 NA
ATOM     62  C   UNL     1      14.043   9.039 -11.273  1.00  0.00     0.031 C 
ATOM     63  C   UNL     1      15.085  14.062  -8.018  1.00  0.00     0.029 A 
ATOM     64  C   UNL     1      14.864  12.742  -8.380  1.00  0.00     0.049 A 
ATOM     65  H   UNL     1      14.738  11.032  -7.151  1.00  0.00     0.167 HD
ATOM     66  C   UNL     1      14.456  10.883  -9.971  1.00  0.00     0.074 A 
ATOM     67  C   UNL     1      14.261  10.347 -11.303  1.00  0.00     0.031 C 
ATOM     68  C   UNL     1      14.658  12.196  -9.698  1.00  0.00     0.031 A 
BRANCH  55  69
ATOM     69  C   UNL     1      15.337  13.437  -3.670  1.00  0.00    -0.014 A 
ATOM     70  C   UNL     1      16.492  13.466  -2.869  1.00  0.00     0.009 A 
ATOM     71  C   UNL     1      14.331  14.387  -3.437  1.00  0.00     0.009 A 
ATOM     72  C   UNL     1      16.608  14.384  -1.824  1.00  0.00     0.001 A 
ATOM     73  C   UNL     1      14.466  15.328  -2.415  1.00  0.00     0.001 A 
ATOM     74  C   UNL     1      15.596  15.316  -1.599  1.00  0.00     0.000 A 
ENDBRANCH  55  69
BRANCH  56  75
ATOM     75  C   UNL     1      13.764   6.246 -10.419  1.00  0.00    -0.014 A 
ATOM     76  C   UNL     1      14.738   5.853 -11.349  1.00  0.00     0.009 A 
ATOM     77  C   UNL     1      12.521   5.593 -10.421  1.00  0.00     0.009 A 
ATOM     78  C   UNL     1      14.465   4.841 -12.273  1.00  0.00     0.001 A 
ATOM     79  C   UNL     1      12.262   4.562 -11.326  1.00  0.00     0.001 A 
ATOM     80  C   UNL     1      13.232   4.191 -12.256  1.00  0.00     0.000 A 
ENDBRANCH  56  75
BRANCH  68  81
ATOM     81  C   UNL     1      14.711  13.143 -10.865  1.00  0.00    -0.014 A 
ATOM     82  C   UNL     1      13.560  13.469 -11.599  1.00  0.00     0.009 A 
ATOM     83  C   UNL     1      15.929  13.754 -11.205  1.00  0.00     0.009 A 
ATOM     84  C   UNL     1      13.635  14.362 -12.670  1.00  0.00     0.001 A 
ATOM     85  C   UNL     1      15.995  14.670 -12.255  1.00  0.00     0.001 A 
ATOM     86  C   UNL     1      14.850  14.966 -12.993  1.00  0.00     0.000 A 
ENDBRANCH  68  81
ENDBRANCH  42  43
ENDBRANCH  34  37
ENDBRANCH  32  33
ENDBRANCH  31  32
ENDBRANCH  30  31
ENDBRANCH   1  30
TORSDOF 16
