REMARK SMILES O=C(NCCCCCCNC(=O)c1cc(-c2ccccn2)nc2ccc(F)cc12)c1ccc(-c2c3nc(c(-c4ccccc4)c4ccc([nH]4)c(-c4ccccc4)c4nc(c(-c5ccccc5)c5ccc2[nH]5)C=C4)C=C3)cc1
REMARK SMILES IDX 6 1 5 2 4 3 3 4 1 5 2 6 30 8 31 9 77 10 32 11 76 12 33 13
REMARK SMILES IDX 34 14 35 15 70 16 36 17 75 18 69 19 71 20 37 21 74 22 68 23
REMARK SMILES IDX 67 24 38 26 60 27 45 28 59 29 46 30 49 31 58 32 72 33 47 34
REMARK SMILES IDX 48 35 57 37 73 38 50 39 39 40 40 41 44 42 41 43 43 44 42 45
REMARK SMILES IDX 61 46 62 47 66 48 63 49 65 50 64 51 51 52 52 53 56 54 53 55
REMARK SMILES IDX 55 56 54 57 7 58 8 59 9 60 10 61 11 62 12 64 13 65 14 66
REMARK SMILES IDX 29 67 15 68 23 69 28 70 22 71 24 72 26 73 25 74 27 75 16 76
REMARK SMILES IDX 17 77 21 78 18 79 20 80 19 81
REMARK H PARENT 3 7 71 25 49 36 10 63
REMARK Flexibility Score: inf
ROOT
ATOM      1  C   UNL     1       4.152   1.471  -3.593  1.00  0.00     0.002 C 
ENDROOT
BRANCH   1   2
ATOM      2  C   UNL     1       4.623   0.320  -2.703  1.00  0.00     0.021 C 
BRANCH   2   3
ATOM      3  C   UNL     1       4.373   0.496  -1.210  1.00  0.00     0.116 C 
BRANCH   3   4
ATOM      4  N   UNL     1       2.965   0.602  -0.876  1.00  0.00    -0.352 N 
ATOM      5  O   UNL     1       1.042   0.132   0.194  1.00  0.00    -0.269 OA
ATOM      6  C   UNL     1       2.263   0.012   0.145  1.00  0.00     0.251 C 
ATOM      7  H   UNL     1       2.436   1.183  -1.470  1.00  0.00     0.163 HD
BRANCH   6   8
ATOM      8  C   UNL     1       2.961  -0.792   1.175  1.00  0.00     0.039 A 
ATOM      9  C   UNL     1       2.360  -1.975   1.616  1.00  0.00     0.014 A 
ATOM     10  C   UNL     1       4.174  -0.379   1.735  1.00  0.00     0.014 A 
ATOM     11  C   UNL     1       2.989  -2.757   2.587  1.00  0.00     0.010 A 
ATOM     12  C   UNL     1       4.839  -1.199   2.646  1.00  0.00     0.010 A 
ATOM     13  C   UNL     1       4.243  -2.384   3.098  1.00  0.00    -0.014 A 
BRANCH  13  14
ATOM     14  C   UNL     1       4.914  -3.205   4.138  1.00  0.00     0.031 A 
ATOM     15  C   UNL     1       5.129  -2.649   5.519  1.00  0.00     0.074 A 
ATOM     16  C   UNL     1       5.343  -4.447   3.841  1.00  0.00     0.049 A 
ATOM     17  N   UNL     1       5.684  -3.218   6.560  1.00  0.00    -0.248 NA
ATOM     18  C   UNL     1       4.684  -1.266   5.758  1.00  0.00     0.031 C 
ATOM     19  C   UNL     1       5.231  -5.089   2.531  1.00  0.00     0.029 A 
ATOM     20  N   UNL     1       5.949  -5.394   4.627  1.00  0.00    -0.354 N 
ATOM     21  C   UNL     1       5.657  -2.263   7.569  1.00  0.00     0.074 A 
ATOM     22  C   UNL     1       5.094  -1.060   7.000  1.00  0.00     0.031 C 
ATOM     23  C   UNL     1       5.710  -6.340   2.615  1.00  0.00     0.029 A 
ATOM     24  C   UNL     1       6.189  -6.578   3.974  1.00  0.00     0.049 A 
ATOM     25  H   UNL     1       6.188  -5.241   5.570  1.00  0.00     0.167 HD
ATOM     26  C   UNL     1       6.037  -2.385   8.863  1.00  0.00     0.031 A 
ATOM     27  C   UNL     1       6.721  -7.732   4.419  1.00  0.00     0.031 A 
ATOM     28  C   UNL     1       6.587  -3.583   9.436  1.00  0.00     0.049 A 
ATOM     29  C   UNL     1       7.132  -7.849   5.859  1.00  0.00     0.074 A 
ATOM     30  C   UNL     1       6.974  -3.812  10.745  1.00  0.00     0.029 A 
ATOM     31  N   UNL     1       6.820  -4.757   8.737  1.00  0.00    -0.354 N 
ATOM     32  N   UNL     1       7.065  -6.949   6.810  1.00  0.00    -0.248 NA
ATOM     33  C   UNL     1       7.677  -9.144   6.292  1.00  0.00     0.031 C 
ATOM     34  C   UNL     1       7.484  -5.111  10.827  1.00  0.00     0.029 A 
ATOM     35  C   UNL     1       7.360  -5.710   9.583  1.00  0.00     0.049 A 
ATOM     36  H   UNL     1       6.630  -4.892   7.780  1.00  0.00     0.167 HD
ATOM     37  C   UNL     1       7.549  -7.569   7.955  1.00  0.00     0.074 A 
ATOM     38  C   UNL     1       7.883  -8.930   7.585  1.00  0.00     0.031 C 
ATOM     39  C   UNL     1       7.706  -7.055   9.199  1.00  0.00     0.031 A 
BRANCH  26  40
ATOM     40  C   UNL     1       5.853  -1.186   9.753  1.00  0.00    -0.014 A 
ATOM     41  C   UNL     1       6.971  -0.503  10.256  1.00  0.00     0.009 A 
ATOM     42  C   UNL     1       4.569  -0.757  10.129  1.00  0.00     0.009 A 
ATOM     43  C   UNL     1       6.808   0.586  11.115  1.00  0.00     0.001 A 
ATOM     44  C   UNL     1       4.409   0.352  10.963  1.00  0.00     0.001 A 
ATOM     45  C   UNL     1       5.527   1.018  11.460  1.00  0.00     0.000 A 
ENDBRANCH  26  40
BRANCH  27  46
ATOM     46  C   UNL     1       6.842  -8.883   3.487  1.00  0.00    -0.014 A 
ATOM     47  C   UNL     1       7.790  -8.869   2.451  1.00  0.00     0.009 A 
ATOM     48  C   UNL     1       5.967  -9.974   3.592  1.00  0.00     0.009 A 
ATOM     49  C   UNL     1       7.845  -9.915   1.528  1.00  0.00     0.001 A 
ATOM     50  C   UNL     1       6.041 -11.031   2.681  1.00  0.00     0.001 A 
ATOM     51  C   UNL     1       6.973 -10.996   1.645  1.00  0.00     0.000 A 
ENDBRANCH  27  46
BRANCH  39  52
ATOM     52  C   UNL     1       8.270  -7.957  10.260  1.00  0.00    -0.014 A 
ATOM     53  C   UNL     1       7.455  -8.389  11.318  1.00  0.00     0.009 A 
ATOM     54  C   UNL     1       9.628  -8.311  10.259  1.00  0.00     0.009 A 
ATOM     55  C   UNL     1       7.989  -9.151  12.358  1.00  0.00     0.001 A 
ATOM     56  C   UNL     1      10.153  -9.097  11.287  1.00  0.00     0.001 A 
ATOM     57  C   UNL     1       9.336  -9.509  12.338  1.00  0.00     0.000 A 
ENDBRANCH  39  52
ENDBRANCH  13  14
ENDBRANCH   6   8
ENDBRANCH   3   4
ENDBRANCH   2   3
ENDBRANCH   1   2
BRANCH   1  58
ATOM     58  C   UNL     1       4.666   2.863  -3.218  1.00  0.00     0.002 C 
BRANCH  58  59
ATOM     59  C   UNL     1       6.185   3.008  -3.086  1.00  0.00     0.021 C 
BRANCH  59  60
ATOM     60  C   UNL     1       7.001   2.541  -4.287  1.00  0.00     0.116 C 
BRANCH  60  61
ATOM     61  N   UNL     1       6.661   3.251  -5.510  1.00  0.00    -0.352 N 
ATOM     62  C   UNL     1       7.491   3.812  -6.446  1.00  0.00     0.252 C 
ATOM     63  H   UNL     1       5.698   3.343  -5.691  1.00  0.00     0.163 HD
ATOM     64  O   UNL     1       7.023   4.420  -7.407  1.00  0.00    -0.269 OA
BRANCH  62  65
ATOM     65  C   UNL     1       8.953   3.663  -6.310  1.00  0.00     0.051 A 
ATOM     66  C   UNL     1       9.457   2.366  -6.245  1.00  0.00     0.045 A 
ATOM     67  C   UNL     1       9.812   4.779  -6.253  1.00  0.00     0.016 A 
ATOM     68  C   UNL     1      10.812   2.193  -6.033  1.00  0.00     0.090 A 
ATOM     69  C   UNL     1      11.183   4.497  -6.076  1.00  0.00     0.072 A 
ATOM     70  C   UNL     1       9.389   6.128  -6.347  1.00  0.00     0.050 A 
ATOM     71  N   UNL     1      11.663   3.247  -5.957  1.00  0.00    -0.246 NA
ATOM     72  C   UNL     1      12.079   5.559  -6.011  1.00  0.00     0.032 A 
ATOM     73  C   UNL     1      10.315   7.160  -6.281  1.00  0.00     0.123 A 
ATOM     74  C   UNL     1      11.661   6.888  -6.115  1.00  0.00     0.041 A 
ATOM     75  F   UNL     1       9.901   8.429  -6.380  1.00  0.00    -0.207 F 
BRANCH  68  76
ATOM     76  C   UNL     1      11.366   0.845  -5.820  1.00  0.00     0.089 A 
ATOM     77  C   UNL     1      11.169  -0.181  -6.745  1.00  0.00     0.030 A 
ATOM     78  N   UNL     1      11.966   0.625  -4.621  1.00  0.00    -0.255 NA
ATOM     79  C   UNL     1      11.597  -1.469  -6.433  1.00  0.00     0.004 A 
ATOM     80  C   UNL     1      12.386  -0.630  -4.351  1.00  0.00     0.112 A 
ATOM     81  C   UNL     1      12.217  -1.701  -5.212  1.00  0.00     0.020 A 
ENDBRANCH  68  76
ENDBRANCH  62  65
ENDBRANCH  60  61
ENDBRANCH  59  60
ENDBRANCH  58  59
ENDBRANCH   1  58
TORSDOF 14
