REMARK SMILES [NH3+][C@H](CC[S@@](=O)[O-])C(=O)NCCCCCCNC(=O)c1ccc(-c2c3nc(c(-c4ccccc4)c4ccc([nH]4)c(-c4ccccc4)c4nc(c(-c5ccccc5)c5ccc2[nH]5)C=C4)C=C3)cc1
REMARK SMILES IDX 13 1 12 2 11 3 10 4 8 5 9 6 2 8 1 9 3 13 4 14 5 15 6 16 7 17
REMARK SMILES IDX 14 18 15 19 16 20 17 21 18 22 19 24 20 25 21 26 67 27 22 28
REMARK SMILES IDX 66 29 23 30 24 31 25 32 60 33 26 34 65 35 59 36 61 37 27 38
REMARK SMILES IDX 64 39 58 40 57 41 28 43 50 44 35 45 49 46 36 47 39 48 48 49
REMARK SMILES IDX 62 50 37 51 38 52 47 54 63 55 40 56 29 57 30 58 34 59 31 60
REMARK SMILES IDX 33 61 32 62 51 63 52 64 56 65 53 66 55 67 54 68 41 69 42 70
REMARK SMILES IDX 46 71 43 72 45 73 44 74
REMARK H PARENT 10 7 1 10 1 11 1 12 17 23 61 42 39 53
REMARK Flexibility Score: inf
ROOT
ATOM      1  C   UNL     1      -3.611   2.570  -1.251  1.00  0.00     0.002 C 
ENDROOT
BRANCH   1   2
ATOM      2  C   UNL     1      -2.173   2.084  -1.066  1.00  0.00     0.021 C 
BRANCH   2   3
ATOM      3  C   UNL     1      -1.756   1.927   0.401  1.00  0.00     0.116 C 
BRANCH   3   4
ATOM      4  N   UNL     1      -1.824   0.539   0.799  1.00  0.00    -0.351 N 
ATOM      5  C   UNL     1      -0.873  -0.345   1.200  1.00  0.00     0.278 C 
ATOM      6  O   UNL     1      -1.258  -1.508   1.381  1.00  0.00    -0.268 OA
ATOM      7  H   UNL     1      -2.733   0.162   0.775  1.00  0.00     0.163 HD
BRANCH   5   8
ATOM      8  C   UNL     1       0.620   0.011   1.419  1.00  0.00     0.271 C 
BRANCH   8   9
ATOM      9  N   UNL     1       0.791   1.091   2.400  1.00  0.00    -0.347 N 
ATOM     10  H   UNL     1       0.151   0.947   3.181  1.00  0.00     0.345 HD
ATOM     11  H   UNL     1       0.590   1.988   1.957  1.00  0.00     0.345 HD
ATOM     12  H   UNL     1       1.752   1.090   2.743  1.00  0.00     0.345 HD
ENDBRANCH   8   9
BRANCH   8  13
ATOM     13  C   UNL     1       1.517   0.076   0.167  1.00  0.00     0.088 C 
BRANCH  13  14
ATOM     14  C   UNL     1       1.323   1.160  -0.884  1.00  0.00     0.096 C 
BRANCH  14  15
ATOM     15  S   UNL     1       2.190   2.742  -0.614  1.00  0.00    -0.055 S 
ATOM     16  O   UNL     1       1.625   3.735  -1.584  1.00  0.00    -0.275 OA
ATOM     17  O   UNL     1       1.477   3.114   0.769  1.00  0.00    -0.772 OA
ENDBRANCH  14  15
ENDBRANCH  13  14
ENDBRANCH   8  13
ENDBRANCH   5   8
ENDBRANCH   3   4
ENDBRANCH   2   3
ENDBRANCH   1   2
BRANCH   1  18
ATOM     18  C   UNL     1      -3.868   3.996  -0.751  1.00  0.00     0.002 C 
BRANCH  18  19
ATOM     19  C   UNL     1      -2.954   5.074  -1.342  1.00  0.00     0.021 C 
BRANCH  19  20
ATOM     20  C   UNL     1      -2.966   5.159  -2.866  1.00  0.00     0.116 C 
BRANCH  20  21
ATOM     21  N   UNL     1      -4.298   5.439  -3.383  1.00  0.00    -0.352 N 
ATOM     22  C   UNL     1      -4.744   6.507  -4.114  1.00  0.00     0.251 C 
ATOM     23  H   UNL     1      -4.979   4.759  -3.176  1.00  0.00     0.163 HD
ATOM     24  O   UNL     1      -5.954   6.688  -4.269  1.00  0.00    -0.269 OA
BRANCH  22  25
ATOM     25  C   UNL     1      -3.782   7.449  -4.716  1.00  0.00     0.039 A 
ATOM     26  C   UNL     1      -4.030   8.822  -4.635  1.00  0.00     0.014 A 
ATOM     27  C   UNL     1      -2.650   6.977  -5.388  1.00  0.00     0.014 A 
ATOM     28  C   UNL     1      -3.115   9.725  -5.182  1.00  0.00     0.010 A 
ATOM     29  C   UNL     1      -1.706   7.878  -5.870  1.00  0.00     0.010 A 
ATOM     30  C   UNL     1      -1.933   9.260  -5.781  1.00  0.00    -0.014 A 
BRANCH  30  31
ATOM     31  C   UNL     1      -0.925  10.195  -6.340  1.00  0.00     0.031 A 
ATOM     32  C   UNL     1      -0.631  10.183  -7.816  1.00  0.00     0.074 A 
ATOM     33  C   UNL     1      -0.223  10.997  -5.516  1.00  0.00     0.049 A 
ATOM     34  N   UNL     1       0.286  10.838  -8.481  1.00  0.00    -0.248 NA
ATOM     35  C   UNL     1      -1.460   9.297  -8.652  1.00  0.00     0.031 C 
ATOM     36  C   UNL     1      -0.393  11.084  -4.064  1.00  0.00     0.029 A 
ATOM     37  N   UNL     1       0.791  11.884  -5.784  1.00  0.00    -0.354 N 
ATOM     38  C   UNL     1       0.162  10.424  -9.802  1.00  0.00     0.074 A 
ATOM     39  C   UNL     1      -0.892   9.435  -9.840  1.00  0.00     0.031 C 
ATOM     40  C   UNL     1       0.474  11.985  -3.573  1.00  0.00     0.029 A 
ATOM     41  C   UNL     1       1.291  12.504  -4.664  1.00  0.00     0.049 A 
ATOM     42  H   UNL     1       1.127  12.059  -6.693  1.00  0.00     0.167 HD
ATOM     43  C   UNL     1       0.855  10.841 -10.888  1.00  0.00     0.031 A 
ATOM     44  C   UNL     1       2.306  13.380  -4.531  1.00  0.00     0.031 A 
ATOM     45  C   UNL     1       1.885  11.843 -10.853  1.00  0.00     0.049 A 
ATOM     46  C   UNL     1       3.066  13.815  -5.755  1.00  0.00     0.074 A 
ATOM     47  C   UNL     1       2.600  12.378 -11.910  1.00  0.00     0.029 A 
ATOM     48  N   UNL     1       2.345  12.462  -9.702  1.00  0.00    -0.354 N 
ATOM     49  N   UNL     1       2.891  13.463  -7.005  1.00  0.00    -0.248 NA
ATOM     50  C   UNL     1       4.159  14.777  -5.548  1.00  0.00     0.031 C 
ATOM     51  C   UNL     1       3.529  13.285 -11.393  1.00  0.00     0.029 A 
ATOM     52  C   UNL     1       3.350  13.358 -10.021  1.00  0.00     0.049 A 
ATOM     53  H   UNL     1       2.007  12.290  -8.793  1.00  0.00     0.167 HD
ATOM     54  C   UNL     1       3.822  14.190  -7.737  1.00  0.00     0.074 A 
ATOM     55  C   UNL     1       4.552  15.009  -6.792  1.00  0.00     0.031 C 
ATOM     56  C   UNL     1       4.051  14.181  -9.072  1.00  0.00     0.031 A 
BRANCH  43  57
ATOM     57  C   UNL     1       0.527  10.213 -12.213  1.00  0.00    -0.014 A 
ATOM     58  C   UNL     1      -0.677  10.497 -12.876  1.00  0.00     0.009 A 
ATOM     59  C   UNL     1       1.466   9.377 -12.838  1.00  0.00     0.009 A 
ATOM     60  C   UNL     1      -0.944   9.937 -14.128  1.00  0.00     0.001 A 
ATOM     61  C   UNL     1       1.208   8.842 -14.101  1.00  0.00     0.001 A 
ATOM     62  C   UNL     1       0.001   9.117 -14.742  1.00  0.00     0.000 A 
ENDBRANCH  43  57
BRANCH  44  63
ATOM     63  C   UNL     1       2.673  13.910  -3.191  1.00  0.00    -0.014 A 
ATOM     64  C   UNL     1       2.466  15.263  -2.879  1.00  0.00     0.009 A 
ATOM     65  C   UNL     1       3.269  13.078  -2.231  1.00  0.00     0.009 A 
ATOM     66  C   UNL     1       2.886  15.780  -1.651  1.00  0.00     0.001 A 
ATOM     67  C   UNL     1       3.658  13.590  -0.991  1.00  0.00     0.001 A 
ATOM     68  C   UNL     1       3.480  14.943  -0.708  1.00  0.00     0.000 A 
ENDBRANCH  44  63
BRANCH  56  69
ATOM     69  C   UNL     1       5.089  15.128  -9.603  1.00  0.00    -0.014 A 
ATOM     70  C   UNL     1       6.458  14.905  -9.398  1.00  0.00     0.009 A 
ATOM     71  C   UNL     1       4.685  16.231 -10.373  1.00  0.00     0.009 A 
ATOM     72  C   UNL     1       7.402  15.786  -9.930  1.00  0.00     0.001 A 
ATOM     73  C   UNL     1       5.632  17.092 -10.929  1.00  0.00     0.001 A 
ATOM     74  C   UNL     1       6.989  16.873 -10.700  1.00  0.00     0.000 A 
ENDBRANCH  56  69
ENDBRANCH  30  31
ENDBRANCH  22  25
ENDBRANCH  20  21
ENDBRANCH  19  20
ENDBRANCH  18  19
ENDBRANCH   1  18
TORSDOF 17
