REMARK SMILES C[NH+]1CCN(C(=O)c2ccc3c(c2)N(CC(=O)NCCCCCCNC(=O)c2ccc(-c4c5nc(c(-c6ccccc6)c6ccc([nH]6)c(-c6ccccc6)c6nc(c(-c7ccccc7)c7ccc4[nH]7)C=C6)C=C5)cc2)C(=O)CO3)CC1
REMARK SMILES IDX 21 1 20 2 19 3 18 4 16 5 17 6 15 8 14 9 8 10 9 11 13 12
REMARK SMILES IDX 10 13 12 14 11 15 79 16 76 17 78 18 77 19 6 20 1 21 2 22
REMARK SMILES IDX 3 23 81 24 4 26 80 27 5 28 7 29 22 30 23 31 24 32 25 33
REMARK SMILES IDX 26 34 27 36 28 37 29 38 75 39 30 40 74 41 31 42 32 43 33 44
REMARK SMILES IDX 68 45 34 46 73 47 67 48 69 49 35 50 72 51 66 52 65 53 36 55
REMARK SMILES IDX 58 56 43 57 57 58 44 59 47 60 56 61 70 62 45 63 46 64 55 66
REMARK SMILES IDX 71 67 48 68 37 69 38 70 42 71 39 72 41 73 40 74 59 75 60 76
REMARK SMILES IDX 64 77 61 78 63 79 62 80 49 81 50 82 54 83 51 84 53 85 52 86
REMARK H PARENT 18 7 2 25 25 35 69 54 47 65
REMARK Flexibility Score: inf
ROOT
ATOM      1  C   UNL     1      -1.603  -6.668  -0.989  1.00  0.00     0.002 C 
ENDROOT
BRANCH   1   2
ATOM      2  C   UNL     1      -2.388  -6.571   0.326  1.00  0.00     0.021 C 
BRANCH   2   3
ATOM      3  C   UNL     1      -1.513  -6.546   1.579  1.00  0.00     0.116 C 
BRANCH   3   4
ATOM      4  N   UNL     1      -0.751  -5.320   1.674  1.00  0.00    -0.355 N 
ATOM      5  C   UNL     1      -0.885  -4.282   2.545  1.00  0.00     0.240 C 
ATOM      6  O   UNL     1      -0.047  -3.377   2.483  1.00  0.00    -0.273 OA
ATOM      7  H   UNL     1      -0.029  -5.222   1.012  1.00  0.00     0.163 HD
BRANCH   5   8
ATOM      8  C   UNL     1      -1.970  -4.270   3.630  1.00  0.00     0.225 C 
BRANCH   8   9
ATOM      9  N   UNL     1      -3.348  -4.367   3.146  1.00  0.00    -0.296 N 
ATOM     10  C   UNL     1      -3.780  -1.289   1.048  1.00  0.00     0.042 A 
ATOM     11  C   UNL     1      -5.001  -1.559   0.428  1.00  0.00     0.018 A 
ATOM     12  C   UNL     1      -3.242  -2.180   1.987  1.00  0.00     0.044 A 
ATOM     13  C   UNL     1      -5.667  -2.746   0.716  1.00  0.00     0.049 A 
ATOM     14  C   UNL     1      -3.897  -3.386   2.271  1.00  0.00     0.087 A 
ATOM     15  C   UNL     1      -5.122  -3.646   1.635  1.00  0.00     0.143 A 
ATOM     16  O   UNL     1      -5.827  -4.807   1.804  1.00  0.00    -0.482 OA
ATOM     17  C   UNL     1      -4.130  -5.439   3.554  1.00  0.00     0.265 C 
ATOM     18  C   UNL     1      -5.565  -5.429   3.046  1.00  0.00     0.330 C 
ATOM     19  O   UNL     1      -3.736  -6.321   4.319  1.00  0.00    -0.270 OA
BRANCH  10  20
ATOM     20  C   UNL     1      -3.102  -0.013   0.736  1.00  0.00     0.254 C 
ATOM     21  C   UNL     1       2.453   0.096   0.058  1.00  0.00     0.332 C 
ATOM     22  N   UNL     1       1.046   0.078  -0.342  1.00  0.00    -0.334 N 
ATOM     23  C   UNL     1       0.332   1.243   0.226  1.00  0.00     0.283 C 
ATOM     24  C   UNL     1       0.397  -1.165   0.127  1.00  0.00     0.283 C 
ATOM     25  H   UNL     1       1.004   0.121  -1.360  1.00  0.00     0.347 HD
ATOM     26  C   UNL     1      -1.171   1.240  -0.118  1.00  0.00     0.181 C 
ATOM     27  C   UNL     1      -1.090  -1.214  -0.269  1.00  0.00     0.181 C 
ATOM     28  N   UNL     1      -1.814  -0.033   0.218  1.00  0.00    -0.327 N 
ATOM     29  O   UNL     1      -3.740   1.018   0.942  1.00  0.00    -0.269 OA
ENDBRANCH  10  20
ENDBRANCH   8   9
ENDBRANCH   5   8
ENDBRANCH   3   4
ENDBRANCH   2   3
ENDBRANCH   1   2
BRANCH   1  30
ATOM     30  C   UNL     1      -0.651  -7.865  -1.101  1.00  0.00     0.002 C 
BRANCH  30  31
ATOM     31  C   UNL     1      -1.288  -9.234  -0.847  1.00  0.00     0.021 C 
BRANCH  31  32
ATOM     32  C   UNL     1      -2.417  -9.602  -1.803  1.00  0.00     0.116 C 
BRANCH  32  33
ATOM     33  N   UNL     1      -1.950  -9.760  -3.171  1.00  0.00    -0.352 N 
ATOM     34  C   UNL     1      -2.148 -10.800  -4.043  1.00  0.00     0.251 C 
ATOM     35  H   UNL     1      -1.414  -9.013  -3.522  1.00  0.00     0.163 HD
ATOM     36  O   UNL     1      -1.525 -10.843  -5.103  1.00  0.00    -0.269 OA
BRANCH  34  37
ATOM     37  C   UNL     1      -3.096 -11.884  -3.706  1.00  0.00     0.039 A 
ATOM     38  C   UNL     1      -2.723 -13.208  -3.951  1.00  0.00     0.014 A 
ATOM     39  C   UNL     1      -4.357 -11.598  -3.177  1.00  0.00     0.014 A 
ATOM     40  C   UNL     1      -3.594 -14.248  -3.618  1.00  0.00     0.010 A 
ATOM     41  C   UNL     1      -5.197 -12.637  -2.784  1.00  0.00     0.010 A 
ATOM     42  C   UNL     1      -4.829 -13.972  -3.009  1.00  0.00    -0.014 A 
BRANCH  42  43
ATOM     43  C   UNL     1      -5.759 -15.062  -2.623  1.00  0.00     0.031 A 
ATOM     44  C   UNL     1      -7.097 -15.186  -3.300  1.00  0.00     0.074 A 
ATOM     45  C   UNL     1      -5.427 -15.908  -1.627  1.00  0.00     0.049 A 
ATOM     46  N   UNL     1      -8.073 -16.023  -3.054  1.00  0.00    -0.248 NA
ATOM     47  C   UNL     1      -7.385 -14.227  -4.379  1.00  0.00     0.031 C 
ATOM     48  C   UNL     1      -4.173 -15.879  -0.871  1.00  0.00     0.029 A 
ATOM     49  N   UNL     1      -6.123 -16.954  -1.077  1.00  0.00    -0.354 N 
ATOM     50  C   UNL     1      -9.093 -15.681  -3.933  1.00  0.00     0.074 A 
ATOM     51  C   UNL     1      -8.638 -14.532  -4.685  1.00  0.00     0.031 C 
ATOM     52  C   UNL     1      -4.180 -16.877   0.028  1.00  0.00     0.029 A 
ATOM     53  C   UNL     1      -5.451 -17.590  -0.061  1.00  0.00     0.049 A 
ATOM     54  H   UNL     1      -7.020 -17.224  -1.380  1.00  0.00     0.167 HD
ATOM     55  C   UNL     1     -10.294 -16.280  -4.115  1.00  0.00     0.031 A 
ATOM     56  C   UNL     1      -5.819 -18.627   0.715  1.00  0.00     0.031 A 
ATOM     57  C   UNL     1     -10.744 -17.432  -3.381  1.00  0.00     0.049 A 
ATOM     58  C   UNL     1      -7.164 -19.265   0.502  1.00  0.00     0.074 A 
ATOM     59  C   UNL     1     -11.927 -18.137  -3.523  1.00  0.00     0.029 A 
ATOM     60  N   UNL     1     -10.027 -18.051  -2.370  1.00  0.00    -0.354 N 
ATOM     61  N   UNL     1      -8.095 -18.961  -0.369  1.00  0.00    -0.248 NA
ATOM     62  C   UNL     1      -7.502 -20.399   1.375  1.00  0.00     0.031 C 
ATOM     63  C   UNL     1     -11.944 -19.159  -2.569  1.00  0.00     0.029 A 
ATOM     64  C   UNL     1     -10.749 -19.121  -1.868  1.00  0.00     0.049 A 
ATOM     65  H   UNL     1      -9.138 -17.772  -2.054  1.00  0.00     0.167 HD
ATOM     66  C   UNL     1      -9.113 -19.885  -0.172  1.00  0.00     0.074 A 
ATOM     67  C   UNL     1      -8.680 -20.768   0.891  1.00  0.00     0.031 C 
ATOM     68  C   UNL     1     -10.299 -19.995  -0.817  1.00  0.00     0.031 A 
BRANCH  55  69
ATOM     69  C   UNL     1     -11.209 -15.695  -5.154  1.00  0.00    -0.014 A 
ATOM     70  C   UNL     1     -10.926 -15.820  -6.523  1.00  0.00     0.009 A 
ATOM     71  C   UNL     1     -12.389 -15.043  -4.761  1.00  0.00     0.009 A 
ATOM     72  C   UNL     1     -11.788 -15.274  -7.476  1.00  0.00     0.001 A 
ATOM     73  C   UNL     1     -13.263 -14.523  -5.717  1.00  0.00     0.001 A 
ATOM     74  C   UNL     1     -12.957 -14.630  -7.073  1.00  0.00     0.000 A 
ENDBRANCH  55  69
BRANCH  56  75
ATOM     75  C   UNL     1      -4.897 -19.145   1.759  1.00  0.00    -0.014 A 
ATOM     76  C   UNL     1      -4.284 -20.399   1.606  1.00  0.00     0.009 A 
ATOM     77  C   UNL     1      -4.642 -18.402   2.922  1.00  0.00     0.009 A 
ATOM     78  C   UNL     1      -3.462 -20.912   2.611  1.00  0.00     0.001 A 
ATOM     79  C   UNL     1      -3.796 -18.905   3.912  1.00  0.00     0.001 A 
ATOM     80  C   UNL     1      -3.216 -20.164   3.762  1.00  0.00     0.000 A 
ENDBRANCH  56  75
BRANCH  68  81
ATOM     81  C   UNL     1     -11.192 -21.138  -0.424  1.00  0.00    -0.014 A 
ATOM     82  C   UNL     1     -11.887 -21.136   0.795  1.00  0.00     0.009 A 
ATOM     83  C   UNL     1     -11.369 -22.213  -1.309  1.00  0.00     0.009 A 
ATOM     84  C   UNL     1     -12.717 -22.207   1.133  1.00  0.00     0.001 A 
ATOM     85  C   UNL     1     -12.221 -23.268  -0.980  1.00  0.00     0.001 A 
ATOM     86  C   UNL     1     -12.887 -23.268   0.245  1.00  0.00     0.000 A 
ENDBRANCH  68  81
ENDBRANCH  42  43
ENDBRANCH  34  37
ENDBRANCH  32  33
ENDBRANCH  31  32
ENDBRANCH  30  31
ENDBRANCH   1  30
TORSDOF 15
