REMARK SMILES Cc1ccc(OCC(=O)NNC(=O)[C@H]2CCCC[C@@H]2C(=O)NCCCCCCNC(=O)c2ccc(-c3c4nc(c(-c5ccccc5)c5ccc([nH]5)c(-c5ccccc5)c5nc(c(-c6ccccc6)c6ccc3[nH]6)C=C5)C=C4)cc2)cc1
REMARK SMILES IDX 24 1 23 2 22 3 20 4 21 5 19 7 14 8 15 9 16 10 18 11 17 12
REMARK SMILES IDX 12 13 11 14 13 16 10 17 8 18 9 19 7 21 6 22 5 23 1 24 2 25
REMARK SMILES IDX 3 26 81 27 4 28 80 29 25 30 26 31 27 32 28 33 29 34 30 35
REMARK SMILES IDX 31 37 32 38 33 39 79 40 34 41 78 42 35 43 36 44 37 45 72 46
REMARK SMILES IDX 38 47 77 48 71 49 73 50 39 51 76 52 70 53 69 54 40 56 62 57
REMARK SMILES IDX 47 58 61 59 48 60 51 61 60 62 74 63 49 64 50 65 59 67 75 68
REMARK SMILES IDX 52 69 41 70 42 71 46 72 43 73 45 74 44 75 63 76 64 77 68 78
REMARK SMILES IDX 65 79 67 80 66 81 53 82 54 83 58 84 55 85 57 86 56 87
REMARK H PARENT 22 6 11 15 10 20 29 36 73 55 51 66
REMARK Flexibility Score: inf
ROOT
ATOM      1  C   UNL     1      -6.945   5.713   5.483  1.00  0.00     0.021 C 
ENDROOT
BRANCH   1   2
ATOM      2  C   UNL     1      -6.347   4.332   5.741  1.00  0.00     0.116 C 
BRANCH   2   3
ATOM      3  N   UNL     1      -6.107   3.524   4.569  1.00  0.00    -0.356 N 
ATOM      4  C   UNL     1      -5.335   2.424   4.373  1.00  0.00     0.223 C 
ATOM      5  O   UNL     1      -5.539   1.829   3.304  1.00  0.00    -0.275 OA
ATOM      6  H   UNL     1      -6.591   3.825   3.767  1.00  0.00     0.163 HD
BRANCH   4   7
ATOM      7  C   UNL     1      -4.184   1.928   5.282  1.00  0.00     0.091 C 
ATOM      8  C   UNL     1      -4.183   0.369   5.279  1.00  0.00     0.092 C 
ATOM      9  C   UNL     1      -5.252  -0.169   6.254  1.00  0.00     0.014 C 
ATOM     10  C   UNL     1      -5.130   0.383   7.675  1.00  0.00     0.001 C 
ATOM     11  C   UNL     1      -3.978   2.419   6.716  1.00  0.00     0.014 C 
ATOM     12  C   UNL     1      -5.014   1.899   7.703  1.00  0.00     0.001 C 
BRANCH   8  13
ATOM     13  C   UNL     1      -2.800  -0.220   5.585  1.00  0.00     0.242 C 
ATOM     14  N   UNL     1      -1.774  -0.050   4.695  1.00  0.00    -0.267 N 
ATOM     15  H   UNL     1      -0.890  -0.397   4.955  1.00  0.00     0.191 HD
ATOM     16  O   UNL     1      -2.566  -0.870   6.606  1.00  0.00    -0.273 OA
BRANCH  14  17
ATOM     17  N   UNL     1      -1.874   0.571   3.459  1.00  0.00    -0.265 N 
ATOM     18  C   UNL     1      -0.814   1.185   2.833  1.00  0.00     0.276 C 
ATOM     19  O   UNL     1      -0.963   1.674   1.712  1.00  0.00    -0.269 OA
ATOM     20  H   UNL     1      -2.748   0.573   3.007  1.00  0.00     0.191 HD
BRANCH  18  21
ATOM     21  C   UNL     1       0.551   1.193   3.533  1.00  0.00     0.331 C 
BRANCH  21  22
ATOM     22  O   UNL     1       0.582   1.803   4.814  1.00  0.00    -0.484 OA
BRANCH  22  23
ATOM     23  C   UNL     1       0.608   3.170   4.868  1.00  0.00     0.120 A 
ATOM     24  C   UNL     1       0.678   7.443   5.489  1.00  0.00     0.044 C 
ATOM     25  C   UNL     1       0.654   5.959   5.270  1.00  0.00    -0.051 A 
ATOM     26  C   UNL     1       0.779   5.085   6.354  1.00  0.00     0.007 A 
ATOM     27  C   UNL     1       0.521   5.426   3.985  1.00  0.00     0.007 A 
ATOM     28  C   UNL     1       0.751   3.702   6.152  1.00  0.00     0.047 A 
ATOM     29  C   UNL     1       0.498   4.041   3.785  1.00  0.00     0.047 A 
ENDBRANCH  22  23
ENDBRANCH  21  22
ENDBRANCH  18  21
ENDBRANCH  14  17
ENDBRANCH   8  13
ENDBRANCH   4   7
ENDBRANCH   2   3
ENDBRANCH   1   2
BRANCH   1  30
ATOM     30  C   UNL     1      -8.424   5.795   5.089  1.00  0.00     0.002 C 
BRANCH  30  31
ATOM     31  C   UNL     1      -9.454   5.004   5.910  1.00  0.00     0.002 C 
BRANCH  31  32
ATOM     32  C   UNL     1      -9.326   5.007   7.434  1.00  0.00     0.021 C 
BRANCH  32  33
ATOM     33  C   UNL     1      -9.409   6.367   8.111  1.00  0.00     0.116 C 
BRANCH  33  34
ATOM     34  N   UNL     1     -10.740   6.739   8.572  1.00  0.00    -0.352 N 
ATOM     35  C   UNL     1     -11.143   7.912   9.192  1.00  0.00     0.251 C 
ATOM     36  H   UNL     1     -11.447   6.070   8.422  1.00  0.00     0.163 HD
ATOM     37  O   UNL     1     -12.311   8.080   9.510  1.00  0.00    -0.269 OA
BRANCH  35  38
ATOM     38  C   UNL     1     -10.166   9.019   9.342  1.00  0.00     0.039 A 
ATOM     39  C   UNL     1     -10.534  10.279   8.859  1.00  0.00     0.014 A 
ATOM     40  C   UNL     1      -8.850   8.772   9.724  1.00  0.00     0.014 A 
ATOM     41  C   UNL     1      -9.541  11.188   8.506  1.00  0.00     0.010 A 
ATOM     42  C   UNL     1      -7.857   9.626   9.283  1.00  0.00     0.010 A 
ATOM     43  C   UNL     1      -8.204  10.794   8.598  1.00  0.00    -0.014 A 
BRANCH  43  44
ATOM     44  C   UNL     1      -7.146  11.447   7.835  1.00  0.00     0.031 A 
ATOM     45  C   UNL     1      -6.183  12.356   8.483  1.00  0.00     0.074 A 
ATOM     46  C   UNL     1      -7.037  11.210   6.507  1.00  0.00     0.049 A 
ATOM     47  N   UNL     1      -5.659  13.384   7.899  1.00  0.00    -0.248 NA
ATOM     48  C   UNL     1      -5.755  12.190   9.867  1.00  0.00     0.031 C 
ATOM     49  C   UNL     1      -5.940  11.609   5.628  1.00  0.00     0.029 A 
ATOM     50  N   UNL     1      -8.022  10.753   5.629  1.00  0.00    -0.354 N 
ATOM     51  C   UNL     1      -4.620  13.808   8.693  1.00  0.00     0.074 A 
ATOM     52  C   UNL     1      -4.782  13.103   9.945  1.00  0.00     0.031 C 
ATOM     53  C   UNL     1      -6.408  11.682   4.371  1.00  0.00     0.029 A 
ATOM     54  C   UNL     1      -7.844  11.463   4.433  1.00  0.00     0.049 A 
ATOM     55  H   UNL     1      -8.705  10.069   5.814  1.00  0.00     0.167 HD
ATOM     56  C   UNL     1      -3.622  14.574   8.170  1.00  0.00     0.031 A 
ATOM     57  C   UNL     1      -8.795  12.265   3.874  1.00  0.00     0.031 A 
ATOM     58  C   UNL     1      -3.825  14.873   6.758  1.00  0.00     0.049 A 
ATOM     59  C   UNL     1      -8.316  13.680   3.627  1.00  0.00     0.074 A 
ATOM     60  C   UNL     1      -3.289  14.333   5.599  1.00  0.00     0.029 A 
ATOM     61  N   UNL     1      -4.899  15.660   6.365  1.00  0.00    -0.354 N 
ATOM     62  N   UNL     1      -7.258  14.194   4.186  1.00  0.00    -0.248 NA
ATOM     63  C   UNL     1      -9.040  14.650   2.809  1.00  0.00     0.031 C 
ATOM     64  C   UNL     1      -4.075  14.768   4.505  1.00  0.00     0.029 A 
ATOM     65  C   UNL     1      -5.079  15.581   4.998  1.00  0.00     0.049 A 
ATOM     66  H   UNL     1      -5.455  16.197   6.975  1.00  0.00     0.167 HD
ATOM     67  C   UNL     1      -7.159  15.520   3.849  1.00  0.00     0.074 A 
ATOM     68  C   UNL     1      -8.290  15.755   2.973  1.00  0.00     0.031 C 
ATOM     69  C   UNL     1      -6.162  16.306   4.351  1.00  0.00     0.031 A 
BRANCH  56  70
ATOM     70  C   UNL     1      -2.304  14.756   8.879  1.00  0.00    -0.014 A 
ATOM     71  C   UNL     1      -1.107  14.778   8.139  1.00  0.00     0.009 A 
ATOM     72  C   UNL     1      -2.175  14.859  10.274  1.00  0.00     0.009 A 
ATOM     73  C   UNL     1       0.148  14.785   8.757  1.00  0.00     0.001 A 
ATOM     74  C   UNL     1      -0.922  14.826  10.902  1.00  0.00     0.001 A 
ATOM     75  C   UNL     1       0.240  14.774  10.142  1.00  0.00     0.000 A 
ENDBRANCH  56  70
BRANCH  57  76
ATOM     76  C   UNL     1     -10.195  11.934   4.249  1.00  0.00    -0.014 A 
ATOM     77  C   UNL     1     -10.746  10.714   3.813  1.00  0.00     0.009 A 
ATOM     78  C   UNL     1     -10.841  12.632   5.280  1.00  0.00     0.009 A 
ATOM     79  C   UNL     1     -11.859  10.163   4.453  1.00  0.00     0.001 A 
ATOM     80  C   UNL     1     -11.962  12.082   5.912  1.00  0.00     0.001 A 
ATOM     81  C   UNL     1     -12.451  10.836   5.519  1.00  0.00     0.000 A 
ENDBRANCH  57  76
BRANCH  69  82
ATOM     82  C   UNL     1      -6.054  17.808   4.246  1.00  0.00    -0.014 A 
ATOM     83  C   UNL     1      -7.125  18.667   3.972  1.00  0.00     0.009 A 
ATOM     84  C   UNL     1      -4.820  18.423   4.567  1.00  0.00     0.009 A 
ATOM     85  C   UNL     1      -6.964  20.061   3.981  1.00  0.00     0.001 A 
ATOM     86  C   UNL     1      -4.666  19.810   4.621  1.00  0.00     0.001 A 
ATOM     87  C   UNL     1      -5.740  20.632   4.317  1.00  0.00     0.000 A 
ENDBRANCH  69  82
ENDBRANCH  43  44
ENDBRANCH  35  38
ENDBRANCH  33  34
ENDBRANCH  32  33
ENDBRANCH  31  32
ENDBRANCH  30  31
ENDBRANCH   1  30
TORSDOF 18
