REMARK SMILES COc1ccc(-c2[nH]nc3nc(-c4ccc(C(F)(F)F)cc4)cc(C(=O)NCCCCCCNC(=O)c4ccc(-c5c6nc(c(-c7ccccc7)c7ccc([nH]7)c(-c7ccccc7)c7nc(c(-c8ccccc8)c8ccc5[nH]8)C=C7)C=C6)cc4)c23)cc1
REMARK SMILES IDX 30 1 29 2 28 3 27 4 25 5 26 6 24 8 7 9 8 10 85 11 9 12 10 14
REMARK SMILES IDX 11 15 23 16 12 17 6 18 3 19 4 20 87 21 5 22 86 23 2 24 1 25
REMARK SMILES IDX 13 26 14 27 22 28 15 29 21 30 16 31 17 32 18 33 19 34 20 35
REMARK SMILES IDX 31 36 32 37 33 38 34 39 35 40 36 42 37 43 38 44 84 45 39 46
REMARK SMILES IDX 83 47 40 48 41 49 42 50 77 51 43 52 82 53 76 54 78 55 44 56
REMARK SMILES IDX 81 57 75 58 74 59 45 61 67 62 52 63 66 64 53 65 56 66 65 67
REMARK SMILES IDX 79 68 54 69 55 70 64 72 80 73 57 74 46 75 47 76 51 77 48 78
REMARK SMILES IDX 50 79 49 80 68 81 69 82 73 83 70 84 72 85 71 86 58 87 59 88
REMARK SMILES IDX 63 89 60 90 62 91 61 92
REMARK H PARENT 27 7 8 13 34 41 78 60 56 71
REMARK Flexibility Score: inf
ROOT
ATOM      1  C   UNL     1       7.394  -6.206  -2.089  1.00  0.00     0.002 C 
ENDROOT
BRANCH   1   2
ATOM      2  C   UNL     1       6.954  -6.175  -3.560  1.00  0.00     0.021 C 
BRANCH   2   3
ATOM      3  C   UNL     1       5.552  -6.740  -3.771  1.00  0.00     0.116 C 
BRANCH   3   4
ATOM      4  N   UNL     1       4.535  -5.782  -3.401  1.00  0.00    -0.352 N 
ATOM      5  C   UNL     1       3.605  -5.024  -4.056  1.00  0.00     0.252 C 
ATOM      6  O   UNL     1       2.743  -4.564  -3.314  1.00  0.00    -0.269 OA
ATOM      7  H   UNL     1       4.505  -5.639  -2.428  1.00  0.00     0.163 HD
BRANCH   5   8
ATOM      8  C   UNL     1       3.543  -4.808  -5.521  1.00  0.00     0.055 A 
ATOM      9  C   UNL     1       1.691  -3.083  -5.770  1.00  0.00     0.075 A 
ATOM     10  N   UNL     1       1.048  -2.644  -6.905  1.00  0.00    -0.275 N 
ATOM     11  C   UNL     1       2.607  -4.021  -6.225  1.00  0.00     0.059 A 
ATOM     12  N   UNL     1       1.479  -3.186  -8.052  1.00  0.00    -0.154 NA
ATOM     13  H   UNL     1       0.322  -1.980  -6.876  1.00  0.00     0.190 HD
ATOM     14  C   UNL     1       2.442  -4.020  -7.663  1.00  0.00     0.182 A 
ATOM     15  N   UNL     1       3.185  -4.795  -8.496  1.00  0.00    -0.226 NA
ATOM     16  C   UNL     1       4.373  -5.453  -6.443  1.00  0.00     0.043 A 
ATOM     17  C   UNL     1       4.135  -5.498  -7.839  1.00  0.00     0.074 A 
BRANCH   9  18
ATOM     18  C   UNL     1       1.347  -2.504  -4.474  1.00  0.00     0.001 A 
ATOM     19  C   UNL     1       0.718  -1.543  -1.905  1.00  0.00     0.118 A 
ATOM     20  C   UNL     1      -0.231  -2.243  -2.650  1.00  0.00     0.047 A 
ATOM     21  C   UNL     1       1.980  -1.308  -2.450  1.00  0.00     0.047 A 
ATOM     22  C   UNL     1       0.074  -2.713  -3.930  1.00  0.00     0.014 A 
ATOM     23  C   UNL     1       2.288  -1.773  -3.736  1.00  0.00     0.014 A 
BRANCH  19  24
ATOM     24  O   UNL     1       0.321  -1.194  -0.643  1.00  0.00    -0.497 OA
ATOM     25  C   UNL     1       0.946  -0.040  -0.095  1.00  0.00     0.278 C 
ENDBRANCH  19  24
ENDBRANCH   9  18
BRANCH  17  26
ATOM     26  C   UNL     1       4.946  -6.444  -8.628  1.00  0.00     0.000 A 
ATOM     27  C   UNL     1       5.833  -6.008  -9.618  1.00  0.00     0.011 A 
ATOM     28  C   UNL     1       4.929  -7.818  -8.310  1.00  0.00     0.011 A 
ATOM     29  C   UNL     1       6.718  -6.908 -10.228  1.00  0.00     0.014 A 
ATOM     30  C   UNL     1       5.807  -8.717  -8.919  1.00  0.00     0.014 A 
ATOM     31  C   UNL     1       6.726  -8.267  -9.873  1.00  0.00     0.056 A 
BRANCH  31  32
ATOM     32  C   UNL     1       7.721  -9.214 -10.501  1.00  0.00     0.416 C 
ATOM     33  F   UNL     1       7.590  -9.297 -11.853  1.00  0.00    -0.166 F 
ATOM     34  F   UNL     1       9.010  -8.835 -10.271  1.00  0.00    -0.166 F 
ATOM     35  F   UNL     1       7.626 -10.491 -10.035  1.00  0.00    -0.166 F 
ENDBRANCH  31  32
ENDBRANCH  17  26
ENDBRANCH   5   8
ENDBRANCH   3   4
ENDBRANCH   2   3
ENDBRANCH   1   2
BRANCH   1  36
ATOM     36  C   UNL     1       7.245  -7.569  -1.390  1.00  0.00     0.002 C 
BRANCH  36  37
ATOM     37  C   UNL     1       7.791  -8.780  -2.163  1.00  0.00     0.021 C 
BRANCH  37  38
ATOM     38  C   UNL     1       9.297  -8.736  -2.346  1.00  0.00     0.116 C 
BRANCH  38  39
ATOM     39  N   UNL     1       9.992  -8.888  -1.076  1.00  0.00    -0.352 N 
ATOM     40  C   UNL     1      11.347  -8.958  -0.845  1.00  0.00     0.251 C 
ATOM     41  H   UNL     1       9.418  -8.949  -0.279  1.00  0.00     0.163 HD
ATOM     42  O   UNL     1      11.778  -9.441   0.190  1.00  0.00    -0.269 OA
BRANCH  40  43
ATOM     43  C   UNL     1      12.273  -8.443  -1.869  1.00  0.00     0.039 A 
ATOM     44  C   UNL     1      13.464  -9.121  -2.134  1.00  0.00     0.014 A 
ATOM     45  C   UNL     1      11.956  -7.267  -2.551  1.00  0.00     0.014 A 
ATOM     46  C   UNL     1      14.299  -8.643  -3.136  1.00  0.00     0.010 A 
ATOM     47  C   UNL     1      12.723  -6.857  -3.617  1.00  0.00     0.010 A 
ATOM     48  C   UNL     1      13.912  -7.521  -3.889  1.00  0.00    -0.014 A 
BRANCH  48  49
ATOM     49  C   UNL     1      14.691  -7.138  -5.060  1.00  0.00     0.031 A 
ATOM     50  C   UNL     1      14.890  -8.240  -6.040  1.00  0.00     0.074 A 
ATOM     51  C   UNL     1      15.065  -5.874  -5.349  1.00  0.00     0.049 A 
ATOM     52  N   UNL     1      16.000  -8.833  -6.324  1.00  0.00    -0.248 NA
ATOM     53  C   UNL     1      13.709  -8.849  -6.673  1.00  0.00     0.031 C 
ATOM     54  C   UNL     1      14.698  -4.629  -4.669  1.00  0.00     0.029 A 
ATOM     55  N   UNL     1      15.786  -5.428  -6.414  1.00  0.00    -0.354 N 
ATOM     56  C   UNL     1      15.703  -9.767  -7.311  1.00  0.00     0.074 A 
ATOM     57  C   UNL     1      14.265  -9.841  -7.372  1.00  0.00     0.031 C 
ATOM     58  C   UNL     1      14.984  -3.577  -5.471  1.00  0.00     0.029 A 
ATOM     59  C   UNL     1      15.698  -4.061  -6.641  1.00  0.00     0.049 A 
ATOM     60  H   UNL     1      16.328  -6.027  -6.977  1.00  0.00     0.167 HD
ATOM     61  C   UNL     1      16.671 -10.225  -8.153  1.00  0.00     0.031 A 
ATOM     62  C   UNL     1      16.144  -3.388  -7.732  1.00  0.00     0.031 A 
ATOM     63  C   UNL     1      17.990  -9.920  -7.654  1.00  0.00     0.049 A 
ATOM     64  C   UNL     1      17.162  -4.243  -8.390  1.00  0.00     0.074 A 
ATOM     65  C   UNL     1      18.672 -10.203  -6.486  1.00  0.00     0.029 A 
ATOM     66  N   UNL     1      18.649  -8.854  -8.223  1.00  0.00    -0.354 N 
ATOM     67  N   UNL     1      18.320  -4.509  -7.857  1.00  0.00    -0.248 NA
ATOM     68  C   UNL     1      16.708  -5.181  -9.405  1.00  0.00     0.031 C 
ATOM     69  C   UNL     1      19.354  -8.993  -6.164  1.00  0.00     0.029 A 
ATOM     70  C   UNL     1      19.130  -8.083  -7.198  1.00  0.00     0.049 A 
ATOM     71  H   UNL     1      18.754  -8.679  -9.186  1.00  0.00     0.167 HD
ATOM     72  C   UNL     1      18.518  -5.858  -8.112  1.00  0.00     0.074 A 
ATOM     73  C   UNL     1      17.537  -6.197  -9.146  1.00  0.00     0.031 C 
ATOM     74  C   UNL     1      19.245  -6.644  -7.264  1.00  0.00     0.031 A 
BRANCH  61  75
ATOM     75  C   UNL     1      16.432 -10.546  -9.608  1.00  0.00    -0.014 A 
ATOM     76  C   UNL     1      17.532 -10.941 -10.393  1.00  0.00     0.009 A 
ATOM     77  C   UNL     1      15.260 -10.190 -10.300  1.00  0.00     0.009 A 
ATOM     78  C   UNL     1      17.496 -10.869 -11.790  1.00  0.00     0.001 A 
ATOM     79  C   UNL     1      15.206 -10.159 -11.696  1.00  0.00     0.001 A 
ATOM     80  C   UNL     1      16.336 -10.463 -12.441  1.00  0.00     0.000 A 
ENDBRANCH  61  75
BRANCH  62  81
ATOM     81  C   UNL     1      15.566  -2.197  -8.396  1.00  0.00    -0.014 A 
ATOM     82  C   UNL     1      16.286  -1.500  -9.382  1.00  0.00     0.009 A 
ATOM     83  C   UNL     1      14.195  -1.904  -8.266  1.00  0.00     0.009 A 
ATOM     84  C   UNL     1      15.649  -0.584 -10.232  1.00  0.00     0.001 A 
ATOM     85  C   UNL     1      13.561  -0.985  -9.111  1.00  0.00     0.001 A 
ATOM     86  C   UNL     1      14.284  -0.338 -10.105  1.00  0.00     0.000 A 
ENDBRANCH  62  81
BRANCH  74  87
ATOM     87  C   UNL     1      20.030  -5.988  -6.153  1.00  0.00    -0.014 A 
ATOM     88  C   UNL     1      19.449  -5.171  -5.167  1.00  0.00     0.009 A 
ATOM     89  C   UNL     1      21.375  -6.357  -5.998  1.00  0.00     0.009 A 
ATOM     90  C   UNL     1      20.201  -4.721  -4.075  1.00  0.00     0.001 A 
ATOM     91  C   UNL     1      22.118  -5.929  -4.896  1.00  0.00     0.001 A 
ATOM     92  C   UNL     1      21.533  -5.106  -3.938  1.00  0.00     0.000 A 
ENDBRANCH  74  87
ENDBRANCH  48  49
ENDBRANCH  40  43
ENDBRANCH  38  39
ENDBRANCH  37  38
ENDBRANCH  36  37
ENDBRANCH   1  36
TORSDOF 17
