REMARK SMILES O=C(NCCCCCCNC(=O)[C@@H]1CCC(=O)N1C(=O)/C=C/c1ccccc1)c1ccc(-c2c3nc(c(-c4ccccc4)c4ccc([nH]4)c(-c4ccccc4)c4nc(c(-c5ccccc5)c5ccc2[nH]5)C=C4)C=C3)cc1
REMARK SMILES IDX 7 1 6 2 5 3 4 4 3 5 1 6 2 7 29 9 30 10 76 11 31 12 75 13
REMARK SMILES IDX 32 14 33 15 34 16 69 17 35 18 74 19 68 20 70 21 36 22 73 23
REMARK SMILES IDX 67 24 66 25 37 27 59 28 44 29 58 30 45 31 48 32 57 33 71 34
REMARK SMILES IDX 46 35 47 36 56 38 72 39 49 40 38 41 39 42 43 43 40 44 42 45
REMARK SMILES IDX 41 46 60 47 61 48 65 49 62 50 64 51 63 52 50 53 51 54 55 55
REMARK SMILES IDX 52 56 54 57 53 58 8 59 9 60 10 61 11 62 12 64 13 65 14 66
REMARK SMILES IDX 18 67 15 68 16 69 17 70 19 71 20 72 21 73 22 74 23 75 24 76
REMARK SMILES IDX 28 77 25 78 27 79 26 80
REMARK H PARENT 3 8 70 26 48 37 10 63
REMARK Flexibility Score: inf
ROOT
ATOM      1  C   UNL     1       4.830  -2.447  -3.509  1.00  0.00     0.002 C 
ENDROOT
BRANCH   1   2
ATOM      2  C   UNL     1       4.163  -3.102  -2.296  1.00  0.00     0.002 C 
BRANCH   2   3
ATOM      3  C   UNL     1       4.586  -2.550  -0.934  1.00  0.00     0.021 C 
BRANCH   3   4
ATOM      4  C   UNL     1       4.411  -1.046  -0.762  1.00  0.00     0.116 C 
BRANCH   4   5
ATOM      5  N   UNL     1       3.020  -0.628  -0.801  1.00  0.00    -0.352 N 
ATOM      6  O   UNL     1       1.123   0.333  -0.040  1.00  0.00    -0.269 OA
ATOM      7  C   UNL     1       2.335   0.185   0.072  1.00  0.00     0.251 C 
ATOM      8  H   UNL     1       2.494  -0.974  -1.558  1.00  0.00     0.163 HD
BRANCH   7   9
ATOM      9  C   UNL     1       3.061   0.855   1.173  1.00  0.00     0.039 A 
ATOM     10  C   UNL     1       4.276   1.503   0.939  1.00  0.00     0.014 A 
ATOM     11  C   UNL     1       2.520   0.825   2.462  1.00  0.00     0.014 A 
ATOM     12  C   UNL     1       5.019   1.983   2.012  1.00  0.00     0.010 A 
ATOM     13  C   UNL     1       3.231   1.381   3.529  1.00  0.00     0.010 A 
ATOM     14  C   UNL     1       4.506   1.928   3.319  1.00  0.00    -0.014 A 
BRANCH  14  15
ATOM     15  C   UNL     1       5.314   2.477   4.438  1.00  0.00     0.031 A 
ATOM     16  C   UNL     1       5.859   1.583   5.518  1.00  0.00     0.074 A 
ATOM     17  C   UNL     1       5.600   3.793   4.448  1.00  0.00     0.049 A 
ATOM     18  N   UNL     1       6.647   1.890   6.519  1.00  0.00    -0.248 NA
ATOM     19  C   UNL     1       5.469   0.165   5.477  1.00  0.00     0.031 C 
ATOM     20  C   UNL     1       5.124   4.767   3.462  1.00  0.00     0.029 A 
ATOM     21  N   UNL     1       6.384   4.533   5.295  1.00  0.00    -0.354 N 
ATOM     22  C   UNL     1       6.824   0.716   7.240  1.00  0.00     0.074 A 
ATOM     23  C   UNL     1       6.048  -0.308   6.572  1.00  0.00     0.031 C 
ATOM     24  C   UNL     1       5.678   5.961   3.723  1.00  0.00     0.029 A 
ATOM     25  C   UNL     1       6.502   5.849   4.921  1.00  0.00     0.049 A 
ATOM     26  H   UNL     1       6.819   4.158   6.095  1.00  0.00     0.167 HD
ATOM     27  C   UNL     1       7.566   0.507   8.354  1.00  0.00     0.031 A 
ATOM     28  C   UNL     1       7.198   6.857   5.475  1.00  0.00     0.031 A 
ATOM     29  C   UNL     1       8.350   1.519   9.013  1.00  0.00     0.049 A 
ATOM     30  C   UNL     1       8.010   6.598   6.710  1.00  0.00     0.074 A 
ATOM     31  C   UNL     1       9.169   1.390  10.122  1.00  0.00     0.029 A 
ATOM     32  N   UNL     1       8.411   2.848   8.625  1.00  0.00    -0.354 N 
ATOM     33  N   UNL     1       8.197   5.472   7.352  1.00  0.00    -0.248 NA
ATOM     34  C   UNL     1       8.706   7.753   7.293  1.00  0.00     0.031 C 
ATOM     35  C   UNL     1       9.694   2.651  10.429  1.00  0.00     0.029 A 
ATOM     36  C   UNL     1       9.236   3.554   9.485  1.00  0.00     0.049 A 
ATOM     37  H   UNL     1       7.937   3.233   7.852  1.00  0.00     0.167 HD
ATOM     38  C   UNL     1       9.044   5.777   8.407  1.00  0.00     0.074 A 
ATOM     39  C   UNL     1       9.350   7.190   8.306  1.00  0.00     0.031 C 
ATOM     40  C   UNL     1       9.525   4.960   9.375  1.00  0.00     0.031 A 
BRANCH  27  41
ATOM     41  C   UNL     1       7.545  -0.871   8.953  1.00  0.00    -0.014 A 
ATOM     42  C   UNL     1       8.233  -1.938   8.355  1.00  0.00     0.009 A 
ATOM     43  C   UNL     1       6.861  -1.094  10.158  1.00  0.00     0.009 A 
ATOM     44  C   UNL     1       8.211  -3.208   8.938  1.00  0.00     0.001 A 
ATOM     45  C   UNL     1       6.858  -2.358  10.750  1.00  0.00     0.001 A 
ATOM     46  C   UNL     1       7.527  -3.416  10.136  1.00  0.00     0.000 A 
ENDBRANCH  27  41
BRANCH  28  47
ATOM     47  C   UNL     1       7.165   8.205   4.854  1.00  0.00    -0.014 A 
ATOM     48  C   UNL     1       8.291   8.704   4.182  1.00  0.00     0.009 A 
ATOM     49  C   UNL     1       6.004   8.990   4.915  1.00  0.00     0.009 A 
ATOM     50  C   UNL     1       8.258   9.972   3.597  1.00  0.00     0.001 A 
ATOM     51  C   UNL     1       5.966  10.245   4.307  1.00  0.00     0.001 A 
ATOM     52  C   UNL     1       7.095  10.738   3.655  1.00  0.00     0.000 A 
ENDBRANCH  28  47
BRANCH  40  53
ATOM     53  C   UNL     1      10.451   5.575  10.383  1.00  0.00    -0.014 A 
ATOM     54  C   UNL     1       9.965   6.420  11.393  1.00  0.00     0.009 A 
ATOM     55  C   UNL     1      11.824   5.293  10.330  1.00  0.00     0.009 A 
ATOM     56  C   UNL     1      10.844   7.000  12.309  1.00  0.00     0.001 A 
ATOM     57  C   UNL     1      12.697   5.855  11.262  1.00  0.00     0.001 A 
ATOM     58  C   UNL     1      12.208   6.715  12.244  1.00  0.00     0.000 A 
ENDBRANCH  40  53
ENDBRANCH  14  15
ENDBRANCH   7   9
ENDBRANCH   4   5
ENDBRANCH   3   4
ENDBRANCH   2   3
ENDBRANCH   1   2
BRANCH   1  59
ATOM     59  C   UNL     1       6.363  -2.405  -3.484  1.00  0.00     0.021 C 
BRANCH  59  60
ATOM     60  C   UNL     1       7.042  -3.762  -3.307  1.00  0.00     0.116 C 
BRANCH  60  61
ATOM     61  N   UNL     1       6.732  -4.654  -4.405  1.00  0.00    -0.354 N 
ATOM     62  C   UNL     1       7.577  -5.327  -5.238  1.00  0.00     0.243 C 
ATOM     63  H   UNL     1       5.773  -4.794  -4.576  1.00  0.00     0.163 HD
ATOM     64  O   UNL     1       7.084  -5.981  -6.160  1.00  0.00    -0.273 OA
BRANCH  62  65
ATOM     65  C   UNL     1       9.094  -5.162  -5.060  1.00  0.00     0.183 C 
ATOM     66  C   UNL     1       9.546  -3.940  -5.845  1.00  0.00     0.046 C 
ATOM     67  N   UNL     1       9.784  -6.287  -5.661  1.00  0.00    -0.266 N 
ATOM     68  C   UNL     1      10.851  -4.363  -6.484  1.00  0.00     0.103 C 
ATOM     69  C   UNL     1      10.714  -5.857  -6.618  1.00  0.00     0.230 C 
ATOM     70  O   UNL     1      11.379  -6.520  -7.397  1.00  0.00    -0.274 OA
BRANCH  67  71
ATOM     71  C   UNL     1       9.607  -7.539  -5.085  1.00  0.00     0.253 C 
ATOM     72  O   UNL     1       8.982  -7.704  -4.037  1.00  0.00    -0.269 OA
BRANCH  71  73
ATOM     73  C   UNL     1      10.171  -8.721  -5.767  1.00  0.00     0.072 C 
ATOM     74  C   UNL     1      11.493  -8.945  -5.793  1.00  0.00     0.014 C 
BRANCH  74  75
ATOM     75  C   UNL     1      12.161 -10.097  -6.422  1.00  0.00    -0.025 A 
ATOM     76  C   UNL     1      13.563 -10.100  -6.480  1.00  0.00     0.008 A 
ATOM     77  C   UNL     1      11.473 -11.191  -6.965  1.00  0.00     0.008 A 
ATOM     78  C   UNL     1      14.257 -11.163  -7.063  1.00  0.00     0.001 A 
ATOM     79  C   UNL     1      12.168 -12.255  -7.551  1.00  0.00     0.001 A 
ATOM     80  C   UNL     1      13.559 -12.241  -7.599  1.00  0.00     0.000 A 
ENDBRANCH  74  75
ENDBRANCH  71  73
ENDBRANCH  67  71
ENDBRANCH  62  65
ENDBRANCH  60  61
ENDBRANCH  59  60
ENDBRANCH   1  59
TORSDOF 16
