REMARK SMILES [NH3+][C@H](CC1=c2cccc(O)c2=NC1)C(=O)NCCCCCCNC(=O)c1ccc(-c2c3nc(c(-c4ccccc4)c4ccc([nH]4)c(-c4ccccc4)c4nc(c(-c5ccccc5)c5ccc2[nH]5)C=C4)C=C3)cc1
REMARK SMILES IDX 19 1 18 2 17 3 16 4 14 5 15 6 2 8 1 9 3 13 4 14 5 15 13 16
REMARK SMILES IDX 6 17 11 18 12 19 7 20 9 21 8 22 10 23 20 25 21 26 22 27
REMARK SMILES IDX 23 28 24 29 25 31 26 32 27 33 73 34 28 35 72 36 29 37 30 38
REMARK SMILES IDX 31 39 66 40 32 41 71 42 65 43 67 44 33 45 70 46 64 47 63 48
REMARK SMILES IDX 34 50 56 51 41 52 55 53 42 54 45 55 54 56 68 57 43 58 44 59
REMARK SMILES IDX 53 61 69 62 46 63 35 64 36 65 40 66 37 67 39 68 38 69 57 70
REMARK SMILES IDX 58 71 62 72 59 73 61 74 60 75 47 76 48 77 52 78 49 79 51 80
REMARK SMILES IDX 50 81
REMARK H PARENT 16 7 1 10 1 11 1 12 10 24 23 30 67 49 45 60
REMARK Flexibility Score: inf
ROOT
ATOM      1  C   UNL     1      -3.074   2.384   1.468  1.00  0.00     0.002 C 
ENDROOT
BRANCH   1   2
ATOM      2  C   UNL     1      -1.570   2.087   1.413  1.00  0.00     0.021 C 
BRANCH   2   3
ATOM      3  C   UNL     1      -1.175   0.786   2.114  1.00  0.00     0.116 C 
BRANCH   3   4
ATOM      4  N   UNL     1      -1.652  -0.355   1.359  1.00  0.00    -0.351 N 
ATOM      5  C   UNL     1      -0.981  -1.322   0.670  1.00  0.00     0.278 C 
ATOM      6  O   UNL     1      -1.651  -2.088  -0.030  1.00  0.00    -0.268 OA
ATOM      7  H   UNL     1      -2.632  -0.449   1.339  1.00  0.00     0.163 HD
BRANCH   5   8
ATOM      8  C   UNL     1       0.553  -1.467   0.760  1.00  0.00     0.275 C 
BRANCH   8   9
ATOM      9  N   UNL     1       0.925  -1.800   2.150  1.00  0.00    -0.347 N 
ATOM     10  H   UNL     1       0.375  -2.598   2.467  1.00  0.00     0.345 HD
ATOM     11  H   UNL     1       0.739  -0.998   2.752  1.00  0.00     0.345 HD
ATOM     12  H   UNL     1       1.917  -2.032   2.190  1.00  0.00     0.345 HD
ENDBRANCH   8   9
BRANCH   8  13
ATOM     13  C   UNL     1       1.279  -0.276   0.094  1.00  0.00     0.109 C 
BRANCH  13  14
ATOM     14  C   UNL     1       2.765  -0.215   0.292  1.00  0.00    -0.033 C 
ATOM     15  C   UNL     1       3.723  -0.446  -0.603  1.00  0.00     0.005 A 
ATOM     16  C   UNL     1       3.368   0.264   1.581  1.00  0.00     0.175 C 
ATOM     17  C   UNL     1       3.741  -0.821  -1.979  1.00  0.00     0.010 A 
ATOM     18  C   UNL     1       4.963  -0.177   0.150  1.00  0.00     0.107 A 
ATOM     19  N   UNL     1       4.830   0.230   1.378  1.00  0.00    -0.276 NA
ATOM     20  C   UNL     1       4.926  -0.963  -2.594  1.00  0.00     0.005 A 
ATOM     21  C   UNL     1       6.244  -0.407  -0.587  1.00  0.00     0.141 A 
ATOM     22  C   UNL     1       6.180  -0.775  -1.881  1.00  0.00     0.048 A 
BRANCH  21  23
ATOM     23  O   UNL     1       7.432  -0.245   0.093  1.00  0.00    -0.506 OA
ATOM     24  H   UNL     1       8.247  -0.383  -0.348  1.00  0.00     0.293 HD
ENDBRANCH  21  23
ENDBRANCH  13  14
ENDBRANCH   8  13
ENDBRANCH   5   8
ENDBRANCH   3   4
ENDBRANCH   2   3
ENDBRANCH   1   2
BRANCH   1  25
ATOM     25  C   UNL     1      -3.646   2.544   2.881  1.00  0.00     0.002 C 
BRANCH  25  26
ATOM     26  C   UNL     1      -2.932   3.582   3.749  1.00  0.00     0.021 C 
BRANCH  26  27
ATOM     27  C   UNL     1      -2.908   4.984   3.149  1.00  0.00     0.116 C 
BRANCH  27  28
ATOM     28  N   UNL     1      -4.243   5.551   3.063  1.00  0.00    -0.352 N 
ATOM     29  C   UNL     1      -4.729   6.685   3.665  1.00  0.00     0.251 C 
ATOM     30  H   UNL     1      -4.882   5.059   2.498  1.00  0.00     0.163 HD
ATOM     31  O   UNL     1      -5.926   6.931   3.679  1.00  0.00    -0.269 OA
BRANCH  29  32
ATOM     32  C   UNL     1      -3.774   7.608   4.307  1.00  0.00     0.039 A 
ATOM     33  C   UNL     1      -3.984   7.990   5.633  1.00  0.00     0.014 A 
ATOM     34  C   UNL     1      -2.672   8.083   3.589  1.00  0.00     0.014 A 
ATOM     35  C   UNL     1      -3.063   8.830   6.256  1.00  0.00     0.010 A 
ATOM     36  C   UNL     1      -1.728   8.880   4.227  1.00  0.00     0.010 A 
ATOM     37  C   UNL     1      -1.927   9.272   5.559  1.00  0.00    -0.014 A 
BRANCH  37  38
ATOM     38  C   UNL     1      -0.963  10.196   6.194  1.00  0.00     0.031 A 
ATOM     39  C   UNL     1      -0.902  11.626   5.744  1.00  0.00     0.074 A 
ATOM     40  C   UNL     1      -0.123   9.745   7.143  1.00  0.00     0.049 A 
ATOM     41  N   UNL     1      -0.129  12.590   6.173  1.00  0.00    -0.248 NA
ATOM     42  C   UNL     1      -1.814  12.020   4.658  1.00  0.00     0.031 C 
ATOM     43  C   UNL     1      -0.067   8.369   7.639  1.00  0.00     0.029 A 
ATOM     44  N   UNL     1       0.845  10.401   7.860  1.00  0.00    -0.354 N 
ATOM     45  C   UNL     1      -0.454  13.697   5.403  1.00  0.00     0.074 A 
ATOM     46  C   UNL     1      -1.460  13.280   4.453  1.00  0.00     0.031 C 
ATOM     47  C   UNL     1       0.870   8.290   8.598  1.00  0.00     0.029 A 
ATOM     48  C   UNL     1       1.490   9.602   8.769  1.00  0.00     0.049 A 
ATOM     49  H   UNL     1       1.056  11.355   7.734  1.00  0.00     0.167 HD
ATOM     50  C   UNL     1       0.030  14.957   5.494  1.00  0.00     0.031 A 
ATOM     51  C   UNL     1       2.469   9.893   9.647  1.00  0.00     0.031 A 
ATOM     52  C   UNL     1       1.009  15.377   6.455  1.00  0.00     0.049 A 
ATOM     53  C   UNL     1       3.002  11.294   9.724  1.00  0.00     0.074 A 
ATOM     54  C   UNL     1       1.493  16.652   6.685  1.00  0.00     0.029 A 
ATOM     55  N   UNL     1       1.655  14.531   7.341  1.00  0.00    -0.354 N 
ATOM     56  N   UNL     1       2.633  12.350   9.040  1.00  0.00    -0.248 NA
ATOM     57  C   UNL     1       4.082  11.547  10.689  1.00  0.00     0.031 C 
ATOM     58  C   UNL     1       2.470  16.570   7.681  1.00  0.00     0.029 A 
ATOM     59  C   UNL     1       2.563  15.251   8.097  1.00  0.00     0.049 A 
ATOM     60  H   UNL     1       1.493  13.564   7.421  1.00  0.00     0.167 HD
ATOM     61  C   UNL     1       3.426  13.394   9.496  1.00  0.00     0.074 A 
ATOM     62  C   UNL     1       4.293  12.847  10.520  1.00  0.00     0.031 C 
ATOM     63  C   UNL     1       3.429  14.689   9.100  1.00  0.00     0.031 A 
BRANCH  50  64
ATOM     64  C   UNL     1      -0.500  15.973   4.527  1.00  0.00    -0.014 A 
ATOM     65  C   UNL     1      -1.790  16.506   4.675  1.00  0.00     0.009 A 
ATOM     66  C   UNL     1       0.316  16.433   3.483  1.00  0.00     0.009 A 
ATOM     67  C   UNL     1      -2.261  17.465   3.777  1.00  0.00     0.001 A 
ATOM     68  C   UNL     1      -0.151  17.407   2.600  1.00  0.00     0.001 A 
ATOM     69  C   UNL     1      -1.441  17.918   2.744  1.00  0.00     0.000 A 
ENDBRANCH  50  64
BRANCH  51  70
ATOM     70  C   UNL     1       2.971   8.824  10.543  1.00  0.00    -0.014 A 
ATOM     71  C   UNL     1       2.511   8.740  11.865  1.00  0.00     0.009 A 
ATOM     72  C   UNL     1       3.843   7.837  10.058  1.00  0.00     0.009 A 
ATOM     73  C   UNL     1       2.911   7.683  12.685  1.00  0.00     0.001 A 
ATOM     74  C   UNL     1       4.230   6.774  10.877  1.00  0.00     0.001 A 
ATOM     75  C   UNL     1       3.763   6.697  12.188  1.00  0.00     0.000 A 
ENDBRANCH  51  70
BRANCH  63  76
ATOM     76  C   UNL     1       4.404  15.623   9.753  1.00  0.00    -0.014 A 
ATOM     77  C   UNL     1       5.742  15.660   9.336  1.00  0.00     0.009 A 
ATOM     78  C   UNL     1       3.949  16.566  10.688  1.00  0.00     0.009 A 
ATOM     79  C   UNL     1       6.609  16.630   9.842  1.00  0.00     0.001 A 
ATOM     80  C   UNL     1       4.814  17.544  11.179  1.00  0.00     0.001 A 
ATOM     81  C   UNL     1       6.142  17.577  10.755  1.00  0.00     0.000 A 
ENDBRANCH  63  76
ENDBRANCH  37  38
ENDBRANCH  29  32
ENDBRANCH  27  28
ENDBRANCH  26  27
ENDBRANCH  25  26
ENDBRANCH   1  25
TORSDOF 17
