REMARK SMILES O=C(NCCCCCCNC(=O)[C@H]1CC[C@@H](CNc2ccccc2C(F)(F)F)O1)c1ccc(-c2c3nc(c(-c4ccccc4)c4ccc([nH]4)c(-c4ccccc4)c4nc(c(-c5ccccc5)c5ccc2[nH]5)C=C4)C=C3)cc1
REMARK SMILES IDX 7 1 6 2 5 3 4 4 3 5 1 6 2 7 30 9 31 10 77 11 32 12 76 13
REMARK SMILES IDX 33 14 34 15 35 16 70 17 36 18 75 19 69 20 71 21 37 22 74 23
REMARK SMILES IDX 68 24 67 25 38 27 60 28 45 29 59 30 46 31 49 32 58 33 72 34
REMARK SMILES IDX 47 35 48 36 57 38 73 39 50 40 39 41 40 42 44 43 41 44 43 45
REMARK SMILES IDX 42 46 61 47 62 48 66 49 63 50 65 51 64 52 51 53 52 54 56 55
REMARK SMILES IDX 53 56 55 57 54 58 8 59 9 60 10 61 11 62 12 64 13 65 14 66
REMARK SMILES IDX 29 67 15 68 16 69 17 70 18 71 19 73 20 74 24 75 21 76 23 77
REMARK SMILES IDX 22 78 25 79 26 80 27 81 28 82
REMARK H PARENT 3 8 71 26 49 37 10 63 18 72
REMARK Flexibility Score: inf
ROOT
ATOM      1  C   UNL     1       6.495  -5.763  -1.825  1.00  0.00     0.002 C 
ENDROOT
BRANCH   1   2
ATOM      2  C   UNL     1       5.407  -4.757  -1.439  1.00  0.00     0.002 C 
BRANCH   2   3
ATOM      3  C   UNL     1       4.006  -5.045  -1.978  1.00  0.00     0.021 C 
BRANCH   3   4
ATOM      4  C   UNL     1       3.453  -6.428  -1.663  1.00  0.00     0.116 C 
BRANCH   4   5
ATOM      5  N   UNL     1       3.215  -6.640  -0.245  1.00  0.00    -0.352 N 
ATOM      6  O   UNL     1       2.014  -7.087   1.614  1.00  0.00    -0.269 OA
ATOM      7  C   UNL     1       2.079  -7.086   0.388  1.00  0.00     0.251 C 
ATOM      8  H   UNL     1       3.976  -6.436   0.345  1.00  0.00     0.163 HD
BRANCH   7   9
ATOM      9  C   UNL     1       0.916  -7.535  -0.410  1.00  0.00     0.039 A 
ATOM     10  C   UNL     1       1.085  -8.377  -1.511  1.00  0.00     0.014 A 
ATOM     11  C   UNL     1      -0.364  -7.102  -0.050  1.00  0.00     0.014 A 
ATOM     12  C   UNL     1       0.002  -8.659  -2.337  1.00  0.00     0.010 A 
ATOM     13  C   UNL     1      -1.466  -7.459  -0.834  1.00  0.00     0.010 A 
ATOM     14  C   UNL     1      -1.287  -8.209  -2.006  1.00  0.00    -0.014 A 
BRANCH  14  15
ATOM     15  C   UNL     1      -2.431  -8.578  -2.878  1.00  0.00     0.031 A 
ATOM     16  C   UNL     1      -3.199  -7.536  -3.644  1.00  0.00     0.074 A 
ATOM     17  C   UNL     1      -2.749  -9.881  -3.010  1.00  0.00     0.049 A 
ATOM     18  N   UNL     1      -4.179  -7.700  -4.498  1.00  0.00    -0.248 NA
ATOM     19  C   UNL     1      -2.828  -6.130  -3.421  1.00  0.00     0.031 C 
ATOM     20  C   UNL     1      -2.083 -10.986  -2.317  1.00  0.00     0.029 A 
ATOM     21  N   UNL     1      -3.689 -10.498  -3.794  1.00  0.00    -0.354 N 
ATOM     22  C   UNL     1      -4.558  -6.423  -4.894  1.00  0.00     0.074 A 
ATOM     23  C   UNL     1      -3.715  -5.493  -4.173  1.00  0.00     0.031 C 
ATOM     24  C   UNL     1      -2.590 -12.148  -2.754  1.00  0.00     0.029 A 
ATOM     25  C   UNL     1      -3.655 -11.869  -3.711  1.00  0.00     0.049 A 
ATOM     26  H   UNL     1      -4.327 -10.008  -4.361  1.00  0.00     0.167 HD
ATOM     27  C   UNL     1      -5.517  -6.059  -5.780  1.00  0.00     0.031 A 
ATOM     28  C   UNL     1      -4.398 -12.802  -4.331  1.00  0.00     0.031 A 
ATOM     29  C   UNL     1      -6.351  -6.984  -6.503  1.00  0.00     0.049 A 
ATOM     30  C   UNL     1      -5.466 -12.369  -5.290  1.00  0.00     0.074 A 
ATOM     31  C   UNL     1      -7.321  -6.710  -7.453  1.00  0.00     0.029 A 
ATOM     32  N   UNL     1      -6.319  -8.362  -6.352  1.00  0.00    -0.354 N 
ATOM     33  N   UNL     1      -5.782 -11.159  -5.683  1.00  0.00    -0.248 NA
ATOM     34  C   UNL     1      -6.282 -13.434  -5.890  1.00  0.00     0.031 C 
ATOM     35  C   UNL     1      -7.909  -7.920  -7.841  1.00  0.00     0.029 A 
ATOM     36  C   UNL     1      -7.269  -8.950  -7.171  1.00  0.00     0.049 A 
ATOM     37  H   UNL     1      -5.710  -8.850  -5.752  1.00  0.00     0.167 HD
ATOM     38  C   UNL     1      -6.821 -11.317  -6.589  1.00  0.00     0.074 A 
ATOM     39  C   UNL     1      -7.067 -12.741  -6.702  1.00  0.00     0.031 C 
ATOM     40  C   UNL     1      -7.509 -10.366  -7.266  1.00  0.00     0.031 A 
BRANCH  27  41
ATOM     41  C   UNL     1      -5.740  -4.587  -5.995  1.00  0.00    -0.014 A 
ATOM     42  C   UNL     1      -4.821  -3.804  -6.710  1.00  0.00     0.009 A 
ATOM     43  C   UNL     1      -6.910  -3.984  -5.507  1.00  0.00     0.009 A 
ATOM     44  C   UNL     1      -5.054  -2.440  -6.903  1.00  0.00     0.001 A 
ATOM     45  C   UNL     1      -7.152  -2.626  -5.723  1.00  0.00     0.001 A 
ATOM     46  C   UNL     1      -6.220  -1.853  -6.412  1.00  0.00     0.000 A 
ENDBRANCH  27  41
BRANCH  28  47
ATOM     47  C   UNL     1      -4.148 -14.241  -4.065  1.00  0.00    -0.014 A 
ATOM     48  C   UNL     1      -3.569 -15.056  -5.049  1.00  0.00     0.009 A 
ATOM     49  C   UNL     1      -4.472 -14.803  -2.819  1.00  0.00     0.009 A 
ATOM     50  C   UNL     1      -3.335 -16.410  -4.796  1.00  0.00     0.001 A 
ATOM     51  C   UNL     1      -4.211 -16.149  -2.560  1.00  0.00     0.001 A 
ATOM     52  C   UNL     1      -3.650 -16.953  -3.551  1.00  0.00     0.000 A 
ENDBRANCH  28  47
BRANCH  40  53
ATOM     53  C   UNL     1      -8.577 -10.845  -8.207  1.00  0.00    -0.014 A 
ATOM     54  C   UNL     1      -9.793 -11.355  -7.728  1.00  0.00     0.009 A 
ATOM     55  C   UNL     1      -8.365 -10.773  -9.593  1.00  0.00     0.009 A 
ATOM     56  C   UNL     1     -10.763 -11.818  -8.620  1.00  0.00     0.001 A 
ATOM     57  C   UNL     1      -9.347 -11.212 -10.482  1.00  0.00     0.001 A 
ATOM     58  C   UNL     1     -10.540 -11.743  -9.995  1.00  0.00     0.000 A 
ENDBRANCH  40  53
ENDBRANCH  14  15
ENDBRANCH   7   9
ENDBRANCH   4   5
ENDBRANCH   3   4
ENDBRANCH   2   3
ENDBRANCH   1   2
BRANCH   1  59
ATOM     59  C   UNL     1       6.634  -6.079  -3.319  1.00  0.00     0.021 C 
BRANCH  59  60
ATOM     60  C   UNL     1       6.819  -4.880  -4.244  1.00  0.00     0.116 C 
BRANCH  60  61
ATOM     61  N   UNL     1       7.992  -4.093  -3.925  1.00  0.00    -0.354 N 
ATOM     62  C   UNL     1       8.887  -3.510  -4.779  1.00  0.00     0.249 C 
ATOM     63  H   UNL     1       8.169  -3.960  -2.966  1.00  0.00     0.163 HD
ATOM     64  O   UNL     1       9.732  -2.751  -4.300  1.00  0.00    -0.272 OA
BRANCH  62  65
ATOM     65  C   UNL     1       8.818  -3.834  -6.286  1.00  0.00     0.207 C 
ATOM     66  C   UNL     1       9.435  -2.748  -7.150  1.00  0.00     0.045 C 
ATOM     67  O   UNL     1       9.557  -5.039  -6.552  1.00  0.00    -0.363 OA
ATOM     68  C   UNL     1      10.874  -3.184  -7.242  1.00  0.00     0.037 C 
ATOM     69  C   UNL     1      10.758  -4.700  -7.289  1.00  0.00     0.138 C 
BRANCH  69  70
ATOM     70  C   UNL     1      11.964  -5.523  -6.776  1.00  0.00     0.145 C 
BRANCH  70  71
ATOM     71  N   UNL     1      13.185  -4.741  -6.558  1.00  0.00    -0.382 N 
ATOM     72  H   UNL     1      13.610  -4.269  -7.311  1.00  0.00     0.160 HD
BRANCH  71  73
ATOM     73  C   UNL     1      13.742  -4.671  -5.286  1.00  0.00     0.046 A 
ATOM     74  C   UNL     1      13.710  -3.426  -4.628  1.00  0.00     0.026 A 
ATOM     75  C   UNL     1      14.264  -5.775  -4.591  1.00  0.00     0.079 A 
ATOM     76  C   UNL     1      14.164  -3.269  -3.318  1.00  0.00     0.002 A 
ATOM     77  C   UNL     1      14.722  -5.600  -3.263  1.00  0.00     0.015 A 
ATOM     78  C   UNL     1      14.671  -4.361  -2.631  1.00  0.00     0.001 A 
BRANCH  75  79
ATOM     79  C   UNL     1      14.411  -7.157  -5.178  1.00  0.00     0.418 C 
ATOM     80  F   UNL     1      15.660  -7.672  -4.964  1.00  0.00    -0.166 F 
ATOM     81  F   UNL     1      13.556  -8.051  -4.598  1.00  0.00    -0.166 F 
ATOM     82  F   UNL     1      14.209  -7.278  -6.519  1.00  0.00    -0.166 F 
ENDBRANCH  75  79
ENDBRANCH  71  73
ENDBRANCH  70  71
ENDBRANCH  69  70
ENDBRANCH  62  65
ENDBRANCH  60  61
ENDBRANCH  59  60
ENDBRANCH   1  59
TORSDOF 17
