REMARK SMILES O=C(NCCCCCCNC(=O)[C@@H](c1cccc(O)c1)[NH+]1CC[NH+](C2CCCC2)CC1)c1ccc(-c2c3nc(c(-c4ccccc4)c4ccc([nH]4)c(-c4ccccc4)c4nc(c(-c5ccccc5)c5ccc2[nH]5)C=C4)C=C3)cc1
REMARK SMILES IDX 6 1 5 2 4 3 3 4 1 5 2 6 32 8 33 9 79 10 34 11 78 12 35 13
REMARK SMILES IDX 36 14 37 15 72 16 38 17 77 18 71 19 73 20 39 21 76 22 70 23
REMARK SMILES IDX 69 24 40 26 62 27 47 28 61 29 48 30 51 31 60 32 74 33 49 34
REMARK SMILES IDX 50 35 59 37 75 38 52 39 41 40 42 41 46 42 43 43 45 44 44 45
REMARK SMILES IDX 63 46 64 47 68 48 65 49 67 50 66 51 53 52 54 53 58 54 55 55
REMARK SMILES IDX 57 56 56 57 7 58 8 59 9 60 10 61 11 62 12 64 13 65 14 66
REMARK SMILES IDX 15 67 20 68 16 69 18 70 17 71 19 72 21 74 22 75 31 76 23 78
REMARK SMILES IDX 30 79 24 80 25 82 26 83 29 84 27 85 28 86
REMARK H PARENT 3 7 73 25 51 36 10 63 19 73 21 77 24 81
REMARK Flexibility Score: inf
ROOT
ATOM      1  C   UNL     1       3.811   3.618  -1.387  1.00  0.00     0.002 C 
ENDROOT
BRANCH   1   2
ATOM      2  C   UNL     1       4.554   2.282  -1.476  1.00  0.00     0.021 C 
BRANCH   2   3
ATOM      3  C   UNL     1       4.389   1.389  -0.254  1.00  0.00     0.116 C 
BRANCH   3   4
ATOM      4  N   UNL     1       2.990   1.140   0.053  1.00  0.00    -0.352 N 
ATOM      5  O   UNL     1       1.076  -0.047   0.155  1.00  0.00    -0.269 OA
ATOM      6  C   UNL     1       2.299  -0.043   0.099  1.00  0.00     0.251 C 
ATOM      7  H   UNL     1       2.458   1.943   0.260  1.00  0.00     0.163 HD
BRANCH   6   8
ATOM      8  C   UNL     1       3.045  -1.316   0.076  1.00  0.00     0.039 A 
ATOM      9  C   UNL     1       4.196  -1.470   0.852  1.00  0.00     0.014 A 
ATOM     10  C   UNL     1       2.571  -2.373  -0.705  1.00  0.00     0.014 A 
ATOM     11  C   UNL     1       4.946  -2.632   0.746  1.00  0.00     0.010 A 
ATOM     12  C   UNL     1       3.275  -3.577  -0.734  1.00  0.00     0.010 A 
ATOM     13  C   UNL     1       4.478  -3.709  -0.022  1.00  0.00    -0.014 A 
BRANCH  13  14
ATOM     14  C   UNL     1       5.216  -4.992   0.013  1.00  0.00     0.031 A 
ATOM     15  C   UNL     1       5.862  -5.555  -1.218  1.00  0.00     0.074 A 
ATOM     16  C   UNL     1       5.311  -5.640   1.191  1.00  0.00     0.049 A 
ATOM     17  N   UNL     1       6.552  -6.660  -1.350  1.00  0.00    -0.248 NA
ATOM     18  C   UNL     1       5.711  -4.789  -2.465  1.00  0.00     0.031 C 
ATOM     19  C   UNL     1       4.719  -5.184   2.454  1.00  0.00     0.029 A 
ATOM     20  N   UNL     1       5.951  -6.803   1.527  1.00  0.00    -0.354 N 
ATOM     21  C   UNL     1       6.902  -6.732  -2.692  1.00  0.00     0.074 A 
ATOM     22  C   UNL     1       6.326  -5.573  -3.340  1.00  0.00     0.031 C 
ATOM     23  C   UNL     1       5.066  -6.031   3.433  1.00  0.00     0.029 A 
ATOM     24  C   UNL     1       5.835  -7.126   2.857  1.00  0.00     0.049 A 
ATOM     25  H   UNL     1       6.445  -7.355   0.878  1.00  0.00     0.167 HD
ATOM     26  C   UNL     1       7.640  -7.678  -3.321  1.00  0.00     0.031 A 
ATOM     27  C   UNL     1       6.276  -8.198   3.538  1.00  0.00     0.031 A 
ATOM     28  C   UNL     1       8.197  -8.835  -2.668  1.00  0.00     0.049 A 
ATOM     29  C   UNL     1       7.043  -9.256   2.801  1.00  0.00     0.074 A 
ATOM     30  C   UNL     1       8.981  -9.838  -3.212  1.00  0.00     0.029 A 
ATOM     31  N   UNL     1       8.020  -9.150  -1.329  1.00  0.00    -0.354 N 
ATOM     32  N   UNL     1       7.400  -9.289   1.540  1.00  0.00    -0.248 NA
ATOM     33  C   UNL     1       7.468 -10.424   3.582  1.00  0.00     0.031 C 
ATOM     34  C   UNL     1       9.224 -10.792  -2.219  1.00  0.00     0.029 A 
ATOM     35  C   UNL     1       8.654 -10.347  -1.037  1.00  0.00     0.049 A 
ATOM     36  H   UNL     1       7.519  -8.604  -0.681  1.00  0.00     0.167 HD
ATOM     37  C   UNL     1       8.114 -10.468   1.381  1.00  0.00     0.074 A 
ATOM     38  C   UNL     1       8.156 -11.109   2.681  1.00  0.00     0.031 C 
ATOM     39  C   UNL     1       8.683 -10.974   0.261  1.00  0.00     0.031 A 
BRANCH  26  40
ATOM     40  C   UNL     1       7.859  -7.522  -4.802  1.00  0.00    -0.014 A 
ATOM     41  C   UNL     1       8.686  -6.512  -5.319  1.00  0.00     0.009 A 
ATOM     42  C   UNL     1       7.268  -8.434  -5.692  1.00  0.00     0.009 A 
ATOM     43  C   UNL     1       8.888  -6.398  -6.697  1.00  0.00     0.001 A 
ATOM     44  C   UNL     1       7.496  -8.336  -7.066  1.00  0.00     0.001 A 
ATOM     45  C   UNL     1       8.298  -7.314  -7.568  1.00  0.00     0.000 A 
ENDBRANCH  26  40
BRANCH  27  46
ATOM     46  C   UNL     1       5.981  -8.329   4.988  1.00  0.00    -0.014 A 
ATOM     47  C   UNL     1       7.010  -8.262   5.938  1.00  0.00     0.009 A 
ATOM     48  C   UNL     1       4.661  -8.517   5.430  1.00  0.00     0.009 A 
ATOM     49  C   UNL     1       6.727  -8.409   7.298  1.00  0.00     0.001 A 
ATOM     50  C   UNL     1       4.376  -8.627   6.792  1.00  0.00     0.001 A 
ATOM     51  C   UNL     1       5.411  -8.585   7.724  1.00  0.00     0.000 A 
ENDBRANCH  27  46
BRANCH  39  52
ATOM     52  C   UNL     1       9.437 -12.267   0.403  1.00  0.00    -0.014 A 
ATOM     53  C   UNL     1       8.774 -13.481   0.635  1.00  0.00     0.009 A 
ATOM     54  C   UNL     1      10.835 -12.269   0.275  1.00  0.00     0.009 A 
ATOM     55  C   UNL     1       9.499 -14.666   0.775  1.00  0.00     0.001 A 
ATOM     56  C   UNL     1      11.555 -13.459   0.380  1.00  0.00     0.001 A 
ATOM     57  C   UNL     1      10.888 -14.655   0.641  1.00  0.00     0.000 A 
ENDBRANCH  39  52
ENDBRANCH  13  14
ENDBRANCH   6   8
ENDBRANCH   3   4
ENDBRANCH   2   3
ENDBRANCH   1   2
BRANCH   1  58
ATOM     58  C   UNL     1       4.148   4.481  -0.162  1.00  0.00     0.002 C 
BRANCH  58  59
ATOM     59  C   UNL     1       5.637   4.738   0.067  1.00  0.00     0.021 C 
BRANCH  59  60
ATOM     60  C   UNL     1       6.342   5.335  -1.136  1.00  0.00     0.116 C 
BRANCH  60  61
ATOM     61  N   UNL     1       6.373   6.770  -1.164  1.00  0.00    -0.351 N 
ATOM     62  C   UNL     1       7.460   7.592  -1.279  1.00  0.00     0.283 C 
ATOM     63  H   UNL     1       5.501   7.220  -1.090  1.00  0.00     0.163 HD
ATOM     64  O   UNL     1       7.211   8.785  -1.503  1.00  0.00    -0.268 OA
BRANCH  62  65
ATOM     65  C   UNL     1       8.934   7.098  -1.125  1.00  0.00     0.306 C 
BRANCH  65  66
ATOM     66  C   UNL     1       9.280   6.545   0.265  1.00  0.00     0.023 A 
ATOM     67  C   UNL     1       9.225   5.195   0.636  1.00  0.00     0.011 A 
ATOM     68  C   UNL     1       9.689   7.455   1.261  1.00  0.00     0.056 A 
ATOM     69  C   UNL     1       9.562   4.761   1.923  1.00  0.00     0.004 A 
ATOM     70  C   UNL     1      10.043   7.019   2.538  1.00  0.00     0.116 A 
ATOM     71  C   UNL     1       9.978   5.676   2.880  1.00  0.00     0.046 A 
BRANCH  70  72
ATOM     72  O   UNL     1      10.466   7.954   3.435  1.00  0.00    -0.508 OA
ATOM     73  H   UNL     1      10.711   7.695   4.301  1.00  0.00     0.293 HD
ENDBRANCH  70  72
ENDBRANCH  65  66
BRANCH  65  74
ATOM     74  N   UNL     1       9.534   6.528  -2.357  1.00  0.00    -0.312 N 
ATOM     75  C   UNL     1      10.984   6.335  -2.325  1.00  0.00     0.325 C 
ATOM     76  C   UNL     1       8.918   5.465  -3.127  1.00  0.00     0.325 C 
ATOM     77  H   UNL     1       9.260   7.345  -2.902  1.00  0.00     0.349 HD
ATOM     78  C   UNL     1      11.447   4.942  -1.848  1.00  0.00     0.324 C 
ATOM     79  C   UNL     1       9.300   4.022  -2.735  1.00  0.00     0.324 C 
ATOM     80  N   UNL     1      10.678   3.767  -2.296  1.00  0.00    -0.323 N 
ATOM     81  H   UNL     1      10.510   3.248  -1.434  1.00  0.00     0.348 HD
BRANCH  80  82
ATOM     82  C   UNL     1      11.448   2.841  -3.126  1.00  0.00     0.184 C 
ATOM     83  C   UNL     1      10.822   1.431  -3.179  1.00  0.00     0.065 C 
ATOM     84  C   UNL     1      11.624   3.288  -4.586  1.00  0.00     0.065 C 
ATOM     85  C   UNL     1      10.906   1.003  -4.637  1.00  0.00     0.006 C 
ATOM     86  C   UNL     1      10.822   2.301  -5.420  1.00  0.00     0.006 C 
ENDBRANCH  80  82
ENDBRANCH  65  74
ENDBRANCH  62  65
ENDBRANCH  60  61
ENDBRANCH  59  60
ENDBRANCH  58  59
ENDBRANCH   1  58
TORSDOF 17
