REMARK SMILES O=C(NCCCCCCNC(=O)c1ccc(S(=O)(=O)N[C@@H]2CC[N@@H+]3CCC[C@H]23)cc1)c1ccc(-c2c3nc(c(-c4ccccc4)c4ccc([nH]4)c(-c4ccccc4)c4nc(c(-c5ccccc5)c5ccc2[nH]5)C=C4)C=C3)cc1
REMARK SMILES IDX 7 1 6 2 5 3 4 4 3 5 1 6 2 7 31 9 32 10 78 11 33 12 77 13
REMARK SMILES IDX 34 14 35 15 36 16 71 17 37 18 76 19 70 20 72 21 38 22 75 23
REMARK SMILES IDX 69 24 68 25 39 27 61 28 46 29 60 30 47 31 50 32 59 33 73 34
REMARK SMILES IDX 48 35 49 36 58 38 74 39 51 40 40 41 41 42 45 43 42 44 44 45
REMARK SMILES IDX 43 46 62 47 63 48 67 49 64 50 66 51 65 52 52 53 53 54 57 55
REMARK SMILES IDX 54 56 56 57 55 58 8 59 9 60 10 61 11 62 12 64 13 65 14 66
REMARK SMILES IDX 30 67 15 68 29 69 16 70 17 71 18 72 19 73 20 74 21 76 22 77
REMARK SMILES IDX 28 78 23 79 24 80 27 81 25 82 26 84
REMARK H PARENT 3 8 72 26 50 37 10 63 20 75 24 83
REMARK Flexibility Score: inf
ROOT
ATOM      1  C   UNL     1       4.319  -4.475   0.077  1.00  0.00     0.002 C 
ENDROOT
BRANCH   1   2
ATOM      2  C   UNL     1       3.847  -3.810   1.373  1.00  0.00     0.002 C 
BRANCH   2   3
ATOM      3  C   UNL     1       4.343  -2.388   1.642  1.00  0.00     0.021 C 
BRANCH   3   4
ATOM      4  C   UNL     1       4.154  -1.379   0.516  1.00  0.00     0.116 C 
BRANCH   4   5
ATOM      5  N   UNL     1       2.764  -1.131   0.194  1.00  0.00    -0.352 N 
ATOM      6  O   UNL     1       0.918   0.093  -0.222  1.00  0.00    -0.269 OA
ATOM      7  C   UNL     1       2.134   0.064  -0.054  1.00  0.00     0.251 C 
ATOM      8  H   UNL     1       2.190  -1.929   0.147  1.00  0.00     0.163 HD
BRANCH   7   9
ATOM      9  C   UNL     1       2.907   1.328  -0.086  1.00  0.00     0.039 A 
ATOM     10  C   UNL     1       4.111   1.435  -0.789  1.00  0.00     0.014 A 
ATOM     11  C   UNL     1       2.386   2.445   0.577  1.00  0.00     0.014 A 
ATOM     12  C   UNL     1       4.840   2.623  -0.745  1.00  0.00     0.010 A 
ATOM     13  C   UNL     1       3.091   3.652   0.576  1.00  0.00     0.010 A 
ATOM     14  C   UNL     1       4.333   3.744  -0.068  1.00  0.00    -0.014 A 
BRANCH  14  15
ATOM     15  C   UNL     1       5.082   5.024  -0.097  1.00  0.00     0.031 A 
ATOM     16  C   UNL     1       5.751   5.562   1.135  1.00  0.00     0.074 A 
ATOM     17  C   UNL     1       5.165   5.702  -1.257  1.00  0.00     0.049 A 
ATOM     18  N   UNL     1       6.466   6.651   1.272  1.00  0.00    -0.248 NA
ATOM     19  C   UNL     1       5.597   4.784   2.373  1.00  0.00     0.031 C 
ATOM     20  C   UNL     1       4.548   5.293  -2.520  1.00  0.00     0.029 A 
ATOM     21  N   UNL     1       5.815   6.870  -1.564  1.00  0.00    -0.354 N 
ATOM     22  C   UNL     1       6.833   6.699   2.610  1.00  0.00     0.074 A 
ATOM     23  C   UNL     1       6.251   5.537   3.248  1.00  0.00     0.031 C 
ATOM     24  C   UNL     1       4.882   6.174  -3.475  1.00  0.00     0.029 A 
ATOM     25  C   UNL     1       5.703   7.226  -2.884  1.00  0.00     0.049 A 
ATOM     26  H   UNL     1       6.313   7.401  -0.901  1.00  0.00     0.167 HD
ATOM     27  C   UNL     1       7.587   7.625   3.249  1.00  0.00     0.031 A 
ATOM     28  C   UNL     1       6.203   8.282  -3.550  1.00  0.00     0.031 A 
ATOM     29  C   UNL     1       8.174   8.779   2.622  1.00  0.00     0.049 A 
ATOM     30  C   UNL     1       7.028   9.296  -2.817  1.00  0.00     0.074 A 
ATOM     31  C   UNL     1       8.983   9.751   3.186  1.00  0.00     0.029 A 
ATOM     32  N   UNL     1       8.011   9.119   1.289  1.00  0.00    -0.354 N 
ATOM     33  N   UNL     1       7.388   9.308  -1.558  1.00  0.00    -0.248 NA
ATOM     34  C   UNL     1       7.509  10.444  -3.598  1.00  0.00     0.031 C 
ATOM     35  C   UNL     1       9.287  10.696   2.199  1.00  0.00     0.029 A 
ATOM     36  C   UNL     1       8.690  10.296   1.016  1.00  0.00     0.049 A 
ATOM     37  H   UNL     1       7.491   8.602   0.633  1.00  0.00     0.167 HD
ATOM     38  C   UNL     1       8.141  10.462  -1.394  1.00  0.00     0.074 A 
ATOM     39  C   UNL     1       8.201  11.114  -2.686  1.00  0.00     0.031 C 
ATOM     40  C   UNL     1       8.727  10.939  -0.270  1.00  0.00     0.031 A 
BRANCH  27  41
ATOM     41  C   UNL     1       7.807   7.435   4.721  1.00  0.00    -0.014 A 
ATOM     42  C   UNL     1       8.755   6.516   5.196  1.00  0.00     0.009 A 
ATOM     43  C   UNL     1       7.089   8.214   5.641  1.00  0.00     0.009 A 
ATOM     44  C   UNL     1       8.964   6.366   6.569  1.00  0.00     0.001 A 
ATOM     45  C   UNL     1       7.310   8.072   7.011  1.00  0.00     0.001 A 
ATOM     46  C   UNL     1       8.243   7.145   7.474  1.00  0.00     0.000 A 
ENDBRANCH  27  41
BRANCH  28  47
ATOM     47  C   UNL     1       5.935   8.425  -5.000  1.00  0.00    -0.014 A 
ATOM     48  C   UNL     1       6.929   8.109  -5.937  1.00  0.00     0.009 A 
ATOM     49  C   UNL     1       4.676   8.847  -5.452  1.00  0.00     0.009 A 
ATOM     50  C   UNL     1       6.669   8.223  -7.304  1.00  0.00     0.001 A 
ATOM     51  C   UNL     1       4.414   8.943  -6.819  1.00  0.00     0.001 A 
ATOM     52  C   UNL     1       5.411   8.634  -7.744  1.00  0.00     0.000 A 
ENDBRANCH  28  47
BRANCH  40  53
ATOM     53  C   UNL     1       9.480  12.228  -0.397  1.00  0.00    -0.014 A 
ATOM     54  C   UNL     1       8.800  13.455  -0.421  1.00  0.00     0.009 A 
ATOM     55  C   UNL     1      10.881  12.217  -0.475  1.00  0.00     0.009 A 
ATOM     56  C   UNL     1       9.510  14.650  -0.547  1.00  0.00     0.001 A 
ATOM     57  C   UNL     1      11.588  13.415  -0.586  1.00  0.00     0.001 A 
ATOM     58  C   UNL     1      10.903  14.629  -0.628  1.00  0.00     0.000 A 
ENDBRANCH  40  53
ENDBRANCH  14  15
ENDBRANCH   7   9
ENDBRANCH   4   5
ENDBRANCH   3   4
ENDBRANCH   2   3
ENDBRANCH   1   2
BRANCH   1  59
ATOM     59  C   UNL     1       5.817  -4.410  -0.227  1.00  0.00     0.021 C 
BRANCH  59  60
ATOM     60  C   UNL     1       6.745  -4.889   0.882  1.00  0.00     0.116 C 
BRANCH  60  61
ATOM     61  N   UNL     1       6.624  -6.311   1.138  1.00  0.00    -0.352 N 
ATOM     62  C   UNL     1       7.610  -7.263   1.198  1.00  0.00     0.251 C 
ATOM     63  H   UNL     1       5.708  -6.638   1.289  1.00  0.00     0.163 HD
ATOM     64  O   UNL     1       7.319  -8.452   1.287  1.00  0.00    -0.269 OA
BRANCH  62  65
ATOM     65  C   UNL     1       9.035  -6.864   1.153  1.00  0.00     0.039 A 
ATOM     66  C   UNL     1       9.910  -7.572   0.320  1.00  0.00     0.015 A 
ATOM     67  C   UNL     1       9.517  -5.838   1.974  1.00  0.00     0.015 A 
ATOM     68  C   UNL     1      11.266  -7.241   0.289  1.00  0.00     0.022 A 
ATOM     69  C   UNL     1      10.860  -5.477   1.916  1.00  0.00     0.022 A 
ATOM     70  C   UNL     1      11.733  -6.195   1.092  1.00  0.00     0.082 A 
BRANCH  70  71
ATOM     71  S   UNL     1      13.473  -5.863   1.167  1.00  0.00     0.241 S 
ATOM     72  O   UNL     1      14.216  -7.095   1.049  1.00  0.00    -0.207 OA
ATOM     73  O   UNL     1      13.713  -4.755   0.267  1.00  0.00    -0.207 OA
BRANCH  71  74
ATOM     74  N   UNL     1      13.701  -5.251   2.688  1.00  0.00    -0.202 NA
ATOM     75  H   UNL     1      13.073  -4.448   2.722  1.00  0.00     0.141 HD
BRANCH  74  76
ATOM     76  C   UNL     1      13.559  -5.859   4.012  1.00  0.00     0.133 C 
ATOM     77  C   UNL     1      14.918  -6.051   4.678  1.00  0.00     0.087 C 
ATOM     78  C   UNL     1      12.719  -7.103   4.361  1.00  0.00     0.202 C 
ATOM     79  C   UNL     1      14.858  -7.441   5.278  1.00  0.00     0.264 C 
ATOM     80  N   UNL     1      13.428  -7.643   5.553  1.00  0.00    -0.331 N 
ATOM     81  C   UNL     1      12.491  -8.310   3.454  1.00  0.00     0.072 C 
ATOM     82  C   UNL     1      13.078  -9.062   5.649  1.00  0.00     0.262 C 
ATOM     83  H   UNL     1      13.183  -7.195   6.436  1.00  0.00     0.348 HD
ATOM     84  C   UNL     1      12.957  -9.538   4.219  1.00  0.00     0.068 C 
ENDBRANCH  74  76
ENDBRANCH  71  74
ENDBRANCH  70  71
ENDBRANCH  62  65
ENDBRANCH  60  61
ENDBRANCH  59  60
ENDBRANCH   1  59
TORSDOF 16
