REMARK SMILES Cc1ccc(S(=O)(=O)n2cc(C(=O)C(=O)N[C@@H](Cc3cnc[nH]3)C(=O)NCCCCCCNC(=O)c3ccc(-c4c5nc(c(-c6ccccc6)c6ccc([nH]6)c(-c6ccccc6)c6nc(c(-c7ccccc7)c7ccc4[nH]7)C=C6)C=C5)cc3)c3ccccc32)cc1
REMARK SMILES IDX 28 1 27 2 26 3 24 4 25 5 17 7 16 8 14 9 15 10 12 12 13 13
REMARK SMILES IDX 11 14 9 15 10 16 89 17 84 18 88 19 85 20 87 21 86 22 6 23
REMARK SMILES IDX 7 24 8 25 5 26 1 27 2 28 3 29 91 30 4 31 90 32 18 33 19 34
REMARK SMILES IDX 20 35 23 36 21 37 22 38 29 40 30 41 31 42 32 43 33 44 34 45
REMARK SMILES IDX 35 47 36 48 37 49 83 50 38 51 82 52 39 53 40 54 41 55 76 56
REMARK SMILES IDX 42 57 81 58 75 59 77 60 43 61 80 62 74 63 73 64 44 66 66 67
REMARK SMILES IDX 51 68 65 69 52 70 55 71 64 72 78 73 53 74 54 75 63 77 79 78
REMARK SMILES IDX 56 79 45 80 46 81 50 82 47 83 49 84 48 85 67 86 68 87 72 88
REMARK SMILES IDX 69 89 71 90 70 91 57 92 58 93 62 94 59 95 61 96 60 97
REMARK H PARENT 26 6 16 11 23 39 33 46 77 65 55 76
REMARK Flexibility Score: inf
ROOT
ATOM      1  C   UNL     1      -7.879   5.588   7.330  1.00  0.00     0.021 C 
ENDROOT
BRANCH   1   2
ATOM      2  C   UNL     1      -8.345   6.172   6.005  1.00  0.00     0.116 C 
BRANCH   2   3
ATOM      3  N   UNL     1      -7.372   6.977   5.310  1.00  0.00    -0.354 N 
ATOM      4  C   UNL     1      -7.309   7.250   3.972  1.00  0.00     0.242 C 
ATOM      5  O   UNL     1      -6.805   8.333   3.655  1.00  0.00    -0.273 OA
ATOM      6  H   UNL     1      -6.666   7.380   5.867  1.00  0.00     0.163 HD
BRANCH   4   7
ATOM      7  C   UNL     1      -7.933   6.331   2.889  1.00  0.00     0.177 C 
BRANCH   7   8
ATOM      8  N   UNL     1      -7.670   4.900   3.102  1.00  0.00    -0.337 N 
ATOM      9  C   UNL     1      -6.764   4.044   2.514  1.00  0.00     0.293 C 
ATOM     10  O   UNL     1      -6.604   2.945   3.036  1.00  0.00    -0.265 OA
ATOM     11  H   UNL     1      -8.241   4.480   3.785  1.00  0.00     0.164 HD
BRANCH   9  12
ATOM     12  C   UNL     1      -6.005   4.420   1.218  1.00  0.00     0.252 C 
ATOM     13  O   UNL     1      -6.125   5.559   0.778  1.00  0.00    -0.283 OA
BRANCH  12  14
ATOM     14  C   UNL     1      -5.185   3.448   0.481  1.00  0.00     0.054 A 
ATOM     15  N   UNL     1      -4.141   1.590  -0.184  1.00  0.00    -0.240 N 
ATOM     16  C   UNL     1      -4.910   2.134   0.813  1.00  0.00     0.117 A 
ATOM     17  C   UNL     1      -3.886   2.510  -1.178  1.00  0.00     0.065 A 
ATOM     18  C   UNL     1      -4.503   3.698  -0.765  1.00  0.00     0.012 A 
ATOM     19  C   UNL     1      -3.159   2.432  -2.381  1.00  0.00     0.028 A 
ATOM     20  C   UNL     1      -4.368   4.843  -1.582  1.00  0.00     0.011 A 
ATOM     21  C   UNL     1      -3.034   3.588  -3.156  1.00  0.00     0.002 A 
ATOM     22  C   UNL     1      -3.627   4.780  -2.763  1.00  0.00     0.001 A 
BRANCH  15  23
ATOM     23  S   UNL     1      -3.553  -0.007  -0.155  1.00  0.00     0.268 S 
ATOM     24  O   UNL     1      -3.872  -0.552  -1.456  1.00  0.00    -0.201 OA
ATOM     25  O   UNL     1      -4.064  -0.595   1.074  1.00  0.00    -0.201 OA
BRANCH  23  26
ATOM     26  C   UNL     1      -1.788   0.055  -0.007  1.00  0.00     0.088 A 
ATOM     27  C   UNL     1       2.512  -0.044   0.025  1.00  0.00     0.044 C 
ATOM     28  C   UNL     1       1.012  -0.004   0.040  1.00  0.00    -0.051 A 
ATOM     29  C   UNL     1       0.283  -1.196  -0.041  1.00  0.00     0.005 A 
ATOM     30  C   UNL     1       0.325   1.213   0.133  1.00  0.00     0.005 A 
ATOM     31  C   UNL     1      -1.111  -1.169  -0.070  1.00  0.00     0.022 A 
ATOM     32  C   UNL     1      -1.072   1.246   0.124  1.00  0.00     0.022 A 
ENDBRANCH  23  26
ENDBRANCH  15  23
ENDBRANCH  12  14
ENDBRANCH   9  12
ENDBRANCH   7   8
BRANCH   7  33
ATOM     33  C   UNL     1      -9.398   6.647   2.529  1.00  0.00     0.090 C 
BRANCH  33  34
ATOM     34  C   UNL     1     -10.428   6.343   3.562  1.00  0.00     0.037 A 
ATOM     35  C   UNL     1     -10.978   5.163   4.018  1.00  0.00     0.134 A 
ATOM     36  N   UNL     1     -11.094   7.324   4.260  1.00  0.00    -0.348 N 
ATOM     37  N   UNL     1     -11.858   5.400   5.042  1.00  0.00    -0.245 NA
ATOM     38  C   UNL     1     -11.925   6.707   5.150  1.00  0.00     0.196 A 
ATOM     39  H   UNL     1     -10.990   8.296   4.140  1.00  0.00     0.167 HD
ENDBRANCH  33  34
ENDBRANCH   7  33
ENDBRANCH   4   7
ENDBRANCH   2   3
ENDBRANCH   1   2
BRANCH   1  40
ATOM     40  C   UNL     1      -7.850   6.567   8.508  1.00  0.00     0.002 C 
BRANCH  40  41
ATOM     41  C   UNL     1      -9.091   7.452   8.711  1.00  0.00     0.002 C 
BRANCH  41  42
ATOM     42  C   UNL     1     -10.452   6.763   8.615  1.00  0.00     0.021 C 
BRANCH  42  43
ATOM     43  C   UNL     1     -10.749   5.776   9.727  1.00  0.00     0.116 C 
BRANCH  43  44
ATOM     44  N   UNL     1     -11.350   6.383  10.908  1.00  0.00    -0.352 N 
ATOM     45  C   UNL     1     -11.848   5.788  12.055  1.00  0.00     0.251 C 
ATOM     46  H   UNL     1     -11.411   7.365  10.888  1.00  0.00     0.163 HD
ATOM     47  O   UNL     1     -12.366   6.479  12.927  1.00  0.00    -0.269 OA
BRANCH  45  48
ATOM     48  C   UNL     1     -11.573   4.353  12.317  1.00  0.00     0.039 A 
ATOM     49  C   UNL     1     -11.000   4.065  13.562  1.00  0.00     0.014 A 
ATOM     50  C   UNL     1     -11.452   3.459  11.262  1.00  0.00     0.014 A 
ATOM     51  C   UNL     1     -10.002   3.108  13.630  1.00  0.00     0.010 A 
ATOM     52  C   UNL     1     -10.373   2.614  11.277  1.00  0.00     0.010 A 
ATOM     53  C   UNL     1      -9.607   2.512  12.438  1.00  0.00    -0.014 A 
BRANCH  53  54
ATOM     54  C   UNL     1      -8.402   1.729  12.293  1.00  0.00     0.031 A 
ATOM     55  C   UNL     1      -8.535   0.284  12.494  1.00  0.00     0.074 A 
ATOM     56  C   UNL     1      -7.266   2.346  11.903  1.00  0.00     0.049 A 
ATOM     57  N   UNL     1      -7.603  -0.477  12.937  1.00  0.00    -0.248 NA
ATOM     58  C   UNL     1      -9.807  -0.411  12.296  1.00  0.00     0.031 C 
ATOM     59  C   UNL     1      -6.013   1.760  11.445  1.00  0.00     0.029 A 
ATOM     60  N   UNL     1      -6.976   3.700  12.027  1.00  0.00    -0.354 N 
ATOM     61  C   UNL     1      -8.036  -1.772  12.758  1.00  0.00     0.074 A 
ATOM     62  C   UNL     1      -9.450  -1.679  12.506  1.00  0.00     0.031 C 
ATOM     63  C   UNL     1      -5.035   2.680  11.558  1.00  0.00     0.029 A 
ATOM     64  C   UNL     1      -5.598   3.840  12.237  1.00  0.00     0.049 A 
ATOM     65  H   UNL     1      -7.628   4.435  11.976  1.00  0.00     0.167 HD
ATOM     66  C   UNL     1      -7.105  -2.758  12.646  1.00  0.00     0.031 A 
ATOM     67  C   UNL     1      -5.147   4.333  13.433  1.00  0.00     0.031 A 
ATOM     68  C   UNL     1      -5.764  -2.204  12.820  1.00  0.00     0.049 A 
ATOM     69  C   UNL     1      -4.445   3.271  14.255  1.00  0.00     0.074 A 
ATOM     70  C   UNL     1      -4.840  -1.742  11.897  1.00  0.00     0.029 A 
ATOM     71  N   UNL     1      -5.405  -1.667  14.050  1.00  0.00    -0.354 N 
ATOM     72  N   UNL     1      -4.641   1.989  14.109  1.00  0.00    -0.248 NA
ATOM     73  C   UNL     1      -3.470   3.573  15.301  1.00  0.00     0.031 C 
ATOM     74  C   UNL     1      -3.981  -0.832  12.568  1.00  0.00     0.029 A 
ATOM     75  C   UNL     1      -4.357  -0.777  13.899  1.00  0.00     0.049 A 
ATOM     76  H   UNL     1      -5.835  -1.888  14.907  1.00  0.00     0.167 HD
ATOM     77  C   UNL     1      -3.845   1.303  14.985  1.00  0.00     0.074 A 
ATOM     78  C   UNL     1      -3.131   2.338  15.711  1.00  0.00     0.031 C 
ATOM     79  C   UNL     1      -3.829  -0.060  15.052  1.00  0.00     0.031 A 
BRANCH  66  80
ATOM     80  C   UNL     1      -7.372  -4.116  12.049  1.00  0.00    -0.014 A 
ATOM     81  C   UNL     1      -6.293  -4.835  11.500  1.00  0.00     0.009 A 
ATOM     82  C   UNL     1      -8.634  -4.726  11.941  1.00  0.00     0.009 A 
ATOM     83  C   UNL     1      -6.469  -6.053  10.832  1.00  0.00     0.001 A 
ATOM     84  C   UNL     1      -8.823  -5.933  11.253  1.00  0.00     0.001 A 
ATOM     85  C   UNL     1      -7.739  -6.595  10.694  1.00  0.00     0.000 A 
ENDBRANCH  66  80
BRANCH  67  86
ATOM     86  C   UNL     1      -6.060   5.377  13.998  1.00  0.00    -0.014 A 
ATOM     87  C   UNL     1      -6.207   6.579  13.273  1.00  0.00     0.009 A 
ATOM     88  C   UNL     1      -7.060   5.023  14.915  1.00  0.00     0.009 A 
ATOM     89  C   UNL     1      -7.405   7.299  13.320  1.00  0.00     0.001 A 
ATOM     90  C   UNL     1      -8.245   5.767  14.979  1.00  0.00     0.001 A 
ATOM     91  C   UNL     1      -8.441   6.866  14.142  1.00  0.00     0.000 A 
ENDBRANCH  67  86
BRANCH  79  92
ATOM     92  C   UNL     1      -3.234  -0.859  16.182  1.00  0.00    -0.014 A 
ATOM     93  C   UNL     1      -3.028  -0.349  17.470  1.00  0.00     0.009 A 
ATOM     94  C   UNL     1      -2.994  -2.239  15.999  1.00  0.00     0.009 A 
ATOM     95  C   UNL     1      -2.534  -1.157  18.501  1.00  0.00     0.001 A 
ATOM     96  C   UNL     1      -2.564  -3.062  17.040  1.00  0.00     0.001 A 
ATOM     97  C   UNL     1      -2.310  -2.513  18.288  1.00  0.00     0.000 A 
ENDBRANCH  79  92
ENDBRANCH  53  54
ENDBRANCH  45  48
ENDBRANCH  43  44
ENDBRANCH  42  43
ENDBRANCH  41  42
ENDBRANCH  40  41
ENDBRANCH   1  40
TORSDOF 20
