REMARK SMILES COC(=O)c1ccccc1-c1ccc(/C=C(\C#N)C(=O)NCCCCCCNC(=O)c2ccc(-c3c4nc(c(-c5ccccc5)c5ccc([nH]5)c(-c5ccccc5)c5nc(c(-c6ccccc6)c6ccc3[nH]6)C=C5)C=C4)cc2)o1
REMARK SMILES IDX 23 1 22 2 21 3 19 4 20 5 16 7 15 8 14 9 11 10 12 11 79 12
REMARK SMILES IDX 13 13 10 14 5 15 6 16 7 17 9 18 8 19 3 20 4 21 2 22 1 23
REMARK SMILES IDX 17 24 18 25 24 26 25 27 26 28 27 29 28 30 29 31 30 33 31 34
REMARK SMILES IDX 32 35 78 36 33 37 77 38 34 39 35 40 36 41 71 42 37 43 76 44
REMARK SMILES IDX 70 45 72 46 38 47 75 48 69 49 68 50 39 52 61 53 46 54 60 55
REMARK SMILES IDX 47 56 50 57 59 58 73 59 48 60 49 61 58 63 74 64 51 65 40 66
REMARK SMILES IDX 41 67 45 68 42 69 44 70 43 71 62 72 63 73 67 74 64 75 66 76
REMARK SMILES IDX 65 77 52 78 53 79 57 80 54 81 56 82 55 83
REMARK H PARENT 21 6 28 32 72 51 50 62
REMARK Flexibility Score: inf
ROOT
ATOM      1  C   UNL     1      -4.054  -5.085   5.967  1.00  0.00     0.021 C 
ENDROOT
BRANCH   1   2
ATOM      2  C   UNL     1      -5.084  -4.855   4.863  1.00  0.00     0.116 C 
BRANCH   2   3
ATOM      3  N   UNL     1      -5.428  -3.450   4.765  1.00  0.00    -0.351 N 
ATOM      4  C   UNL     1      -5.041  -2.449   3.934  1.00  0.00     0.262 C 
ATOM      5  O   UNL     1      -5.520  -1.335   4.172  1.00  0.00    -0.268 OA
ATOM      6  H   UNL     1      -6.080  -3.161   5.444  1.00  0.00     0.163 HD
BRANCH   4   7
ATOM      7  C   UNL     1      -4.120  -2.638   2.773  1.00  0.00     0.120 C 
ATOM      8  C   UNL     1      -4.030  -1.597   1.915  1.00  0.00     0.072 C 
BRANCH   8   9
ATOM      9  C   UNL     1      -3.255  -1.596   0.719  1.00  0.00     0.129 A 
ATOM     10  C   UNL     1      -1.869  -2.311  -0.874  1.00  0.00     0.135 A 
ATOM     11  C   UNL     1      -2.217  -1.028  -1.223  1.00  0.00     0.051 A 
ATOM     12  O   UNL     1      -2.510  -2.660   0.271  1.00  0.00    -0.457 OA
ATOM     13  C   UNL     1      -3.098  -0.572  -0.210  1.00  0.00     0.051 A 
BRANCH  10  14
ATOM     14  C   UNL     1      -0.978  -3.323  -1.424  1.00  0.00     0.032 A 
ATOM     15  C   UNL     1       0.362  -3.061  -1.762  1.00  0.00     0.071 A 
ATOM     16  C   UNL     1       1.155  -4.055  -2.359  1.00  0.00     0.016 A 
ATOM     17  C   UNL     1       0.629  -5.325  -2.595  1.00  0.00     0.001 A 
ATOM     18  C   UNL     1      -1.482  -4.615  -1.656  1.00  0.00     0.013 A 
ATOM     19  C   UNL     1      -0.686  -5.606  -2.237  1.00  0.00     0.001 A 
BRANCH  15  20
ATOM     20  C   UNL     1       1.009  -1.755  -1.521  1.00  0.00     0.338 C 
ATOM     21  O   UNL     1       1.692  -1.176  -2.355  1.00  0.00    -0.246 OA
BRANCH  20  22
ATOM     22  O   UNL     1       0.782  -1.356  -0.248  1.00  0.00    -0.465 OA
ATOM     23  C   UNL     1       1.303  -0.065   0.065  1.00  0.00     0.282 C 
ENDBRANCH  20  22
ENDBRANCH  15  20
ENDBRANCH  10  14
ENDBRANCH   8   9
BRANCH   7  24
ATOM     24  C   UNL     1      -3.373  -3.936   2.511  1.00  0.00     0.105 C 
ATOM     25  N   UNL     1      -2.754  -5.013   2.295  1.00  0.00    -0.192 NA
ENDBRANCH   7  24
ENDBRANCH   4   7
ENDBRANCH   2   3
ENDBRANCH   1   2
BRANCH   1  26
ATOM     26  C   UNL     1      -4.685  -5.198   7.361  1.00  0.00     0.002 C 
BRANCH  26  27
ATOM     27  C   UNL     1      -5.688  -6.349   7.524  1.00  0.00     0.002 C 
BRANCH  27  28
ATOM     28  C   UNL     1      -5.163  -7.729   7.117  1.00  0.00     0.021 C 
BRANCH  28  29
ATOM     29  C   UNL     1      -3.958  -8.207   7.922  1.00  0.00     0.116 C 
BRANCH  29  30
ATOM     30  N   UNL     1      -4.286  -8.364   9.329  1.00  0.00    -0.352 N 
ATOM     31  C   UNL     1      -4.162  -9.463  10.138  1.00  0.00     0.251 C 
ATOM     32  H   UNL     1      -4.652  -7.561   9.767  1.00  0.00     0.163 HD
ATOM     33  O   UNL     1      -4.708  -9.482  11.237  1.00  0.00    -0.269 OA
BRANCH  31  34
ATOM     34  C   UNL     1      -3.373 -10.629   9.691  1.00  0.00     0.039 A 
ATOM     35  C   UNL     1      -3.871 -11.912   9.933  1.00  0.00     0.014 A 
ATOM     36  C   UNL     1      -2.124 -10.463   9.083  1.00  0.00     0.014 A 
ATOM     37  C   UNL     1      -3.137 -13.028   9.531  1.00  0.00     0.010 A 
ATOM     38  C   UNL     1      -1.419 -11.575   8.630  1.00  0.00     0.010 A 
ATOM     39  C   UNL     1      -1.914 -12.867   8.861  1.00  0.00    -0.014 A 
BRANCH  39  40
ATOM     40  C   UNL     1      -1.134 -14.043   8.405  1.00  0.00     0.031 A 
ATOM     41  C   UNL     1       0.198 -14.356   9.027  1.00  0.00     0.074 A 
ATOM     42  C   UNL     1      -1.602 -14.797   7.392  1.00  0.00     0.049 A 
ATOM     43  N   UNL     1       1.040 -15.316   8.735  1.00  0.00    -0.248 NA
ATOM     44  C   UNL     1       0.656 -13.462  10.102  1.00  0.00     0.031 C 
ATOM     45  C   UNL     1      -2.859 -14.570   6.676  1.00  0.00     0.029 A 
ATOM     46  N   UNL     1      -1.067 -15.905   6.784  1.00  0.00    -0.354 N 
ATOM     47  C   UNL     1       2.132 -15.127   9.572  1.00  0.00     0.074 A 
ATOM     48  C   UNL     1       1.865 -13.942  10.357  1.00  0.00     0.031 C 
ATOM     49  C   UNL     1      -3.006 -15.520   5.738  1.00  0.00     0.029 A 
ATOM     50  C   UNL     1      -1.845 -16.403   5.768  1.00  0.00     0.049 A 
ATOM     51  H   UNL     1      -0.207 -16.304   7.051  1.00  0.00     0.167 HD
ATOM     52  C   UNL     1       3.251 -15.882   9.687  1.00  0.00     0.031 A 
ATOM     53  C   UNL     1      -1.643 -17.452   4.950  1.00  0.00     0.031 A 
ATOM     54  C   UNL     1       3.508 -17.072   8.922  1.00  0.00     0.049 A 
ATOM     55  C   UNL     1      -0.402 -18.284   5.112  1.00  0.00     0.074 A 
ATOM     56  C   UNL     1       4.580 -17.942   9.015  1.00  0.00     0.029 A 
ATOM     57  N   UNL     1       2.683 -17.558   7.921  1.00  0.00    -0.354 N 
ATOM     58  N   UNL     1       0.586 -18.136   5.960  1.00  0.00    -0.248 NA
ATOM     59  C   UNL     1      -0.258 -19.436   4.211  1.00  0.00     0.031 C 
ATOM     60  C   UNL     1       4.423 -18.935   8.042  1.00  0.00     0.029 A 
ATOM     61  C   UNL     1       3.231 -18.706   7.374  1.00  0.00     0.049 A 
ATOM     62  H   UNL     1       1.833 -17.148   7.640  1.00  0.00     0.167 HD
ATOM     63  C   UNL     1       1.457 -19.187   5.712  1.00  0.00     0.074 A 
ATOM     64  C   UNL     1       0.873 -19.975   4.646  1.00  0.00     0.031 C 
ATOM     65  C   UNL     1       2.637 -19.476   6.314  1.00  0.00     0.031 A 
BRANCH  52  66
ATOM     66  C   UNL     1       4.287 -15.436  10.679  1.00  0.00    -0.014 A 
ATOM     67  C   UNL     1       4.072 -15.562  12.061  1.00  0.00     0.009 A 
ATOM     68  C   UNL     1       5.511 -14.920  10.225  1.00  0.00     0.009 A 
ATOM     69  C   UNL     1       5.050 -15.150  12.968  1.00  0.00     0.001 A 
ATOM     70  C   UNL     1       6.496 -14.532  11.135  1.00  0.00     0.001 A 
ATOM     71  C   UNL     1       6.262 -14.640  12.505  1.00  0.00     0.000 A 
ENDBRANCH  52  66
BRANCH  53  72
ATOM     72  C   UNL     1      -2.651 -17.790   3.914  1.00  0.00    -0.014 A 
ATOM     73  C   UNL     1      -3.471 -18.919   4.060  1.00  0.00     0.009 A 
ATOM     74  C   UNL     1      -2.796 -16.986   2.772  1.00  0.00     0.009 A 
ATOM     75  C   UNL     1      -4.399 -19.251   3.070  1.00  0.00     0.001 A 
ATOM     76  C   UNL     1      -3.742 -17.308   1.797  1.00  0.00     0.001 A 
ATOM     77  C   UNL     1      -4.536 -18.444   1.942  1.00  0.00     0.000 A 
ENDBRANCH  53  72
BRANCH  65  78
ATOM     78  C   UNL     1       3.357 -20.709   5.850  1.00  0.00    -0.014 A 
ATOM     79  C   UNL     1       4.024 -20.739   4.616  1.00  0.00     0.009 A 
ATOM     80  C   UNL     1       3.395 -21.843   6.676  1.00  0.00     0.009 A 
ATOM     81  C   UNL     1       4.690 -21.895   4.204  1.00  0.00     0.001 A 
ATOM     82  C   UNL     1       4.083 -22.988   6.272  1.00  0.00     0.001 A 
ATOM     83  C   UNL     1       4.722 -23.015   5.034  1.00  0.00     0.000 A 
ENDBRANCH  65  78
ENDBRANCH  39  40
ENDBRANCH  31  34
ENDBRANCH  29  30
ENDBRANCH  28  29
ENDBRANCH  27  28
ENDBRANCH  26  27
ENDBRANCH   1  26
TORSDOF 18
