REMARK SMILES CC1(C)CC[C@@]2(C(=O)NCCCCCCNC(=O)c3ccc(-c4c5nc(c(-c6ccccc6)c6ccc([nH]6)c(-c6ccccc6)c6nc(c(-c7ccccc7)c7ccc4[nH]7)C=C6)C=C5)cc3)CC[C@@]3(C)C(=CC[C@H]4[C@@]5(C)CC[C@H](O)C(C)(C)[C@@H]5CC[C@]43C)[C@@H]2C1
REMARK SMILES IDX 13 1 12 2 11 3 10 4 9 5 7 6 8 7 6 9 1 10 2 11 3 12 4 13
REMARK SMILES IDX 90 14 5 15 89 16 71 17 67 18 69 19 72 20 68 21 70 22 87 23
REMARK SMILES IDX 73 24 74 25 86 26 88 27 75 28 85 29 76 30 77 31 84 32 78 33
REMARK SMILES IDX 81 34 79 35 82 36 83 37 80 38 14 40 15 41 16 42 17 43 18 45
REMARK SMILES IDX 19 46 20 47 66 48 21 49 65 50 22 51 23 52 24 53 59 54 25 55
REMARK SMILES IDX 64 56 58 57 60 58 26 59 63 60 57 61 56 62 27 64 49 65 34 66
REMARK SMILES IDX 48 67 35 68 38 69 47 70 61 71 36 72 37 73 46 75 62 76 39 77
REMARK SMILES IDX 28 78 29 79 33 80 30 81 32 82 31 83 50 84 51 85 55 86 52 87
REMARK SMILES IDX 54 88 53 89 40 90 41 91 45 92 42 93 44 94 43 95
REMARK H PARENT 9 8 80 39 16 44 60 63 38 74
REMARK Flexibility Score: inf
ROOT
ATOM      1  C   UNL     1      -0.205  -0.198  -4.320  1.00  0.00     0.002 C 
ENDROOT
BRANCH   1   2
ATOM      2  C   UNL     1      -0.856  -1.548  -4.046  1.00  0.00     0.002 C 
BRANCH   2   3
ATOM      3  C   UNL     1      -0.075  -2.637  -3.286  1.00  0.00     0.021 C 
BRANCH   3   4
ATOM      4  C   UNL     1       0.434  -2.388  -1.865  1.00  0.00     0.116 C 
BRANCH   4   5
ATOM      5  N   UNL     1      -0.484  -1.950  -0.841  1.00  0.00    -0.356 N 
ATOM      6  C   UNL     1      -0.577  -2.424   0.459  1.00  0.00     0.226 C 
ATOM      7  O   UNL     1      -0.477  -3.622   0.717  1.00  0.00    -0.274 OA
ATOM      8  H   UNL     1      -1.114  -1.237  -1.094  1.00  0.00     0.163 HD
BRANCH   6   9
ATOM      9  C   UNL     1      -0.629  -1.331   1.600  1.00  0.00     0.056 C 
ATOM     10  C   UNL     1       2.734   0.924   1.577  1.00  0.00     0.011 C 
ATOM     11  C   UNL     1       1.958  -0.071   0.692  1.00  0.00    -0.035 C 
ATOM     12  C   UNL     1       2.854  -0.298  -0.561  1.00  0.00     0.011 C 
ATOM     13  C   UNL     1       1.893  -1.411   1.450  1.00  0.00     0.007 C 
ATOM     14  C   UNL     1       0.543   0.551   0.291  1.00  0.00     0.015 C 
ATOM     15  C   UNL     1       0.700  -1.491   2.378  1.00  0.00     0.018 C 
ATOM     16  C   UNL     1      -0.770   0.123   1.087  1.00  0.00     0.031 C 
ATOM     17  C   UNL     1      -2.211   0.232   0.414  1.00  0.00    -0.064 C 
ATOM     18  C   UNL     1      -1.736  -1.569   2.646  1.00  0.00     0.018 C 
ATOM     19  C   UNL     1      -3.473  -0.202   1.252  1.00  0.00    -0.006 C 
ATOM     20  C   UNL     1      -2.361   0.571  -0.879  1.00  0.00    -0.027 C 
ATOM     21  C   UNL     1      -3.141  -1.466   2.081  1.00  0.00     0.013 C 
ATOM     22  C   UNL     1      -3.699   0.968   2.264  1.00  0.00     0.017 C 
ATOM     23  C   UNL     1      -4.872  -0.452   0.368  1.00  0.00    -0.020 C 
ATOM     24  C   UNL     1      -3.555   0.238  -1.716  1.00  0.00     0.032 C 
ATOM     25  C   UNL     1      -4.558  -0.793  -1.125  1.00  0.00     0.006 C 
ATOM     26  C   UNL     1      -5.906  -1.501   0.955  1.00  0.00     0.008 C 
ATOM     27  C   UNL     1      -5.708   0.885   0.302  1.00  0.00     0.012 C 
ATOM     28  C   UNL     1      -4.472  -2.334  -1.606  1.00  0.00    -0.025 C 
ATOM     29  C   UNL     1      -6.404  -2.609  -0.016  1.00  0.00     0.005 C 
ATOM     30  C   UNL     1      -5.067  -2.299  -3.046  1.00  0.00     0.012 C 
ATOM     31  C   UNL     1      -3.083  -2.951  -1.675  1.00  0.00     0.010 C 
ATOM     32  C   UNL     1      -5.195  -3.309  -0.620  1.00  0.00     0.003 C 
ATOM     33  C   UNL     1      -3.001  -4.390  -2.190  1.00  0.00     0.033 C 
ATOM     34  C   UNL     1      -5.286  -4.826  -1.080  1.00  0.00    -0.006 C 
ATOM     35  C   UNL     1      -3.833  -5.342  -1.347  1.00  0.00     0.120 C 
ATOM     36  C   UNL     1      -6.187  -5.085  -2.300  1.00  0.00     0.014 C 
ATOM     37  C   UNL     1      -5.846  -5.704   0.067  1.00  0.00     0.014 C 
BRANCH  35  38
ATOM     38  O   UNL     1      -3.839  -6.625  -1.977  1.00  0.00    -0.393 OA
ATOM     39  H   UNL     1      -4.250  -6.553  -2.853  1.00  0.00     0.210 HD
ENDBRANCH  35  38
ENDBRANCH   6   9
ENDBRANCH   4   5
ENDBRANCH   3   4
ENDBRANCH   2   3
ENDBRANCH   1   2
BRANCH   1  40
ATOM     40  C   UNL     1       1.065  -0.226  -5.153  1.00  0.00     0.021 C 
BRANCH  40  41
ATOM     41  C   UNL     1       1.078  -1.235  -6.288  1.00  0.00     0.116 C 
BRANCH  41  42
ATOM     42  N   UNL     1      -0.004  -1.111  -7.250  1.00  0.00    -0.352 N 
ATOM     43  C   UNL     1      -0.032  -1.700  -8.499  1.00  0.00     0.251 C 
ATOM     44  H   UNL     1      -0.780  -0.562  -6.990  1.00  0.00     0.163 HD
ATOM     45  O   UNL     1      -0.969  -1.581  -9.263  1.00  0.00    -0.269 OA
BRANCH  43  46
ATOM     46  C   UNL     1       1.178  -2.454  -8.885  1.00  0.00     0.039 A 
ATOM     47  C   UNL     1       2.044  -1.880  -9.815  1.00  0.00     0.014 A 
ATOM     48  C   UNL     1       1.539  -3.592  -8.159  1.00  0.00     0.014 A 
ATOM     49  C   UNL     1       3.315  -2.426  -9.982  1.00  0.00     0.010 A 
ATOM     50  C   UNL     1       2.832  -4.087  -8.275  1.00  0.00     0.010 A 
ATOM     51  C   UNL     1       3.728  -3.512  -9.192  1.00  0.00    -0.014 A 
BRANCH  51  52
ATOM     52  C   UNL     1       5.090  -4.076  -9.342  1.00  0.00     0.031 A 
ATOM     53  C   UNL     1       5.255  -5.467  -9.885  1.00  0.00     0.074 A 
ATOM     54  C   UNL     1       6.165  -3.357  -8.964  1.00  0.00     0.049 A 
ATOM     55  N   UNL     1       6.355  -6.141 -10.102  1.00  0.00    -0.248 NA
ATOM     56  C   UNL     1       4.023  -6.208 -10.200  1.00  0.00     0.031 C 
ATOM     57  C   UNL     1       6.129  -2.018  -8.371  1.00  0.00     0.029 A 
ATOM     58  N   UNL     1       7.503  -3.657  -9.023  1.00  0.00    -0.354 N 
ATOM     59  C   UNL     1       5.944  -7.387 -10.557  1.00  0.00     0.074 A 
ATOM     60  C   UNL     1       4.499  -7.396 -10.537  1.00  0.00     0.031 C 
ATOM     61  C   UNL     1       7.388  -1.602  -8.148  1.00  0.00     0.029 A 
ATOM     62  C   UNL     1       8.316  -2.652  -8.556  1.00  0.00     0.049 A 
ATOM     63  H   UNL     1       7.849  -4.512  -9.367  1.00  0.00     0.167 HD
ATOM     64  C   UNL     1       6.703  -8.425 -10.978  1.00  0.00     0.031 A 
ATOM     65  C   UNL     1       9.659  -2.585  -8.473  1.00  0.00     0.031 A 
ATOM     66  C   UNL     1       8.138  -8.403 -11.026  1.00  0.00     0.049 A 
ATOM     67  C   UNL     1      10.479  -3.744  -8.972  1.00  0.00     0.074 A 
ATOM     68  C   UNL     1       8.998  -9.371 -11.512  1.00  0.00     0.029 A 
ATOM     69  N   UNL     1       8.923  -7.357 -10.569  1.00  0.00    -0.354 N 
ATOM     70  N   UNL     1      10.076  -4.877  -9.493  1.00  0.00    -0.248 NA
ATOM     71  C   UNL     1      11.941  -3.606  -8.887  1.00  0.00     0.031 C 
ATOM     72  C   UNL     1      10.309  -8.930 -11.304  1.00  0.00     0.029 A 
ATOM     73  C   UNL     1      10.261  -7.667 -10.737  1.00  0.00     0.049 A 
ATOM     74  H   UNL     1       8.580  -6.519 -10.182  1.00  0.00     0.167 HD
ATOM     75  C   UNL     1      11.231  -5.576  -9.820  1.00  0.00     0.074 A 
ATOM     76  C   UNL     1      12.350  -4.731  -9.457  1.00  0.00     0.031 C 
ATOM     77  C   UNL     1      11.356  -6.808 -10.371  1.00  0.00     0.031 A 
BRANCH  64  78
ATOM     78  C   UNL     1       5.989  -9.671 -11.417  1.00  0.00    -0.014 A 
ATOM     79  C   UNL     1       5.253  -9.708 -12.613  1.00  0.00     0.009 A 
ATOM     80  C   UNL     1       6.079 -10.835 -10.639  1.00  0.00     0.009 A 
ATOM     81  C   UNL     1       4.594 -10.875 -13.002  1.00  0.00     0.001 A 
ATOM     82  C   UNL     1       5.443 -12.009 -11.044  1.00  0.00     0.001 A 
ATOM     83  C   UNL     1       4.694 -12.026 -12.220  1.00  0.00     0.000 A 
ENDBRANCH  64  78
BRANCH  65  84
ATOM     84  C   UNL     1      10.318  -1.376  -7.912  1.00  0.00    -0.014 A 
ATOM     85  C   UNL     1      11.047  -0.508  -8.740  1.00  0.00     0.009 A 
ATOM     86  C   UNL     1      10.241  -1.096  -6.539  1.00  0.00     0.009 A 
ATOM     87  C   UNL     1      11.710   0.597  -8.199  1.00  0.00     0.001 A 
ATOM     88  C   UNL     1      10.882   0.025  -6.006  1.00  0.00     0.001 A 
ATOM     89  C   UNL     1      11.625   0.864  -6.834  1.00  0.00     0.000 A 
ENDBRANCH  65  84
BRANCH  77  90
ATOM     90  C   UNL     1      12.748  -7.302 -10.639  1.00  0.00    -0.014 A 
ATOM     91  C   UNL     1      13.588  -7.714  -9.593  1.00  0.00     0.009 A 
ATOM     92  C   UNL     1      13.205  -7.405 -11.963  1.00  0.00     0.009 A 
ATOM     93  C   UNL     1      14.871  -8.191  -9.867  1.00  0.00     0.001 A 
ATOM     94  C   UNL     1      14.477  -7.909 -12.235  1.00  0.00     0.001 A 
ATOM     95  C   UNL     1      15.311  -8.294 -11.186  1.00  0.00     0.000 A 
ENDBRANCH  77  90
ENDBRANCH  51  52
ENDBRANCH  43  46
ENDBRANCH  41  42
ENDBRANCH  40  41
ENDBRANCH   1  40
TORSDOF 14
