REMARK SMILES O=C(NCCCCCCNC(=O)[C@@H]1CCCC[C@H]1C(=O)Nc1ccc(NC(=O)c2ccco2)cc1)c1ccc(-c2c3nc(c(-c4ccccc4)c4ccc([nH]4)c(-c4ccccc4)c4nc(c(-c5ccccc5)c5ccc2[nH]5)C=C4)C=C3)cc1
REMARK SMILES IDX 7 1 6 2 5 3 4 4 3 5 1 6 2 7 36 9 37 10 83 11 38 12 82 13
REMARK SMILES IDX 39 14 40 15 41 16 76 17 42 18 81 19 75 20 77 21 43 22 80 23
REMARK SMILES IDX 74 24 73 25 44 27 66 28 51 29 65 30 52 31 55 32 64 33 78 34
REMARK SMILES IDX 53 35 54 36 63 38 79 39 56 40 45 41 46 42 50 43 47 44 49 45
REMARK SMILES IDX 48 46 67 47 68 48 72 49 69 50 71 51 70 52 57 53 58 54 62 55
REMARK SMILES IDX 59 56 61 57 60 58 8 59 9 60 10 61 11 62 12 64 13 65 14 66
REMARK SMILES IDX 18 67 15 68 17 69 16 70 19 71 20 72 21 73 22 75 23 76 35 77
REMARK SMILES IDX 24 78 34 79 25 80 26 81 27 82 28 84 29 85 30 86 33 87 31 88
REMARK SMILES IDX 32 89
REMARK H PARENT 3 8 77 26 55 37 10 63 21 74 26 83
REMARK Flexibility Score: inf
ROOT
ATOM      1  C   UNL     1       4.145  -3.288   3.311  1.00  0.00     0.002 C 
ENDROOT
BRANCH   1   2
ATOM      2  C   UNL     1       3.897  -1.801   3.581  1.00  0.00     0.002 C 
BRANCH   2   3
ATOM      3  C   UNL     1       4.597  -0.792   2.663  1.00  0.00     0.021 C 
BRANCH   3   4
ATOM      4  C   UNL     1       4.388  -0.974   1.161  1.00  0.00     0.116 C 
BRANCH   4   5
ATOM      5  N   UNL     1       2.989  -0.947   0.779  1.00  0.00    -0.352 N 
ATOM      6  O   UNL     1       1.069  -0.194  -0.100  1.00  0.00    -0.269 OA
ATOM      7  C   UNL     1       2.293  -0.100  -0.044  1.00  0.00     0.251 C 
ATOM      8  H   UNL     1       2.444  -1.661   1.182  1.00  0.00     0.163 HD
BRANCH   7   9
ATOM      9  C   UNL     1       2.973   0.936  -0.857  1.00  0.00     0.039 A 
ATOM     10  C   UNL     1       4.136   0.673  -1.587  1.00  0.00     0.014 A 
ATOM     11  C   UNL     1       2.357   2.189  -0.967  1.00  0.00     0.014 A 
ATOM     12  C   UNL     1       4.725   1.683  -2.355  1.00  0.00     0.010 A 
ATOM     13  C   UNL     1       2.921   3.184  -1.769  1.00  0.00     0.010 A 
ATOM     14  C   UNL     1       4.120   2.945  -2.456  1.00  0.00    -0.014 A 
BRANCH  14  15
ATOM     15  C   UNL     1       4.707   4.007  -3.311  1.00  0.00     0.031 A 
ATOM     16  C   UNL     1       5.317   5.234  -2.696  1.00  0.00     0.074 A 
ATOM     17  C   UNL     1       4.648   3.891  -4.651  1.00  0.00     0.049 A 
ATOM     18  N   UNL     1       5.814   6.292  -3.287  1.00  0.00    -0.248 NA
ATOM     19  C   UNL     1       5.367   5.283  -1.227  1.00  0.00     0.031 C 
ATOM     20  C   UNL     1       4.069   2.761  -5.377  1.00  0.00     0.029 A 
ATOM     21  N   UNL     1       5.069   4.745  -5.639  1.00  0.00    -0.354 N 
ATOM     22  C   UNL     1       6.216   7.142  -2.264  1.00  0.00     0.074 A 
ATOM     23  C   UNL     1       5.895   6.482  -1.016  1.00  0.00     0.031 C 
ATOM     24  C   UNL     1       4.174   2.989  -6.696  1.00  0.00     0.029 A 
ATOM     25  C   UNL     1       4.793   4.295  -6.906  1.00  0.00     0.049 A 
ATOM     26  H   UNL     1       5.526   5.598  -5.457  1.00  0.00     0.167 HD
ATOM     27  C   UNL     1       6.801   8.360  -2.355  1.00  0.00     0.031 A 
ATOM     28  C   UNL     1       4.992   4.873  -8.105  1.00  0.00     0.031 A 
ATOM     29  C   UNL     1       7.127   9.023  -3.589  1.00  0.00     0.049 A 
ATOM     30  C   UNL     1       5.621   6.233  -8.181  1.00  0.00     0.074 A 
ATOM     31  C   UNL     1       7.765  10.238  -3.774  1.00  0.00     0.029 A 
ATOM     32  N   UNL     1       6.830   8.530  -4.850  1.00  0.00    -0.354 N 
ATOM     33  N   UNL     1       6.037   7.002  -7.205  1.00  0.00    -0.248 NA
ATOM     34  C   UNL     1       5.809   6.803  -9.523  1.00  0.00     0.031 C 
ATOM     35  C   UNL     1       7.825  10.496  -5.149  1.00  0.00     0.029 A 
ATOM     36  C   UNL     1       7.253   9.426  -5.817  1.00  0.00     0.049 A 
ATOM     37  H   UNL     1       6.385   7.671  -5.031  1.00  0.00     0.167 HD
ATOM     38  C   UNL     1       6.547   8.140  -7.813  1.00  0.00     0.074 A 
ATOM     39  C   UNL     1       6.397   7.959  -9.243  1.00  0.00     0.031 C 
ATOM     40  C   UNL     1       7.094   9.237  -7.235  1.00  0.00     0.031 A 
BRANCH  27  41
ATOM     41  C   UNL     1       7.107   9.070  -1.069  1.00  0.00    -0.014 A 
ATOM     42  C   UNL     1       8.200   8.692  -0.275  1.00  0.00     0.009 A 
ATOM     43  C   UNL     1       6.305  10.146  -0.660  1.00  0.00     0.009 A 
ATOM     44  C   UNL     1       8.467   9.362   0.921  1.00  0.00     0.001 A 
ATOM     45  C   UNL     1       6.585  10.825   0.527  1.00  0.00     0.001 A 
ATOM     46  C   UNL     1       7.660  10.428   1.320  1.00  0.00     0.000 A 
ENDBRANCH  27  41
BRANCH  28  47
ATOM     47  C   UNL     1       4.570   4.160  -9.334  1.00  0.00    -0.014 A 
ATOM     48  C   UNL     1       5.518   3.518 -10.144  1.00  0.00     0.009 A 
ATOM     49  C   UNL     1       3.212   4.084  -9.680  1.00  0.00     0.009 A 
ATOM     50  C   UNL     1       5.113   2.817 -11.281  1.00  0.00     0.001 A 
ATOM     51  C   UNL     1       2.809   3.367 -10.807  1.00  0.00     0.001 A 
ATOM     52  C   UNL     1       3.760   2.737 -11.608  1.00  0.00     0.000 A 
ENDBRANCH  28  47
BRANCH  40  53
ATOM     53  C   UNL     1       7.590  10.318  -8.148  1.00  0.00    -0.014 A 
ATOM     54  C   UNL     1       6.700  11.232  -8.733  1.00  0.00     0.009 A 
ATOM     55  C   UNL     1       8.966  10.452  -8.387  1.00  0.00     0.009 A 
ATOM     56  C   UNL     1       7.181  12.251  -9.557  1.00  0.00     0.001 A 
ATOM     57  C   UNL     1       9.444  11.481  -9.199  1.00  0.00     0.001 A 
ATOM     58  C   UNL     1       8.551  12.377  -9.786  1.00  0.00     0.000 A 
ENDBRANCH  40  53
ENDBRANCH  14  15
ENDBRANCH   7   9
ENDBRANCH   4   5
ENDBRANCH   3   4
ENDBRANCH   2   3
ENDBRANCH   1   2
BRANCH   1  59
ATOM     59  C   UNL     1       5.600  -3.742   3.200  1.00  0.00     0.021 C 
BRANCH  59  60
ATOM     60  C   UNL     1       6.539  -3.291   4.311  1.00  0.00     0.116 C 
BRANCH  60  61
ATOM     61  N   UNL     1       6.262  -3.848   5.618  1.00  0.00    -0.356 N 
ATOM     62  C   UNL     1       7.143  -4.213   6.601  1.00  0.00     0.223 C 
ATOM     63  H   UNL     1       5.310  -3.984   5.829  1.00  0.00     0.163 HD
ATOM     64  O   UNL     1       6.691  -4.454   7.721  1.00  0.00    -0.275 OA
BRANCH  62  65
ATOM     65  C   UNL     1       8.638  -4.362   6.274  1.00  0.00     0.091 C 
ATOM     66  C   UNL     1       9.230  -5.485   7.155  1.00  0.00     0.014 C 
ATOM     67  C   UNL     1       9.418  -3.040   6.465  1.00  0.00     0.091 C 
ATOM     68  C   UNL     1      10.743  -5.605   7.026  1.00  0.00     0.001 C 
ATOM     69  C   UNL     1      10.950  -3.145   6.604  1.00  0.00     0.014 C 
ATOM     70  C   UNL     1      11.414  -4.311   7.459  1.00  0.00     0.001 C 
BRANCH  67  71
ATOM     71  C   UNL     1       9.069  -1.920   5.489  1.00  0.00     0.228 C 
ATOM     72  O   UNL     1       8.316  -1.013   5.876  1.00  0.00    -0.274 OA
ATOM     73  N   UNL     1       9.540  -1.773   4.221  1.00  0.00    -0.326 N 
ATOM     74  H   UNL     1       9.284  -0.901   3.842  1.00  0.00     0.169 HD
BRANCH  73  75
ATOM     75  C   UNL     1      10.293  -2.528   3.304  1.00  0.00     0.041 A 
ATOM     76  C   UNL     1      10.822  -1.836   2.210  1.00  0.00     0.028 A 
ATOM     77  C   UNL     1      10.535  -3.893   3.372  1.00  0.00     0.028 A 
ATOM     78  C   UNL     1      11.655  -2.476   1.280  1.00  0.00     0.028 A 
ATOM     79  C   UNL     1      11.345  -4.543   2.435  1.00  0.00     0.028 A 
ATOM     80  C   UNL     1      11.971  -3.825   1.422  1.00  0.00     0.041 A 
BRANCH  80  81
ATOM     81  N   UNL     1      12.872  -4.535   0.615  1.00  0.00    -0.319 N 
ATOM     82  C   UNL     1      13.891  -4.116  -0.215  1.00  0.00     0.291 C 
ATOM     83  H   UNL     1      12.755  -5.513   0.646  1.00  0.00     0.170 HD
ATOM     84  O   UNL     1      14.415  -4.967  -0.938  1.00  0.00    -0.265 OA
BRANCH  82  85
ATOM     85  C   UNL     1      14.355  -2.752  -0.146  1.00  0.00     0.191 A 
ATOM     86  C   UNL     1      14.831  -1.980   0.900  1.00  0.00     0.056 A 
ATOM     87  O   UNL     1      14.339  -2.006  -1.292  1.00  0.00    -0.459 OA
ATOM     88  C   UNL     1      15.077  -0.690   0.371  1.00  0.00     0.043 A 
ATOM     89  C   UNL     1      14.765  -0.760  -0.966  1.00  0.00     0.196 A 
ENDBRANCH  82  85
ENDBRANCH  80  81
ENDBRANCH  73  75
ENDBRANCH  67  71
ENDBRANCH  62  65
ENDBRANCH  60  61
ENDBRANCH  59  60
ENDBRANCH   1  59
TORSDOF 17
