REMARK SMILES C#CC[N@H+](CC(=O)NCCCCCCNC(=O)c1ccc(-c2c3nc(c(-c4ccccc4)c4ccc([nH]4)c(-c4ccccc4)c4nc(c(-c5ccccc5)c5ccc2[nH]5)C=C4)C=C3)cc1)[C@H](C)c1ccccc1[N+](=O)[O-]
REMARK SMILES IDX 10 1 9 2 8 3 6 4 7 5 5 7 4 8 3 10 2 11 1 12 66 13 67 14
REMARK SMILES IDX 68 15 69 16 73 17 70 18 72 19 71 20 74 21 75 22 76 23 11 24
REMARK SMILES IDX 12 25 13 26 14 27 15 28 16 29 17 31 18 32 19 33 65 34 20 35
REMARK SMILES IDX 64 36 21 37 22 38 23 39 58 40 24 41 63 42 57 43 59 44 25 45
REMARK SMILES IDX 62 46 56 47 55 48 26 50 48 51 33 52 47 53 34 54 37 55 46 56
REMARK SMILES IDX 60 57 35 58 36 59 45 61 61 62 38 63 27 64 28 65 32 66 29 67
REMARK SMILES IDX 31 68 30 69 49 70 50 71 54 72 51 73 53 74 52 75 39 76 40 77
REMARK SMILES IDX 44 78 41 79 43 80 42 81
REMARK H PARENT 8 6 4 9 15 30 59 49 37 60
REMARK Flexibility Score: inf
ROOT
ATOM      1  C   UNL     1      -2.411   1.252  -4.135  1.00  0.00     0.021 C 
ENDROOT
BRANCH   1   2
ATOM      2  C   UNL     1      -3.632   0.819  -3.307  1.00  0.00     0.116 C 
BRANCH   2   3
ATOM      3  N   UNL     1      -4.209  -0.413  -3.829  1.00  0.00    -0.351 N 
ATOM      4  C   UNL     1      -4.175  -1.696  -3.336  1.00  0.00     0.275 C 
ATOM      5  O   UNL     1      -4.633  -2.596  -4.040  1.00  0.00    -0.269 OA
ATOM      6  H   UNL     1      -4.705  -0.310  -4.673  1.00  0.00     0.163 HD
BRANCH   4   7
ATOM      7  C   UNL     1      -3.615  -1.970  -1.926  1.00  0.00     0.364 C 
BRANCH   7   8
ATOM      8  N   UNL     1      -2.142  -2.253  -1.833  1.00  0.00    -0.311 N 
ATOM      9  H   UNL     1      -1.920  -3.176  -2.207  1.00  0.00     0.349 HD
BRANCH   8  10
ATOM     10  C   UNL     1      -1.392  -1.357  -2.703  1.00  0.00     0.354 C 
BRANCH  10  11
ATOM     11  C   UNL     1       0.036  -1.560  -2.982  1.00  0.00    -0.047 C 
ATOM     12  C   UNL     1       1.198  -1.492  -3.265  1.00  0.00     0.010 C 
ENDBRANCH  10  11
ENDBRANCH   8  10
BRANCH   8  13
ATOM     13  C   UNL     1      -1.708  -2.369  -0.408  1.00  0.00     0.220 C 
ATOM     14  C   UNL     1      -2.572  -1.742   0.710  1.00  0.00     0.081 C 
BRANCH  13  15
ATOM     15  C   UNL     1      -0.198  -2.281  -0.154  1.00  0.00     0.087 A 
ATOM     16  C   UNL     1       0.502  -3.511  -0.249  1.00  0.00     0.017 A 
ATOM     17  C   UNL     1       0.590  -1.119   0.042  1.00  0.00     0.278 A 
ATOM     18  C   UNL     1       1.894  -3.586  -0.160  1.00  0.00     0.001 A 
ATOM     19  C   UNL     1       1.995  -1.207   0.162  1.00  0.00     0.086 A 
ATOM     20  C   UNL     1       2.640  -2.436   0.052  1.00  0.00     0.007 A 
BRANCH  17  21
ATOM     21  N   UNL     1       0.064   0.250  -0.051  1.00  0.00     0.063 N 
ATOM     22  O   UNL     1       0.758   1.090  -0.645  1.00  0.00    -0.258 OA
ATOM     23  O   UNL     1      -1.022   0.511   0.473  1.00  0.00    -0.258 OA
ENDBRANCH  17  21
ENDBRANCH  13  15
ENDBRANCH   8  13
ENDBRANCH   7   8
ENDBRANCH   4   7
ENDBRANCH   2   3
ENDBRANCH   1   2
BRANCH   1  24
ATOM     24  C   UNL     1      -2.748   2.003  -5.416  1.00  0.00     0.002 C 
BRANCH  24  25
ATOM     25  C   UNL     1      -3.334   3.391  -5.176  1.00  0.00     0.002 C 
BRANCH  25  26
ATOM     26  C   UNL     1      -2.468   4.299  -4.298  1.00  0.00     0.021 C 
BRANCH  26  27
ATOM     27  C   UNL     1      -1.039   4.475  -4.800  1.00  0.00     0.116 C 
BRANCH  27  28
ATOM     28  N   UNL     1      -1.017   5.067  -6.128  1.00  0.00    -0.352 N 
ATOM     29  C   UNL     1      -0.521   6.282  -6.521  1.00  0.00     0.251 C 
ATOM     30  H   UNL     1      -1.414   4.519  -6.844  1.00  0.00     0.163 HD
ATOM     31  O   UNL     1      -0.846   6.767  -7.600  1.00  0.00    -0.269 OA
BRANCH  29  32
ATOM     32  C   UNL     1       0.413   7.004  -5.635  1.00  0.00     0.039 A 
ATOM     33  C   UNL     1       0.285   8.386  -5.492  1.00  0.00     0.014 A 
ATOM     34  C   UNL     1       1.430   6.315  -4.967  1.00  0.00     0.014 A 
ATOM     35  C   UNL     1       1.164   9.073  -4.656  1.00  0.00     0.010 A 
ATOM     36  C   UNL     1       2.241   6.986  -4.061  1.00  0.00     0.010 A 
ATOM     37  C   UNL     1       2.136   8.376  -3.918  1.00  0.00    -0.014 A 
BRANCH  37  38
ATOM     38  C   UNL     1       3.079   9.095  -3.026  1.00  0.00     0.031 A 
ATOM     39  C   UNL     1       4.557   9.060  -3.310  1.00  0.00     0.074 A 
ATOM     40  C   UNL     1       2.610   9.755  -1.950  1.00  0.00     0.049 A 
ATOM     41  N   UNL     1       5.539   9.615  -2.644  1.00  0.00    -0.248 NA
ATOM     42  C   UNL     1       4.995   8.284  -4.482  1.00  0.00     0.031 C 
ATOM     43  C   UNL     1       1.203   9.836  -1.550  1.00  0.00     0.029 A 
ATOM     44  N   UNL     1       3.269  10.489  -0.997  1.00  0.00    -0.354 N 
ATOM     45  C   UNL     1       6.701   9.246  -3.309  1.00  0.00     0.074 A 
ATOM     46  C   UNL     1       6.313   8.368  -4.389  1.00  0.00     0.031 C 
ATOM     47  C   UNL     1       1.101  10.614  -0.461  1.00  0.00     0.029 A 
ATOM     48  C   UNL     1       2.435  11.043  -0.056  1.00  0.00     0.049 A 
ATOM     49  H   UNL     1       4.246  10.608  -0.988  1.00  0.00     0.167 HD
ATOM     50  C   UNL     1       7.977   9.626  -3.062  1.00  0.00     0.031 A 
ATOM     51  C   UNL     1       2.716  11.806   1.017  1.00  0.00     0.031 A 
ATOM     52  C   UNL     1       8.363  10.498  -1.985  1.00  0.00     0.049 A 
ATOM     53  C   UNL     1       4.148  12.175   1.295  1.00  0.00     0.074 A 
ATOM     54  C   UNL     1       9.624  10.972  -1.671  1.00  0.00     0.029 A 
ATOM     55  N   UNL     1       7.490  11.021  -1.043  1.00  0.00    -0.354 N 
ATOM     56  N   UNL     1       5.230  11.871   0.619  1.00  0.00    -0.248 NA
ATOM     57  C   UNL     1       4.394  13.011   2.478  1.00  0.00     0.031 C 
ATOM     58  C   UNL     1       9.525  11.725  -0.497  1.00  0.00     0.029 A 
ATOM     59  C   UNL     1       8.191  11.792  -0.131  1.00  0.00     0.049 A 
ATOM     60  H   UNL     1       6.518  10.867  -1.026  1.00  0.00     0.167 HD
ATOM     61  C   UNL     1       6.277  12.513   1.269  1.00  0.00     0.074 A 
ATOM     62  C   UNL     1       5.696  13.236   2.381  1.00  0.00     0.031 C 
ATOM     63  C   UNL     1       7.599  12.510   0.969  1.00  0.00     0.031 A 
BRANCH  50  64
ATOM     64  C   UNL     1       9.052   9.088  -3.970  1.00  0.00    -0.014 A 
ATOM     65  C   UNL     1       9.128   9.471  -5.319  1.00  0.00     0.009 A 
ATOM     66  C   UNL     1      10.026   8.216  -3.459  1.00  0.00     0.009 A 
ATOM     67  C   UNL     1      10.132   8.961  -6.145  1.00  0.00     0.001 A 
ATOM     68  C   UNL     1      11.050   7.738  -4.277  1.00  0.00     0.001 A 
ATOM     69  C   UNL     1      11.097   8.102  -5.622  1.00  0.00     0.000 A 
ENDBRANCH  50  64
BRANCH  51  70
ATOM     70  C   UNL     1       1.624  12.284   1.908  1.00  0.00    -0.014 A 
ATOM     71  C   UNL     1       1.323  13.652   2.003  1.00  0.00     0.009 A 
ATOM     72  C   UNL     1       0.897  11.377   2.695  1.00  0.00     0.009 A 
ATOM     73  C   UNL     1       0.351  14.104   2.899  1.00  0.00     0.001 A 
ATOM     74  C   UNL     1      -0.101  11.827   3.560  1.00  0.00     0.001 A 
ATOM     75  C   UNL     1      -0.362  13.191   3.674  1.00  0.00     0.000 A 
ENDBRANCH  51  70
BRANCH  63  76
ATOM     76  C   UNL     1       8.501  13.366   1.817  1.00  0.00    -0.014 A 
ATOM     77  C   UNL     1       8.758  13.067   3.164  1.00  0.00     0.009 A 
ATOM     78  C   UNL     1       9.127  14.483   1.240  1.00  0.00     0.009 A 
ATOM     79  C   UNL     1       9.583  13.897   3.926  1.00  0.00     0.001 A 
ATOM     80  C   UNL     1       9.983  15.287   1.992  1.00  0.00     0.001 A 
ATOM     81  C   UNL     1      10.198  15.002   3.339  1.00  0.00     0.000 A 
ENDBRANCH  63  76
ENDBRANCH  37  38
ENDBRANCH  29  32
ENDBRANCH  27  28
ENDBRANCH  26  27
ENDBRANCH  25  26
ENDBRANCH  24  25
ENDBRANCH   1  24
TORSDOF 19
