REMARK SMILES COc1ccc(C2=NN(C(=O)CCC(=O)NCCCCCCNC(=O)c3ccc(-c4c5nc(c(-c6ccccc6)c6ccc([nH]6)c(-c6ccccc6)c6nc(c(-c7ccccc7)c7ccc4[nH]7)C=C6)C=C5)cc3)[C@H](c3ccc(Cl)cc3Cl)C2)cc1
REMARK SMILES IDX 18 1 17 2 16 3 14 4 15 5 13 7 12 8 10 9 11 10 9 11 7 12 8 13
REMARK SMILES IDX 83 14 74 15 6 16 3 17 4 18 85 19 5 20 84 21 2 22 1 23 75 24
REMARK SMILES IDX 76 25 81 26 77 27 80 28 82 29 78 30 79 31 19 32 20 33 21 34
REMARK SMILES IDX 22 35 23 36 24 37 25 39 26 40 27 41 73 42 28 43 72 44 29 45
REMARK SMILES IDX 30 46 31 47 66 48 32 49 71 50 65 51 67 52 33 53 70 54 64 55
REMARK SMILES IDX 63 56 34 58 56 59 41 60 55 61 42 62 45 63 54 64 68 65 43 66
REMARK SMILES IDX 44 67 53 69 69 70 46 71 35 72 36 73 40 74 37 75 39 76 38 77
REMARK SMILES IDX 57 78 58 79 62 80 59 81 61 82 60 83 47 84 48 85 52 86 49 87
REMARK SMILES IDX 51 88 50 89
REMARK H PARENT 16 6 23 38 67 57 45 68
REMARK Flexibility Score: inf
ROOT
ATOM      1  C   UNL     1       1.967   2.066   7.254  1.00  0.00     0.021 C 
ENDROOT
BRANCH   1   2
ATOM      2  C   UNL     1       4.000   1.365   7.827  1.00  0.00     0.116 C 
BRANCH   2   3
ATOM      3  N   UNL     1       4.931   1.488   9.048  1.00  0.00    -0.356 N 
ATOM      4  C   UNL     1       4.993   0.916  10.285  1.00  0.00     0.220 C 
ATOM      5  O   UNL     1       6.022   1.183  10.919  1.00  0.00    -0.275 OA
ATOM      6  H   UNL     1       5.657   2.137   8.900  1.00  0.00     0.163 HD
BRANCH   4   7
ATOM      7  C   UNL     1       3.971  -0.043  10.907  1.00  0.00     0.110 C 
BRANCH   7   8
ATOM      8  C   UNL     1       2.466   0.193  10.873  1.00  0.00     0.112 C 
BRANCH   8   9
ATOM      9  C   UNL     1       1.984  -0.066   9.495  1.00  0.00     0.243 C 
ATOM     10  O   UNL     1       1.395  -1.092   9.178  1.00  0.00    -0.273 OA
BRANCH   9  11
ATOM     11  N   UNL     1       2.380   0.940   8.645  1.00  0.00    -0.225 N 
ATOM     12  C   UNL     1       3.325   1.681   5.947  1.00  0.00     0.071 C 
ATOM     13  N   UNL     1       2.772   0.440   6.825  1.00  0.00    -0.174 NA
ATOM     14  C   UNL     1       3.698   3.242   7.080  1.00  0.00     0.091 C 
ATOM     15  C   UNL     1       2.956   2.805   8.856  1.00  0.00     0.149 C 
BRANCH  12  16
ATOM     16  C   UNL     1       3.180   1.971   4.460  1.00  0.00    -0.002 A 
ATOM     17  C   UNL     1       2.448   2.117   1.729  1.00  0.00     0.118 A 
ATOM     18  C   UNL     1       1.756   2.880   2.661  1.00  0.00     0.047 A 
ATOM     19  C   UNL     1       3.565   1.385   2.139  1.00  0.00     0.047 A 
ATOM     20  C   UNL     1       2.125   2.817   4.016  1.00  0.00     0.014 A 
ATOM     21  C   UNL     1       3.923   1.295   3.501  1.00  0.00     0.014 A 
BRANCH  17  22
ATOM     22  O   UNL     1       1.992   2.132   0.439  1.00  0.00    -0.497 OA
ATOM     23  C   UNL     1       1.846   0.827  -0.134  1.00  0.00     0.278 C 
ENDBRANCH  17  22
ENDBRANCH  12  16
BRANCH  15  24
ATOM     24  C   UNL     1       2.241   4.004   9.568  1.00  0.00    -0.004 A 
ATOM     25  C   UNL     1       1.963   5.152   8.792  1.00  0.00     0.009 A 
ATOM     26  C   UNL     1       2.348   4.244  10.973  1.00  0.00     0.047 A 
ATOM     27  C   UNL     1       1.880   6.438   9.354  1.00  0.00     0.021 A 
ATOM     28  C   UNL     1       2.124   5.511  11.542  1.00  0.00     0.041 A 
ATOM     29  Cl  UNL     1       3.080   3.168  12.116  1.00  0.00    -0.084 Cl
ATOM     30  C   UNL     1       1.945   6.611  10.727  1.00  0.00     0.042 A 
ATOM     31  Cl  UNL     1       1.919   8.187  11.411  1.00  0.00    -0.084 Cl
ENDBRANCH  15  24
ENDBRANCH   9  11
ENDBRANCH   8   9
ENDBRANCH   7   8
ENDBRANCH   4   7
ENDBRANCH   2   3
ENDBRANCH   1   2
BRANCH   1  32
ATOM     32  C   UNL     1       0.754   0.974   6.261  1.00  0.00     0.002 C 
BRANCH  32  33
ATOM     33  C   UNL     1       1.261  -0.207   5.227  1.00  0.00     0.002 C 
BRANCH  33  34
ATOM     34  C   UNL     1       0.345  -1.302   4.782  1.00  0.00     0.021 C 
BRANCH  34  35
ATOM     35  C   UNL     1      -0.756  -0.776   3.929  1.00  0.00     0.116 C 
BRANCH  35  36
ATOM     36  N   UNL     1      -0.356   0.207   2.910  1.00  0.00    -0.352 N 
ATOM     37  C   UNL     1      -1.058   0.563   1.789  1.00  0.00     0.251 C 
ATOM     38  H   UNL     1       0.508   0.657   3.049  1.00  0.00     0.163 HD
ATOM     39  O   UNL     1      -0.825   1.535   1.091  1.00  0.00    -0.269 OA
BRANCH  37  40
ATOM     40  C   UNL     1      -2.112  -0.361   1.435  1.00  0.00     0.039 A 
ATOM     41  C   UNL     1      -1.825  -1.297   0.439  1.00  0.00     0.014 A 
ATOM     42  C   UNL     1      -3.105  -0.518   2.401  1.00  0.00     0.014 A 
ATOM     43  C   UNL     1      -2.571  -2.451   0.419  1.00  0.00     0.010 A 
ATOM     44  C   UNL     1      -3.677  -1.756   2.505  1.00  0.00     0.010 A 
ATOM     45  C   UNL     1      -3.465  -2.681   1.472  1.00  0.00    -0.014 A 
BRANCH  45  46
ATOM     46  C   UNL     1      -4.354  -3.831   1.447  1.00  0.00     0.031 A 
ATOM     47  C   UNL     1      -5.812  -3.527   1.335  1.00  0.00     0.074 A 
ATOM     48  C   UNL     1      -3.830  -5.057   1.573  1.00  0.00     0.049 A 
ATOM     49  N   UNL     1      -6.823  -4.338   1.422  1.00  0.00    -0.248 NA
ATOM     50  C   UNL     1      -6.193  -2.105   1.171  1.00  0.00     0.031 C 
ATOM     51  C   UNL     1      -2.402  -5.369   1.706  1.00  0.00     0.029 A 
ATOM     52  N   UNL     1      -4.443  -6.271   1.599  1.00  0.00    -0.354 N 
ATOM     53  C   UNL     1      -7.941  -3.521   1.362  1.00  0.00     0.074 A 
ATOM     54  C   UNL     1      -7.500  -2.153   1.337  1.00  0.00     0.031 C 
ATOM     55  C   UNL     1      -2.249  -6.702   1.744  1.00  0.00     0.029 A 
ATOM     56  C   UNL     1      -3.567  -7.318   1.710  1.00  0.00     0.049 A 
ATOM     57  H   UNL     1      -5.419  -6.385   1.542  1.00  0.00     0.167 HD
ATOM     58  C   UNL     1      -9.230  -3.904   1.294  1.00  0.00     0.031 A 
ATOM     59  C   UNL     1      -3.836  -8.630   1.792  1.00  0.00     0.031 A 
ATOM     60  C   UNL     1      -9.605  -5.286   1.306  1.00  0.00     0.049 A 
ATOM     61  C   UNL     1      -5.284  -9.027   1.746  1.00  0.00     0.074 A 
ATOM     62  C   UNL     1     -10.862  -5.840   1.210  1.00  0.00     0.029 A 
ATOM     63  N   UNL     1      -8.697  -6.333   1.422  1.00  0.00    -0.354 N 
ATOM     64  N   UNL     1      -6.348  -8.262   1.635  1.00  0.00    -0.248 NA
ATOM     65  C   UNL     1      -5.572 -10.460   1.825  1.00  0.00     0.031 C 
ATOM     66  C   UNL     1     -10.721  -7.223   1.350  1.00  0.00     0.029 A 
ATOM     67  C   UNL     1      -9.370  -7.536   1.437  1.00  0.00     0.049 A 
ATOM     68  H   UNL     1      -7.720  -6.231   1.485  1.00  0.00     0.167 HD
ATOM     69  C   UNL     1      -7.434  -9.121   1.603  1.00  0.00     0.074 A 
ATOM     70  C   UNL     1      -6.889 -10.466   1.680  1.00  0.00     0.031 C 
ATOM     71  C   UNL     1      -8.759  -8.841   1.521  1.00  0.00     0.031 A 
BRANCH  58  72
ATOM     72  C   UNL     1     -10.270  -2.825   1.235  1.00  0.00    -0.014 A 
ATOM     73  C   UNL     1     -10.355  -1.935   0.148  1.00  0.00     0.009 A 
ATOM     74  C   UNL     1     -11.164  -2.673   2.304  1.00  0.00     0.009 A 
ATOM     75  C   UNL     1     -11.288  -0.897   0.153  1.00  0.00     0.001 A 
ATOM     76  C   UNL     1     -12.122  -1.659   2.287  1.00  0.00     0.001 A 
ATOM     77  C   UNL     1     -12.177  -0.766   1.218  1.00  0.00     0.000 A 
ENDBRANCH  58  72
BRANCH  59  78
ATOM     78  C   UNL     1      -2.736  -9.617   1.916  1.00  0.00    -0.014 A 
ATOM     79  C   UNL     1      -2.481 -10.539   0.891  1.00  0.00     0.009 A 
ATOM     80  C   UNL     1      -1.915  -9.629   3.056  1.00  0.00     0.009 A 
ATOM     81  C   UNL     1      -1.455 -11.479   1.023  1.00  0.00     0.001 A 
ATOM     82  C   UNL     1      -0.867 -10.545   3.169  1.00  0.00     0.001 A 
ATOM     83  C   UNL     1      -0.648 -11.479   2.159  1.00  0.00     0.000 A 
ENDBRANCH  59  78
BRANCH  71  84
ATOM     84  C   UNL     1      -9.686 -10.018   1.467  1.00  0.00    -0.014 A 
ATOM     85  C   UNL     1      -9.880 -10.848   2.580  1.00  0.00     0.009 A 
ATOM     86  C   UNL     1     -10.411 -10.262   0.290  1.00  0.00     0.009 A 
ATOM     87  C   UNL     1     -10.750 -11.933   2.498  1.00  0.00     0.001 A 
ATOM     88  C   UNL     1     -11.317 -11.317   0.229  1.00  0.00     0.001 A 
ATOM     89  C   UNL     1     -11.473 -12.161   1.327  1.00  0.00     0.000 A 
ENDBRANCH  71  84
ENDBRANCH  45  46
ENDBRANCH  37  40
ENDBRANCH  35  36
ENDBRANCH  34  35
ENDBRANCH  33  34
ENDBRANCH  32  33
ENDBRANCH   1  32
TORSDOF 19
