REMARK SMILES COc1cc(Cl)c(C)cc1N1C(=O)C[C@H](Nc2cc(C(=O)NCCCCCCNC(=O)c3ccc(-c4c5nc(c(-c6ccccc6)c6ccc([nH]6)c(-c6ccccc6)c6nc(c(-c7ccccc7)c7ccc4[nH]7)C=C6)C=C5)cc3)ccc2C)C1=O
REMARK SMILES IDX 24 1 23 2 22 3 20 4 21 5 19 7 17 8 18 9 82 10 81 11 83 12
REMARK SMILES IDX 80 13 16 14 15 16 11 17 12 18 84 19 13 20 14 21 85 22 10 23
REMARK SMILES IDX 3 24 4 25 5 26 9 27 6 28 7 29 8 30 2 31 1 32 25 33 26 34
REMARK SMILES IDX 27 35 28 36 29 37 30 38 31 40 32 41 33 42 79 43 34 44 78 45
REMARK SMILES IDX 35 46 36 47 37 48 72 49 38 50 77 51 71 52 73 53 39 54 76 55
REMARK SMILES IDX 70 56 69 57 40 59 62 60 47 61 61 62 48 63 51 64 60 65 74 66
REMARK SMILES IDX 49 67 50 68 59 70 75 71 52 72 41 73 42 74 46 75 43 76 45 77
REMARK SMILES IDX 44 78 63 79 64 80 68 81 65 82 67 83 66 84 53 85 54 86 58 87
REMARK SMILES IDX 55 88 57 89 56 90
REMARK H PARENT 22 6 16 15 29 39 73 58 51 69
REMARK Flexibility Score: inf
ROOT
ATOM      1  C   UNL     1       2.610   3.335  -4.931  1.00  0.00     0.021 C 
ENDROOT
BRANCH   1   2
ATOM      2  C   UNL     1       3.061   1.939  -4.506  1.00  0.00     0.116 C 
BRANCH   2   3
ATOM      3  N   UNL     1       3.371   1.037  -5.598  1.00  0.00    -0.352 N 
ATOM      4  C   UNL     1       4.291   0.016  -5.686  1.00  0.00     0.251 C 
ATOM      5  O   UNL     1       4.347  -0.624  -6.737  1.00  0.00    -0.269 OA
ATOM      6  H   UNL     1       2.835   1.178  -6.412  1.00  0.00     0.163 HD
BRANCH   4   7
ATOM      7  C   UNL     1       5.248  -0.315  -4.591  1.00  0.00     0.041 A 
ATOM      8  C   UNL     1       5.936  -0.368  -2.245  1.00  0.00     0.038 A 
ATOM      9  C   UNL     1       4.961  -0.158  -3.231  1.00  0.00     0.039 A 
ATOM     10  C   UNL     1       7.206  -0.835  -2.632  1.00  0.00    -0.028 A 
ATOM     11  C   UNL     1       7.462  -1.099  -3.986  1.00  0.00     0.006 A 
ATOM     12  C   UNL     1       8.278  -1.165  -1.626  1.00  0.00     0.046 C 
ATOM     13  C   UNL     1       6.499  -0.825  -4.957  1.00  0.00     0.014 A 
BRANCH   8  14
ATOM     14  N   UNL     1       5.714   0.002  -0.926  1.00  0.00    -0.373 N 
ATOM     15  H   UNL     1       6.433   0.465  -0.439  1.00  0.00     0.161 HD
BRANCH  14  16
ATOM     16  C   UNL     1       4.461  -0.267  -0.232  1.00  0.00     0.179 C 
ATOM     17  N   UNL     1       3.250   0.961   1.350  1.00  0.00    -0.245 N 
ATOM     18  C   UNL     1       3.894  -0.019   2.073  1.00  0.00     0.236 C 
ATOM     19  C   UNL     1       3.625   0.978   0.026  1.00  0.00     0.256 C 
ATOM     20  O   UNL     1       3.783  -0.278   3.250  1.00  0.00    -0.274 OA
ATOM     21  C   UNL     1       4.778  -0.802   1.152  1.00  0.00     0.136 C 
ATOM     22  O   UNL     1       3.382   1.837  -0.815  1.00  0.00    -0.272 OA
BRANCH  17  23
ATOM     23  C   UNL     1       2.293   1.826   1.930  1.00  0.00     0.094 A 
ATOM     24  C   UNL     1       1.047   2.065   1.328  1.00  0.00     0.144 A 
ATOM     25  C   UNL     1       0.104   2.888   1.950  1.00  0.00     0.069 A 
ATOM     26  C   UNL     1       0.390   3.480   3.182  1.00  0.00     0.047 A 
ATOM     27  C   UNL     1       2.560   2.424   3.175  1.00  0.00     0.035 A 
ATOM     28  Cl  UNL     1      -0.835   4.450   3.918  1.00  0.00    -0.084 Cl
ATOM     29  C   UNL     1       1.630   3.273   3.801  1.00  0.00    -0.030 A 
ATOM     30  C   UNL     1       1.989   3.925   5.108  1.00  0.00     0.046 C 
BRANCH  24  31
ATOM     31  O   UNL     1       0.668   1.501   0.136  1.00  0.00    -0.495 OA
ATOM     32  C   UNL     1       0.333   0.120   0.280  1.00  0.00     0.278 C 
ENDBRANCH  24  31
ENDBRANCH  17  23
ENDBRANCH  14  16
ENDBRANCH   8  14
ENDBRANCH   4   7
ENDBRANCH   2   3
ENDBRANCH   1   2
BRANCH   1  33
ATOM     33  C   UNL     1       1.368   3.458  -5.820  1.00  0.00     0.002 C 
BRANCH  33  34
ATOM     34  C   UNL     1       0.092   2.716  -5.402  1.00  0.00     0.002 C 
BRANCH  34  35
ATOM     35  C   UNL     1      -0.338   2.815  -3.940  1.00  0.00     0.021 C 
BRANCH  35  36
ATOM     36  C   UNL     1      -0.657   4.214  -3.436  1.00  0.00     0.116 C 
BRANCH  36  37
ATOM     37  N   UNL     1      -2.046   4.628  -3.607  1.00  0.00    -0.352 N 
ATOM     38  C   UNL     1      -2.657   5.819  -3.253  1.00  0.00     0.251 C 
ATOM     39  H   UNL     1      -2.633   3.964  -4.035  1.00  0.00     0.163 HD
ATOM     40  O   UNL     1      -3.862   5.968  -3.435  1.00  0.00    -0.269 OA
BRANCH  38  41
ATOM     41  C   UNL     1      -1.833   6.972  -2.808  1.00  0.00     0.039 A 
ATOM     42  C   UNL     1      -2.097   8.216  -3.394  1.00  0.00     0.014 A 
ATOM     43  C   UNL     1      -0.674   6.787  -2.063  1.00  0.00     0.014 A 
ATOM     44  C   UNL     1      -1.074   9.153  -3.493  1.00  0.00     0.010 A 
ATOM     45  C   UNL     1       0.377   7.656  -2.258  1.00  0.00     0.010 A 
ATOM     46  C   UNL     1       0.195   8.798  -3.042  1.00  0.00    -0.014 A 
BRANCH  46  47
ATOM     47  C   UNL     1       1.409   9.487  -3.445  1.00  0.00     0.031 A 
ATOM     48  C   UNL     1       2.110  10.371  -2.503  1.00  0.00     0.074 A 
ATOM     49  C   UNL     1       1.935   9.269  -4.670  1.00  0.00     0.049 A 
ATOM     50  N   UNL     1       2.869  11.346  -2.869  1.00  0.00    -0.248 NA
ATOM     51  C   UNL     1       1.969  10.257  -1.057  1.00  0.00     0.031 C 
ATOM     52  C   UNL     1       3.264   9.637  -5.149  1.00  0.00     0.029 A 
ATOM     53  N   UNL     1       1.281   8.832  -5.809  1.00  0.00    -0.354 N 
ATOM     54  C   UNL     1       3.563  11.756  -1.758  1.00  0.00     0.074 A 
ATOM     55  C   UNL     1       2.887  11.134  -0.642  1.00  0.00     0.031 C 
ATOM     56  C   UNL     1       3.259   9.632  -6.492  1.00  0.00     0.029 A 
ATOM     57  C   UNL     1       1.891   9.413  -6.927  1.00  0.00     0.049 A 
ATOM     58  H   UNL     1       0.514   8.216  -5.830  1.00  0.00     0.167 HD
ATOM     59  C   UNL     1       4.727  12.445  -1.920  1.00  0.00     0.031 A 
ATOM     60  C   UNL     1       1.185  10.258  -7.739  1.00  0.00     0.031 A 
ATOM     61  C   UNL     1       5.021  12.716  -3.330  1.00  0.00     0.049 A 
ATOM     62  C   UNL     1       1.685  11.693  -7.734  1.00  0.00     0.074 A 
ATOM     63  C   UNL     1       5.933  12.209  -4.243  1.00  0.00     0.029 A 
ATOM     64  N   UNL     1       4.108  13.447  -4.077  1.00  0.00    -0.354 N 
ATOM     65  N   UNL     1       2.654  12.138  -6.983  1.00  0.00    -0.248 NA
ATOM     66  C   UNL     1       1.064  12.766  -8.512  1.00  0.00     0.031 C 
ATOM     67  C   UNL     1       5.572  12.670  -5.541  1.00  0.00     0.029 A 
ATOM     68  C   UNL     1       4.450  13.465  -5.415  1.00  0.00     0.049 A 
ATOM     69  H   UNL     1       3.317  13.895  -3.700  1.00  0.00     0.167 HD
ATOM     70  C   UNL     1       2.751  13.501  -7.099  1.00  0.00     0.074 A 
ATOM     71  C   UNL     1       1.736  13.847  -8.078  1.00  0.00     0.031 C 
ATOM     72  C   UNL     1       3.625  14.229  -6.341  1.00  0.00     0.031 A 
BRANCH  59  73
ATOM     73  C   UNL     1       5.734  12.638  -0.811  1.00  0.00    -0.014 A 
ATOM     74  C   UNL     1       7.091  12.830  -1.128  1.00  0.00     0.009 A 
ATOM     75  C   UNL     1       5.428  12.600   0.560  1.00  0.00     0.009 A 
ATOM     76  C   UNL     1       8.089  12.870  -0.145  1.00  0.00     0.001 A 
ATOM     77  C   UNL     1       6.421  12.599   1.549  1.00  0.00     0.001 A 
ATOM     78  C   UNL     1       7.756  12.722   1.194  1.00  0.00     0.000 A 
ENDBRANCH  59  73
BRANCH  60  79
ATOM     79  C   UNL     1      -0.243   9.850  -7.888  1.00  0.00    -0.014 A 
ATOM     80  C   UNL     1      -0.520   8.662  -8.594  1.00  0.00     0.009 A 
ATOM     81  C   UNL     1      -1.228  10.366  -7.034  1.00  0.00     0.009 A 
ATOM     82  C   UNL     1      -1.694   7.942  -8.351  1.00  0.00     0.001 A 
ATOM     83  C   UNL     1      -2.408   9.646  -6.803  1.00  0.00     0.001 A 
ATOM     84  C   UNL     1      -2.622   8.419  -7.430  1.00  0.00     0.000 A 
ENDBRANCH  60  79
BRANCH  72  85
ATOM     85  C   UNL     1       3.778  15.735  -6.351  1.00  0.00    -0.014 A 
ATOM     86  C   UNL     1       3.537  16.546  -7.465  1.00  0.00     0.009 A 
ATOM     87  C   UNL     1       4.291  16.388  -5.204  1.00  0.00     0.009 A 
ATOM     88  C   UNL     1       3.723  17.938  -7.409  1.00  0.00     0.001 A 
ATOM     89  C   UNL     1       4.498  17.768  -5.148  1.00  0.00     0.001 A 
ATOM     90  C   UNL     1       4.197  18.548  -6.251  1.00  0.00     0.000 A 
ENDBRANCH  72  85
ENDBRANCH  46  47
ENDBRANCH  38  41
ENDBRANCH  36  37
ENDBRANCH  35  36
ENDBRANCH  34  35
ENDBRANCH  33  34
ENDBRANCH   1  33
TORSDOF 17
