REMARK SMILES COc1cc([C@@H]2CC[NH2+][C@@H]2C(=O)NCCCCCCNC(=O)c2ccc(-c3c4nc(c(-c5ccccc5)c5ccc([nH]5)c(-c5ccccc5)c5nc(c(-c6ccccc6)c6ccc3[nH]6)C=C5)C=C4)cc2)cc(OC)c1OC
REMARK SMILES IDX 16 1 15 2 14 3 13 4 11 5 12 6 10 8 6 9 7 10 8 11 9 12 5 15
REMARK SMILES IDX 3 16 4 17 75 18 72 19 71 20 2 21 1 22 76 23 77 24 73 25
REMARK SMILES IDX 74 26 17 27 18 28 19 29 20 30 21 31 22 33 23 34 24 35 70 36
REMARK SMILES IDX 25 37 69 38 26 39 27 40 28 41 63 42 29 43 68 44 62 45 64 46
REMARK SMILES IDX 30 47 67 48 61 49 60 50 31 52 53 53 38 54 52 55 39 56 42 57
REMARK SMILES IDX 51 58 65 59 40 60 41 61 50 63 66 64 43 65 32 66 33 67 37 68
REMARK SMILES IDX 34 69 36 70 35 71 54 72 55 73 59 74 56 75 58 76 57 77 44 78
REMARK SMILES IDX 45 79 49 80 46 81 48 82 47 83
REMARK H PARENT 13 7 9 13 9 14 20 32 64 51 42 62
REMARK Flexibility Score: inf
ROOT
ATOM      1  C   UNL     1       3.694  -3.367   1.821  1.00  0.00     0.002 C 
ENDROOT
BRANCH   1   2
ATOM      2  C   UNL     1       2.360  -4.108   1.891  1.00  0.00     0.021 C 
BRANCH   2   3
ATOM      3  C   UNL     1       1.121  -3.624   0.763  1.00  0.00     0.116 C 
BRANCH   3   4
ATOM      4  N   UNL     1       0.505  -4.405  -1.055  1.00  0.00    -0.351 N 
ATOM      5  C   UNL     1      -0.190  -5.525  -1.715  1.00  0.00     0.278 C 
ATOM      6  O   UNL     1      -0.189  -5.528  -2.952  1.00  0.00    -0.268 OA
ATOM      7  H   UNL     1       0.791  -3.779  -1.759  1.00  0.00     0.163 HD
BRANCH   5   8
ATOM      8  C   UNL     1      -0.932  -6.689  -0.897  1.00  0.00     0.280 C 
ATOM      9  C   UNL     1      -1.225  -6.292   0.527  1.00  0.00     0.093 C 
ATOM     10  C   UNL     1      -0.981  -7.495   1.396  1.00  0.00     0.076 C 
ATOM     11  C   UNL     1      -0.062  -8.385   0.585  1.00  0.00     0.262 C 
ATOM     12  N   UNL     1      -0.139  -7.957  -0.820  1.00  0.00    -0.335 N 
ATOM     13  H   UNL     1      -0.596  -8.681  -1.374  1.00  0.00     0.346 HD
ATOM     14  H   UNL     1       0.800  -7.801  -1.185  1.00  0.00     0.346 HD
BRANCH   9  15
ATOM     15  C   UNL     1      -0.226  -5.195   0.634  1.00  0.00    -0.031 A 
ATOM     16  C   UNL     1       0.102  -2.385  -0.741  1.00  0.00     0.164 A 
ATOM     17  C   UNL     1      -0.929  -3.575   0.125  1.00  0.00     0.055 A 
ATOM     18  C   UNL     1       1.822  -2.751  -1.136  1.00  0.00     0.203 A 
ATOM     19  C   UNL     1       2.508  -4.361  -0.719  1.00  0.00     0.164 A 
ATOM     20  C   UNL     1       1.512  -5.595   0.172  1.00  0.00     0.055 A 
BRANCH  16  21
ATOM     21  O   UNL     1      -0.515  -1.239  -1.172  1.00  0.00    -0.493 OA
ATOM     22  C   UNL     1      -0.073  -0.091  -0.454  1.00  0.00     0.278 C 
ENDBRANCH  16  21
BRANCH  18  23
ATOM     23  O   UNL     1       2.522  -1.989  -2.040  1.00  0.00    -0.490 OA
ATOM     24  C   UNL     1       2.831  -0.652  -1.667  1.00  0.00     0.278 C 
ENDBRANCH  18  23
BRANCH  19  25
ATOM     25  O   UNL     1       3.737  -4.830  -1.115  1.00  0.00    -0.493 OA
ATOM     26  C   UNL     1       4.649  -3.864  -1.617  1.00  0.00     0.278 C 
ENDBRANCH  19  25
ENDBRANCH   9  15
ENDBRANCH   5   8
ENDBRANCH   3   4
ENDBRANCH   2   3
ENDBRANCH   1   2
BRANCH   1  27
ATOM     27  C   UNL     1       3.528  -1.891   1.522  1.00  0.00     0.002 C 
BRANCH  27  28
ATOM     28  C   UNL     1       2.929  -1.113   2.673  1.00  0.00     0.021 C 
BRANCH  28  29
ATOM     29  C   UNL     1       3.956  -0.975   3.762  1.00  0.00     0.116 C 
BRANCH  29  30
ATOM     30  N   UNL     1       5.207  -0.426   3.223  1.00  0.00    -0.352 N 
ATOM     31  C   UNL     1       5.891   0.672   3.661  1.00  0.00     0.251 C 
ATOM     32  H   UNL     1       5.599  -0.905   2.457  1.00  0.00     0.163 HD
ATOM     33  O   UNL     1       6.709   1.259   2.971  1.00  0.00    -0.269 OA
BRANCH  31  34
ATOM     34  C   UNL     1       5.580   1.076   5.030  1.00  0.00     0.039 A 
ATOM     35  C   UNL     1       5.231   2.389   5.314  1.00  0.00     0.014 A 
ATOM     36  C   UNL     1       5.426   0.042   5.959  1.00  0.00     0.014 A 
ATOM     37  C   UNL     1       4.690   2.656   6.563  1.00  0.00     0.010 A 
ATOM     38  C   UNL     1       4.678   0.277   7.083  1.00  0.00     0.010 A 
ATOM     39  C   UNL     1       4.386   1.595   7.438  1.00  0.00    -0.014 A 
BRANCH  39  40
ATOM     40  C   UNL     1       3.859   1.832   8.790  1.00  0.00     0.031 A 
ATOM     41  C   UNL     1       4.648   1.327   9.969  1.00  0.00     0.074 A 
ATOM     42  C   UNL     1       2.680   2.460   8.939  1.00  0.00     0.049 A 
ATOM     43  N   UNL     1       4.380   1.432  11.243  1.00  0.00    -0.248 NA
ATOM     44  C   UNL     1       5.875   0.553   9.686  1.00  0.00     0.031 C 
ATOM     45  C   UNL     1       1.812   2.920   7.851  1.00  0.00     0.029 A 
ATOM     46  N   UNL     1       2.026   2.847  10.075  1.00  0.00    -0.354 N 
ATOM     47  C   UNL     1       5.386   0.726  11.890  1.00  0.00     0.074 A 
ATOM     48  C   UNL     1       6.194   0.093  10.881  1.00  0.00     0.031 C 
ATOM     49  C   UNL     1       0.786   3.609   8.373  1.00  0.00     0.029 A 
ATOM     50  C   UNL     1       0.901   3.593   9.826  1.00  0.00     0.049 A 
ATOM     51  H   UNL     1       2.331   2.614  10.981  1.00  0.00     0.167 HD
ATOM     52  C   UNL     1       5.657   0.661  13.211  1.00  0.00     0.031 A 
ATOM     53  C   UNL     1       0.076   4.211  10.688  1.00  0.00     0.031 A 
ATOM     54  C   UNL     1       4.858   1.323  14.199  1.00  0.00     0.049 A 
ATOM     55  C   UNL     1       0.383   4.114  12.157  1.00  0.00     0.074 A 
ATOM     56  C   UNL     1       5.044   1.377  15.566  1.00  0.00     0.029 A 
ATOM     57  N   UNL     1       3.715   2.055  13.911  1.00  0.00    -0.354 N 
ATOM     58  N   UNL     1       1.384   3.512  12.756  1.00  0.00    -0.248 NA
ATOM     59  C   UNL     1      -0.546   4.795  13.065  1.00  0.00     0.031 C 
ATOM     60  C   UNL     1       3.973   2.091  16.113  1.00  0.00     0.029 A 
ATOM     61  C   UNL     1       3.165   2.544  15.079  1.00  0.00     0.049 A 
ATOM     62  H   UNL     1       3.350   2.203  13.009  1.00  0.00     0.167 HD
ATOM     63  C   UNL     1       1.224   3.770  14.111  1.00  0.00     0.074 A 
ATOM     64  C   UNL     1       0.041   4.598  14.237  1.00  0.00     0.031 C 
ATOM     65  C   UNL     1       1.984   3.365  15.160  1.00  0.00     0.031 A 
BRANCH  52  66
ATOM     66  C   UNL     1       6.854  -0.147  13.628  1.00  0.00    -0.014 A 
ATOM     67  C   UNL     1       8.159   0.228  13.257  1.00  0.00     0.009 A 
ATOM     68  C   UNL     1       6.677  -1.320  14.375  1.00  0.00     0.009 A 
ATOM     69  C   UNL     1       9.250  -0.583  13.575  1.00  0.00     0.001 A 
ATOM     70  C   UNL     1       7.775  -2.108  14.728  1.00  0.00     0.001 A 
ATOM     71  C   UNL     1       9.057  -1.748  14.315  1.00  0.00     0.000 A 
ENDBRANCH  52  66
BRANCH  53  72
ATOM     72  C   UNL     1      -1.068   5.014  10.185  1.00  0.00    -0.014 A 
ATOM     73  C   UNL     1      -1.075   6.410  10.327  1.00  0.00     0.009 A 
ATOM     74  C   UNL     1      -2.157   4.394   9.552  1.00  0.00     0.009 A 
ATOM     75  C   UNL     1      -2.162   7.165   9.878  1.00  0.00     0.001 A 
ATOM     76  C   UNL     1      -3.227   5.154   9.074  1.00  0.00     0.001 A 
ATOM     77  C   UNL     1      -3.234   6.536   9.248  1.00  0.00     0.000 A 
ENDBRANCH  53  72
BRANCH  65  78
ATOM     78  C   UNL     1       1.578   3.851  16.521  1.00  0.00    -0.014 A 
ATOM     79  C   UNL     1       0.416   3.381  17.150  1.00  0.00     0.009 A 
ATOM     80  C   UNL     1       2.405   4.759  17.201  1.00  0.00     0.009 A 
ATOM     81  C   UNL     1       0.068   3.846  18.419  1.00  0.00     0.001 A 
ATOM     82  C   UNL     1       2.076   5.191  18.484  1.00  0.00     0.001 A 
ATOM     83  C   UNL     1       0.901   4.744  19.086  1.00  0.00     0.000 A 
ENDBRANCH  65  78
ENDBRANCH  39  40
ENDBRANCH  31  34
ENDBRANCH  29  30
ENDBRANCH  28  29
ENDBRANCH  27  28
ENDBRANCH   1  27
TORSDOF 17
