REMARK SMILES N#C/C(=C\c1ccc(-c2cc(C(F)(F)F)ccc2Cl)o1)C(=O)NCCCCCCNC(=O)c1ccc(-c2c3nc(c(-c4ccccc4)c4ccc([nH]4)c(-c4ccccc4)c4nc(c(-c5ccccc5)c5ccc2[nH]5)C=C4)C=C3)cc1
REMARK SMILES IDX 26 1 25 2 24 3 23 4 21 5 22 6 3 8 4 9 2 10 1 11 5 12 6 13
REMARK SMILES IDX 20 14 7 15 8 16 9 17 10 18 18 19 11 20 17 21 19 22 16 23
REMARK SMILES IDX 12 24 13 25 14 26 15 27 27 28 28 29 29 30 30 31 31 32 32 34
REMARK SMILES IDX 33 35 34 36 80 37 35 38 79 39 36 40 37 41 38 42 73 43 39 44
REMARK SMILES IDX 78 45 72 46 74 47 40 48 77 49 71 50 70 51 41 53 63 54 48 55
REMARK SMILES IDX 62 56 49 57 52 58 61 59 75 60 50 61 51 62 60 64 76 65 53 66
REMARK SMILES IDX 42 67 43 68 47 69 44 70 46 71 45 72 64 73 65 74 69 75 66 76
REMARK SMILES IDX 68 77 67 78 54 79 55 80 59 81 56 82 58 83 57 84
REMARK H PARENT 23 7 30 33 74 52 52 63
REMARK Flexibility Score: inf
ROOT
ATOM      1  C   UNL     1       8.814   0.389   1.966  1.00  0.00     0.002 C 
ENDROOT
BRANCH   1   2
ATOM      2  C   UNL     1       7.772   0.930   0.991  1.00  0.00     0.021 C 
BRANCH   2   3
ATOM      3  C   UNL     1       6.973  -0.153   0.282  1.00  0.00     0.116 C 
BRANCH   3   4
ATOM      4  N   UNL     1       5.890  -0.682   1.090  1.00  0.00    -0.351 N 
ATOM      5  C   UNL     1       4.531  -0.655   0.996  1.00  0.00     0.262 C 
ATOM      6  O   UNL     1       3.895  -1.217   1.890  1.00  0.00    -0.268 OA
ATOM      7  H   UNL     1       6.208  -1.170   1.884  1.00  0.00     0.163 HD
BRANCH   5   8
ATOM      8  C   UNL     1       3.803   0.045  -0.086  1.00  0.00     0.120 C 
ATOM      9  C   UNL     1       4.271   0.405  -1.312  1.00  0.00     0.072 C 
BRANCH   8  10
ATOM     10  C   UNL     1       2.283   0.045  -0.086  1.00  0.00     0.105 C 
ATOM     11  N   UNL     1       1.022   0.045  -0.086  1.00  0.00    -0.192 NA
ENDBRANCH   8  10
BRANCH   9  12
ATOM     12  C   UNL     1       3.517   1.122  -2.313  1.00  0.00     0.129 A 
ATOM     13  C   UNL     1       2.541   2.110  -2.186  1.00  0.00     0.051 A 
ATOM     14  O   UNL     1       3.728   0.944  -3.672  1.00  0.00    -0.457 OA
ATOM     15  C   UNL     1       2.114   2.487  -3.476  1.00  0.00     0.051 A 
ATOM     16  C   UNL     1       2.889   1.775  -4.359  1.00  0.00     0.136 A 
BRANCH  16  17
ATOM     17  C   UNL     1       2.974   1.762  -5.815  1.00  0.00     0.036 A 
ATOM     18  C   UNL     1       2.815   0.548  -6.506  1.00  0.00     0.026 A 
ATOM     19  C   UNL     1       3.139   2.942  -6.565  1.00  0.00     0.052 A 
ATOM     20  C   UNL     1       2.793   0.503  -7.915  1.00  0.00     0.056 A 
ATOM     21  C   UNL     1       3.128   2.905  -7.963  1.00  0.00     0.022 A 
ATOM     22  Cl  UNL     1       3.386   4.490  -5.829  1.00  0.00    -0.084 Cl
ATOM     23  C   UNL     1       2.951   1.695  -8.634  1.00  0.00     0.014 A 
BRANCH  20  24
ATOM     24  C   UNL     1       2.591  -0.811  -8.632  1.00  0.00     0.416 C 
ATOM     25  F   UNL     1       3.607  -1.688  -8.405  1.00  0.00    -0.166 F 
ATOM     26  F   UNL     1       1.451  -1.446  -8.246  1.00  0.00    -0.166 F 
ATOM     27  F   UNL     1       2.506  -0.682  -9.986  1.00  0.00    -0.166 F 
ENDBRANCH  20  24
ENDBRANCH  16  17
ENDBRANCH   9  12
ENDBRANCH   5   8
ENDBRANCH   3   4
ENDBRANCH   2   3
ENDBRANCH   1   2
BRANCH   1  28
ATOM     28  C   UNL     1       9.789  -0.633   1.367  1.00  0.00     0.002 C 
BRANCH  28  29
ATOM     29  C   UNL     1      10.475  -0.201   0.067  1.00  0.00     0.021 C 
BRANCH  29  30
ATOM     30  C   UNL     1      11.290   1.080   0.187  1.00  0.00     0.116 C 
BRANCH  30  31
ATOM     31  N   UNL     1      12.373   0.937   1.147  1.00  0.00    -0.352 N 
ATOM     32  C   UNL     1      13.722   1.105   0.958  1.00  0.00     0.251 C 
ATOM     33  H   UNL     1      12.100   0.686   2.059  1.00  0.00     0.163 HD
ATOM     34  O   UNL     1      14.525   0.724   1.796  1.00  0.00    -0.269 OA
BRANCH  32  35
ATOM     35  C   UNL     1      14.190   1.747  -0.286  1.00  0.00     0.039 A 
ATOM     36  C   UNL     1      15.221   1.153  -1.017  1.00  0.00     0.014 A 
ATOM     37  C   UNL     1      13.586   2.925  -0.733  1.00  0.00     0.014 A 
ATOM     38  C   UNL     1      15.607   1.710  -2.236  1.00  0.00     0.010 A 
ATOM     39  C   UNL     1      13.919   3.434  -1.980  1.00  0.00     0.010 A 
ATOM     40  C   UNL     1      14.935   2.834  -2.742  1.00  0.00    -0.014 A 
BRANCH  40  41
ATOM     41  C   UNL     1      15.266   3.416  -4.064  1.00  0.00     0.031 A 
ATOM     42  C   UNL     1      15.782   4.824  -4.149  1.00  0.00     0.074 A 
ATOM     43  C   UNL     1      14.994   2.724  -5.186  1.00  0.00     0.049 A 
ATOM     44  N   UNL     1      15.987   5.567  -5.206  1.00  0.00    -0.248 NA
ATOM     45  C   UNL     1      16.071   5.497  -2.872  1.00  0.00     0.031 C 
ATOM     46  C   UNL     1      14.454   1.364  -5.234  1.00  0.00     0.029 A 
ATOM     47  N   UNL     1      15.108   3.085  -6.505  1.00  0.00    -0.354 N 
ATOM     48  C   UNL     1      16.395   6.803  -4.721  1.00  0.00     0.074 A 
ATOM     49  C   UNL     1      16.365   6.722  -3.277  1.00  0.00     0.031 C 
ATOM     50  C   UNL     1      14.287   1.004  -6.517  1.00  0.00     0.029 A 
ATOM     51  C   UNL     1      14.660   2.123  -7.377  1.00  0.00     0.049 A 
ATOM     52  H   UNL     1      15.476   3.950  -6.798  1.00  0.00     0.167 HD
ATOM     53  C   UNL     1      16.771   7.902  -5.416  1.00  0.00     0.031 A 
ATOM     54  C   UNL     1      14.536   2.147  -8.718  1.00  0.00     0.031 A 
ATOM     55  C   UNL     1      16.804   7.972  -6.852  1.00  0.00     0.049 A 
ATOM     56  C   UNL     1      14.950   3.379  -9.472  1.00  0.00     0.074 A 
ATOM     57  C   UNL     1      17.238   9.012  -7.654  1.00  0.00     0.029 A 
ATOM     58  N   UNL     1      16.375   6.962  -7.700  1.00  0.00    -0.354 N 
ATOM     59  N   UNL     1      15.407   4.516  -9.005  1.00  0.00    -0.248 NA
ATOM     60  C   UNL     1      14.839   3.330 -10.936  1.00  0.00     0.031 C 
ATOM     61  C   UNL     1      17.011   8.657  -8.987  1.00  0.00     0.029 A 
ATOM     62  C   UNL     1      16.501   7.368  -9.018  1.00  0.00     0.049 A 
ATOM     63  H   UNL     1      16.031   6.087  -7.409  1.00  0.00     0.167 HD
ATOM     64  C   UNL     1      15.666   5.306 -10.117  1.00  0.00     0.074 A 
ATOM     65  C   UNL     1      15.322   4.517 -11.281  1.00  0.00     0.031 C 
ATOM     66  C   UNL     1      16.152   6.571 -10.166  1.00  0.00     0.031 A 
BRANCH  53  67
ATOM     67  C   UNL     1      17.145   9.125  -4.623  1.00  0.00    -0.014 A 
ATOM     68  C   UNL     1      18.294   9.155  -3.816  1.00  0.00     0.009 A 
ATOM     69  C   UNL     1      16.335  10.269  -4.689  1.00  0.00     0.009 A 
ATOM     70  C   UNL     1      18.593  10.285  -3.051  1.00  0.00     0.001 A 
ATOM     71  C   UNL     1      16.655  11.409  -3.951  1.00  0.00     0.001 A 
ATOM     72  C   UNL     1      17.774  11.412  -3.121  1.00  0.00     0.000 A 
ENDBRANCH  53  67
BRANCH  54  73
ATOM     73  C   UNL     1      13.990   0.959  -9.424  1.00  0.00    -0.014 A 
ATOM     74  C   UNL     1      14.825   0.138 -10.195  1.00  0.00     0.009 A 
ATOM     75  C   UNL     1      12.633   0.619  -9.299  1.00  0.00     0.009 A 
ATOM     76  C   UNL     1      14.310  -0.989 -10.840  1.00  0.00     0.001 A 
ATOM     77  C   UNL     1      12.127  -0.525  -9.920  1.00  0.00     0.001 A 
ATOM     78  C   UNL     1      12.964  -1.324 -10.696  1.00  0.00     0.000 A 
ENDBRANCH  54  73
BRANCH  66  79
ATOM     79  C   UNL     1      16.381   7.175 -11.523  1.00  0.00    -0.014 A 
ATOM     80  C   UNL     1      15.312   7.599 -12.326  1.00  0.00     0.009 A 
ATOM     81  C   UNL     1      17.695   7.396 -11.967  1.00  0.00     0.009 A 
ATOM     82  C   UNL     1      15.555   8.215 -13.556  1.00  0.00     0.001 A 
ATOM     83  C   UNL     1      17.936   8.038 -13.182  1.00  0.00     0.001 A 
ATOM     84  C   UNL     1      16.866   8.442 -13.978  1.00  0.00     0.000 A 
ENDBRANCH  66  79
ENDBRANCH  40  41
ENDBRANCH  32  35
ENDBRANCH  30  31
ENDBRANCH  29  30
ENDBRANCH  28  29
ENDBRANCH   1  28
TORSDOF 17
