REMARK SMILES CC(C)[NH2+][C@@H](CSc1cccc(F)c1)C(=O)NCCCCCCNC(=O)c1ccc(-c2c3nc(c(-c4ccccc4)c4ccc([nH]4)c(-c4ccccc4)c4nc(c(-c5ccccc5)c5ccc2[nH]5)C=C4)C=C3)cc1
REMARK SMILES IDX 20 1 19 2 18 3 17 4 15 5 16 6 5 8 4 9 2 12 1 13 3 14 6 15
REMARK SMILES IDX 7 16 8 17 9 18 14 19 10 20 12 21 11 22 13 23 21 24 22 25
REMARK SMILES IDX 23 26 24 27 25 28 26 30 27 31 28 32 74 33 29 34 73 35 30 36
REMARK SMILES IDX 31 37 32 38 67 39 33 40 72 41 66 42 68 43 34 44 71 45 65 46
REMARK SMILES IDX 64 47 35 49 57 50 42 51 56 52 43 53 46 54 55 55 69 56 44 57
REMARK SMILES IDX 45 58 54 60 70 61 47 62 36 63 37 64 41 65 38 66 40 67 39 68
REMARK SMILES IDX 58 69 59 70 63 71 60 72 62 73 61 74 48 75 49 76 53 77 50 78
REMARK SMILES IDX 52 79 51 80
REMARK H PARENT 17 7 4 10 4 11 24 29 68 48 46 59
REMARK Flexibility Score: inf
ROOT
ATOM      1  C   UNL     1      -5.804   1.158  -2.243  1.00  0.00     0.002 C 
ENDROOT
BRANCH   1   2
ATOM      2  C   UNL     1      -4.424   1.051  -1.593  1.00  0.00     0.021 C 
BRANCH   2   3
ATOM      3  C   UNL     1      -3.880   2.384  -1.077  1.00  0.00     0.116 C 
BRANCH   3   4
ATOM      4  N   UNL     1      -3.684   2.390   0.354  1.00  0.00    -0.351 N 
ATOM      5  C   UNL     1      -2.599   2.631   1.131  1.00  0.00     0.279 C 
ATOM      6  O   UNL     1      -2.808   2.618   2.353  1.00  0.00    -0.268 OA
ATOM      7  H   UNL     1      -4.497   2.179   0.866  1.00  0.00     0.163 HD
BRANCH   5   8
ATOM      8  C   UNL     1      -1.135   2.800   0.619  1.00  0.00     0.283 C 
BRANCH   8   9
ATOM      9  N   UNL     1      -0.495   1.474   0.549  1.00  0.00    -0.333 N 
ATOM     10  H   UNL     1      -1.046   0.831   1.118  1.00  0.00     0.347 HD
ATOM     11  H   UNL     1      -0.467   1.234  -0.442  1.00  0.00     0.347 HD
BRANCH   9  12
ATOM     12  C   UNL     1       0.900   1.404   1.014  1.00  0.00     0.176 C 
ATOM     13  C   UNL     1       1.368  -0.040   0.802  1.00  0.00     0.075 C 
ATOM     14  C   UNL     1       1.875   2.351   0.316  1.00  0.00     0.075 C 
ENDBRANCH   9  12
ENDBRANCH   8   9
BRANCH   8  15
ATOM     15  C   UNL     1      -0.926   3.812  -0.528  1.00  0.00     0.150 C 
BRANCH  15  16
ATOM     16  S   UNL     1      -0.700   3.558  -2.360  1.00  0.00    -0.119 SA
BRANCH  16  17
ATOM     17  C   UNL     1      -0.244   1.880  -2.752  1.00  0.00     0.010 A 
ATOM     18  C   UNL     1       0.677   1.710  -3.799  1.00  0.00     0.015 A 
ATOM     19  C   UNL     1      -0.864   0.738  -2.254  1.00  0.00     0.054 A 
ATOM     20  C   UNL     1       0.987   0.441  -4.305  1.00  0.00     0.004 A 
ATOM     21  C   UNL     1      -0.546  -0.526  -2.747  1.00  0.00     0.124 A 
ATOM     22  C   UNL     1       0.372  -0.686  -3.772  1.00  0.00     0.039 A 
ATOM     23  F   UNL     1      -1.163  -1.602  -2.240  1.00  0.00    -0.207 F 
ENDBRANCH  16  17
ENDBRANCH  15  16
ENDBRANCH   8  15
ENDBRANCH   5   8
ENDBRANCH   3   4
ENDBRANCH   2   3
ENDBRANCH   1   2
BRANCH   1  24
ATOM     24  C   UNL     1      -5.901   2.125  -3.430  1.00  0.00     0.002 C 
BRANCH  24  25
ATOM     25  C   UNL     1      -4.908   1.892  -4.573  1.00  0.00     0.021 C 
BRANCH  25  26
ATOM     26  C   UNL     1      -4.926   0.492  -5.183  1.00  0.00     0.116 C 
BRANCH  26  27
ATOM     27  N   UNL     1      -6.253   0.103  -5.636  1.00  0.00    -0.352 N 
ATOM     28  C   UNL     1      -6.710  -0.227  -6.885  1.00  0.00     0.251 C 
ATOM     29  H   UNL     1      -6.935   0.071  -4.927  1.00  0.00     0.163 HD
ATOM     30  O   UNL     1      -7.916  -0.339  -7.082  1.00  0.00    -0.269 OA
BRANCH  28  31
ATOM     31  C   UNL     1      -5.766  -0.441  -8.004  1.00  0.00     0.039 A 
ATOM     32  C   UNL     1      -6.093   0.074  -9.262  1.00  0.00     0.014 A 
ATOM     33  C   UNL     1      -4.596  -1.185  -7.836  1.00  0.00     0.014 A 
ATOM     34  C   UNL     1      -5.221  -0.108 -10.337  1.00  0.00     0.010 A 
ATOM     35  C   UNL     1      -3.697  -1.314  -8.893  1.00  0.00     0.010 A 
ATOM     36  C   UNL     1      -4.001  -0.778 -10.154  1.00  0.00    -0.014 A 
BRANCH  36  37
ATOM     37  C   UNL     1      -3.031  -0.924 -11.268  1.00  0.00     0.031 A 
ATOM     38  C   UNL     1      -2.710  -2.283 -11.825  1.00  0.00     0.074 A 
ATOM     39  C   UNL     1      -2.398   0.166 -11.743  1.00  0.00     0.049 A 
ATOM     40  N   UNL     1      -1.846  -2.611 -12.752  1.00  0.00    -0.248 NA
ATOM     41  C   UNL     1      -3.442  -3.424 -11.253  1.00  0.00     0.031 C 
ATOM     42  C   UNL     1      -2.602   1.538 -11.274  1.00  0.00     0.029 A 
ATOM     43  N   UNL     1      -1.448   0.288 -12.726  1.00  0.00    -0.354 N 
ATOM     44  C   UNL     1      -1.920  -3.994 -12.865  1.00  0.00     0.074 A 
ATOM     45  C   UNL     1      -2.880  -4.447 -11.881  1.00  0.00     0.031 C 
ATOM     46  C   UNL     1      -1.823   2.366 -11.988  1.00  0.00     0.029 A 
ATOM     47  C   UNL     1      -1.034   1.582 -12.933  1.00  0.00     0.049 A 
ATOM     48  H   UNL     1      -1.096  -0.478 -13.234  1.00  0.00     0.167 HD
ATOM     49  C   UNL     1      -1.261  -4.812 -13.720  1.00  0.00     0.031 A 
ATOM     50  C   UNL     1      -0.119   2.081 -13.784  1.00  0.00     0.031 A 
ATOM     51  C   UNL     1      -0.309  -4.364 -14.702  1.00  0.00     0.049 A 
ATOM     52  C   UNL     1       0.621   1.149 -14.701  1.00  0.00     0.074 A 
ATOM     53  C   UNL     1       0.380  -5.113 -15.639  1.00  0.00     0.029 A 
ATOM     54  N   UNL     1       0.087  -3.047 -14.872  1.00  0.00    -0.354 N 
ATOM     55  N   UNL     1       0.506  -0.151 -14.825  1.00  0.00    -0.248 NA
ATOM     56  C   UNL     1       1.611   1.756 -15.601  1.00  0.00     0.031 C 
ATOM     57  C   UNL     1       1.228  -4.255 -16.347  1.00  0.00     0.029 A 
ATOM     58  C   UNL     1       1.027  -2.964 -15.886  1.00  0.00     0.049 A 
ATOM     59  H   UNL     1      -0.250  -2.283 -14.350  1.00  0.00     0.167 HD
ATOM     60  C   UNL     1       1.387  -0.513 -15.835  1.00  0.00     0.074 A 
ATOM     61  C   UNL     1       2.019   0.705 -16.298  1.00  0.00     0.031 C 
ATOM     62  C   UNL     1       1.648  -1.746 -16.335  1.00  0.00     0.031 A 
BRANCH  49  63
ATOM     63  C   UNL     1      -1.546  -6.285 -13.624  1.00  0.00    -0.014 A 
ATOM     64  C   UNL     1      -2.776  -6.815 -14.046  1.00  0.00     0.009 A 
ATOM     65  C   UNL     1      -0.560  -7.159 -13.141  1.00  0.00     0.009 A 
ATOM     66  C   UNL     1      -3.026  -8.185 -13.952  1.00  0.00     0.001 A 
ATOM     67  C   UNL     1      -0.803  -8.533 -13.075  1.00  0.00     0.001 A 
ATOM     68  C   UNL     1      -2.038  -9.043 -13.471  1.00  0.00     0.000 A 
ENDBRANCH  49  63
BRANCH  50  69
ATOM     69  C   UNL     1       0.140   3.543 -13.822  1.00  0.00    -0.014 A 
ATOM     70  C   UNL     1      -0.284   4.309 -14.920  1.00  0.00     0.009 A 
ATOM     71  C   UNL     1       0.812   4.181 -12.768  1.00  0.00     0.009 A 
ATOM     72  C   UNL     1      -0.019   5.679 -14.972  1.00  0.00     0.001 A 
ATOM     73  C   UNL     1       1.051   5.556 -12.810  1.00  0.00     0.001 A 
ATOM     74  C   UNL     1       0.644   6.302 -13.915  1.00  0.00     0.000 A 
ENDBRANCH  50  69
BRANCH  62  75
ATOM     75  C   UNL     1       2.633  -1.833 -17.465  1.00  0.00    -0.014 A 
ATOM     76  C   UNL     1       4.009  -1.664 -17.248  1.00  0.00     0.009 A 
ATOM     77  C   UNL     1       2.179  -2.129 -18.761  1.00  0.00     0.009 A 
ATOM     78  C   UNL     1       4.908  -1.758 -18.312  1.00  0.00     0.001 A 
ATOM     79  C   UNL     1       3.083  -2.250 -19.817  1.00  0.00     0.001 A 
ATOM     80  C   UNL     1       4.445  -2.056 -19.594  1.00  0.00     0.000 A 
ENDBRANCH  62  75
ENDBRANCH  36  37
ENDBRANCH  28  31
ENDBRANCH  26  27
ENDBRANCH  25  26
ENDBRANCH  24  25
ENDBRANCH   1  24
TORSDOF 18
