REMARK SMILES CC1(C)[C@H](C(=O)NCCCCCCNC(=O)c2ccc(-c3c4nc(c(-c5ccccc5)c5ccc([nH]5)c(-c5ccccc5)c5nc(c(-c6ccccc6)c6ccc3[nH]6)C=C5)C=C4)cc2)[C@H]1C(=O)Nc1cccc2[nH]ccc12
REMARK SMILES IDX 10 1 9 2 8 3 7 4 5 5 6 6 4 8 1 9 2 10 3 11 65 12 66 13 67 14
REMARK SMILES IDX 68 15 69 17 70 18 77 19 71 20 73 21 76 22 72 23 74 24 75 25
REMARK SMILES IDX 11 27 12 28 13 29 14 30 15 31 16 33 17 34 18 35 64 36 19 37
REMARK SMILES IDX 63 38 20 39 21 40 22 41 57 42 23 43 62 44 56 45 58 46 24 47
REMARK SMILES IDX 61 48 55 49 54 50 25 52 47 53 32 54 46 55 33 56 36 57 45 58
REMARK SMILES IDX 59 59 34 60 35 61 44 63 60 64 37 65 26 66 27 67 31 68 28 69
REMARK SMILES IDX 30 70 29 71 48 72 49 73 53 74 50 75 52 76 51 77 38 78 39 79
REMARK SMILES IDX 43 80 40 81 42 82 41 83
REMARK H PARENT 7 7 68 16 74 26 14 32 58 51 36 62
REMARK Flexibility Score: inf
ROOT
ATOM      1  C   UNL     1      -1.131   5.208  -1.797  1.00  0.00     0.002 C 
ENDROOT
BRANCH   1   2
ATOM      2  C   UNL     1      -0.628   4.020  -0.972  1.00  0.00     0.021 C 
BRANCH   2   3
ATOM      3  C   UNL     1      -1.735   3.143  -0.387  1.00  0.00     0.116 C 
BRANCH   3   4
ATOM      4  N   UNL     1      -2.146   2.124  -1.318  1.00  0.00    -0.356 N 
ATOM      5  C   UNL     1      -1.819   0.814  -1.493  1.00  0.00     0.224 C 
ATOM      6  O   UNL     1      -2.410   0.246  -2.415  1.00  0.00    -0.275 OA
ATOM      7  H   UNL     1      -2.809   2.445  -1.971  1.00  0.00     0.163 HD
BRANCH   5   8
ATOM      8  C   UNL     1      -0.853  -0.004  -0.710  1.00  0.00     0.098 C 
ATOM      9  C   UNL     1       1.600  -0.470  -0.346  1.00  0.00     0.013 C 
ATOM     10  C   UNL     1       0.418   0.367   0.068  1.00  0.00    -0.011 C 
ATOM     11  C   UNL     1       0.920   1.662   0.641  1.00  0.00     0.013 C 
ATOM     12  C   UNL     1      -0.853  -0.159   0.767  1.00  0.00     0.098 C 
BRANCH  12  13
ATOM     13  C   UNL     1      -0.869  -1.374   1.638  1.00  0.00     0.228 C 
ATOM     14  O   UNL     1      -0.795  -1.185   2.853  1.00  0.00    -0.274 OA
ATOM     15  N   UNL     1      -1.243  -2.619   1.192  1.00  0.00    -0.325 N 
ATOM     16  H   UNL     1      -1.871  -3.107   1.773  1.00  0.00     0.169 HD
BRANCH  15  17
ATOM     17  C   UNL     1      -0.856  -3.288   0.027  1.00  0.00     0.050 A 
ATOM     18  C   UNL     1      -1.858  -3.819  -0.791  1.00  0.00     0.027 A 
ATOM     19  C   UNL     1       0.493  -3.574  -0.285  1.00  0.00     0.023 A 
ATOM     20  C   UNL     1      -1.536  -4.430  -2.001  1.00  0.00     0.004 A 
ATOM     21  C   UNL     1       0.785  -4.125  -1.535  1.00  0.00     0.047 A 
ATOM     22  C   UNL     1       1.735  -3.500   0.415  1.00  0.00     0.030 A 
ATOM     23  C   UNL     1      -0.209  -4.535  -2.427  1.00  0.00     0.027 A 
ATOM     24  N   UNL     1       2.157  -4.142  -1.663  1.00  0.00    -0.361 N 
ATOM     25  C   UNL     1       2.743  -3.810  -0.472  1.00  0.00     0.083 A 
ATOM     26  H   UNL     1       2.644  -4.361  -2.491  1.00  0.00     0.166 HD
ENDBRANCH  15  17
ENDBRANCH  12  13
ENDBRANCH   5   8
ENDBRANCH   3   4
ENDBRANCH   2   3
ENDBRANCH   1   2
BRANCH   1  27
ATOM     27  C   UNL     1      -2.008   6.205  -1.030  1.00  0.00     0.002 C 
BRANCH  27  28
ATOM     28  C   UNL     1      -1.414   6.719   0.285  1.00  0.00     0.021 C 
BRANCH  28  29
ATOM     29  C   UNL     1      -0.078   7.442   0.136  1.00  0.00     0.116 C 
BRANCH  29  30
ATOM     30  N   UNL     1      -0.203   8.635  -0.684  1.00  0.00    -0.352 N 
ATOM     31  C   UNL     1       0.030   9.946  -0.359  1.00  0.00     0.251 C 
ATOM     32  H   UNL     1      -0.499   8.479  -1.610  1.00  0.00     0.163 HD
ATOM     33  O   UNL     1      -0.368  10.845  -1.093  1.00  0.00    -0.269 OA
BRANCH  31  34
ATOM     34  C   UNL     1       0.763  10.280   0.880  1.00  0.00     0.039 A 
ATOM     35  C   UNL     1       0.309  11.339   1.670  1.00  0.00     0.014 A 
ATOM     36  C   UNL     1       1.918   9.579   1.239  1.00  0.00     0.014 A 
ATOM     37  C   UNL     1       0.990  11.668   2.843  1.00  0.00     0.010 A 
ATOM     38  C   UNL     1       2.555   9.863   2.444  1.00  0.00     0.010 A 
ATOM     39  C   UNL     1       2.106  10.919   3.251  1.00  0.00    -0.014 A 
BRANCH  39  40
ATOM     40  C   UNL     1       2.823  11.237   4.510  1.00  0.00     0.031 A 
ATOM     41  C   UNL     1       4.247  11.721   4.467  1.00  0.00     0.074 A 
ATOM     42  C   UNL     1       2.210  11.043   5.693  1.00  0.00     0.049 A 
ATOM     43  N   UNL     1       5.049  12.012   5.460  1.00  0.00    -0.248 NA
ATOM     44  C   UNL     1       4.858  11.873   3.137  1.00  0.00     0.031 C 
ATOM     45  C   UNL     1       0.845  10.540   5.868  1.00  0.00     0.029 A 
ATOM     46  N   UNL     1       2.659  11.242   6.974  1.00  0.00    -0.354 N 
ATOM     47  C   UNL     1       6.260  12.365   4.876  1.00  0.00     0.074 A 
ATOM     48  C   UNL     1       6.103  12.204   3.447  1.00  0.00     0.031 C 
ATOM     49  C   UNL     1       0.559  10.497   7.179  1.00  0.00     0.029 A 
ATOM     50  C   UNL     1       1.729  10.932   7.936  1.00  0.00     0.049 A 
ATOM     51  H   UNL     1       3.561  11.575   7.183  1.00  0.00     0.167 HD
ATOM     52  C   UNL     1       7.394  12.803   5.473  1.00  0.00     0.031 A 
ATOM     53  C   UNL     1       1.810  10.988   9.278  1.00  0.00     0.031 A 
ATOM     54  C   UNL     1       7.545  12.975   6.893  1.00  0.00     0.049 A 
ATOM     55  C   UNL     1       3.082  11.474   9.916  1.00  0.00     0.074 A 
ATOM     56  C   UNL     1       8.636  13.464   7.591  1.00  0.00     0.029 A 
ATOM     57  N   UNL     1       6.576  12.660   7.832  1.00  0.00    -0.354 N 
ATOM     58  N   UNL     1       4.194  11.869   9.346  1.00  0.00    -0.248 NA
ATOM     59  C   UNL     1       3.102  11.536  11.384  1.00  0.00     0.031 C 
ATOM     60  C   UNL     1       8.344  13.400   8.957  1.00  0.00     0.029 A 
ATOM     61  C   UNL     1       7.051  12.926   9.106  1.00  0.00     0.049 A 
ATOM     62  H   UNL     1       5.683  12.302   7.625  1.00  0.00     0.167 HD
ATOM     63  C   UNL     1       5.035  12.255  10.382  1.00  0.00     0.074 A 
ATOM     64  C   UNL     1       4.297  12.062  11.614  1.00  0.00     0.031 C 
ATOM     65  C   UNL     1       6.303  12.728  10.320  1.00  0.00     0.031 A 
BRANCH  52  66
ATOM     66  C   UNL     1       8.566  13.121   4.585  1.00  0.00    -0.014 A 
ATOM     67  C   UNL     1       8.552  14.236   3.732  1.00  0.00     0.009 A 
ATOM     68  C   UNL     1       9.715  12.315   4.629  1.00  0.00     0.009 A 
ATOM     69  C   UNL     1       9.650  14.517   2.916  1.00  0.00     0.001 A 
ATOM     70  C   UNL     1      10.822  12.615   3.833  1.00  0.00     0.001 A 
ATOM     71  C   UNL     1      10.785  13.710   2.971  1.00  0.00     0.000 A 
ENDBRANCH  52  66
BRANCH  53  72
ATOM     72  C   UNL     1       0.646  10.593  10.114  1.00  0.00    -0.014 A 
ATOM     73  C   UNL     1      -0.077  11.560  10.830  1.00  0.00     0.009 A 
ATOM     74  C   UNL     1       0.258   9.248  10.208  1.00  0.00     0.009 A 
ATOM     75  C   UNL     1      -1.146  11.183  11.646  1.00  0.00     0.001 A 
ATOM     76  C   UNL     1      -0.830   8.878  11.001  1.00  0.00     0.001 A 
ATOM     77  C   UNL     1      -1.524   9.844  11.728  1.00  0.00     0.000 A 
ENDBRANCH  53  72
BRANCH  65  78
ATOM     78  C   UNL     1       6.957  13.107  11.619  1.00  0.00    -0.014 A 
ATOM     79  C   UNL     1       7.368  12.134  12.543  1.00  0.00     0.009 A 
ATOM     80  C   UNL     1       7.192  14.461  11.906  1.00  0.00     0.009 A 
ATOM     81  C   UNL     1       7.968  12.513  13.746  1.00  0.00     0.001 A 
ATOM     82  C   UNL     1       7.819  14.835  13.095  1.00  0.00     0.001 A 
ATOM     83  C   UNL     1       8.196  13.861  14.019  1.00  0.00     0.000 A 
ENDBRANCH  65  78
ENDBRANCH  39  40
ENDBRANCH  31  34
ENDBRANCH  29  30
ENDBRANCH  28  29
ENDBRANCH  27  28
ENDBRANCH   1  27
TORSDOF 15
