REMARK SMILES O=C(NCCCCCCNC(=O)[C@H]1C=C[C@@H](NS(=O)(=O)c2ccc(Br)cc2)C1)c1ccc(-c2c3nc(c(-c4ccccc4)c4ccc([nH]4)c(-c4ccccc4)c4nc(c(-c5ccccc5)c5ccc2[nH]5)C=C4)C=C3)cc1
REMARK SMILES IDX 7 1 6 2 5 3 4 4 3 5 1 6 2 7 29 9 30 10 76 11 31 12 75 13
REMARK SMILES IDX 32 14 33 15 34 16 69 17 35 18 74 19 68 20 70 21 36 22 73 23
REMARK SMILES IDX 67 24 66 25 37 27 59 28 44 29 58 30 45 31 48 32 57 33 71 34
REMARK SMILES IDX 46 35 47 36 56 38 72 39 49 40 38 41 39 42 43 43 40 44 42 45
REMARK SMILES IDX 41 46 60 47 61 48 65 49 62 50 64 51 63 52 50 53 51 54 55 55
REMARK SMILES IDX 52 56 54 57 53 58 8 59 9 60 10 61 11 62 12 64 13 65 14 66
REMARK SMILES IDX 28 67 15 68 16 69 17 70 18 72 19 73 20 74 21 75 22 76 27 77
REMARK SMILES IDX 23 78 26 79 24 80 25 81
REMARK H PARENT 3 8 70 26 48 37 10 63 17 71
REMARK Flexibility Score: inf
ROOT
ATOM      1  C   UNL     1       4.709  -2.460  -3.664  1.00  0.00     0.002 C 
ENDROOT
BRANCH   1   2
ATOM      2  C   UNL     1       3.992  -3.025  -2.432  1.00  0.00     0.002 C 
BRANCH   2   3
ATOM      3  C   UNL     1       4.447  -2.440  -1.096  1.00  0.00     0.021 C 
BRANCH   3   4
ATOM      4  C   UNL     1       4.287  -0.930  -0.987  1.00  0.00     0.116 C 
BRANCH   4   5
ATOM      5  N   UNL     1       2.891  -0.520  -0.996  1.00  0.00    -0.352 N 
ATOM      6  O   UNL     1       0.969   0.296  -0.131  1.00  0.00    -0.269 OA
ATOM      7  C   UNL     1       2.189   0.194  -0.055  1.00  0.00     0.251 C 
ATOM      8  H   UNL     1       2.375  -0.793  -1.789  1.00  0.00     0.163 HD
BRANCH   7   9
ATOM      9  C   UNL     1       2.915   0.821   1.070  1.00  0.00     0.039 A 
ATOM     10  C   UNL     1       4.108   1.509   0.842  1.00  0.00     0.014 A 
ATOM     11  C   UNL     1       2.407   0.704   2.366  1.00  0.00     0.014 A 
ATOM     12  C   UNL     1       4.876   1.927   1.920  1.00  0.00     0.010 A 
ATOM     13  C   UNL     1       3.134   1.218   3.444  1.00  0.00     0.010 A 
ATOM     14  C   UNL     1       4.394   1.799   3.233  1.00  0.00    -0.014 A 
BRANCH  14  15
ATOM     15  C   UNL     1       5.214   2.323   4.355  1.00  0.00     0.031 A 
ATOM     16  C   UNL     1       5.763   1.410   5.418  1.00  0.00     0.074 A 
ATOM     17  C   UNL     1       5.503   3.639   4.382  1.00  0.00     0.049 A 
ATOM     18  N   UNL     1       6.544   1.702   6.428  1.00  0.00    -0.248 NA
ATOM     19  C   UNL     1       5.381  -0.009   5.347  1.00  0.00     0.031 C 
ATOM     20  C   UNL     1       5.028   4.626   3.409  1.00  0.00     0.029 A 
ATOM     21  N   UNL     1       6.289   4.368   5.237  1.00  0.00    -0.354 N 
ATOM     22  C   UNL     1       6.726   0.513   7.126  1.00  0.00     0.074 A 
ATOM     23  C   UNL     1       5.953  -0.499   6.438  1.00  0.00     0.031 C 
ATOM     24  C   UNL     1       5.587   5.814   3.679  1.00  0.00     0.029 A 
ATOM     25  C   UNL     1       6.399   5.690   4.882  1.00  0.00     0.049 A 
ATOM     26  H   UNL     1       6.731   3.981   6.027  1.00  0.00     0.167 HD
ATOM     27  C   UNL     1       7.471   0.287   8.236  1.00  0.00     0.031 A 
ATOM     28  C   UNL     1       7.073   6.698   5.464  1.00  0.00     0.031 A 
ATOM     29  C   UNL     1       8.244   1.296   8.914  1.00  0.00     0.049 A 
ATOM     30  C   UNL     1       7.864   6.423   6.708  1.00  0.00     0.074 A 
ATOM     31  C   UNL     1       9.063   1.155  10.021  1.00  0.00     0.029 A 
ATOM     32  N   UNL     1       8.288   2.634   8.553  1.00  0.00    -0.354 N 
ATOM     33  N   UNL     1       8.057   5.286   7.330  1.00  0.00    -0.248 NA
ATOM     34  C   UNL     1       8.533   7.574   7.327  1.00  0.00     0.031 C 
ATOM     35  C   UNL     1       9.555   2.418  10.366  1.00  0.00     0.029 A 
ATOM     36  C   UNL     1       9.096   3.335   9.434  1.00  0.00     0.049 A 
ATOM     37  H   UNL     1       7.816   3.028   7.784  1.00  0.00     0.167 HD
ATOM     38  C   UNL     1       8.890   5.578   8.400  1.00  0.00     0.074 A 
ATOM     39  C   UNL     1       9.181   6.996   8.329  1.00  0.00     0.031 C 
ATOM     40  C   UNL     1       9.372   4.747   9.355  1.00  0.00     0.031 A 
BRANCH  27  41
ATOM     41  C   UNL     1       7.456  -1.104   8.813  1.00  0.00    -0.014 A 
ATOM     42  C   UNL     1       8.085  -2.178   8.165  1.00  0.00     0.009 A 
ATOM     43  C   UNL     1       6.834  -1.332  10.052  1.00  0.00     0.009 A 
ATOM     44  C   UNL     1       8.059  -3.458   8.727  1.00  0.00     0.001 A 
ATOM     45  C   UNL     1       6.835  -2.605  10.626  1.00  0.00     0.001 A 
ATOM     46  C   UNL     1       7.438  -3.669   9.958  1.00  0.00     0.000 A 
ENDBRANCH  27  41
BRANCH  28  47
ATOM     47  C   UNL     1       7.024   8.061   4.873  1.00  0.00    -0.014 A 
ATOM     48  C   UNL     1       8.167   8.626   4.288  1.00  0.00     0.009 A 
ATOM     49  C   UNL     1       5.831   8.801   4.886  1.00  0.00     0.009 A 
ATOM     50  C   UNL     1       8.122   9.914   3.750  1.00  0.00     0.001 A 
ATOM     51  C   UNL     1       5.780  10.074   4.318  1.00  0.00     0.001 A 
ATOM     52  C   UNL     1       6.928  10.634   3.760  1.00  0.00     0.000 A 
ENDBRANCH  28  47
BRANCH  40  53
ATOM     53  C   UNL     1      10.298   5.348  10.376  1.00  0.00    -0.014 A 
ATOM     54  C   UNL     1       9.829   6.233  11.359  1.00  0.00     0.009 A 
ATOM     55  C   UNL     1      11.660   5.011  10.357  1.00  0.00     0.009 A 
ATOM     56  C   UNL     1      10.716   6.802  12.276  1.00  0.00     0.001 A 
ATOM     57  C   UNL     1      12.538   5.556  11.295  1.00  0.00     0.001 A 
ATOM     58  C   UNL     1      12.067   6.460  12.245  1.00  0.00     0.000 A 
ENDBRANCH  40  53
ENDBRANCH  14  15
ENDBRANCH   7   9
ENDBRANCH   4   5
ENDBRANCH   3   4
ENDBRANCH   2   3
ENDBRANCH   1   2
BRANCH   1  59
ATOM     59  C   UNL     1       6.242  -2.499  -3.603  1.00  0.00     0.021 C 
BRANCH  59  60
ATOM     60  C   UNL     1       6.813  -3.899  -3.382  1.00  0.00     0.116 C 
BRANCH  60  61
ATOM     61  N   UNL     1       6.636  -4.726  -4.559  1.00  0.00    -0.356 N 
ATOM     62  C   UNL     1       7.532  -5.150  -5.491  1.00  0.00     0.226 C 
ATOM     63  H   UNL     1       5.712  -5.032  -4.710  1.00  0.00     0.163 HD
ATOM     64  O   UNL     1       7.087  -5.764  -6.465  1.00  0.00    -0.274 OA
BRANCH  62  65
ATOM     65  C   UNL     1       9.043  -4.957  -5.331  1.00  0.00     0.103 C 
ATOM     66  C   UNL     1       9.497  -3.556  -5.081  1.00  0.00    -0.016 C 
ATOM     67  C   UNL     1       9.614  -5.752  -4.151  1.00  0.00     0.042 C 
ATOM     68  C   UNL     1      10.327  -3.484  -4.034  1.00  0.00    -0.011 C 
ATOM     69  C   UNL     1      10.582  -4.812  -3.407  1.00  0.00     0.093 C 
BRANCH  69  70
ATOM     70  N   UNL     1      10.256  -4.812  -1.989  1.00  0.00    -0.204 NA
ATOM     71  H   UNL     1      10.269  -5.790  -1.699  1.00  0.00     0.142 HD
BRANCH  70  72
ATOM     72  S   UNL     1      11.145  -3.983  -0.842  1.00  0.00     0.241 S 
ATOM     73  O   UNL     1      10.980  -2.569  -1.091  1.00  0.00    -0.207 OA
ATOM     74  O   UNL     1      10.791  -4.572   0.431  1.00  0.00    -0.207 OA
BRANCH  72  75
ATOM     75  C   UNL     1      12.834  -4.416  -1.177  1.00  0.00     0.082 A 
ATOM     76  C   UNL     1      13.765  -3.400  -1.416  1.00  0.00     0.023 A 
ATOM     77  C   UNL     1      13.219  -5.761  -1.215  1.00  0.00     0.023 A 
ATOM     78  C   UNL     1      15.087  -3.730  -1.717  1.00  0.00     0.017 A 
ATOM     79  C   UNL     1      14.542  -6.086  -1.528  1.00  0.00     0.017 A 
ATOM     80  C   UNL     1      15.467  -5.071  -1.780  1.00  0.00     0.018 A 
ATOM     81  Br  UNL     1      17.253  -5.514  -2.216  1.00  0.00    -0.051 Br
ENDBRANCH  72  75
ENDBRANCH  70  72
ENDBRANCH  69  70
ENDBRANCH  62  65
ENDBRANCH  60  61
ENDBRANCH  59  60
ENDBRANCH   1  59
TORSDOF 16
