REMARK SMILES CC(C)COc1ccc(CC(=O)NCCCCCCNC(=O)c2ccc(-c3c4nc(c(-c5ccccc5)c5ccc([nH]5)c(-c5ccccc5)c5nc(c(-c6ccccc6)c6ccc3[nH]6)C=C5)C=C4)cc2)cc1
REMARK SMILES IDX 15 1 14 2 13 3 11 4 12 5 10 7 9 8 6 9 7 10 72 11 8 12 71 13
REMARK SMILES IDX 5 14 4 15 2 16 1 17 3 18 16 19 17 20 18 21 19 22 20 23 21 24
REMARK SMILES IDX 22 26 23 27 24 28 70 29 25 30 69 31 26 32 27 33 28 34 63 35
REMARK SMILES IDX 29 36 68 37 62 38 64 39 30 40 67 41 61 42 60 43 31 45 53 46
REMARK SMILES IDX 38 47 52 48 39 49 42 50 51 51 65 52 40 53 41 54 50 56 66 57
REMARK SMILES IDX 43 58 32 59 33 60 37 61 34 62 36 63 35 64 54 65 55 66 59 67
REMARK SMILES IDX 56 68 58 69 57 70 44 71 45 72 49 73 46 74 48 75 47 76
REMARK H PARENT 13 6 20 25 64 44 42 55
REMARK Flexibility Score: inf
ROOT
ATOM      1  C   UNL     1       0.998   3.542   4.081  1.00  0.00     0.021 C 
ENDROOT
BRANCH   1   2
ATOM      2  C   UNL     1       1.468   2.370   4.949  1.00  0.00     0.116 C 
BRANCH   2   3
ATOM      3  N   UNL     1       0.588   2.177   6.088  1.00  0.00    -0.356 N 
ATOM      4  C   UNL     1      -0.321   1.191   6.335  1.00  0.00     0.224 C 
ATOM      5  O   UNL     1      -1.059   1.316   7.315  1.00  0.00    -0.275 OA
ATOM      6  H   UNL     1       0.660   2.863   6.790  1.00  0.00     0.163 HD
BRANCH   4   7
ATOM      7  C   UNL     1      -0.361  -0.062   5.479  1.00  0.00     0.135 C 
BRANCH   7   8
ATOM      8  C   UNL     1      -0.740   0.143   4.033  1.00  0.00    -0.038 A 
ATOM      9  C   UNL     1      -1.178   0.692   1.308  1.00  0.00     0.119 A 
ATOM     10  C   UNL     1      -1.969   1.293   2.290  1.00  0.00     0.047 A 
ATOM     11  C   UNL     1      -0.261  -0.280   1.690  1.00  0.00     0.047 A 
ATOM     12  C   UNL     1      -1.773   1.002   3.645  1.00  0.00     0.008 A 
ATOM     13  C   UNL     1      -0.028  -0.540   3.040  1.00  0.00     0.008 A 
BRANCH   9  14
ATOM     14  O   UNL     1      -1.328   1.190   0.045  1.00  0.00    -0.493 OA
BRANCH  14  15
ATOM     15  C   UNL     1      -0.869   0.423  -1.070  1.00  0.00     0.232 C 
BRANCH  15  16
ATOM     16  C   UNL     1       0.473   0.921  -1.650  1.00  0.00     0.020 C 
ATOM     17  C   UNL     1       1.691   0.585  -0.788  1.00  0.00     0.011 C 
ATOM     18  C   UNL     1       0.677   0.317  -3.042  1.00  0.00     0.011 C 
ENDBRANCH  15  16
ENDBRANCH  14  15
ENDBRANCH   9  14
ENDBRANCH   7   8
ENDBRANCH   4   7
ENDBRANCH   2   3
ENDBRANCH   1   2
BRANCH   1  19
ATOM     19  C   UNL     1       1.033   4.903   4.790  1.00  0.00     0.002 C 
BRANCH  19  20
ATOM     20  C   UNL     1       2.409   5.333   5.307  1.00  0.00     0.002 C 
BRANCH  20  21
ATOM     21  C   UNL     1       3.497   5.429   4.236  1.00  0.00     0.021 C 
BRANCH  21  22
ATOM     22  C   UNL     1       3.204   6.430   3.123  1.00  0.00     0.116 C 
BRANCH  22  23
ATOM     23  N   UNL     1       3.129   7.797   3.617  1.00  0.00    -0.352 N 
ATOM     24  C   UNL     1       3.815   8.911   3.204  1.00  0.00     0.251 C 
ATOM     25  H   UNL     1       2.494   7.943   4.355  1.00  0.00     0.163 HD
ATOM     26  O   UNL     1       3.769   9.947   3.865  1.00  0.00    -0.269 OA
BRANCH  24  27
ATOM     27  C   UNL     1       4.630   8.861   1.973  1.00  0.00     0.039 A 
ATOM     28  C   UNL     1       5.909   9.421   1.984  1.00  0.00     0.014 A 
ATOM     29  C   UNL     1       4.134   8.263   0.811  1.00  0.00     0.014 A 
ATOM     30  C   UNL     1       6.716   9.324   0.848  1.00  0.00     0.010 A 
ATOM     31  C   UNL     1       4.966   8.099  -0.292  1.00  0.00     0.010 A 
ATOM     32  C   UNL     1       6.266   8.628  -0.286  1.00  0.00    -0.014 A 
BRANCH  32  33
ATOM     33  C   UNL     1       7.139   8.441  -1.472  1.00  0.00     0.031 A 
ATOM     34  C   UNL     1       6.756   9.039  -2.799  1.00  0.00     0.074 A 
ATOM     35  C   UNL     1       8.252   7.687  -1.369  1.00  0.00     0.049 A 
ATOM     36  N   UNL     1       7.358   8.932  -3.957  1.00  0.00    -0.248 NA
ATOM     37  C   UNL     1       5.525   9.845  -2.834  1.00  0.00     0.031 C 
ATOM     38  C   UNL     1       8.723   7.030  -0.147  1.00  0.00     0.029 A 
ATOM     39  N   UNL     1       9.190   7.343  -2.311  1.00  0.00    -0.354 N 
ATOM     40  C   UNL     1       6.579   9.652  -4.854  1.00  0.00     0.074 A 
ATOM     41  C   UNL     1       5.431  10.139  -4.122  1.00  0.00     0.031 C 
ATOM     42  C   UNL     1       9.876   6.392  -0.406  1.00  0.00     0.029 A 
ATOM     43  C   UNL     1      10.200   6.551  -1.820  1.00  0.00     0.049 A 
ATOM     44  H   UNL     1       9.143   7.637  -3.249  1.00  0.00     0.167 HD
ATOM     45  C   UNL     1       6.808   9.905  -6.165  1.00  0.00     0.031 A 
ATOM     46  C   UNL     1      11.263   6.005  -2.441  1.00  0.00     0.031 A 
ATOM     47  C   UNL     1       7.948   9.419  -6.895  1.00  0.00     0.049 A 
ATOM     48  C   UNL     1      11.462   6.257  -3.911  1.00  0.00     0.074 A 
ATOM     49  C   UNL     1       8.284   9.646  -8.219  1.00  0.00     0.029 A 
ATOM     50  N   UNL     1       8.938   8.607  -6.365  1.00  0.00    -0.354 N 
ATOM     51  N   UNL     1      10.745   6.985  -4.731  1.00  0.00    -0.248 NA
ATOM     52  C   UNL     1      12.627   5.616  -4.538  1.00  0.00     0.031 C 
ATOM     53  C   UNL     1       9.448   8.927  -8.504  1.00  0.00     0.029 A 
ATOM     54  C   UNL     1       9.873   8.305  -7.341  1.00  0.00     0.049 A 
ATOM     55  H   UNL     1       8.972   8.292  -5.433  1.00  0.00     0.167 HD
ATOM     56  C   UNL     1      11.391   6.920  -5.959  1.00  0.00     0.074 A 
ATOM     57  C   UNL     1      12.567   6.096  -5.771  1.00  0.00     0.031 C 
ATOM     58  C   UNL     1      11.043   7.492  -7.138  1.00  0.00     0.031 A 
BRANCH  45  59
ATOM     59  C   UNL     1       5.802  10.751  -6.896  1.00  0.00    -0.014 A 
ATOM     60  C   UNL     1       5.668  12.121  -6.617  1.00  0.00     0.009 A 
ATOM     61  C   UNL     1       5.013  10.185  -7.910  1.00  0.00     0.009 A 
ATOM     62  C   UNL     1       4.743  12.899  -7.316  1.00  0.00     0.001 A 
ATOM     63  C   UNL     1       4.112  10.973  -8.629  1.00  0.00     0.001 A 
ATOM     64  C   UNL     1       3.971  12.326  -8.325  1.00  0.00     0.000 A 
ENDBRANCH  45  59
BRANCH  46  65
ATOM     65  C   UNL     1      12.232   5.166  -1.685  1.00  0.00    -0.014 A 
ATOM     66  C   UNL     1      13.552   5.602  -1.490  1.00  0.00     0.009 A 
ATOM     67  C   UNL     1      11.855   3.908  -1.188  1.00  0.00     0.009 A 
ATOM     68  C   UNL     1      14.485   4.779  -0.854  1.00  0.00     0.001 A 
ATOM     69  C   UNL     1      12.780   3.102  -0.521  1.00  0.00     0.001 A 
ATOM     70  C   UNL     1      14.097   3.532  -0.367  1.00  0.00     0.000 A 
ENDBRANCH  46  65
BRANCH  58  71
ATOM     71  C   UNL     1      11.971   7.289  -8.303  1.00  0.00    -0.014 A 
ATOM     72  C   UNL     1      12.094   6.042  -8.935  1.00  0.00     0.009 A 
ATOM     73  C   UNL     1      12.705   8.379  -8.800  1.00  0.00     0.009 A 
ATOM     74  C   UNL     1      12.962   5.883 -10.018  1.00  0.00     0.001 A 
ATOM     75  C   UNL     1      13.545   8.224  -9.903  1.00  0.00     0.001 A 
ATOM     76  C   UNL     1      13.681   6.974 -10.505  1.00  0.00     0.000 A 
ENDBRANCH  58  71
ENDBRANCH  32  33
ENDBRANCH  24  27
ENDBRANCH  22  23
ENDBRANCH  21  22
ENDBRANCH  20  21
ENDBRANCH  19  20
ENDBRANCH   1  19
TORSDOF 17
