REMARK SMILES Cc1nn([C@@H](C)C(=O)NCCCCCCNC(=O)c2ccc(-c3c4nc(c(-c5ccccc5)c5ccc([nH]5)c(-c5ccccc5)c5nc(c(-c6ccccc6)c6ccc3[nH]6)C=C5)C=C4)cc2)c(=O)c2cc3cc(F)ccc3n12
REMARK SMILES IDX 13 1 12 2 11 3 10 4 9 5 7 6 8 7 5 9 6 10 4 11 1 12 2 13 3 14
REMARK SMILES IDX 78 15 69 16 77 17 67 18 70 19 71 20 76 21 68 22 72 23 75 24
REMARK SMILES IDX 73 25 74 26 14 27 15 28 16 29 17 30 18 32 19 33 20 34 66 35
REMARK SMILES IDX 21 36 65 37 22 38 23 39 24 40 59 41 25 42 64 43 58 44 60 45
REMARK SMILES IDX 26 46 63 47 57 48 56 49 27 51 49 52 34 53 48 54 35 55 38 56
REMARK SMILES IDX 47 57 61 58 36 59 37 60 46 62 62 63 39 64 28 65 29 66 33 67
REMARK SMILES IDX 30 68 32 69 31 70 50 71 51 72 55 73 52 74 54 75 53 76 40 77
REMARK SMILES IDX 41 78 45 79 42 80 44 81 43 82
REMARK H PARENT 9 8 16 31 60 50 38 61
REMARK Flexibility Score: inf
ROOT
ATOM      1  C   UNL     1      -3.543  -2.883  -7.716  1.00  0.00     0.002 C 
ENDROOT
BRANCH   1   2
ATOM      2  C   UNL     1      -3.576  -2.425  -6.252  1.00  0.00     0.002 C 
BRANCH   2   3
ATOM      3  C   UNL     1      -2.297  -1.731  -5.775  1.00  0.00     0.021 C 
BRANCH   3   4
ATOM      4  C   UNL     1      -2.085  -0.350  -6.403  1.00  0.00     0.116 C 
BRANCH   4   5
ATOM      5  N   UNL     1      -2.586   0.700  -5.541  1.00  0.00    -0.354 N 
ATOM      6  C   UNL     1      -1.976   1.532  -4.656  1.00  0.00     0.244 C 
ATOM      7  O   UNL     1      -2.732   2.315  -4.062  1.00  0.00    -0.273 OA
ATOM      8  H   UNL     1      -3.558   0.839  -5.610  1.00  0.00     0.163 HD
BRANCH   6   9
ATOM      9  C   UNL     1      -0.454   1.580  -4.378  1.00  0.00     0.197 C 
ATOM     10  C   UNL     1       0.379   2.033  -5.573  1.00  0.00     0.044 C 
BRANCH   9  11
ATOM     11  N   UNL     1       0.069   0.425  -3.618  1.00  0.00    -0.214 N 
ATOM     12  C   UNL     1       0.756  -0.129  -0.007  1.00  0.00     0.090 C 
ATOM     13  C   UNL     1       0.547  -0.355  -1.468  1.00  0.00     0.131 A 
ATOM     14  N   UNL     1       0.188   0.631  -2.239  1.00  0.00    -0.155 NA
ATOM     15  N   UNL     1       0.739  -1.652  -1.962  1.00  0.00    -0.291 N 
ATOM     16  C   UNL     1       0.639  -1.861  -3.315  1.00  0.00     0.115 A 
ATOM     17  C   UNL     1       1.012  -2.878  -1.345  1.00  0.00     0.055 A 
ATOM     18  C   UNL     1       0.474  -0.764  -4.229  1.00  0.00     0.291 A 
ATOM     19  C   UNL     1       0.682  -3.209  -3.572  1.00  0.00     0.043 A 
ATOM     20  C   UNL     1       0.898  -3.866  -2.341  1.00  0.00     0.004 A 
ATOM     21  C   UNL     1       1.326  -3.243  -0.020  1.00  0.00     0.030 A 
ATOM     22  O   UNL     1       0.665  -0.905  -5.428  1.00  0.00    -0.265 OA
ATOM     23  C   UNL     1       1.030  -5.226  -2.003  1.00  0.00     0.049 A 
ATOM     24  C   UNL     1       1.487  -4.600   0.286  1.00  0.00     0.041 A 
ATOM     25  C   UNL     1       1.324  -5.568  -0.689  1.00  0.00     0.123 A 
ATOM     26  F   UNL     1       1.467  -6.860  -0.366  1.00  0.00    -0.207 F 
ENDBRANCH   9  11
ENDBRANCH   6   9
ENDBRANCH   4   5
ENDBRANCH   3   4
ENDBRANCH   2   3
ENDBRANCH   1   2
BRANCH   1  27
ATOM     27  C   UNL     1      -2.412  -3.853  -8.084  1.00  0.00     0.021 C 
BRANCH  27  28
ATOM     28  C   UNL     1      -2.364  -5.128  -7.240  1.00  0.00     0.116 C 
BRANCH  28  29
ATOM     29  N   UNL     1      -3.606  -5.874  -7.251  1.00  0.00    -0.352 N 
ATOM     30  C   UNL     1      -4.197  -6.759  -8.108  1.00  0.00     0.251 C 
ATOM     31  H   UNL     1      -4.153  -5.704  -6.450  1.00  0.00     0.163 HD
ATOM     32  O   UNL     1      -5.282  -7.222  -7.744  1.00  0.00    -0.269 OA
BRANCH  30  33
ATOM     33  C   UNL     1      -3.663  -7.164  -9.440  1.00  0.00     0.039 A 
ATOM     34  C   UNL     1      -2.441  -6.773  -9.984  1.00  0.00     0.014 A 
ATOM     35  C   UNL     1      -4.501  -7.987 -10.219  1.00  0.00     0.014 A 
ATOM     36  C   UNL     1      -2.105  -7.113 -11.293  1.00  0.00     0.010 A 
ATOM     37  C   UNL     1      -4.158  -8.354 -11.519  1.00  0.00     0.010 A 
ATOM     38  C   UNL     1      -2.976  -7.876 -12.076  1.00  0.00    -0.014 A 
BRANCH  38  39
ATOM     39  C   UNL     1      -2.587  -8.135 -13.461  1.00  0.00     0.031 A 
ATOM     40  C   UNL     1      -1.283  -8.822 -13.690  1.00  0.00     0.074 A 
ATOM     41  C   UNL     1      -3.348  -7.827 -14.530  1.00  0.00     0.049 A 
ATOM     42  N   UNL     1      -0.248  -8.372 -14.326  1.00  0.00    -0.248 NA
ATOM     43  C   UNL     1      -1.099 -10.162 -13.117  1.00  0.00     0.031 C 
ATOM     44  C   UNL     1      -4.750  -7.409 -14.572  1.00  0.00     0.029 A 
ATOM     45  N   UNL     1      -3.010  -7.920 -15.848  1.00  0.00    -0.354 N 
ATOM     46  C   UNL     1       0.693  -9.399 -14.326  1.00  0.00     0.074 A 
ATOM     47  C   UNL     1       0.137 -10.461 -13.522  1.00  0.00     0.031 C 
ATOM     48  C   UNL     1      -5.204  -7.513 -15.842  1.00  0.00     0.029 A 
ATOM     49  C   UNL     1      -4.087  -7.843 -16.711  1.00  0.00     0.049 A 
ATOM     50  H   UNL     1      -2.082  -8.032 -16.157  1.00  0.00     0.167 HD
ATOM     51  C   UNL     1       1.836  -9.360 -15.067  1.00  0.00     0.031 A 
ATOM     52  C   UNL     1      -4.070  -8.094 -18.040  1.00  0.00     0.031 A 
ATOM     53  C   UNL     1       2.132  -8.045 -15.560  1.00  0.00     0.049 A 
ATOM     54  C   UNL     1      -2.682  -7.929 -18.524  1.00  0.00     0.074 A 
ATOM     55  C   UNL     1       2.453  -6.839 -14.971  1.00  0.00     0.029 A 
ATOM     56  N   UNL     1       1.810  -7.751 -16.862  1.00  0.00    -0.354 N 
ATOM     57  N   UNL     1      -2.067  -6.784 -18.578  1.00  0.00    -0.248 NA
ATOM     58  C   UNL     1      -1.825  -9.100 -18.616  1.00  0.00     0.031 C 
ATOM     59  C   UNL     1       1.838  -5.852 -15.794  1.00  0.00     0.029 A 
ATOM     60  C   UNL     1       1.207  -6.518 -16.848  1.00  0.00     0.049 A 
ATOM     61  H   UNL     1       1.979  -8.314 -17.651  1.00  0.00     0.167 HD
ATOM     62  C   UNL     1      -0.745  -7.075 -18.277  1.00  0.00     0.074 A 
ATOM     63  C   UNL     1      -0.634  -8.521 -18.443  1.00  0.00     0.031 C 
ATOM     64  C   UNL     1       0.059  -6.162 -17.655  1.00  0.00     0.031 A 
BRANCH  51  65
ATOM     65  C   UNL     1       2.597 -10.569 -15.530  1.00  0.00    -0.014 A 
ATOM     66  C   UNL     1       1.986 -11.825 -15.697  1.00  0.00     0.009 A 
ATOM     67  C   UNL     1       3.901 -10.421 -16.036  1.00  0.00     0.009 A 
ATOM     68  C   UNL     1       2.649 -12.889 -16.318  1.00  0.00     0.001 A 
ATOM     69  C   UNL     1       4.553 -11.473 -16.691  1.00  0.00     0.001 A 
ATOM     70  C   UNL     1       3.927 -12.708 -16.829  1.00  0.00     0.000 A 
ENDBRANCH  51  65
BRANCH  52  71
ATOM     71  C   UNL     1      -5.107  -8.791 -18.826  1.00  0.00    -0.014 A 
ATOM     72  C   UNL     1      -5.923  -9.757 -18.208  1.00  0.00     0.009 A 
ATOM     73  C   UNL     1      -5.114  -8.722 -20.226  1.00  0.00     0.009 A 
ATOM     74  C   UNL     1      -6.688 -10.650 -18.961  1.00  0.00     0.001 A 
ATOM     75  C   UNL     1      -5.878  -9.620 -20.982  1.00  0.00     0.001 A 
ATOM     76  C   UNL     1      -6.652 -10.592 -20.350  1.00  0.00     0.000 A 
ENDBRANCH  52  71
BRANCH  64  77
ATOM     77  C   UNL     1      -0.448  -4.743 -17.510  1.00  0.00    -0.014 A 
ATOM     78  C   UNL     1       0.391  -3.681 -17.881  1.00  0.00     0.009 A 
ATOM     79  C   UNL     1      -1.655  -4.433 -16.857  1.00  0.00     0.009 A 
ATOM     80  C   UNL     1       0.036  -2.355 -17.611  1.00  0.00     0.001 A 
ATOM     81  C   UNL     1      -2.024  -3.107 -16.611  1.00  0.00     0.001 A 
ATOM     82  C   UNL     1      -1.174  -2.069 -16.981  1.00  0.00     0.000 A 
ENDBRANCH  64  77
ENDBRANCH  38  39
ENDBRANCH  30  33
ENDBRANCH  28  29
ENDBRANCH  27  28
ENDBRANCH   1  27
TORSDOF 14
