REMARK SMILES CCC[C@@]1(C(=O)NCCCCCCNC(=O)c2ccc(-c3c4nc(c(-c5ccccc5)c5ccc([nH]5)c(-c5ccccc5)c5nc(c(-c6ccccc6)c6ccc3[nH]6)C=C5)C=C4)cc2)CCN(C(=O)[C@@H]2CC[NH2+][C@@H]2C)C1
REMARK SMILES IDX 10 1 9 2 8 3 7 4 5 5 6 6 4 8 65 9 76 10 66 11 67 12 3 13
REMARK SMILES IDX 2 14 1 15 68 16 69 17 70 18 71 19 74 20 72 21 73 22 75 23
REMARK SMILES IDX 11 26 12 27 13 28 14 29 15 30 16 32 17 33 18 34 64 35 19 36
REMARK SMILES IDX 63 37 20 38 21 39 22 40 57 41 23 42 62 43 56 44 58 45 24 46
REMARK SMILES IDX 61 47 55 48 54 49 25 51 47 52 32 53 46 54 33 55 36 56 45 57
REMARK SMILES IDX 59 58 34 59 35 60 44 62 60 63 37 64 26 65 27 66 31 67 28 68
REMARK SMILES IDX 30 69 29 70 48 71 49 72 53 73 50 74 52 75 51 76 38 77 39 78
REMARK SMILES IDX 43 79 40 80 42 81 41 82
REMARK H PARENT 7 7 73 24 73 25 14 31 58 50 36 61
REMARK Flexibility Score: inf
ROOT
ATOM      1  C   UNL     1       2.637  -0.828  -2.255  1.00  0.00     0.002 C 
ENDROOT
BRANCH   1   2
ATOM      2  C   UNL     1       2.159   0.168  -1.195  1.00  0.00     0.021 C 
BRANCH   2   3
ATOM      3  C   UNL     1       0.950  -0.299  -0.394  1.00  0.00     0.116 C 
BRANCH   3   4
ATOM      4  N   UNL     1       1.289  -1.298   0.590  1.00  0.00    -0.356 N 
ATOM      5  C   UNL     1       1.134  -1.385   1.929  1.00  0.00     0.228 C 
ATOM      6  O   UNL     1       1.407  -2.501   2.396  1.00  0.00    -0.274 OA
ATOM      7  H   UNL     1       1.730  -2.088   0.202  1.00  0.00     0.163 HD
BRANCH   5   8
ATOM      8  C   UNL     1       0.574  -0.290   2.862  1.00  0.00     0.068 C 
ATOM      9  C   UNL     1      -0.940  -0.558   3.032  1.00  0.00     0.040 C 
ATOM     10  C   UNL     1       0.577   1.184   2.429  1.00  0.00     0.136 C 
ATOM     11  C   UNL     1      -1.608   0.307   1.977  1.00  0.00     0.120 C 
ATOM     12  N   UNL     1      -0.751   1.471   1.873  1.00  0.00    -0.341 N 
BRANCH   8  13
ATOM     13  C   UNL     1       1.277  -0.438   4.249  1.00  0.00     0.018 C 
BRANCH  13  14
ATOM     14  C   UNL     1       2.813  -0.539   4.268  1.00  0.00    -0.002 C 
ATOM     15  C   UNL     1       3.563   0.475   3.423  1.00  0.00     0.004 C 
ENDBRANCH  13  14
ENDBRANCH   8  13
BRANCH  12  16
ATOM     16  C   UNL     1      -1.006   2.692   1.294  1.00  0.00     0.231 C 
ATOM     17  O   UNL     1      -0.108   3.546   1.260  1.00  0.00    -0.274 OA
BRANCH  16  18
ATOM     18  C   UNL     1      -2.351   3.050   0.644  1.00  0.00     0.142 C 
ATOM     19  C   UNL     1      -3.590   2.894   1.521  1.00  0.00     0.081 C 
ATOM     20  C   UNL     1      -2.732   2.361  -0.663  1.00  0.00     0.192 C 
ATOM     21  C   UNL     1      -4.464   1.855   0.821  1.00  0.00     0.261 C 
ATOM     22  N   UNL     1      -3.644   1.290  -0.250  1.00  0.00    -0.343 N 
ATOM     23  C   UNL     1      -1.606   1.852  -1.546  1.00  0.00     0.076 C 
ATOM     24  H   UNL     1      -4.232   1.002  -1.033  1.00  0.00     0.346 HD
ATOM     25  H   UNL     1      -3.136   0.463   0.063  1.00  0.00     0.346 HD
ENDBRANCH  16  18
ENDBRANCH  12  16
ENDBRANCH   5   8
ENDBRANCH   3   4
ENDBRANCH   2   3
ENDBRANCH   1   2
BRANCH   1  26
ATOM     26  C   UNL     1       1.573  -1.285  -3.261  1.00  0.00     0.002 C 
BRANCH  26  27
ATOM     27  C   UNL     1       0.785  -0.167  -3.948  1.00  0.00     0.021 C 
BRANCH  27  28
ATOM     28  C   UNL     1       1.630   0.875  -4.671  1.00  0.00     0.116 C 
BRANCH  28  29
ATOM     29  N   UNL     1       2.432   0.288  -5.730  1.00  0.00    -0.352 N 
ATOM     30  C   UNL     1       2.478   0.592  -7.067  1.00  0.00     0.251 C 
ATOM     31  H   UNL     1       3.034  -0.437  -5.445  1.00  0.00     0.163 HD
ATOM     32  O   UNL     1       3.075  -0.144  -7.845  1.00  0.00    -0.269 OA
BRANCH  30  33
ATOM     33  C   UNL     1       1.788   1.796  -7.578  1.00  0.00     0.039 A 
ATOM     34  C   UNL     1       1.039   1.689  -8.752  1.00  0.00     0.014 A 
ATOM     35  C   UNL     1       1.889   3.024  -6.918  1.00  0.00     0.014 A 
ATOM     36  C   UNL     1       0.337   2.798  -9.229  1.00  0.00     0.010 A 
ATOM     37  C   UNL     1       1.134   4.110  -7.356  1.00  0.00     0.010 A 
ATOM     38  C   UNL     1       0.348   4.006  -8.513  1.00  0.00    -0.014 A 
BRANCH  38  39
ATOM     39  C   UNL     1      -0.485   5.156  -8.945  1.00  0.00     0.031 A 
ATOM     40  C   UNL     1       0.154   6.441  -9.392  1.00  0.00     0.074 A 
ATOM     41  C   UNL     1      -1.827   5.059  -8.876  1.00  0.00     0.049 A 
ATOM     42  N   UNL     1      -0.416   7.559  -9.765  1.00  0.00    -0.248 NA
ATOM     43  C   UNL     1       1.625   6.483  -9.402  1.00  0.00     0.031 C 
ATOM     44  C   UNL     1      -2.568   3.880  -8.422  1.00  0.00     0.029 A 
ATOM     45  N   UNL     1      -2.807   5.971  -9.180  1.00  0.00    -0.354 N 
ATOM     46  C   UNL     1       0.622   8.439 -10.041  1.00  0.00     0.074 A 
ATOM     47  C   UNL     1       1.855   7.742  -9.749  1.00  0.00     0.031 C 
ATOM     48  C   UNL     1      -3.884   4.131  -8.504  1.00  0.00     0.029 A 
ATOM     49  C   UNL     1      -4.080   5.500  -8.970  1.00  0.00     0.049 A 
ATOM     50  H   UNL     1      -2.615   6.876  -9.517  1.00  0.00     0.167 HD
ATOM     51  C   UNL     1       0.554   9.708 -10.509  1.00  0.00     0.031 A 
ATOM     52  C   UNL     1      -5.273   6.104  -9.122  1.00  0.00     0.031 A 
ATOM     53  C   UNL     1      -0.674  10.401 -10.797  1.00  0.00     0.049 A 
ATOM     54  C   UNL     1      -5.320   7.524  -9.611  1.00  0.00     0.074 A 
ATOM     55  C   UNL     1      -0.844  11.665 -11.336  1.00  0.00     0.029 A 
ATOM     56  N   UNL     1      -1.942   9.895 -10.558  1.00  0.00    -0.354 N 
ATOM     57  N   UNL     1      -4.330   8.314  -9.946  1.00  0.00    -0.248 NA
ATOM     58  C   UNL     1      -6.651   8.132  -9.748  1.00  0.00     0.031 C 
ATOM     59  C   UNL     1      -2.214  11.948 -11.362  1.00  0.00     0.029 A 
ATOM     60  C   UNL     1      -2.899  10.836 -10.899  1.00  0.00     0.049 A 
ATOM     61  H   UNL     1      -2.134   8.998 -10.199  1.00  0.00     0.167 HD
ATOM     62  C   UNL     1      -4.917   9.507 -10.348  1.00  0.00     0.074 A 
ATOM     63  C   UNL     1      -6.350   9.326 -10.238  1.00  0.00     0.031 C 
ATOM     64  C   UNL     1      -4.321  10.650 -10.768  1.00  0.00     0.031 A 
BRANCH  51  65
ATOM     65  C   UNL     1       1.852  10.439 -10.723  1.00  0.00    -0.014 A 
ATOM     66  C   UNL     1       2.737  10.071 -11.750  1.00  0.00     0.009 A 
ATOM     67  C   UNL     1       2.177  11.536  -9.911  1.00  0.00     0.009 A 
ATOM     68  C   UNL     1       3.938  10.761 -11.931  1.00  0.00     0.001 A 
ATOM     69  C   UNL     1       3.363  12.244 -10.114  1.00  0.00     0.001 A 
ATOM     70  C   UNL     1       4.247  11.850 -11.117  1.00  0.00     0.000 A 
ENDBRANCH  51  65
BRANCH  52  71
ATOM     71  C   UNL     1      -6.523   5.365  -8.805  1.00  0.00    -0.014 A 
ATOM     72  C   UNL     1      -7.401   4.975  -9.827  1.00  0.00     0.009 A 
ATOM     73  C   UNL     1      -6.843   5.043  -7.476  1.00  0.00     0.009 A 
ATOM     74  C   UNL     1      -8.584   4.296  -9.523  1.00  0.00     0.001 A 
ATOM     75  C   UNL     1      -8.011   4.338  -7.178  1.00  0.00     0.001 A 
ATOM     76  C   UNL     1      -8.884   3.973  -8.201  1.00  0.00     0.000 A 
ENDBRANCH  52  71
BRANCH  64  77
ATOM     77  C   UNL     1      -5.221  11.792 -11.150  1.00  0.00    -0.014 A 
ATOM     78  C   UNL     1      -5.926  12.517 -10.176  1.00  0.00     0.009 A 
ATOM     79  C   UNL     1      -5.333  12.174 -12.496  1.00  0.00     0.009 A 
ATOM     80  C   UNL     1      -6.750  13.582 -10.548  1.00  0.00     0.001 A 
ATOM     81  C   UNL     1      -6.132  13.258 -12.861  1.00  0.00     0.001 A 
ATOM     82  C   UNL     1      -6.847  13.955 -11.888  1.00  0.00     0.000 A 
ENDBRANCH  64  77
ENDBRANCH  38  39
ENDBRANCH  30  33
ENDBRANCH  28  29
ENDBRANCH  27  28
ENDBRANCH  26  27
ENDBRANCH   1  26
TORSDOF 17
