REMARK SMILES C[C@@H](C(=O)NCCCCCCNC(=O)c1ccc(-c2c3nc(c(-c4ccccc4)c4ccc([nH]4)c(-c4ccccc4)c4nc(c(-c5ccccc5)c5ccc2[nH]5)C=C4)C=C3)cc1)c1ccc(C[C@H]2CCC[C@@H]2O)cc1Br
REMARK SMILES IDX 7 1 6 2 5 3 3 4 4 5 2 7 1 8 63 9 64 10 75 11 65 12 74 13
REMARK SMILES IDX 76 14 66 15 67 16 68 17 69 18 72 19 70 20 71 21 73 22 8 24
REMARK SMILES IDX 9 25 10 26 11 27 12 28 13 29 14 31 15 32 16 33 62 34 17 35
REMARK SMILES IDX 61 36 18 37 19 38 20 39 55 40 21 41 60 42 54 43 56 44 22 45
REMARK SMILES IDX 59 46 53 47 52 48 23 50 45 51 30 52 44 53 31 54 34 55 43 56
REMARK SMILES IDX 57 57 32 58 33 59 42 61 58 62 35 63 24 64 25 65 29 66 26 67
REMARK SMILES IDX 28 68 27 69 46 70 47 71 51 72 48 73 50 74 49 75 36 76 37 77
REMARK SMILES IDX 41 78 38 79 40 80 39 81
REMARK H PARENT 5 6 73 23 12 30 56 49 34 60
REMARK Flexibility Score: inf
ROOT
ATOM      1  C   UNL     1       4.316   1.286  -0.883  1.00  0.00     0.021 C 
ENDROOT
BRANCH   1   2
ATOM      2  C   UNL     1       3.367   2.059   0.041  1.00  0.00     0.116 C 
BRANCH   2   3
ATOM      3  N   UNL     1       2.238   2.560  -0.718  1.00  0.00    -0.356 N 
ATOM      4  C   UNL     1       1.009   1.995  -0.914  1.00  0.00     0.227 C 
ATOM      5  O   UNL     1       0.386   2.365  -1.911  1.00  0.00    -0.274 OA
ATOM      6  H   UNL     1       2.377   3.432  -1.155  1.00  0.00     0.163 HD
BRANCH   4   7
ATOM      7  C   UNL     1       0.446   0.982   0.115  1.00  0.00     0.106 C 
ATOM      8  C   UNL     1       1.090  -0.371  -0.178  1.00  0.00     0.023 C 
BRANCH   7   9
ATOM      9  C   UNL     1      -1.094   1.039   0.220  1.00  0.00    -0.022 A 
ATOM     10  C   UNL     1      -1.674   2.333   0.169  1.00  0.00     0.006 A 
ATOM     11  C   UNL     1      -1.993  -0.028   0.418  1.00  0.00     0.022 A 
ATOM     12  C   UNL     1      -3.051   2.553   0.239  1.00  0.00     0.004 A 
ATOM     13  C   UNL     1      -3.380   0.206   0.518  1.00  0.00     0.019 A 
ATOM     14  Br  UNL     1      -1.547  -1.865   0.639  1.00  0.00    -0.051 Br
ATOM     15  C   UNL     1      -3.921   1.491   0.445  1.00  0.00    -0.047 A 
BRANCH  15  16
ATOM     16  C   UNL     1      -5.402   1.706   0.629  1.00  0.00     0.041 C 
BRANCH  16  17
ATOM     17  C   UNL     1      -5.836   2.209   2.016  1.00  0.00     0.022 C 
ATOM     18  C   UNL     1      -5.305   1.425   3.229  1.00  0.00     0.007 C 
ATOM     19  C   UNL     1      -5.484   3.667   2.321  1.00  0.00     0.117 C 
ATOM     20  C   UNL     1      -5.045   2.466   4.323  1.00  0.00     0.003 C 
ATOM     21  C   UNL     1      -5.684   3.752   3.825  1.00  0.00     0.032 C 
BRANCH  19  22
ATOM     22  O   UNL     1      -6.339   4.552   1.624  1.00  0.00    -0.393 OA
ATOM     23  H   UNL     1      -7.261   4.359   1.853  1.00  0.00     0.210 HD
ENDBRANCH  19  22
ENDBRANCH  16  17
ENDBRANCH  15  16
ENDBRANCH   7   9
ENDBRANCH   4   7
ENDBRANCH   2   3
ENDBRANCH   1   2
BRANCH   1  24
ATOM     24  C   UNL     1       5.055   2.161  -1.903  1.00  0.00     0.002 C 
BRANCH  24  25
ATOM     25  C   UNL     1       6.023   3.179  -1.297  1.00  0.00     0.002 C 
BRANCH  25  26
ATOM     26  C   UNL     1       7.078   2.588  -0.358  1.00  0.00     0.021 C 
BRANCH  26  27
ATOM     27  C   UNL     1       7.937   1.482  -0.967  1.00  0.00     0.116 C 
BRANCH  27  28
ATOM     28  N   UNL     1       8.714   1.951  -2.101  1.00  0.00    -0.352 N 
ATOM     29  C   UNL     1      10.058   1.848  -2.344  1.00  0.00     0.251 C 
ATOM     30  H   UNL     1       8.197   2.412  -2.801  1.00  0.00     0.163 HD
ATOM     31  O   UNL     1      10.561   2.475  -3.276  1.00  0.00    -0.269 OA
BRANCH  29  32
ATOM     32  C   UNL     1      10.917   1.005  -1.485  1.00  0.00     0.039 A 
ATOM     33  C   UNL     1      12.167   1.499  -1.103  1.00  0.00     0.014 A 
ATOM     34  C   UNL     1      10.521  -0.277  -1.088  1.00  0.00     0.014 A 
ATOM     35  C   UNL     1      12.998   0.730  -0.286  1.00  0.00     0.010 A 
ATOM     36  C   UNL     1      11.325  -1.018  -0.222  1.00  0.00     0.010 A 
ATOM     37  C   UNL     1      12.573  -0.524   0.183  1.00  0.00    -0.014 A 
BRANCH  37  38
ATOM     38  C   UNL     1      13.432  -1.312   1.102  1.00  0.00     0.031 A 
ATOM     39  C   UNL     1      14.039  -2.615   0.660  1.00  0.00     0.074 A 
ATOM     40  C   UNL     1      13.649  -0.859   2.352  1.00  0.00     0.049 A 
ATOM     41  N   UNL     1      14.831  -3.421   1.323  1.00  0.00    -0.248 NA
ATOM     42  C   UNL     1      13.701  -3.083  -0.693  1.00  0.00     0.031 C 
ATOM     43  C   UNL     1      13.080   0.364   2.921  1.00  0.00     0.029 A 
ATOM     44  N   UNL     1      14.413  -1.375   3.370  1.00  0.00    -0.354 N 
ATOM     45  C   UNL     1      15.085  -4.487   0.469  1.00  0.00     0.074 A 
ATOM     46  C   UNL     1      14.322  -4.253  -0.738  1.00  0.00     0.031 C 
ATOM     47  C   UNL     1      13.536   0.520   4.174  1.00  0.00     0.029 A 
ATOM     48  C   UNL     1      14.407  -0.603   4.506  1.00  0.00     0.049 A 
ATOM     49  H   UNL     1      14.916  -2.217   3.292  1.00  0.00     0.167 HD
ATOM     50  C   UNL     1      15.899  -5.553   0.661  1.00  0.00     0.031 A 
ATOM     51  C   UNL     1      15.037  -0.776   5.683  1.00  0.00     0.031 A 
ATOM     52  C   UNL     1      16.659  -5.791   1.859  1.00  0.00     0.049 A 
ATOM     53  C   UNL     1      15.936  -1.966   5.868  1.00  0.00     0.074 A 
ATOM     54  C   UNL     1      17.535  -6.828   2.134  1.00  0.00     0.029 A 
ATOM     55  N   UNL     1      16.635  -4.980   2.982  1.00  0.00    -0.354 N 
ATOM     56  N   UNL     1      16.213  -2.931   5.026  1.00  0.00    -0.248 NA
ATOM     57  C   UNL     1      16.623  -2.078   7.162  1.00  0.00     0.031 C 
ATOM     58  C   UNL     1      18.012  -6.663   3.439  1.00  0.00     0.029 A 
ATOM     59  C   UNL     1      17.470  -5.499   3.958  1.00  0.00     0.049 A 
ATOM     60  H   UNL     1      16.103  -4.157   3.073  1.00  0.00     0.167 HD
ATOM     61  C   UNL     1      17.121  -3.753   5.680  1.00  0.00     0.074 A 
ATOM     62  C   UNL     1      17.367  -3.159   6.978  1.00  0.00     0.031 C 
ATOM     63  C   UNL     1      17.697  -4.901   5.247  1.00  0.00     0.031 A 
BRANCH  50  64
ATOM     64  C   UNL     1      16.014  -6.545  -0.463  1.00  0.00    -0.014 A 
ATOM     65  C   UNL     1      16.709  -6.221  -1.640  1.00  0.00     0.009 A 
ATOM     66  C   UNL     1      15.465  -7.829  -0.330  1.00  0.00     0.009 A 
ATOM     67  C   UNL     1      16.825  -7.154  -2.673  1.00  0.00     0.001 A 
ATOM     68  C   UNL     1      15.605  -8.768  -1.353  1.00  0.00     0.001 A 
ATOM     69  C   UNL     1      16.277  -8.428  -2.526  1.00  0.00     0.000 A 
ENDBRANCH  50  64
BRANCH  51  70
ATOM     70  C   UNL     1      14.853   0.211   6.778  1.00  0.00    -0.014 A 
ATOM     71  C   UNL     1      15.898   1.072   7.147  1.00  0.00     0.009 A 
ATOM     72  C   UNL     1      13.634   0.285   7.469  1.00  0.00     0.009 A 
ATOM     73  C   UNL     1      15.736   1.966   8.208  1.00  0.00     0.001 A 
ATOM     74  C   UNL     1      13.466   1.200   8.511  1.00  0.00     0.001 A 
ATOM     75  C   UNL     1      14.519   2.031   8.886  1.00  0.00     0.000 A 
ENDBRANCH  51  70
BRANCH  63  76
ATOM     76  C   UNL     1      18.662  -5.572   6.181  1.00  0.00    -0.014 A 
ATOM     77  C   UNL     1      18.214  -6.238   7.333  1.00  0.00     0.009 A 
ATOM     78  C   UNL     1      20.036  -5.551   5.898  1.00  0.00     0.009 A 
ATOM     79  C   UNL     1      19.128  -6.835   8.203  1.00  0.00     0.001 A 
ATOM     80  C   UNL     1      20.945  -6.172   6.756  1.00  0.00     0.001 A 
ATOM     81  C   UNL     1      20.491  -6.803   7.913  1.00  0.00     0.000 A 
ENDBRANCH  63  76
ENDBRANCH  37  38
ENDBRANCH  29  32
ENDBRANCH  27  28
ENDBRANCH  26  27
ENDBRANCH  25  26
ENDBRANCH  24  25
ENDBRANCH   1  24
TORSDOF 17
