REMARK SMILES Cc1ccc(-c2cnnc(-n3nc(C)c4c3NC(=O)C[C@@H]4c3ccc(C(=O)NCCCCCCNC(=O)c4ccc(-c5c6nc(c(-c7ccccc7)c7ccc([nH]7)c(-c7ccccc7)c7nc(c(-c8ccccc8)c8ccc5[nH]8)C=C7)C=C6)cc4)cc3)n2)cc1
REMARK SMILES IDX 31 1 30 2 29 3 28 4 26 5 27 6 25 8 22 9 23 10 87 11 24 12
REMARK SMILES IDX 86 13 21 14 11 15 12 16 16 17 13 18 15 19 17 20 14 21 18 22
REMARK SMILES IDX 20 24 19 25 10 26 6 27 7 28 88 29 8 30 9 31 5 32 1 33 2 34
REMARK SMILES IDX 3 35 90 36 4 37 89 38 32 39 33 40 34 41 35 42 36 43 37 45
REMARK SMILES IDX 38 46 39 47 85 48 40 49 84 50 41 51 42 52 43 53 78 54 44 55
REMARK SMILES IDX 83 56 77 57 79 58 45 59 82 60 76 61 75 62 46 64 68 65 53 66
REMARK SMILES IDX 67 67 54 68 57 69 66 70 80 71 55 72 56 73 65 75 81 76 58 77
REMARK SMILES IDX 47 78 48 79 52 80 49 81 51 82 50 83 69 84 70 85 74 86 71 87
REMARK SMILES IDX 73 88 72 89 59 90 60 91 64 92 61 93 63 94 62 95
REMARK H PARENT 28 7 17 23 35 44 79 63 57 74
REMARK Flexibility Score: inf
ROOT
ATOM      1  C   UNL     1     -12.552   7.891  -6.220  1.00  0.00     0.002 C 
ENDROOT
BRANCH   1   2
ATOM      2  C   UNL     1     -11.447   6.887  -5.862  1.00  0.00     0.021 C 
BRANCH   2   3
ATOM      3  C   UNL     1     -11.702   5.470  -6.378  1.00  0.00     0.116 C 
BRANCH   3   4
ATOM      4  N   UNL     1     -11.559   5.404  -7.825  1.00  0.00    -0.352 N 
ATOM      5  C   UNL     1     -10.656   4.738  -8.617  1.00  0.00     0.251 C 
ATOM      6  O   UNL     1     -10.820   4.711  -9.833  1.00  0.00    -0.269 OA
ATOM      7  H   UNL     1     -12.226   5.929  -8.323  1.00  0.00     0.163 HD
BRANCH   5   8
ATOM      8  C   UNL     1      -9.529   3.988  -8.021  1.00  0.00     0.039 A 
ATOM      9  C   UNL     1      -7.699   2.338  -6.680  1.00  0.00    -0.040 A 
ATOM     10  C   UNL     1      -8.318   1.905  -7.868  1.00  0.00     0.005 A 
ATOM     11  C   UNL     1      -7.865   3.678  -6.302  1.00  0.00     0.005 A 
ATOM     12  C   UNL     1      -9.223   2.728  -8.539  1.00  0.00     0.014 A 
ATOM     13  C   UNL     1      -8.782   4.493  -6.960  1.00  0.00     0.014 A 
BRANCH   9  14
ATOM     14  C   UNL     1      -6.937   1.313  -5.866  1.00  0.00     0.064 C 
ATOM     15  N   UNL     1      -5.816   2.113  -2.522  1.00  0.00    -0.180 N 
ATOM     16  N   UNL     1      -7.104   2.506  -2.318  1.00  0.00    -0.168 NA
ATOM     17  C   UNL     1      -5.572   2.093  -3.885  1.00  0.00     0.143 A 
ATOM     18  C   UNL     1      -7.731   2.175  -3.451  1.00  0.00     0.066 A 
ATOM     19  C   UNL     1      -6.797   1.780  -4.452  1.00  0.00     0.026 A 
ATOM     20  N   UNL     1      -4.475   2.345  -4.688  1.00  0.00    -0.310 N 
ATOM     21  C   UNL     1      -9.195   2.407  -3.522  1.00  0.00     0.069 C 
ATOM     22  C   UNL     1      -4.578   2.052  -6.093  1.00  0.00     0.226 C 
ATOM     23  H   UNL     1      -3.645   2.714  -4.308  1.00  0.00     0.171 HD
ATOM     24  C   UNL     1      -5.571   0.975  -6.461  1.00  0.00     0.113 C 
ATOM     25  O   UNL     1      -3.815   2.605  -6.848  1.00  0.00    -0.275 OA
BRANCH  15  26
ATOM     26  C   UNL     1      -5.119   1.393  -1.503  1.00  0.00     0.272 A 
ATOM     27  C   UNL     1      -3.300   0.334  -0.618  1.00  0.00     0.095 A 
ATOM     28  C   UNL     1      -4.122  -0.278   0.314  1.00  0.00     0.164 A 
ATOM     29  N   UNL     1      -3.793   1.149  -1.597  1.00  0.00    -0.208 NA
ATOM     30  N   UNL     1      -5.436  -0.032   0.341  1.00  0.00    -0.153 NA
ATOM     31  N   UNL     1      -5.927   0.849  -0.553  1.00  0.00    -0.109 NA
BRANCH  27  32
ATOM     32  C   UNL     1      -1.841   0.221  -0.499  1.00  0.00     0.002 A 
ATOM     33  C   UNL     1       2.445  -0.034   0.073  1.00  0.00     0.044 C 
ATOM     34  C   UNL     1       0.957   0.061  -0.098  1.00  0.00    -0.051 A 
ATOM     35  C   UNL     1       0.184  -1.102  -0.174  1.00  0.00     0.004 A 
ATOM     36  C   UNL     1       0.326   1.303  -0.205  1.00  0.00     0.004 A 
ATOM     37  C   UNL     1      -1.199  -1.023  -0.369  1.00  0.00     0.011 A 
ATOM     38  C   UNL     1      -1.055   1.380  -0.407  1.00  0.00     0.011 A 
ENDBRANCH  27  32
ENDBRANCH  15  26
ENDBRANCH   9  14
ENDBRANCH   5   8
ENDBRANCH   3   4
ENDBRANCH   2   3
ENDBRANCH   1   2
BRANCH   1  39
ATOM     39  C   UNL     1     -13.971   7.508  -5.774  1.00  0.00     0.002 C 
BRANCH  39  40
ATOM     40  C   UNL     1     -14.122   7.157  -4.295  1.00  0.00     0.021 C 
BRANCH  40  41
ATOM     41  C   UNL     1     -13.969   8.353  -3.377  1.00  0.00     0.116 C 
BRANCH  41  42
ATOM     42  N   UNL     1     -15.158   9.189  -3.317  1.00  0.00    -0.352 N 
ATOM     43  C   UNL     1     -15.488  10.237  -2.482  1.00  0.00     0.251 C 
ATOM     44  H   UNL     1     -15.845   8.968  -3.986  1.00  0.00     0.163 HD
ATOM     45  O   UNL     1     -16.637  10.673  -2.512  1.00  0.00    -0.269 OA
BRANCH  43  46
ATOM     46  C   UNL     1     -14.444  10.981  -1.726  1.00  0.00     0.039 A 
ATOM     47  C   UNL     1     -14.670  12.357  -1.552  1.00  0.00     0.014 A 
ATOM     48  C   UNL     1     -13.155  10.482  -1.638  1.00  0.00     0.014 A 
ATOM     49  C   UNL     1     -13.603  13.236  -1.651  1.00  0.00     0.010 A 
ATOM     50  C   UNL     1     -12.131  11.327  -1.949  1.00  0.00     0.010 A 
ATOM     51  C   UNL     1     -12.373  12.697  -1.995  1.00  0.00    -0.014 A 
BRANCH  51  52
ATOM     52  C   UNL     1     -11.190  13.451  -2.314  1.00  0.00     0.031 A 
ATOM     53  C   UNL     1     -10.258  13.681  -1.200  1.00  0.00     0.074 A 
ATOM     54  C   UNL     1     -10.924  13.698  -3.613  1.00  0.00     0.049 A 
ATOM     55  N   UNL     1      -9.418  14.648  -1.159  1.00  0.00    -0.248 NA
ATOM     56  C   UNL     1     -10.247  12.866   0.021  1.00  0.00     0.031 C 
ATOM     57  C   UNL     1      -9.658  14.068  -4.230  1.00  0.00     0.029 A 
ATOM     58  N   UNL     1     -11.827  13.801  -4.658  1.00  0.00    -0.354 N 
ATOM     59  C   UNL     1      -8.541  14.362  -0.137  1.00  0.00     0.074 A 
ATOM     60  C   UNL     1      -9.177  13.348   0.660  1.00  0.00     0.031 C 
ATOM     61  C   UNL     1      -9.898  14.595  -5.447  1.00  0.00     0.029 A 
ATOM     62  C   UNL     1     -11.342  14.716  -5.595  1.00  0.00     0.049 A 
ATOM     63  H   UNL     1     -12.675  13.307  -4.729  1.00  0.00     0.167 HD
ATOM     64  C   UNL     1      -7.284  14.869  -0.213  1.00  0.00     0.031 A 
ATOM     65  C   UNL     1     -11.995  15.904  -5.800  1.00  0.00     0.031 A 
ATOM     66  C   UNL     1      -7.142  15.663  -1.427  1.00  0.00     0.049 A 
ATOM     67  C   UNL     1     -11.185  17.080  -5.297  1.00  0.00     0.074 A 
ATOM     68  C   UNL     1      -6.648  15.335  -2.679  1.00  0.00     0.029 A 
ATOM     69  N   UNL     1      -7.901  16.812  -1.578  1.00  0.00    -0.354 N 
ATOM     70  N   UNL     1     -10.325  17.000  -4.316  1.00  0.00    -0.248 NA
ATOM     71  C   UNL     1     -11.240  18.415  -5.886  1.00  0.00     0.031 C 
ATOM     72  C   UNL     1      -7.161  16.279  -3.602  1.00  0.00     0.029 A 
ATOM     73  C   UNL     1      -7.944  17.182  -2.905  1.00  0.00     0.049 A 
ATOM     74  H   UNL     1      -8.344  17.295  -0.844  1.00  0.00     0.167 HD
ATOM     75  C   UNL     1      -9.679  18.201  -4.183  1.00  0.00     0.074 A 
ATOM     76  C   UNL     1     -10.309  19.065  -5.165  1.00  0.00     0.031 C 
ATOM     77  C   UNL     1      -8.649  18.386  -3.308  1.00  0.00     0.031 A 
BRANCH  64  78
ATOM     78  C   UNL     1      -6.102  14.409   0.593  1.00  0.00    -0.014 A 
ATOM     79  C   UNL     1      -4.813  14.641   0.073  1.00  0.00     0.009 A 
ATOM     80  C   UNL     1      -6.162  13.744   1.827  1.00  0.00     0.009 A 
ATOM     81  C   UNL     1      -3.655  14.194   0.713  1.00  0.00     0.001 A 
ATOM     82  C   UNL     1      -5.004  13.280   2.470  1.00  0.00     0.001 A 
ATOM     83  C   UNL     1      -3.751  13.502   1.910  1.00  0.00     0.000 A 
ENDBRANCH  64  78
BRANCH  65  84
ATOM     84  C   UNL     1     -13.479  15.763  -5.669  1.00  0.00    -0.014 A 
ATOM     85  C   UNL     1     -14.148  15.031  -6.673  1.00  0.00     0.009 A 
ATOM     86  C   UNL     1     -14.089  15.883  -4.410  1.00  0.00     0.009 A 
ATOM     87  C   UNL     1     -15.284  14.276  -6.365  1.00  0.00     0.001 A 
ATOM     88  C   UNL     1     -15.236  15.133  -4.114  1.00  0.00     0.001 A 
ATOM     89  C   UNL     1     -15.797  14.289  -5.072  1.00  0.00     0.000 A 
ENDBRANCH  65  84
BRANCH  77  90
ATOM     90  C   UNL     1      -8.117  19.710  -2.816  1.00  0.00    -0.014 A 
ATOM     91  C   UNL     1      -8.783  20.929  -2.969  1.00  0.00     0.009 A 
ATOM     92  C   UNL     1      -6.946  19.728  -2.018  1.00  0.00     0.009 A 
ATOM     93  C   UNL     1      -8.277  22.109  -2.408  1.00  0.00     0.001 A 
ATOM     94  C   UNL     1      -6.476  20.886  -1.401  1.00  0.00     0.001 A 
ATOM     95  C   UNL     1      -7.133  22.085  -1.615  1.00  0.00     0.000 A 
ENDBRANCH  77  90
ENDBRANCH  51  52
ENDBRANCH  43  46
ENDBRANCH  41  42
ENDBRANCH  40  41
ENDBRANCH  39  40
ENDBRANCH   1  39
TORSDOF 16
