REMARK SMILES C[C@](NC(=O)c1csc(-c2cccs2)n1)(C(=O)NCCCCCCNC(=O)c1ccc(-c2c3nc(c(-c4ccccc4)c4ccc([nH]4)c(-c4ccccc4)c4nc(c(-c5ccccc5)c5ccc2[nH]5)C=C4)C=C3)cc1)C1CC1
REMARK SMILES IDX 21 1 20 2 19 3 18 4 16 5 17 6 2 8 1 9 76 10 77 11 78 12 3 13
REMARK SMILES IDX 4 14 5 16 6 17 7 18 15 19 8 20 9 21 10 22 11 23 14 24 12 25
REMARK SMILES IDX 13 26 22 27 23 28 24 29 25 30 26 31 27 33 28 34 29 35 75 36
REMARK SMILES IDX 30 37 74 38 31 39 32 40 33 41 68 42 34 43 73 44 67 45 69 46
REMARK SMILES IDX 35 47 72 48 66 49 65 50 36 52 58 53 43 54 57 55 44 56 47 57
REMARK SMILES IDX 56 58 70 59 45 60 46 61 55 63 71 64 48 65 37 66 38 67 42 68
REMARK SMILES IDX 39 69 41 70 40 71 59 72 60 73 64 74 61 75 63 76 62 77 49 78
REMARK SMILES IDX 50 79 54 80 51 81 53 82 52 83
REMARK H PARENT 18 7 3 15 25 32 69 51 47 62
REMARK Flexibility Score: inf
ROOT
ATOM      1  C   UNL     1      -3.072  -0.574  -2.880  1.00  0.00     0.002 C 
ENDROOT
BRANCH   1   2
ATOM      2  C   UNL     1      -1.556  -0.647  -2.631  1.00  0.00     0.021 C 
BRANCH   2   3
ATOM      3  C   UNL     1      -0.944   0.640  -2.079  1.00  0.00     0.116 C 
BRANCH   3   4
ATOM      4  N   UNL     1      -1.566   0.970  -0.816  1.00  0.00    -0.354 N 
ATOM      5  C   UNL     1      -1.095   1.339   0.398  1.00  0.00     0.245 C 
ATOM      6  O   UNL     1      -1.986   1.623   1.211  1.00  0.00    -0.272 OA
ATOM      7  H   UNL     1      -2.548   0.914  -0.846  1.00  0.00     0.163 HD
BRANCH   5   8
ATOM      8  C   UNL     1       0.441   1.629   0.707  1.00  0.00     0.119 C 
ATOM      9  C   UNL     1       0.605   3.013   0.047  1.00  0.00     0.046 C 
BRANCH   8  10
ATOM     10  C   UNL     1       0.560   1.577   2.241  1.00  0.00     0.024 C 
ATOM     11  C   UNL     1       1.816   1.352   3.054  1.00  0.00     0.007 C 
ATOM     12  C   UNL     1       1.160   2.704   3.046  1.00  0.00     0.007 C 
ENDBRANCH   8  10
BRANCH   8  13
ATOM     13  N   UNL     1       1.283   0.575   0.102  1.00  0.00    -0.336 N 
ATOM     14  C   UNL     1       2.554   0.557  -0.436  1.00  0.00     0.271 C 
ATOM     15  H   UNL     1       0.842  -0.304   0.077  1.00  0.00     0.165 HD
ATOM     16  O   UNL     1       2.879  -0.441  -1.083  1.00  0.00    -0.267 OA
BRANCH  14  17
ATOM     17  C   UNL     1       3.474   1.688  -0.279  1.00  0.00     0.139 A 
ATOM     18  C   UNL     1       4.490   2.020  -1.160  1.00  0.00     0.101 A 
ATOM     19  N   UNL     1       3.451   2.494   0.840  1.00  0.00    -0.230 NA
ATOM     20  S   UNL     1       5.306   3.447  -0.629  1.00  0.00    -0.121 S 
ATOM     21  C   UNL     1       4.320   3.473   0.762  1.00  0.00     0.134 A 
BRANCH  21  22
ATOM     22  C   UNL     1       4.341   4.462   1.803  1.00  0.00     0.063 A 
ATOM     23  C   UNL     1       4.396   4.199   3.160  1.00  0.00     0.023 A 
ATOM     24  S   UNL     1       4.044   6.119   1.501  1.00  0.00    -0.141 S 
ATOM     25  C   UNL     1       4.107   5.348   3.951  1.00  0.00     0.012 A 
ATOM     26  C   UNL     1       3.872   6.458   3.172  1.00  0.00     0.065 A 
ENDBRANCH  21  22
ENDBRANCH  14  17
ENDBRANCH   8  13
ENDBRANCH   5   8
ENDBRANCH   3   4
ENDBRANCH   2   3
ENDBRANCH   1   2
BRANCH   1  27
ATOM     27  C   UNL     1      -3.523   0.547  -3.821  1.00  0.00     0.002 C 
BRANCH  27  28
ATOM     28  C   UNL     1      -2.849   0.537  -5.193  1.00  0.00     0.021 C 
BRANCH  28  29
ATOM     29  C   UNL     1      -2.970  -0.783  -5.944  1.00  0.00     0.116 C 
BRANCH  29  30
ATOM     30  N   UNL     1      -4.349  -1.121  -6.253  1.00  0.00    -0.352 N 
ATOM     31  C   UNL     1      -4.894  -1.512  -7.452  1.00  0.00     0.251 C 
ATOM     32  H   UNL     1      -4.980  -1.060  -5.499  1.00  0.00     0.163 HD
ATOM     33  O   UNL     1      -6.106  -1.598  -7.587  1.00  0.00    -0.269 OA
BRANCH  31  34
ATOM     34  C   UNL     1      -3.998  -1.802  -8.591  1.00  0.00     0.039 A 
ATOM     35  C   UNL     1      -4.298  -1.254  -9.840  1.00  0.00     0.014 A 
ATOM     36  C   UNL     1      -2.857  -2.591  -8.421  1.00  0.00     0.014 A 
ATOM     37  C   UNL     1      -3.417  -1.448 -10.906  1.00  0.00     0.010 A 
ATOM     38  C   UNL     1      -1.943  -2.718  -9.462  1.00  0.00     0.010 A 
ATOM     39  C   UNL     1      -2.215  -2.150 -10.716  1.00  0.00    -0.014 A 
BRANCH  39  40
ATOM     40  C   UNL     1      -1.229  -2.296 -11.815  1.00  0.00     0.031 A 
ATOM     41  C   UNL     1      -0.898  -3.659 -12.358  1.00  0.00     0.074 A 
ATOM     42  C   UNL     1      -0.591  -1.208 -12.288  1.00  0.00     0.049 A 
ATOM     43  N   UNL     1      -0.029  -3.991 -13.279  1.00  0.00    -0.248 NA
ATOM     44  C   UNL     1      -1.623  -4.800 -11.776  1.00  0.00     0.031 C 
ATOM     45  C   UNL     1      -0.799   0.166 -11.826  1.00  0.00     0.029 A 
ATOM     46  N   UNL     1       0.367  -1.088 -13.263  1.00  0.00    -0.354 N 
ATOM     47  C   UNL     1      -0.096  -5.375 -13.378  1.00  0.00     0.074 A 
ATOM     48  C   UNL     1      -1.048  -5.825 -12.386  1.00  0.00     0.031 C 
ATOM     49  C   UNL     1      -0.021   0.993 -12.542  1.00  0.00     0.029 A 
ATOM     50  C   UNL     1       0.775   0.206 -13.478  1.00  0.00     0.049 A 
ATOM     51  H   UNL     1       0.728  -1.857 -13.762  1.00  0.00     0.167 HD
ATOM     52  C   UNL     1       0.559  -6.197 -14.232  1.00  0.00     0.031 A 
ATOM     53  C   UNL     1       1.692   0.703 -14.329  1.00  0.00     0.031 A 
ATOM     54  C   UNL     1       1.507  -5.751 -15.218  1.00  0.00     0.049 A 
ATOM     55  C   UNL     1       2.437  -0.236 -15.237  1.00  0.00     0.074 A 
ATOM     56  C   UNL     1       2.193  -6.502 -16.155  1.00  0.00     0.029 A 
ATOM     57  N   UNL     1       1.904  -4.434 -15.391  1.00  0.00    -0.354 N 
ATOM     58  N   UNL     1       2.321  -1.536 -15.357  1.00  0.00    -0.248 NA
ATOM     59  C   UNL     1       3.434   0.366 -16.134  1.00  0.00     0.031 C 
ATOM     60  C   UNL     1       3.048  -5.648 -16.859  1.00  0.00     0.029 A 
ATOM     61  C   UNL     1       2.845  -4.355 -16.404  1.00  0.00     0.049 A 
ATOM     62  H   UNL     1       1.567  -3.669 -14.872  1.00  0.00     0.167 HD
ATOM     63  C   UNL     1       3.205  -1.903 -16.363  1.00  0.00     0.074 A 
ATOM     64  C   UNL     1       3.838  -0.687 -16.830  1.00  0.00     0.031 C 
ATOM     65  C   UNL     1       3.467  -3.138 -16.858  1.00  0.00     0.031 A 
BRANCH  52  66
ATOM     66  C   UNL     1       0.275  -7.671 -14.129  1.00  0.00    -0.014 A 
ATOM     67  C   UNL     1      -0.970  -8.199 -14.509  1.00  0.00     0.009 A 
ATOM     68  C   UNL     1       1.275  -8.548 -13.683  1.00  0.00     0.009 A 
ATOM     69  C   UNL     1      -1.219  -9.569 -14.408  1.00  0.00     0.001 A 
ATOM     70  C   UNL     1       1.034  -9.922 -13.613  1.00  0.00     0.001 A 
ATOM     71  C   UNL     1      -0.215 -10.430 -13.966  1.00  0.00     0.000 A 
ENDBRANCH  52  66
BRANCH  53  72
ATOM     72  C   UNL     1       1.950   2.167 -14.377  1.00  0.00    -0.014 A 
ATOM     73  C   UNL     1       1.570   2.918 -15.501  1.00  0.00     0.009 A 
ATOM     74  C   UNL     1       2.585   2.819 -13.309  1.00  0.00     0.009 A 
ATOM     75  C   UNL     1       1.846   4.286 -15.565  1.00  0.00     0.001 A 
ATOM     76  C   UNL     1       2.831   4.193 -13.362  1.00  0.00     0.001 A 
ATOM     77  C   UNL     1       2.471   4.923 -14.494  1.00  0.00     0.000 A 
ENDBRANCH  53  72
BRANCH  65  78
ATOM     78  C   UNL     1       4.453  -3.232 -17.989  1.00  0.00    -0.014 A 
ATOM     79  C   UNL     1       5.825  -3.022 -17.786  1.00  0.00     0.009 A 
ATOM     80  C   UNL     1       4.001  -3.580 -19.273  1.00  0.00     0.009 A 
ATOM     81  C   UNL     1       6.721  -3.124 -18.852  1.00  0.00     0.001 A 
ATOM     82  C   UNL     1       4.902  -3.713 -20.330  1.00  0.00     0.001 A 
ATOM     83  C   UNL     1       6.260  -3.475 -20.121  1.00  0.00     0.000 A 
ENDBRANCH  65  78
ENDBRANCH  39  40
ENDBRANCH  31  34
ENDBRANCH  29  30
ENDBRANCH  28  29
ENDBRANCH  27  28
ENDBRANCH   1  27
TORSDOF 17
