REMARK SMILES Cc1cccc2c1[C@H]1c3c(C)cccc3[C@H](CC(=O)NCCCCCCNC(=O)c3ccc(-c4c5nc(c(-c6ccccc6)c6ccc([nH]6)c(-c6ccccc6)c6nc(c(-c7ccccc7)c7ccc4[nH]7)C=C6)C=C5)cc3)C[C@H]1CC2
REMARK SMILES IDX 24 1 23 2 22 3 21 4 20 5 18 6 19 7 17 9 16 10 1 11 2 12 3 13
REMARK SMILES IDX 7 14 4 15 6 16 8 17 5 18 81 19 9 20 79 21 80 22 10 23 15 24
REMARK SMILES IDX 78 25 12 26 11 27 14 28 13 29 25 30 26 31 27 32 28 33 29 35
REMARK SMILES IDX 30 36 31 37 77 38 32 39 76 40 33 41 34 42 35 43 70 44 36 45
REMARK SMILES IDX 75 46 69 47 71 48 37 49 74 50 68 51 67 52 38 54 60 55 45 56
REMARK SMILES IDX 59 57 46 58 49 59 58 60 72 61 47 62 48 63 57 65 73 66 50 67
REMARK SMILES IDX 39 68 40 69 44 70 41 71 43 72 42 73 61 74 62 75 66 76 63 77
REMARK SMILES IDX 65 78 64 79 51 80 52 81 56 82 53 83 55 84 54 85
REMARK H PARENT 20 8 27 34 71 53 49 64
REMARK Flexibility Score: inf
ROOT
ATOM      1  C   UNL     1      10.233  -4.747   3.558  1.00  0.00     0.002 C 
ENDROOT
BRANCH   1   2
ATOM      2  C   UNL     1       8.949  -4.533   2.752  1.00  0.00     0.002 C 
BRANCH   2   3
ATOM      3  C   UNL     1       7.858  -3.754   3.501  1.00  0.00     0.021 C 
BRANCH   3   4
ATOM      4  C   UNL     1       8.254  -2.313   3.833  1.00  0.00     0.116 C 
BRANCH   4   5
ATOM      5  N   UNL     1       8.489  -1.565   2.615  1.00  0.00    -0.356 N 
ATOM      6  C   UNL     1       7.750  -0.601   2.012  1.00  0.00     0.220 C 
ATOM      7  O   UNL     1       8.072  -0.254   0.874  1.00  0.00    -0.275 OA
ATOM      8  H   UNL     1       9.324  -1.795   2.147  1.00  0.00     0.163 HD
BRANCH   6   9
ATOM      9  C   UNL     1       6.626   0.092   2.749  1.00  0.00     0.108 C 
BRANCH   9  10
ATOM     10  C   UNL     1       5.347  -0.715   3.056  1.00  0.00     0.029 C 
ATOM     11  C   UNL     1       0.601  -0.305  -0.380  1.00  0.00     0.044 C 
ATOM     12  C   UNL     1       0.271  -1.235   0.761  1.00  0.00    -0.047 A 
ATOM     13  C   UNL     1      -1.050  -1.714   0.819  1.00  0.00     0.004 A 
ATOM     14  C   UNL     1       1.196  -1.628   1.763  1.00  0.00    -0.034 A 
ATOM     15  C   UNL     1      -1.442  -2.629   1.789  1.00  0.00     0.001 A 
ATOM     16  C   UNL     1       0.825  -2.667   2.650  1.00  0.00    -0.044 A 
ATOM     17  C   UNL     1       2.586  -1.009   1.890  1.00  0.00     0.053 C 
ATOM     18  C   UNL     1      -0.500  -3.131   2.677  1.00  0.00     0.004 A 
ATOM     19  C   UNL     1       1.839  -3.419   3.483  1.00  0.00     0.036 C 
ATOM     20  C   UNL     1       2.853   0.075   2.970  1.00  0.00    -0.034 A 
ATOM     21  C   UNL     1       3.559  -2.196   2.048  1.00  0.00     0.002 C 
ATOM     22  C   UNL     1       3.287  -2.942   3.369  1.00  0.00     0.009 C 
ATOM     23  C   UNL     1       1.883   1.009   3.432  1.00  0.00    -0.047 A 
ATOM     24  C   UNL     1       4.189   0.207   3.477  1.00  0.00    -0.040 A 
ATOM     25  C   UNL     1       4.978  -1.655   1.910  1.00  0.00     0.013 C 
ATOM     26  C   UNL     1       2.240   1.994   4.378  1.00  0.00     0.004 A 
ATOM     27  C   UNL     1       0.450   1.065   2.980  1.00  0.00     0.044 C 
ATOM     28  C   UNL     1       4.478   1.176   4.463  1.00  0.00     0.004 A 
ATOM     29  C   UNL     1       3.519   2.072   4.898  1.00  0.00     0.001 A 
ENDBRANCH   9  10
ENDBRANCH   6   9
ENDBRANCH   4   5
ENDBRANCH   3   4
ENDBRANCH   2   3
ENDBRANCH   1   2
BRANCH   1  30
ATOM     30  C   UNL     1      10.020  -5.453   4.898  1.00  0.00     0.021 C 
BRANCH  30  31
ATOM     31  C   UNL     1       9.310  -6.796   4.780  1.00  0.00     0.116 C 
BRANCH  31  32
ATOM     32  N   UNL     1      10.119  -7.763   4.057  1.00  0.00    -0.352 N 
ATOM     33  C   UNL     1      10.561  -8.986   4.496  1.00  0.00     0.251 C 
ATOM     34  H   UNL     1      10.381  -7.511   3.142  1.00  0.00     0.163 HD
ATOM     35  O   UNL     1      11.409  -9.618   3.888  1.00  0.00    -0.269 OA
BRANCH  33  36
ATOM     36  C   UNL     1       9.980  -9.519   5.741  1.00  0.00     0.039 A 
ATOM     37  C   UNL     1      10.823  -9.839   6.805  1.00  0.00     0.014 A 
ATOM     38  C   UNL     1       8.591  -9.648   5.853  1.00  0.00     0.014 A 
ATOM     39  C   UNL     1      10.264 -10.263   8.010  1.00  0.00     0.010 A 
ATOM     40  C   UNL     1       8.036 -10.025   7.068  1.00  0.00     0.010 A 
ATOM     41  C   UNL     1       8.869 -10.347   8.150  1.00  0.00    -0.014 A 
BRANCH  41  42
ATOM     42  C   UNL     1       8.261 -10.834   9.408  1.00  0.00     0.031 A 
ATOM     43  C   UNL     1       7.622 -12.192   9.435  1.00  0.00     0.074 A 
ATOM     44  C   UNL     1       8.268 -10.057  10.507  1.00  0.00     0.049 A 
ATOM     45  N   UNL     1       7.010 -12.791  10.422  1.00  0.00    -0.248 NA
ATOM     46  C   UNL     1       7.668 -12.977   8.189  1.00  0.00     0.031 C 
ATOM     47  C   UNL     1       8.863  -8.723  10.600  1.00  0.00     0.029 A 
ATOM     48  N   UNL     1       7.765 -10.288  11.762  1.00  0.00    -0.354 N 
ATOM     49  C   UNL     1       6.602 -14.018   9.918  1.00  0.00     0.074 A 
ATOM     50  C   UNL     1       6.992 -14.065   8.528  1.00  0.00     0.031 C 
ATOM     51  C   UNL     1       8.725  -8.270  11.858  1.00  0.00     0.029 A 
ATOM     52  C   UNL     1       8.005  -9.266  12.648  1.00  0.00     0.049 A 
ATOM     53  H   UNL     1       7.279 -11.108  12.005  1.00  0.00     0.167 HD
ATOM     54  C   UNL     1       5.980 -15.027  10.566  1.00  0.00     0.031 A 
ATOM     55  C   UNL     1       7.686  -9.150  13.951  1.00  0.00     0.031 A 
ATOM     56  C   UNL     1       5.610 -14.992  11.953  1.00  0.00     0.049 A 
ATOM     57  C   UNL     1       6.945 -10.267  14.631  1.00  0.00     0.074 A 
ATOM     58  C   UNL     1       4.998 -15.982  12.700  1.00  0.00     0.029 A 
ATOM     59  N   UNL     1       5.827 -13.918  12.799  1.00  0.00    -0.354 N 
ATOM     60  N   UNL     1       6.577 -11.426  14.143  1.00  0.00    -0.248 NA
ATOM     61  C   UNL     1       6.576 -10.061  16.040  1.00  0.00     0.031 C 
ATOM     62  C   UNL     1       4.813 -15.493  13.995  1.00  0.00     0.029 A 
ATOM     63  C   UNL     1       5.348 -14.216  14.060  1.00  0.00     0.049 A 
ATOM     64  H   UNL     1       6.257 -13.071  12.541  1.00  0.00     0.167 HD
ATOM     65  C   UNL     1       5.957 -12.097  15.189  1.00  0.00     0.074 A 
ATOM     66  C   UNL     1       5.999 -11.218  16.339  1.00  0.00     0.031 C 
ATOM     67  C   UNL     1       5.406 -13.333  15.194  1.00  0.00     0.031 A 
BRANCH  54  68
ATOM     68  C   UNL     1       5.677 -16.276   9.796  1.00  0.00    -0.014 A 
ATOM     69  C   UNL     1       6.690 -17.209   9.527  1.00  0.00     0.009 A 
ATOM     70  C   UNL     1       4.356 -16.573   9.431  1.00  0.00     0.009 A 
ATOM     71  C   UNL     1       6.384 -18.419   8.904  1.00  0.00     0.001 A 
ATOM     72  C   UNL     1       4.051 -17.792   8.824  1.00  0.00     0.001 A 
ATOM     73  C   UNL     1       5.064 -18.713   8.563  1.00  0.00     0.000 A 
ENDBRANCH  54  68
BRANCH  55  74
ATOM     74  C   UNL     1       8.106  -7.947  14.711  1.00  0.00    -0.014 A 
ATOM     75  C   UNL     1       9.167  -8.029  15.625  1.00  0.00     0.009 A 
ATOM     76  C   UNL     1       7.466  -6.713  14.520  1.00  0.00     0.009 A 
ATOM     77  C   UNL     1       9.573  -6.902  16.341  1.00  0.00     0.001 A 
ATOM     78  C   UNL     1       7.887  -5.582  15.223  1.00  0.00     0.001 A 
ATOM     79  C   UNL     1       8.937  -5.678  16.136  1.00  0.00     0.000 A 
ENDBRANCH  55  74
BRANCH  67  80
ATOM     80  C   UNL     1       4.819 -13.839  16.477  1.00  0.00    -0.014 A 
ATOM     81  C   UNL     1       3.548 -13.425  16.897  1.00  0.00     0.009 A 
ATOM     82  C   UNL     1       5.490 -14.840  17.199  1.00  0.00     0.009 A 
ATOM     83  C   UNL     1       2.957 -14.004  18.021  1.00  0.00     0.001 A 
ATOM     84  C   UNL     1       4.888 -15.430  18.310  1.00  0.00     0.001 A 
ATOM     85  C   UNL     1       3.623 -15.012  18.720  1.00  0.00     0.000 A 
ENDBRANCH  67  80
ENDBRANCH  41  42
ENDBRANCH  33  36
ENDBRANCH  31  32
ENDBRANCH  30  31
ENDBRANCH   1  30
TORSDOF 14
