REMARK SMILES COc1cc(/C=C2/SC(=O)N(c3ccc(C)c(C)c3)C2=O)ccc1OCCC(=O)NCCCCCCNC(=O)c1ccc(-c2c3nc(c(-c4ccccc4)c4ccc([nH]4)c(-c4ccccc4)c4nc(c(-c5ccccc5)c5ccc2[nH]5)C=C4)C=C3)cc1
REMARK SMILES IDX 32 1 31 2 30 3 28 4 29 5 27 7 26 8 25 9 24 10 3 11 4 12 5 13
REMARK SMILES IDX 23 14 22 15 2 16 1 17 6 18 7 19 8 20 20 21 9 22 11 23 21 24
REMARK SMILES IDX 10 25 12 26 13 27 19 28 14 29 17 30 15 31 18 32 16 33 33 34
REMARK SMILES IDX 34 35 35 36 36 37 37 38 38 39 39 41 40 42 41 43 87 44 42 45
REMARK SMILES IDX 86 46 43 47 44 48 45 49 80 50 46 51 85 52 79 53 81 54 47 55
REMARK SMILES IDX 84 56 78 57 77 58 48 60 70 61 55 62 69 63 56 64 59 65 68 66
REMARK SMILES IDX 82 67 57 68 58 69 67 71 83 72 60 73 49 74 50 75 54 76 51 77
REMARK SMILES IDX 53 78 52 79 71 80 72 81 76 82 73 83 75 84 74 85 61 86 62 87
REMARK SMILES IDX 66 88 63 89 65 90 64 91
REMARK H PARENT 30 6 37 40 81 59 59 70
REMARK Flexibility Score: inf
ROOT
ATOM      1  C   UNL     1       2.536   3.603  -1.392  1.00  0.00     0.021 C 
ENDROOT
BRANCH   1   2
ATOM      2  C   UNL     1       1.822   3.726  -0.050  1.00  0.00     0.116 C 
BRANCH   2   3
ATOM      3  N   UNL     1       0.781   2.733   0.145  1.00  0.00    -0.356 N 
ATOM      4  C   UNL     1       0.897   1.438   0.562  1.00  0.00     0.223 C 
ATOM      5  O   UNL     1      -0.114   0.840   0.930  1.00  0.00    -0.275 OA
ATOM      6  H   UNL     1      -0.136   3.035  -0.051  1.00  0.00     0.163 HD
BRANCH   4   7
ATOM      7  C   UNL     1       2.262   0.799   0.645  1.00  0.00     0.141 C 
BRANCH   7   8
ATOM      8  C   UNL     1       2.492  -0.386  -0.286  1.00  0.00     0.239 C 
BRANCH   8   9
ATOM      9  O   UNL     1       2.732  -0.095  -1.653  1.00  0.00    -0.489 OA
BRANCH   9  10
ATOM     10  C   UNL     1       1.783   0.153  -2.597  1.00  0.00     0.161 A 
ATOM     11  C   UNL     1       0.387   0.122  -2.554  1.00  0.00     0.161 A 
ATOM     12  C   UNL     1      -0.364   0.714  -3.598  1.00  0.00     0.058 A 
ATOM     13  C   UNL     1       0.257   1.273  -4.716  1.00  0.00    -0.020 A 
ATOM     14  C   UNL     1       2.391   0.609  -3.778  1.00  0.00     0.051 A 
ATOM     15  C   UNL     1       1.649   1.172  -4.817  1.00  0.00     0.012 A 
BRANCH  11  16
ATOM     16  O   UNL     1      -0.377  -0.288  -1.503  1.00  0.00    -0.493 OA
ATOM     17  C   UNL     1      -0.330  -1.679  -1.208  1.00  0.00     0.278 C 
ENDBRANCH  11  16
BRANCH  13  18
ATOM     18  C   UNL     1      -0.489   2.093  -5.691  1.00  0.00     0.029 C 
ATOM     19  C   UNL     1      -0.385   1.936  -7.018  1.00  0.00     0.083 C 
ATOM     20  S   UNL     1      -0.711   3.128  -8.202  1.00  0.00    -0.022 SA
ATOM     21  C   UNL     1       0.347   0.823  -7.659  1.00  0.00     0.272 C 
ATOM     22  C   UNL     1       0.591   2.491  -9.232  1.00  0.00     0.298 C 
ATOM     23  N   UNL     1       1.126   1.349  -8.671  1.00  0.00    -0.236 N 
ATOM     24  O   UNL     1       0.192  -0.334  -7.308  1.00  0.00    -0.268 OA
ATOM     25  O   UNL     1       0.870   3.040 -10.291  1.00  0.00    -0.260 OA
BRANCH  23  26
ATOM     26  C   UNL     1       2.353   0.731  -9.084  1.00  0.00     0.053 A 
ATOM     27  C   UNL     1       2.743  -0.522  -8.589  1.00  0.00     0.027 A 
ATOM     28  C   UNL     1       3.282   1.407  -9.891  1.00  0.00     0.030 A 
ATOM     29  C   UNL     1       3.977  -1.089  -8.912  1.00  0.00     0.006 A 
ATOM     30  C   UNL     1       4.550   0.864 -10.198  1.00  0.00    -0.046 A 
ATOM     31  C   UNL     1       4.887  -0.415  -9.728  1.00  0.00    -0.048 A 
ATOM     32  C   UNL     1       5.507   1.679 -11.025  1.00  0.00     0.044 C 
ATOM     33  C   UNL     1       6.184  -1.107 -10.039  1.00  0.00     0.044 C 
ENDBRANCH  23  26
ENDBRANCH  13  18
ENDBRANCH   9  10
ENDBRANCH   8   9
ENDBRANCH   7   8
ENDBRANCH   4   7
ENDBRANCH   2   3
ENDBRANCH   1   2
BRANCH   1  34
ATOM     34  C   UNL     1       1.620   3.859  -2.590  1.00  0.00     0.002 C 
BRANCH  34  35
ATOM     35  C   UNL     1       1.436   5.323  -2.982  1.00  0.00     0.002 C 
BRANCH  35  36
ATOM     36  C   UNL     1       2.700   5.989  -3.534  1.00  0.00     0.021 C 
BRANCH  36  37
ATOM     37  C   UNL     1       3.266   5.352  -4.804  1.00  0.00     0.116 C 
BRANCH  37  38
ATOM     38  N   UNL     1       2.464   5.646  -5.982  1.00  0.00    -0.352 N 
ATOM     39  C   UNL     1       2.829   6.339  -7.113  1.00  0.00     0.251 C 
ATOM     40  H   UNL     1       1.541   5.303  -5.968  1.00  0.00     0.163 HD
ATOM     41  O   UNL     1       1.992   6.655  -7.951  1.00  0.00    -0.269 OA
BRANCH  39  42
ATOM     42  C   UNL     1       4.242   6.731  -7.292  1.00  0.00     0.039 A 
ATOM     43  C   UNL     1       4.551   8.076  -7.507  1.00  0.00     0.014 A 
ATOM     44  C   UNL     1       5.260   5.778  -7.190  1.00  0.00     0.014 A 
ATOM     45  C   UNL     1       5.888   8.478  -7.542  1.00  0.00     0.010 A 
ATOM     46  C   UNL     1       6.590   6.191  -7.161  1.00  0.00     0.010 A 
ATOM     47  C   UNL     1       6.919   7.547  -7.327  1.00  0.00    -0.014 A 
BRANCH  47  48
ATOM     48  C   UNL     1       8.340   7.977  -7.252  1.00  0.00     0.031 A 
ATOM     49  C   UNL     1       9.332   7.506  -8.280  1.00  0.00     0.074 A 
ATOM     50  C   UNL     1       8.753   8.752  -6.228  1.00  0.00     0.049 A 
ATOM     51  N   UNL     1      10.621   7.730  -8.346  1.00  0.00    -0.248 NA
ATOM     52  C   UNL     1       8.813   6.658  -9.365  1.00  0.00     0.031 C 
ATOM     53  C   UNL     1       7.904   9.252  -5.144  1.00  0.00     0.029 A 
ATOM     54  N   UNL     1       9.998   9.249  -5.927  1.00  0.00    -0.354 N 
ATOM     55  C   UNL     1      11.064   7.052  -9.474  1.00  0.00     0.074 A 
ATOM     56  C   UNL     1       9.920   6.364 -10.031  1.00  0.00     0.031 C 
ATOM     57  C   UNL     1       8.647  10.000  -4.311  1.00  0.00     0.029 A 
ATOM     58  C   UNL     1      10.030  10.001  -4.777  1.00  0.00     0.049 A 
ATOM     59  H   UNL     1      10.793   9.083  -6.484  1.00  0.00     0.167 HD
ATOM     60  C   UNL     1      12.306   7.023 -10.014  1.00  0.00     0.031 A 
ATOM     61  C   UNL     1      11.058  10.613  -4.158  1.00  0.00     0.031 A 
ATOM     62  C   UNL     1      13.448   7.706  -9.467  1.00  0.00     0.049 A 
ATOM     63  C   UNL     1      12.435  10.533  -4.762  1.00  0.00     0.074 A 
ATOM     64  C   UNL     1      14.740   7.755  -9.962  1.00  0.00     0.029 A 
ATOM     65  N   UNL     1      13.436   8.459  -8.305  1.00  0.00    -0.354 N 
ATOM     66  N   UNL     1      12.823   9.934  -5.861  1.00  0.00    -0.248 NA
ATOM     67  C   UNL     1      13.514  11.227  -4.043  1.00  0.00     0.031 C 
ATOM     68  C   UNL     1      15.521   8.501  -9.073  1.00  0.00     0.029 A 
ATOM     69  C   UNL     1      14.701   8.964  -8.057  1.00  0.00     0.049 A 
ATOM     70  H   UNL     1      12.645   8.613  -7.739  1.00  0.00     0.167 HD
ATOM     71  C   UNL     1      14.180  10.207  -5.982  1.00  0.00     0.074 A 
ATOM     72  C   UNL     1      14.544  11.040  -4.856  1.00  0.00     0.031 C 
ATOM     73  C   UNL     1      15.048   9.801  -6.940  1.00  0.00     0.031 A 
BRANCH  60  74
ATOM     74  C   UNL     1      12.496   6.229 -11.277  1.00  0.00    -0.014 A 
ATOM     75  C   UNL     1      11.966   6.678 -12.497  1.00  0.00     0.009 A 
ATOM     76  C   UNL     1      13.265   5.055 -11.261  1.00  0.00     0.009 A 
ATOM     77  C   UNL     1      12.179   5.952 -13.671  1.00  0.00     0.001 A 
ATOM     78  C   UNL     1      13.500   4.347 -12.441  1.00  0.00     0.001 A 
ATOM     79  C   UNL     1      12.951   4.792 -13.643  1.00  0.00     0.000 A 
ENDBRANCH  60  74
BRANCH  61  80
ATOM     80  C   UNL     1      10.841  11.357  -2.888  1.00  0.00    -0.014 A 
ATOM     81  C   UNL     1      10.990  12.753  -2.841  1.00  0.00     0.009 A 
ATOM     82  C   UNL     1      10.533  10.670  -1.704  1.00  0.00     0.009 A 
ATOM     83  C   UNL     1      10.878  13.437  -1.628  1.00  0.00     0.001 A 
ATOM     84  C   UNL     1      10.388  11.361  -0.499  1.00  0.00     0.001 A 
ATOM     85  C   UNL     1      10.575  12.741  -0.459  1.00  0.00     0.000 A 
ENDBRANCH  61  80
BRANCH  73  86
ATOM     86  C   UNL     1      16.465  10.291  -6.839  1.00  0.00    -0.014 A 
ATOM     87  C   UNL     1      17.338   9.809  -5.851  1.00  0.00     0.009 A 
ATOM     88  C   UNL     1      16.944  11.223  -7.773  1.00  0.00     0.009 A 
ATOM     89  C   UNL     1      18.652  10.279  -5.780  1.00  0.00     0.001 A 
ATOM     90  C   UNL     1      18.266  11.667  -7.719  1.00  0.00     0.001 A 
ATOM     91  C   UNL     1      19.115  11.202  -6.717  1.00  0.00     0.000 A 
ENDBRANCH  73  86
ENDBRANCH  47  48
ENDBRANCH  39  42
ENDBRANCH  37  38
ENDBRANCH  36  37
ENDBRANCH  35  36
ENDBRANCH  34  35
ENDBRANCH   1  34
TORSDOF 19
