REMARK SMILES CSCC[C@H](C(=O)NCCCCCCNC(=O)c1ccc(-c2c3nc(c(-c4ccccc4)c4ccc([nH]4)c(-c4ccccc4)c4nc(c(-c5ccccc5)c5ccc2[nH]5)C=C4)C=C3)cc1)N1C(=O)/C(=C/c2cn(C)c3ccccc23)SC1=S
REMARK SMILES IDX 11 1 10 2 9 3 8 4 6 5 7 6 5 8 4 9 3 10 2 11 1 12 66 13 67 14
REMARK SMILES IDX 82 15 68 16 69 17 81 18 83 19 70 20 71 21 72 22 80 23 73 24
REMARK SMILES IDX 75 25 79 26 74 27 76 28 78 29 77 30 12 31 13 32 14 33 15 34
REMARK SMILES IDX 16 35 17 37 18 38 19 39 65 40 20 41 64 42 21 43 22 44 23 45
REMARK SMILES IDX 58 46 24 47 63 48 57 49 59 50 25 51 62 52 56 53 55 54 26 56
REMARK SMILES IDX 48 57 33 58 47 59 34 60 37 61 46 62 60 63 35 64 36 65 45 67
REMARK SMILES IDX 61 68 38 69 27 70 28 71 32 72 29 73 31 74 30 75 49 76 50 77
REMARK SMILES IDX 54 78 51 79 53 80 52 81 39 82 40 83 44 84 41 85 43 86 42 87
REMARK H PARENT 8 7 15 36 59 55 37 66
REMARK Flexibility Score: inf
ROOT
ATOM      1  C   UNL     1       3.599   4.574  -4.371  1.00  0.00     0.002 C 
ENDROOT
BRANCH   1   2
ATOM      2  C   UNL     1       3.404   3.500  -3.247  1.00  0.00     0.021 C 
BRANCH   2   3
ATOM      3  C   UNL     1       2.070   3.515  -2.425  1.00  0.00     0.116 C 
BRANCH   3   4
ATOM      4  N   UNL     1       1.576   2.338  -1.671  1.00  0.00    -0.354 N 
ATOM      5  C   UNL     1       0.889   2.309  -0.442  1.00  0.00     0.243 C 
ATOM      6  O   UNL     1      -0.229   1.775  -0.501  1.00  0.00    -0.273 OA
ATOM      7  H   UNL     1       1.752   1.462  -2.083  1.00  0.00     0.163 HD
BRANCH   5   8
ATOM      8  C   UNL     1       1.477   2.792   1.058  1.00  0.00     0.182 C 
BRANCH   8   9
ATOM      9  C   UNL     1       3.051   2.877   1.091  1.00  0.00     0.046 C 
BRANCH   9  10
ATOM     10  C   UNL     1       3.931   3.750   0.122  1.00  0.00     0.072 C 
BRANCH  10  11
ATOM     11  S   UNL     1       3.956   5.689  -0.175  1.00  0.00    -0.165 SA
ATOM     12  C   UNL     1       2.366   6.305  -1.188  1.00  0.00     0.085 C 
ENDBRANCH  10  11
ENDBRANCH   9  10
ENDBRANCH   8   9
BRANCH   8  13
ATOM     13  N   UNL     1       0.528   3.879   2.221  1.00  0.00    -0.280 N 
ATOM     14  C   UNL     1      -0.117   2.991   2.932  1.00  0.00     0.266 C 
ATOM     15  C   UNL     1       0.116   5.826   1.980  1.00  0.00     0.149 C 
ATOM     16  O   UNL     1      -0.121   1.829   3.215  1.00  0.00    -0.268 OA
ATOM     17  C   UNL     1      -0.555   4.176   3.458  1.00  0.00     0.081 C 
ATOM     18  S   UNL     1      -1.182   6.382   2.457  1.00  0.00    -0.054 SA
ATOM     19  S   UNL     1       0.934   7.518   1.339  1.00  0.00    -0.052 S 
ATOM     20  C   UNL     1      -1.016   3.852   4.790  1.00  0.00     0.031 C 
BRANCH  20  21
ATOM     21  C   UNL     1      -1.704   4.946   5.368  1.00  0.00     0.001 A 
ATOM     22  C   UNL     1      -1.201   6.147   5.936  1.00  0.00     0.094 A 
ATOM     23  C   UNL     1      -1.738   5.366   4.053  1.00  0.00     0.007 A 
ATOM     24  N   UNL     1      -0.051   6.655   5.287  1.00  0.00    -0.350 N 
ATOM     25  C   UNL     1       0.173   5.815   4.201  1.00  0.00     0.048 A 
ATOM     26  C   UNL     1      -2.023   4.501   2.259  1.00  0.00     0.011 A 
ATOM     27  C   UNL     1       0.292   8.070   5.153  1.00  0.00     0.149 C 
ATOM     28  C   UNL     1       1.601   5.426   2.942  1.00  0.00     0.027 A 
ATOM     29  C   UNL     1      -0.675   4.493   0.839  1.00  0.00     0.001 A 
ATOM     30  C   UNL     1       1.238   4.954   1.048  1.00  0.00     0.002 A 
ENDBRANCH  20  21
ENDBRANCH   8  13
ENDBRANCH   5   8
ENDBRANCH   3   4
ENDBRANCH   2   3
ENDBRANCH   1   2
BRANCH   1  31
ATOM     31  C   UNL     1       3.803   6.090  -4.116  1.00  0.00     0.002 C 
BRANCH  31  32
ATOM     32  C   UNL     1       5.028   6.565  -3.333  1.00  0.00     0.021 C 
BRANCH  32  33
ATOM     33  C   UNL     1       6.352   6.129  -3.905  1.00  0.00     0.116 C 
BRANCH  33  34
ATOM     34  N   UNL     1       6.505   6.628  -5.258  1.00  0.00    -0.352 N 
ATOM     35  C   UNL     1       7.422   7.532  -5.720  1.00  0.00     0.251 C 
ATOM     36  H   UNL     1       5.873   6.273  -5.924  1.00  0.00     0.163 HD
ATOM     37  O   UNL     1       7.233   8.132  -6.772  1.00  0.00    -0.269 OA
BRANCH  35  38
ATOM     38  C   UNL     1       8.636   7.773  -4.917  1.00  0.00     0.039 A 
ATOM     39  C   UNL     1       9.114   9.075  -4.776  1.00  0.00     0.014 A 
ATOM     40  C   UNL     1       9.270   6.705  -4.274  1.00  0.00     0.014 A 
ATOM     41  C   UNL     1      10.215   9.307  -3.955  1.00  0.00     0.010 A 
ATOM     42  C   UNL     1      10.283   6.957  -3.363  1.00  0.00     0.010 A 
ATOM     43  C   UNL     1      10.787   8.256  -3.219  1.00  0.00    -0.014 A 
BRANCH  43  44
ATOM     44  C   UNL     1      11.942   8.476  -2.320  1.00  0.00     0.031 A 
ATOM     45  C   UNL     1      13.236   7.756  -2.588  1.00  0.00     0.074 A 
ATOM     46  C   UNL     1      11.811   9.274  -1.242  1.00  0.00     0.049 A 
ATOM     47  N   UNL     1      14.338   7.760  -1.884  1.00  0.00    -0.248 NA
ATOM     48  C   UNL     1      13.297   6.901  -3.788  1.00  0.00     0.031 C 
ATOM     49  C   UNL     1      10.599  10.008  -0.870  1.00  0.00     0.029 A 
ATOM     50  N   UNL     1      12.710   9.599  -0.258  1.00  0.00    -0.354 N 
ATOM     51  C   UNL     1      15.207   6.899  -2.542  1.00  0.00     0.074 A 
ATOM     52  C   UNL     1      14.495   6.350  -3.671  1.00  0.00     0.031 C 
ATOM     53  C   UNL     1      10.843  10.725   0.239  1.00  0.00     0.029 A 
ATOM     54  C   UNL     1      12.201  10.450   0.694  1.00  0.00     0.049 A 
ATOM     55  H   UNL     1      13.632   9.255  -0.236  1.00  0.00     0.167 HD
ATOM     56  C   UNL     1      16.490   6.604  -2.236  1.00  0.00     0.031 A 
ATOM     57  C   UNL     1      12.762  10.935   1.818  1.00  0.00     0.031 A 
ATOM     58  C   UNL     1      17.197   7.159  -1.115  1.00  0.00     0.049 A 
ATOM     59  C   UNL     1      14.174  10.535   2.158  1.00  0.00     0.074 A 
ATOM     60  C   UNL     1      18.519   6.965  -0.758  1.00  0.00     0.029 A 
ATOM     61  N   UNL     1      16.640   8.000  -0.166  1.00  0.00    -0.354 N 
ATOM     62  N   UNL     1      15.007   9.781   1.483  1.00  0.00    -0.248 NA
ATOM     63  C   UNL     1      14.728  11.062   3.414  1.00  0.00     0.031 C 
ATOM     64  C   UNL     1      18.736   7.608   0.460  1.00  0.00     0.029 A 
ATOM     65  C   UNL     1      17.582   8.293   0.803  1.00  0.00     0.049 A 
ATOM     66  H   UNL     1      15.715   8.337  -0.180  1.00  0.00     0.167 HD
ATOM     67  C   UNL     1      16.194   9.785   2.207  1.00  0.00     0.074 A 
ATOM     68  C   UNL     1      15.979  10.628   3.362  1.00  0.00     0.031 C 
ATOM     69  C   UNL     1      17.359   9.150   1.938  1.00  0.00     0.031 A 
BRANCH  56  70
ATOM     70  C   UNL     1      17.218   5.616  -3.103  1.00  0.00    -0.014 A 
ATOM     71  C   UNL     1      17.589   5.924  -4.421  1.00  0.00     0.009 A 
ATOM     72  C   UNL     1      17.624   4.390  -2.552  1.00  0.00     0.009 A 
ATOM     73  C   UNL     1      18.338   5.017  -5.173  1.00  0.00     0.001 A 
ATOM     74  C   UNL     1      18.403   3.502  -3.292  1.00  0.00     0.001 A 
ATOM     75  C   UNL     1      18.755   3.813  -4.604  1.00  0.00     0.000 A 
ENDBRANCH  56  70
BRANCH  57  76
ATOM     76  C   UNL     1      11.994  11.824   2.735  1.00  0.00    -0.014 A 
ATOM     77  C   UNL     1      12.434  13.130   3.005  1.00  0.00     0.009 A 
ATOM     78  C   UNL     1      10.862  11.344   3.411  1.00  0.00     0.009 A 
ATOM     79  C   UNL     1      11.804  13.904   3.982  1.00  0.00     0.001 A 
ATOM     80  C   UNL     1      10.203  12.138   4.351  1.00  0.00     0.001 A 
ATOM     81  C   UNL     1      10.690  13.407   4.654  1.00  0.00     0.000 A 
ENDBRANCH  57  76
BRANCH  69  82
ATOM     82  C   UNL     1      18.522   9.397   2.859  1.00  0.00    -0.014 A 
ATOM     83  C   UNL     1      18.538   8.925   4.180  1.00  0.00     0.009 A 
ATOM     84  C   UNL     1      19.655  10.065   2.363  1.00  0.00     0.009 A 
ATOM     85  C   UNL     1      19.649   9.150   4.995  1.00  0.00     0.001 A 
ATOM     86  C   UNL     1      20.780  10.248   3.165  1.00  0.00     0.001 A 
ATOM     87  C   UNL     1      20.772   9.801   4.484  1.00  0.00     0.000 A 
ENDBRANCH  69  82
ENDBRANCH  43  44
ENDBRANCH  35  38
ENDBRANCH  33  34
ENDBRANCH  32  33
ENDBRANCH  31  32
ENDBRANCH   1  31
TORSDOF 18
