REMARK SMILES O=C(NCCCCCCNC(=O)c1ccccc1C(=O)N1CCOCCOCCOCC1)c1ccc(-c2c3nc(c(-c4ccccc4)c4ccc([nH]4)c(-c4ccccc4)c4nc(c(-c5ccccc5)c5ccc2[nH]5)C=C4)C=C3)cc1
REMARK SMILES IDX 10 1 11 2 12 3 9 5 8 6 7 7 6 8 5 9 4 10 3 11 1 12 2 13 33 15
REMARK SMILES IDX 34 16 80 17 35 18 79 19 36 20 37 21 38 22 73 23 39 24 78 25
REMARK SMILES IDX 72 26 74 27 40 28 77 29 71 30 70 31 41 33 63 34 48 35 62 36
REMARK SMILES IDX 49 37 52 38 61 39 75 40 50 41 51 42 60 44 76 45 53 46 42 47
REMARK SMILES IDX 43 48 47 49 44 50 46 51 45 52 64 53 65 54 69 55 66 56 68 57
REMARK SMILES IDX 67 58 54 59 55 60 59 61 56 62 58 63 57 64 13 65 14 66 18 67
REMARK SMILES IDX 15 68 17 69 16 70 19 71 20 72 21 73 22 74 23 75 24 76 25 77
REMARK SMILES IDX 26 78 27 79 28 80 32 82 31 83 30 84 29 85
REMARK H PARENT 10 4 3 14 74 32 52 43
REMARK Flexibility Score: 60.00
ROOT
ATOM      1  N   UNL     1       6.800  -4.200  -4.530  1.00  0.00    -0.352 N 
ATOM      2  C   UNL     1       7.582  -5.224  -4.986  1.00  0.00     0.252 C 
ATOM      3  O   UNL     1       7.118  -6.025  -5.796  1.00  0.00    -0.269 OA
ATOM      4  H   UNL     1       5.877  -4.199  -4.872  1.00  0.00     0.163 HD
ENDROOT
BRANCH   1   5
ATOM      5  C   UNL     1       7.118  -3.117  -3.623  1.00  0.00     0.116 C 
BRANCH   5   6
ATOM      6  C   UNL     1       6.193  -1.911  -3.789  1.00  0.00     0.021 C 
BRANCH   6   7
ATOM      7  C   UNL     1       4.677  -2.166  -3.722  1.00  0.00     0.002 C 
BRANCH   7   8
ATOM      8  C   UNL     1       4.104  -2.800  -2.453  1.00  0.00     0.002 C 
BRANCH   8   9
ATOM      9  C   UNL     1       4.562  -2.198  -1.129  1.00  0.00     0.021 C 
BRANCH   9  10
ATOM     10  C   UNL     1       4.312  -0.705  -0.988  1.00  0.00     0.116 C 
BRANCH  10  11
ATOM     11  N   UNL     1       2.898  -0.362  -0.955  1.00  0.00    -0.352 N 
ATOM     12  O   UNL     1       0.989   0.495  -0.103  1.00  0.00    -0.269 OA
ATOM     13  C   UNL     1       2.214   0.423  -0.057  1.00  0.00     0.251 C 
ATOM     14  H   UNL     1       2.353  -0.747  -1.679  1.00  0.00     0.163 HD
BRANCH  13  15
ATOM     15  C   UNL     1       2.956   1.159   0.990  1.00  0.00     0.039 A 
ATOM     16  C   UNL     1       4.150   1.815   0.688  1.00  0.00     0.014 A 
ATOM     17  C   UNL     1       2.459   1.182   2.297  1.00  0.00     0.014 A 
ATOM     18  C   UNL     1       4.930   2.334   1.712  1.00  0.00     0.010 A 
ATOM     19  C   UNL     1       3.195   1.803   3.311  1.00  0.00     0.010 A 
ATOM     20  C   UNL     1       4.457   2.349   3.034  1.00  0.00    -0.014 A 
BRANCH  20  21
ATOM     21  C   UNL     1       5.290   2.986   4.087  1.00  0.00     0.031 A 
ATOM     22  C   UNL     1       5.831   2.194   5.246  1.00  0.00     0.074 A 
ATOM     23  C   UNL     1       5.603   4.291   3.958  1.00  0.00     0.049 A 
ATOM     24  N   UNL     1       6.617   2.591   6.217  1.00  0.00    -0.248 NA
ATOM     25  C   UNL     1       5.433   0.781   5.340  1.00  0.00     0.031 C 
ATOM     26  C   UNL     1       5.136   5.167   2.878  1.00  0.00     0.029 A 
ATOM     27  N   UNL     1       6.415   5.100   4.711  1.00  0.00    -0.354 N 
ATOM     28  C   UNL     1       6.782   1.490   7.049  1.00  0.00     0.074 A 
ATOM     29  C   UNL     1       5.997   0.414   6.482  1.00  0.00     0.031 C 
ATOM     30  C   UNL     1       5.729   6.363   2.995  1.00  0.00     0.029 A 
ATOM     31  C   UNL     1       6.555   6.365   4.195  1.00  0.00     0.049 A 
ATOM     32  H   UNL     1       6.853   4.802   5.540  1.00  0.00     0.167 HD
ATOM     33  C   UNL     1       7.520   1.386   8.181  1.00  0.00     0.031 A 
ATOM     34  C   UNL     1       7.264   7.418   4.639  1.00  0.00     0.031 A 
ATOM     35  C   UNL     1       8.312   2.455   8.734  1.00  0.00     0.049 A 
ATOM     36  C   UNL     1       8.063   7.276   5.900  1.00  0.00     0.074 A 
ATOM     37  C   UNL     1       9.123   2.436   9.856  1.00  0.00     0.029 A 
ATOM     38  N   UNL     1       8.393   3.734   8.206  1.00  0.00    -0.354 N 
ATOM     39  N   UNL     1       8.227   6.220   6.658  1.00  0.00    -0.248 NA
ATOM     40  C   UNL     1       8.774   8.474   6.365  1.00  0.00     0.031 C 
ATOM     41  C   UNL     1       9.654   3.718  10.035  1.00  0.00     0.029 A 
ATOM     42  C   UNL     1       9.221   4.520   8.992  1.00  0.00     0.049 A 
ATOM     43  H   UNL     1       7.930   4.040   7.392  1.00  0.00     0.167 HD
ATOM     44  C   UNL     1       9.077   6.619   7.680  1.00  0.00     0.074 A 
ATOM     45  C   UNL     1       9.410   8.007   7.430  1.00  0.00     0.031 C 
ATOM     46  C   UNL     1       9.539   5.900   8.732  1.00  0.00     0.031 A 
BRANCH  33  47
ATOM     47  C   UNL     1       7.479   0.076   8.922  1.00  0.00    -0.014 A 
ATOM     48  C   UNL     1       8.106  -1.074   8.419  1.00  0.00     0.009 A 
ATOM     49  C   UNL     1       6.835   0.006  10.168  1.00  0.00     0.009 A 
ATOM     50  C   UNL     1       8.058  -2.276   9.131  1.00  0.00     0.001 A 
ATOM     51  C   UNL     1       6.813  -1.188  10.891  1.00  0.00     0.001 A 
ATOM     52  C   UNL     1       7.415  -2.331  10.368  1.00  0.00     0.000 A 
ENDBRANCH  33  47
BRANCH  34  53
ATOM     53  C   UNL     1       7.244   8.697   3.883  1.00  0.00    -0.014 A 
ATOM     54  C   UNL     1       8.390   9.148   3.212  1.00  0.00     0.009 A 
ATOM     55  C   UNL     1       6.072   9.468   3.820  1.00  0.00     0.009 A 
ATOM     56  C   UNL     1       8.369  10.355   2.511  1.00  0.00     0.001 A 
ATOM     57  C   UNL     1       6.045  10.658   3.091  1.00  0.00     0.001 A 
ATOM     58  C   UNL     1       7.196  11.105   2.446  1.00  0.00     0.000 A 
ENDBRANCH  34  53
BRANCH  46  59
ATOM     59  C   UNL     1      10.486   6.598   9.665  1.00  0.00    -0.014 A 
ATOM     60  C   UNL     1      10.042   7.600  10.543  1.00  0.00     0.009 A 
ATOM     61  C   UNL     1      11.842   6.238   9.672  1.00  0.00     0.009 A 
ATOM     62  C   UNL     1      10.947   8.257  11.378  1.00  0.00     0.001 A 
ATOM     63  C   UNL     1      12.739   6.875  10.530  1.00  0.00     0.001 A 
ATOM     64  C   UNL     1      12.293   7.892  11.373  1.00  0.00     0.000 A 
ENDBRANCH  46  59
ENDBRANCH  20  21
ENDBRANCH  13  15
ENDBRANCH  10  11
ENDBRANCH   9  10
ENDBRANCH   8   9
ENDBRANCH   7   8
ENDBRANCH   6   7
ENDBRANCH   5   6
ENDBRANCH   1   5
BRANCH   2  65
ATOM     65  C   UNL     1       8.985  -5.396  -4.568  1.00  0.00     0.052 A 
ATOM     66  C   UNL     1       9.932  -5.379  -5.607  1.00  0.00     0.014 A 
ATOM     67  C   UNL     1       9.401  -5.676  -3.261  1.00  0.00     0.052 A 
ATOM     68  C   UNL     1      11.289  -5.573  -5.339  1.00  0.00     0.001 A 
ATOM     69  C   UNL     1      10.773  -5.859  -3.002  1.00  0.00     0.014 A 
ATOM     70  C   UNL     1      11.710  -5.807  -4.034  1.00  0.00     0.001 A 
BRANCH  67  71
ATOM     71  C   UNL     1       8.525  -5.622  -2.074  1.00  0.00     0.254 C 
ATOM     72  O   UNL     1       8.922  -4.858  -1.194  1.00  0.00    -0.269 OA
ATOM     73  N   UNL     1       7.338  -6.347  -1.981  1.00  0.00    -0.334 N 
BRANCH  73  74
ATOM     74  C   UNL     1       6.268  -5.824  -1.107  1.00  0.00     0.148 C 
BRANCH  74  75
ATOM     75  C   UNL     1       6.617  -5.282   0.291  1.00  0.00     0.181 C 
BRANCH  75  76
ATOM     76  O   UNL     1       5.455  -4.720   0.927  1.00  0.00    -0.377 OA
BRANCH  76  77
ATOM     77  C   UNL     1       4.917  -5.500   1.999  1.00  0.00     0.188 C 
BRANCH  77  78
ATOM     78  C   UNL     1       4.019  -6.619   1.475  1.00  0.00     0.188 C 
BRANCH  78  79
ATOM     79  O   UNL     1       4.860  -7.710   1.111  1.00  0.00    -0.377 OA
BRANCH  79  80
ATOM     80  C   UNL     1       4.190  -8.726   0.358  1.00  0.00     0.188 CG0
ATOM     81  G   UNL     1       5.272  -9.468  -0.428  1.00  0.00     0.000 G0
ENDBRANCH  79  80
ENDBRANCH  78  79
ENDBRANCH  77  78
ENDBRANCH  76  77
ENDBRANCH  75  76
ENDBRANCH  74  75
ENDBRANCH  73  74
BRANCH  73  82
ATOM     82  C   UNL     1       6.964  -7.442  -2.909  1.00  0.00     0.148 C 
BRANCH  82  83
ATOM     83  C   UNL     1       6.721  -8.790  -2.217  1.00  0.00     0.181 C 
BRANCH  83  84
ATOM     84  O   UNL     1       5.399  -8.804  -1.688  1.00  0.00    -0.377 OA
BRANCH  84  85
ATOM     85  C   UNL     1       5.272  -9.468  -0.428  1.00  0.00     0.188 CG0
ATOM     86  G   UNL     1       4.190  -8.726   0.358  1.00  0.00     0.000 G0
ENDBRANCH  84  85
ENDBRANCH  83  84
ENDBRANCH  82  83
ENDBRANCH  73  82
ENDBRANCH  67  71
ENDBRANCH   2  65
TORSDOF 14
