REMARK SMILES C[NH+](C)CCc1nc(Nc2ccc(O)c(C(=O)NCCCCCCNC(=O)c3ccc(-c4c5nc(c(-c6ccccc6)c6ccc([nH]6)c(-c6ccccc6)c6nc(c(-c7ccccc7)c7ccc4[nH]7)C=C6)C=C5)cc3)c2)c2ccccc2n1
REMARK SMILES IDX 20 1 19 2 18 3 16 4 17 5 15 7 10 8 11 9 76 10 12 11 13 12
REMARK SMILES IDX 9 13 8 15 6 16 7 17 83 18 82 19 77 20 81 21 78 22 80 23
REMARK SMILES IDX 79 24 5 25 4 26 2 27 1 28 3 29 14 31 21 33 22 34 23 35 24 36
REMARK SMILES IDX 25 37 26 38 27 40 28 41 29 42 75 43 30 44 74 45 31 46 32 47
REMARK SMILES IDX 33 48 68 49 34 50 73 51 67 52 69 53 35 54 72 55 66 56 65 57
REMARK SMILES IDX 36 59 58 60 43 61 57 62 44 63 47 64 56 65 70 66 45 67 46 68
REMARK SMILES IDX 55 70 71 71 48 72 37 73 38 74 42 75 39 76 41 77 40 78 59 79
REMARK SMILES IDX 60 80 64 81 61 82 63 83 62 84 49 85 50 86 54 87 51 88 53 89
REMARK SMILES IDX 52 90
REMARK H PARENT 18 6 9 14 2 30 14 32 25 39 69 58 47 69
REMARK Flexibility Score: inf
ROOT
ATOM      1  C   UNL     1      -0.340   6.781   0.080  1.00  0.00     0.021 C 
ENDROOT
BRANCH   1   2
ATOM      2  C   UNL     1      -0.979   5.388   0.097  1.00  0.00     0.116 C 
BRANCH   2   3
ATOM      3  N   UNL     1      -1.175   4.913  -1.256  1.00  0.00    -0.352 N 
ATOM      4  C   UNL     1      -0.441   4.101  -2.078  1.00  0.00     0.255 C 
ATOM      5  O   UNL     1      -0.891   3.947  -3.219  1.00  0.00    -0.269 OA
ATOM      6  H   UNL     1      -2.006   5.241  -1.670  1.00  0.00     0.163 HD
BRANCH   4   7
ATOM      7  C   UNL     1       0.784   3.330  -1.699  1.00  0.00     0.083 A 
ATOM      8  C   UNL     1       2.009   1.243  -2.191  1.00  0.00     0.041 A 
ATOM      9  C   UNL     1       2.965   1.588  -1.240  1.00  0.00     0.030 A 
ATOM     10  C   UNL     1       0.935   2.117  -2.410  1.00  0.00     0.043 A 
ATOM     11  C   UNL     1       2.863   2.794  -0.547  1.00  0.00     0.049 A 
ATOM     12  C   UNL     1       1.781   3.658  -0.773  1.00  0.00     0.128 A 
BRANCH   8  13
ATOM     13  N   UNL     1       2.034  -0.010  -2.827  1.00  0.00    -0.340 N 
ATOM     14  H   UNL     1       2.142  -0.014  -3.805  1.00  0.00     0.168 HD
BRANCH  13  15
ATOM     15  C   UNL     1       1.919  -1.269  -2.185  1.00  0.00     0.142 A 
ATOM     16  C   UNL     1       1.278  -2.480  -0.331  1.00  0.00     0.137 A 
ATOM     17  N   UNL     1       1.524  -1.295  -0.896  1.00  0.00    -0.215 NA
ATOM     18  N   UNL     1       1.459  -3.655  -0.959  1.00  0.00    -0.233 NA
ATOM     19  C   UNL     1       1.900  -3.632  -2.222  1.00  0.00     0.076 A 
ATOM     20  C   UNL     1       2.156  -2.444  -2.914  1.00  0.00     0.043 A 
ATOM     21  C   UNL     1       2.083  -4.838  -2.888  1.00  0.00     0.029 A 
ATOM     22  C   UNL     1       2.605  -2.498  -4.260  1.00  0.00     0.014 A 
ATOM     23  C   UNL     1       2.511  -4.894  -4.218  1.00  0.00     0.002 A 
ATOM     24  C   UNL     1       2.776  -3.720  -4.906  1.00  0.00     0.001 A 
BRANCH  16  25
ATOM     25  C   UNL     1       0.595  -2.543   1.014  1.00  0.00     0.138 C 
BRANCH  25  26
ATOM     26  C   UNL     1       0.787  -1.378   2.007  1.00  0.00     0.269 C 
BRANCH  26  27
ATOM     27  N   UNL     1      -0.088  -0.188   1.977  1.00  0.00    -0.339 N 
ATOM     28  C   UNL     1       0.189   0.682   0.845  1.00  0.00     0.332 C 
ATOM     29  C   UNL     1      -1.513  -0.484   2.050  1.00  0.00     0.332 C 
ATOM     30  H   UNL     1       0.149   0.309   2.835  1.00  0.00     0.347 HD
ENDBRANCH  26  27
ENDBRANCH  25  26
ENDBRANCH  16  25
ENDBRANCH  13  15
ENDBRANCH   8  13
BRANCH  12  31
ATOM     31  O   UNL     1       1.782   4.824  -0.068  1.00  0.00    -0.507 OA
ATOM     32  H   UNL     1       2.471   5.002   0.542  1.00  0.00     0.293 HD
ENDBRANCH  12  31
ENDBRANCH   4   7
ENDBRANCH   2   3
ENDBRANCH   1   2
BRANCH   1  33
ATOM     33  C   UNL     1      -1.344   7.926  -0.100  1.00  0.00     0.002 C 
BRANCH  33  34
ATOM     34  C   UNL     1      -2.308   8.130   1.074  1.00  0.00     0.002 C 
BRANCH  34  35
ATOM     35  C   UNL     1      -1.640   8.352   2.434  1.00  0.00     0.021 C 
BRANCH  35  36
ATOM     36  C   UNL     1      -0.742   9.584   2.506  1.00  0.00     0.116 C 
BRANCH  36  37
ATOM     37  N   UNL     1      -1.501  10.816   2.347  1.00  0.00    -0.352 N 
ATOM     38  C   UNL     1      -1.622  11.880   3.201  1.00  0.00     0.251 C 
ATOM     39  H   UNL     1      -1.999  10.896   1.502  1.00  0.00     0.163 HD
ATOM     40  O   UNL     1      -2.491  12.732   3.008  1.00  0.00    -0.269 OA
BRANCH  38  41
ATOM     41  C   UNL     1      -0.720  12.007   4.364  1.00  0.00     0.039 A 
ATOM     42  C   UNL     1      -1.252  12.388   5.598  1.00  0.00     0.014 A 
ATOM     43  C   UNL     1       0.652  11.775   4.232  1.00  0.00     0.014 A 
ATOM     44  C   UNL     1      -0.416  12.482   6.713  1.00  0.00     0.010 A 
ATOM     45  C   UNL     1       1.471  11.799   5.358  1.00  0.00     0.010 A 
ATOM     46  C   UNL     1       0.947  12.158   6.609  1.00  0.00    -0.014 A 
BRANCH  46  47
ATOM     47  C   UNL     1       1.837  12.187   7.797  1.00  0.00     0.031 A 
ATOM     48  C   UNL     1       2.991  13.150   7.858  1.00  0.00     0.074 A 
ATOM     49  C   UNL     1       1.646  11.298   8.792  1.00  0.00     0.049 A 
ATOM     50  N   UNL     1       3.908  13.281   8.784  1.00  0.00    -0.248 NA
ATOM     51  C   UNL     1       3.153  14.070   6.720  1.00  0.00     0.031 C 
ATOM     52  C   UNL     1       0.592  10.281   8.831  1.00  0.00     0.029 A 
ATOM     53  N   UNL     1       2.341  11.099   9.959  1.00  0.00    -0.354 N 
ATOM     54  C   UNL     1       4.765  14.276   8.330  1.00  0.00     0.074 A 
ATOM     55  C   UNL     1       4.284  14.687   7.029  1.00  0.00     0.031 C 
ATOM     56  C   UNL     1       0.699   9.581   9.972  1.00  0.00     0.029 A 
ATOM     57  C   UNL     1       1.850  10.068  10.724  1.00  0.00     0.049 A 
ATOM     58  H   UNL     1       3.117  11.644  10.224  1.00  0.00     0.167 HD
ATOM     59  C   UNL     1       5.846  14.809   8.946  1.00  0.00     0.031 A 
ATOM     60  C   UNL     1       2.286   9.561  11.893  1.00  0.00     0.031 A 
ATOM     61  C   UNL     1       6.311  14.413  10.249  1.00  0.00     0.049 A 
ATOM     62  C   UNL     1       3.488  10.175  12.556  1.00  0.00     0.074 A 
ATOM     63  C   UNL     1       7.350  14.949  10.991  1.00  0.00     0.029 A 
ATOM     64  N   UNL     1       5.772  13.381  11.000  1.00  0.00    -0.354 N 
ATOM     65  N   UNL     1       4.233  11.175  12.153  1.00  0.00    -0.248 NA
ATOM     66  C   UNL     1       3.902   9.596  13.842  1.00  0.00     0.031 C 
ATOM     67  C   UNL     1       7.479  14.200  12.164  1.00  0.00     0.029 A 
ATOM     68  C   UNL     1       6.479  13.241  12.182  1.00  0.00     0.049 A 
ATOM     69  H   UNL     1       5.002  12.829  10.733  1.00  0.00     0.167 HD
ATOM     70  C   UNL     1       5.183  11.365  13.149  1.00  0.00     0.074 A 
ATOM     71  C   UNL     1       4.908  10.389  14.182  1.00  0.00     0.031 C 
ATOM     72  C   UNL     1       6.193  12.266  13.202  1.00  0.00     0.031 A 
BRANCH  59  73
ATOM     73  C   UNL     1       6.614  15.876   8.216  1.00  0.00    -0.014 A 
ATOM     74  C   UNL     1       6.080  17.160   8.021  1.00  0.00     0.009 A 
ATOM     75  C   UNL     1       7.920  15.611   7.772  1.00  0.00     0.009 A 
ATOM     76  C   UNL     1       6.825  18.145   7.370  1.00  0.00     0.001 A 
ATOM     77  C   UNL     1       8.674  16.606   7.148  1.00  0.00     0.001 A 
ATOM     78  C   UNL     1       8.123  17.869   6.940  1.00  0.00     0.000 A 
ENDBRANCH  59  73
BRANCH  60  79
ATOM     79  C   UNL     1       1.587   8.404  12.515  1.00  0.00    -0.014 A 
ATOM     80  C   UNL     1       0.870   8.558  13.711  1.00  0.00     0.009 A 
ATOM     81  C   UNL     1       1.653   7.132  11.924  1.00  0.00     0.009 A 
ATOM     82  C   UNL     1       0.267   7.456  14.322  1.00  0.00     0.001 A 
ATOM     83  C   UNL     1       1.020   6.039  12.520  1.00  0.00     0.001 A 
ATOM     84  C   UNL     1       0.339   6.199  13.725  1.00  0.00     0.000 A 
ENDBRANCH  60  79
BRANCH  72  85
ATOM     85  C   UNL     1       7.053  12.265  14.435  1.00  0.00    -0.014 A 
ATOM     86  C   UNL     1       7.963  11.228  14.692  1.00  0.00     0.009 A 
ATOM     87  C   UNL     1       6.980  13.344  15.331  1.00  0.00     0.009 A 
ATOM     88  C   UNL     1       8.756  11.254  15.841  1.00  0.00     0.001 A 
ATOM     89  C   UNL     1       7.798  13.383  16.461  1.00  0.00     0.001 A 
ATOM     90  C   UNL     1       8.677  12.334  16.720  1.00  0.00     0.000 A 
ENDBRANCH  72  85
ENDBRANCH  46  47
ENDBRANCH  38  41
ENDBRANCH  36  37
ENDBRANCH  35  36
ENDBRANCH  34  35
ENDBRANCH  33  34
ENDBRANCH   1  33
TORSDOF 19
