REMARK SMILES COc1c(N)cc(-c2ccccc2)cc1C(=O)NCCCCCCNC(=O)c1ccc(-c2c3nc(c(-c4ccccc4)c4ccc([nH]4)c(-c4ccccc4)c4nc(c(-c5ccccc5)c5ccc2[nH]5)C=C4)C=C3)cc1
REMARK SMILES IDX 22 1 21 2 20 3 19 4 18 5 16 6 17 7 15 9 3 10 4 11 6 12 14 13
REMARK SMILES IDX 7 14 2 15 1 16 5 17 8 20 9 21 13 22 10 23 12 24 11 25 23 26
REMARK SMILES IDX 24 27 25 28 26 29 27 31 28 32 29 33 75 34 30 35 74 36 31 37
REMARK SMILES IDX 32 38 33 39 68 40 34 41 73 42 67 43 69 44 35 45 72 46 66 47
REMARK SMILES IDX 65 48 36 50 58 51 43 52 57 53 44 54 47 55 56 56 70 57 45 58
REMARK SMILES IDX 46 59 55 61 71 62 48 63 37 64 38 65 42 66 39 67 41 68 40 69
REMARK SMILES IDX 59 70 60 71 64 72 61 73 63 74 62 75 49 76 50 77 54 78 51 79
REMARK SMILES IDX 53 80 52 81
REMARK H PARENT 18 8 5 18 5 19 25 30 69 49 47 60
REMARK Flexibility Score: inf
ROOT
ATOM      1  C   UNL     1      -3.136  -2.178  -1.943  1.00  0.00     0.002 C 
ENDROOT
BRANCH   1   2
ATOM      2  C   UNL     1      -3.205  -1.161  -0.796  1.00  0.00     0.002 C 
BRANCH   2   3
ATOM      3  C   UNL     1      -1.899  -0.401  -0.530  1.00  0.00     0.021 C 
BRANCH   3   4
ATOM      4  C   UNL     1      -1.418   0.421  -1.731  1.00  0.00     0.116 C 
BRANCH   4   5
ATOM      5  N   UNL     1      -1.781   1.807  -1.563  1.00  0.00    -0.352 N 
ATOM      6  C   UNL     1      -1.171   2.968  -1.196  1.00  0.00     0.255 C 
ATOM      7  O   UNL     1      -1.963   3.921  -1.146  1.00  0.00    -0.269 OA
ATOM      8  H   UNL     1      -2.732   1.954  -1.772  1.00  0.00     0.163 HD
BRANCH   6   9
ATOM      9  C   UNL     1       0.275   3.241  -0.884  1.00  0.00     0.084 A 
ATOM     10  C   UNL     1       1.361   2.371  -0.699  1.00  0.00     0.154 A 
ATOM     11  C   UNL     1       2.676   2.880  -0.518  1.00  0.00     0.076 A 
ATOM     12  C   UNL     1       2.872   4.250  -0.341  1.00  0.00     0.038 A 
ATOM     13  C   UNL     1       0.546   4.630  -0.753  1.00  0.00     0.026 A 
ATOM     14  C   UNL     1       1.816   5.151  -0.465  1.00  0.00    -0.015 A 
BRANCH  10  15
ATOM     15  O   UNL     1       1.241   1.007  -0.762  1.00  0.00    -0.494 OA
ATOM     16  C   UNL     1       1.302   0.408   0.534  1.00  0.00     0.278 C 
ENDBRANCH  10  15
BRANCH  11  17
ATOM     17  N   UNL     1       3.780   2.030  -0.393  1.00  0.00    -0.396 N 
ATOM     18  H   UNL     1       3.670   1.059  -0.513  1.00  0.00     0.156 HD
ATOM     19  H   UNL     1       4.667   2.403  -0.184  1.00  0.00     0.156 HD
ENDBRANCH  11  17
BRANCH  14  20
ATOM     20  C   UNL     1       2.037   6.598  -0.324  1.00  0.00    -0.018 A 
ATOM     21  C   UNL     1       2.987   7.257  -1.121  1.00  0.00     0.009 A 
ATOM     22  C   UNL     1       1.319   7.356   0.614  1.00  0.00     0.009 A 
ATOM     23  C   UNL     1       3.226   8.625  -0.974  1.00  0.00     0.001 A 
ATOM     24  C   UNL     1       1.558   8.725   0.764  1.00  0.00     0.001 A 
ATOM     25  C   UNL     1       2.514   9.357  -0.028  1.00  0.00     0.000 A 
ENDBRANCH  14  20
ENDBRANCH   6   9
ENDBRANCH   4   5
ENDBRANCH   3   4
ENDBRANCH   2   3
ENDBRANCH   1   2
BRANCH   1  26
ATOM     26  C   UNL     1      -1.972  -3.169  -1.861  1.00  0.00     0.021 C 
BRANCH  26  27
ATOM     27  C   UNL     1      -1.965  -4.027  -0.600  1.00  0.00     0.116 C 
BRANCH  27  28
ATOM     28  N   UNL     1      -3.163  -4.844  -0.502  1.00  0.00    -0.352 N 
ATOM     29  C   UNL     1      -3.292  -6.208  -0.478  1.00  0.00     0.251 C 
ATOM     30  H   UNL     1      -4.008  -4.342  -0.443  1.00  0.00     0.163 HD
ATOM     31  O   UNL     1      -4.391  -6.727  -0.648  1.00  0.00    -0.269 OA
BRANCH  29  32
ATOM     32  C   UNL     1      -2.106  -7.058  -0.249  1.00  0.00     0.039 A 
ATOM     33  C   UNL     1      -1.947  -8.217  -1.014  1.00  0.00     0.014 A 
ATOM     34  C   UNL     1      -1.177  -6.736   0.744  1.00  0.00     0.014 A 
ATOM     35  C   UNL     1      -0.830  -9.029  -0.813  1.00  0.00     0.010 A 
ATOM     36  C   UNL     1      -0.030  -7.508   0.897  1.00  0.00     0.010 A 
ATOM     37  C   UNL     1       0.149  -8.667   0.127  1.00  0.00    -0.014 A 
BRANCH  37  38
ATOM     38  C   UNL     1       1.365  -9.493   0.322  1.00  0.00     0.031 A 
ATOM     39  C   UNL     1       1.602 -10.196   1.629  1.00  0.00     0.074 A 
ATOM     40  C   UNL     1       2.286  -9.557  -0.658  1.00  0.00     0.049 A 
ATOM     41  N   UNL     1       2.626 -10.921   2.002  1.00  0.00    -0.248 NA
ATOM     42  C   UNL     1       0.565 -10.042   2.662  1.00  0.00     0.031 C 
ATOM     43  C   UNL     1       2.191  -8.886  -1.955  1.00  0.00     0.029 A 
ATOM     44  N   UNL     1       3.488 -10.216  -0.710  1.00  0.00    -0.354 N 
ATOM     45  C   UNL     1       2.365 -11.294   3.314  1.00  0.00     0.074 A 
ATOM     46  C   UNL     1       1.112 -10.675   3.689  1.00  0.00     0.031 C 
ATOM     47  C   UNL     1       3.277  -9.187  -2.685  1.00  0.00     0.029 A 
ATOM     48  C   UNL     1       4.159 -10.041  -1.895  1.00  0.00     0.049 A 
ATOM     49  H   UNL     1       3.837 -10.761   0.032  1.00  0.00     0.167 HD
ATOM     50  C   UNL     1       3.094 -12.093   4.130  1.00  0.00     0.031 A 
ATOM     51  C   UNL     1       5.353 -10.511  -2.300  1.00  0.00     0.031 A 
ATOM     52  C   UNL     1       4.335 -12.714   3.753  1.00  0.00     0.049 A 
ATOM     53  C   UNL     1       6.146 -11.392  -1.377  1.00  0.00     0.074 A 
ATOM     54  C   UNL     1       5.118 -13.591   4.483  1.00  0.00     0.029 A 
ATOM     55  N   UNL     1       4.978 -12.518   2.540  1.00  0.00    -0.354 N 
ATOM     56  N   UNL     1       5.852 -11.793  -0.164  1.00  0.00    -0.248 NA
ATOM     57  C   UNL     1       7.431 -11.892  -1.885  1.00  0.00     0.031 C 
ATOM     58  C   UNL     1       6.261 -13.886   3.731  1.00  0.00     0.029 A 
ATOM     59  C   UNL     1       6.162 -13.236   2.511  1.00  0.00     0.049 A 
ATOM     60  H   UNL     1       4.642 -11.953   1.807  1.00  0.00     0.167 HD
ATOM     61  C   UNL     1       6.903 -12.612   0.228  1.00  0.00     0.074 A 
ATOM     62  C   UNL     1       7.832 -12.662  -0.882  1.00  0.00     0.031 C 
ATOM     63  C   UNL     1       7.080 -13.267   1.402  1.00  0.00     0.031 A 
BRANCH  50  64
ATOM     64  C   UNL     1       2.566 -12.325   5.519  1.00  0.00    -0.014 A 
ATOM     65  C   UNL     1       1.410 -13.090   5.742  1.00  0.00     0.009 A 
ATOM     66  C   UNL     1       3.245 -11.785   6.622  1.00  0.00     0.009 A 
ATOM     67  C   UNL     1       0.920 -13.273   7.037  1.00  0.00     0.001 A 
ATOM     68  C   UNL     1       2.770 -11.995   7.919  1.00  0.00     0.001 A 
ATOM     69  C   UNL     1       1.602 -12.728   8.124  1.00  0.00     0.000 A 
ENDBRANCH  50  64
BRANCH  51  70
ATOM     70  C   UNL     1       5.857 -10.174  -3.655  1.00  0.00    -0.014 A 
ATOM     71  C   UNL     1       5.884 -11.147  -4.665  1.00  0.00     0.009 A 
ATOM     72  C   UNL     1       6.297  -8.874  -3.951  1.00  0.00     0.009 A 
ATOM     73  C   UNL     1       6.359 -10.829  -5.940  1.00  0.00     0.001 A 
ATOM     74  C   UNL     1       6.746  -8.553  -5.233  1.00  0.00     0.001 A 
ATOM     75  C   UNL     1       6.784  -9.532  -6.224  1.00  0.00     0.000 A 
ENDBRANCH  51  70
BRANCH  63  76
ATOM     76  C   UNL     1       8.315 -14.112   1.534  1.00  0.00    -0.014 A 
ATOM     77  C   UNL     1       9.583 -13.529   1.690  1.00  0.00     0.009 A 
ATOM     78  C   UNL     1       8.203 -15.511   1.542  1.00  0.00     0.009 A 
ATOM     79  C   UNL     1      10.717 -14.333   1.817  1.00  0.00     0.001 A 
ATOM     80  C   UNL     1       9.335 -16.311   1.698  1.00  0.00     0.001 A 
ATOM     81  C   UNL     1      10.591 -15.722   1.826  1.00  0.00     0.000 A 
ENDBRANCH  63  76
ENDBRANCH  37  38
ENDBRANCH  29  32
ENDBRANCH  27  28
ENDBRANCH  26  27
ENDBRANCH   1  26
TORSDOF 16
