REMARK SMILES CCC1(CC)CCN(C(=O)NC(CC)(CC)C(=O)NCCCCCCNC(=O)c2ccc(-c3c4nc(c(-c5ccccc5)c5ccc([nH]5)c(-c5ccccc5)c5nc(c(-c6ccccc6)c6ccc3[nH]6)C=C5)C=C4)cc2)CC1
REMARK SMILES IDX 22 1 21 2 20 3 19 4 17 5 18 6 12 8 11 9 3 10 6 11 78 12 7 13
REMARK SMILES IDX 77 14 8 15 9 16 10 17 2 19 1 20 4 21 5 22 13 23 14 24 15 25
REMARK SMILES IDX 16 26 23 27 24 28 25 29 26 30 27 31 28 33 29 34 30 35 76 36
REMARK SMILES IDX 31 37 75 38 32 39 33 40 34 41 69 42 35 43 74 44 68 45 70 46
REMARK SMILES IDX 36 47 73 48 67 49 66 50 37 52 59 53 44 54 58 55 45 56 48 57
REMARK SMILES IDX 57 58 71 59 46 60 47 61 56 63 72 64 49 65 38 66 39 67 43 68
REMARK SMILES IDX 40 69 42 70 41 71 60 72 61 73 65 74 62 75 64 76 63 77 50 78
REMARK SMILES IDX 51 79 55 80 52 81 54 82 53 83
REMARK H PARENT 19 7 11 18 26 32 70 51 48 62
REMARK Flexibility Score: inf
ROOT
ATOM      1  C   UNL     1      -3.394  -5.887  -0.118  1.00  0.00     0.002 C 
ENDROOT
BRANCH   1   2
ATOM      2  C   UNL     1      -2.772  -7.237  -0.506  1.00  0.00     0.021 C 
BRANCH   2   3
ATOM      3  C   UNL     1      -2.157  -7.271  -1.906  1.00  0.00     0.116 C 
BRANCH   3   4
ATOM      4  N   UNL     1      -1.153  -6.245  -2.073  1.00  0.00    -0.354 N 
ATOM      5  C   UNL     1       0.053  -6.402  -1.425  1.00  0.00     0.245 C 
ATOM      6  O   UNL     1       0.116  -6.101  -0.237  1.00  0.00    -0.272 OA
ATOM      7  H   UNL     1      -1.326  -5.455  -2.634  1.00  0.00     0.163 HD
BRANCH   5   8
ATOM      8  C   UNL     1       1.238  -6.978  -2.252  1.00  0.00     0.120 C 
BRANCH   8   9
ATOM      9  N   UNL     1       2.508  -6.189  -2.190  1.00  0.00    -0.323 N 
ATOM     10  C   UNL     1       1.190  -1.967  -0.043  1.00  0.00    -0.027 C 
ATOM     11  C   UNL     1       2.724  -2.160  -0.252  1.00  0.00     0.028 C 
ATOM     12  C   UNL     1       0.467  -3.189  -0.696  1.00  0.00     0.028 C 
ATOM     13  C   UNL     1       3.126  -2.601  -1.673  1.00  0.00     0.122 C 
ATOM     14  C   UNL     1       0.947  -3.530  -2.107  1.00  0.00     0.122 C 
ATOM     15  N   UNL     1       2.366  -3.790  -2.079  1.00  0.00    -0.325 N 
ATOM     16  C   UNL     1       3.037  -4.960  -2.245  1.00  0.00     0.318 C 
ATOM     17  O   UNL     1       4.268  -4.971  -2.377  1.00  0.00    -0.249 OA
ATOM     18  H   UNL     1       3.247  -6.825  -2.054  1.00  0.00     0.166 HD
BRANCH  10  19
ATOM     19  C   UNL     1       0.640  -0.687  -0.733  1.00  0.00     0.004 C 
ATOM     20  C   UNL     1       1.116   0.664  -0.226  1.00  0.00     0.004 C 
ENDBRANCH  10  19
BRANCH  10  21
ATOM     21  C   UNL     1       0.832  -2.035   1.481  1.00  0.00     0.004 C 
ATOM     22  C   UNL     1       1.524  -1.078   2.441  1.00  0.00     0.004 C 
ENDBRANCH  10  21
ENDBRANCH   8   9
BRANCH   8  23
ATOM     23  C   UNL     1       0.859  -7.220  -3.753  1.00  0.00     0.035 C 
ATOM     24  C   UNL     1       1.557  -8.384  -4.453  1.00  0.00     0.007 C 
ENDBRANCH   8  23
BRANCH   8  25
ATOM     25  C   UNL     1       1.537  -8.346  -1.526  1.00  0.00     0.035 C 
ATOM     26  C   UNL     1       2.123  -8.243  -0.112  1.00  0.00     0.007 C 
ENDBRANCH   8  25
ENDBRANCH   5   8
ENDBRANCH   3   4
ENDBRANCH   2   3
ENDBRANCH   1   2
BRANCH   1  27
ATOM     27  C   UNL     1      -4.471  -5.363  -1.073  1.00  0.00     0.002 C 
BRANCH  27  28
ATOM     28  C   UNL     1      -5.553  -6.376  -1.440  1.00  0.00     0.021 C 
BRANCH  28  29
ATOM     29  C   UNL     1      -6.228  -7.035  -0.247  1.00  0.00     0.116 C 
BRANCH  29  30
ATOM     30  N   UNL     1      -7.071  -6.113   0.491  1.00  0.00    -0.352 N 
ATOM     31  C   UNL     1      -8.365  -6.306   0.906  1.00  0.00     0.251 C 
ATOM     32  H   UNL     1      -6.667  -5.246   0.722  1.00  0.00     0.163 HD
ATOM     33  O   UNL     1      -9.018  -5.380   1.379  1.00  0.00    -0.269 OA
BRANCH  31  34
ATOM     34  C   UNL     1      -8.977  -7.641   0.745  1.00  0.00     0.039 A 
ATOM     35  C   UNL     1     -10.230  -7.742   0.140  1.00  0.00     0.014 A 
ATOM     36  C   UNL     1      -8.294  -8.790   1.157  1.00  0.00     0.014 A 
ATOM     37  C   UNL     1     -10.782  -9.002  -0.095  1.00  0.00     0.010 A 
ATOM     38  C   UNL     1      -8.809 -10.045   0.852  1.00  0.00     0.010 A 
ATOM     39  C   UNL     1     -10.065 -10.164   0.236  1.00  0.00    -0.014 A 
BRANCH  39  40
ATOM     40  C   UNL     1     -10.623 -11.513  -0.027  1.00  0.00     0.031 A 
ATOM     41  C   UNL     1     -10.938 -12.429   1.124  1.00  0.00     0.074 A 
ATOM     42  C   UNL     1     -10.795 -11.937  -1.294  1.00  0.00     0.049 A 
ATOM     43  N   UNL     1     -11.372 -13.664   1.102  1.00  0.00    -0.248 NA
ATOM     44  C   UNL     1     -10.707 -11.896   2.477  1.00  0.00     0.031 C 
ATOM     45  C   UNL     1     -10.496 -11.159  -2.498  1.00  0.00     0.029 A 
ATOM     46  N   UNL     1     -11.259 -13.134  -1.778  1.00  0.00    -0.354 N 
ATOM     47  C   UNL     1     -11.449 -14.058   2.432  1.00  0.00     0.074 A 
ATOM     48  C   UNL     1     -10.965 -12.954   3.231  1.00  0.00     0.031 C 
ATOM     49  C   UNL     1     -10.807 -11.890  -3.580  1.00  0.00     0.029 A 
ATOM     50  C   UNL     1     -11.290 -13.198  -3.149  1.00  0.00     0.049 A 
ATOM     51  H   UNL     1     -11.543 -13.876  -1.197  1.00  0.00     0.167 HD
ATOM     52  C   UNL     1     -11.901 -15.226   2.947  1.00  0.00     0.031 A 
ATOM     53  C   UNL     1     -11.659 -14.201  -3.968  1.00  0.00     0.031 A 
ATOM     54  C   UNL     1     -12.393 -16.321   2.155  1.00  0.00     0.049 A 
ATOM     55  C   UNL     1     -12.145 -15.494  -3.375  1.00  0.00     0.074 A 
ATOM     56  C   UNL     1     -12.921 -17.526   2.583  1.00  0.00     0.029 A 
ATOM     57  N   UNL     1     -12.414 -16.342   0.769  1.00  0.00    -0.354 N 
ATOM     58  N   UNL     1     -12.270 -15.829  -2.114  1.00  0.00    -0.248 NA
ATOM     59  C   UNL     1     -12.551 -16.544  -4.320  1.00  0.00     0.031 C 
ATOM     60  C   UNL     1     -13.217 -18.297   1.454  1.00  0.00     0.029 A 
ATOM     61  C   UNL     1     -12.926 -17.549   0.324  1.00  0.00     0.049 A 
ATOM     62  H   UNL     1     -12.111 -15.608   0.187  1.00  0.00     0.167 HD
ATOM     63  C   UNL     1     -12.795 -17.115  -2.113  1.00  0.00     0.074 A 
ATOM     64  C   UNL     1     -12.978 -17.494  -3.499  1.00  0.00     0.031 C 
ATOM     65  C   UNL     1     -13.100 -17.911  -1.059  1.00  0.00     0.031 A 
BRANCH  52  66
ATOM     66  C   UNL     1     -11.872 -15.376   4.443  1.00  0.00    -0.014 A 
ATOM     67  C   UNL     1     -12.733 -14.632   5.266  1.00  0.00     0.009 A 
ATOM     68  C   UNL     1     -10.985 -16.287   5.037  1.00  0.00     0.009 A 
ATOM     69  C   UNL     1     -12.675 -14.766   6.655  1.00  0.00     0.001 A 
ATOM     70  C   UNL     1     -10.951 -16.441   6.424  1.00  0.00     0.001 A 
ATOM     71  C   UNL     1     -11.787 -15.673   7.232  1.00  0.00     0.000 A 
ENDBRANCH  52  66
BRANCH  53  72
ATOM     72  C   UNL     1     -11.600 -14.018  -5.442  1.00  0.00    -0.014 A 
ATOM     73  C   UNL     1     -12.779 -13.906  -6.194  1.00  0.00     0.009 A 
ATOM     74  C   UNL     1     -10.364 -13.955  -6.104  1.00  0.00     0.009 A 
ATOM     75  C   UNL     1     -12.722 -13.761  -7.582  1.00  0.00     0.001 A 
ATOM     76  C   UNL     1     -10.309 -13.781  -7.489  1.00  0.00     0.001 A 
ATOM     77  C   UNL     1     -11.488 -13.694  -8.228  1.00  0.00     0.000 A 
ENDBRANCH  53  72
BRANCH  65  78
ATOM     78  C   UNL     1     -13.697 -19.256  -1.363  1.00  0.00    -0.014 A 
ATOM     79  C   UNL     1     -12.921 -20.295  -1.898  1.00  0.00     0.009 A 
ATOM     80  C   UNL     1     -15.048 -19.497  -1.066  1.00  0.00     0.009 A 
ATOM     81  C   UNL     1     -13.496 -21.541  -2.160  1.00  0.00     0.001 A 
ATOM     82  C   UNL     1     -15.612 -20.752  -1.302  1.00  0.00     0.001 A 
ATOM     83  C   UNL     1     -14.838 -21.769  -1.857  1.00  0.00     0.000 A 
ENDBRANCH  65  78
ENDBRANCH  39  40
ENDBRANCH  31  34
ENDBRANCH  29  30
ENDBRANCH  28  29
ENDBRANCH  27  28
ENDBRANCH   1  27
TORSDOF 18
