REMARK SMILES COc1cc2c(cc1OC)[C@H](C(=O)NCCCCCCNC(=O)c1ccc(-c3c4nc(c(-c5ccccc5)c5ccc([nH]5)c(-c5ccccc5)c5nc(c(-c6ccccc6)c6ccc3[nH]6)C=C5)C=C4)cc1)[C@H](c1cccc(Cl)c1)N(C)C2=O
REMARK SMILES IDX 18 1 17 2 16 3 15 4 14 5 12 6 13 7 11 9 3 10 4 11 8 12 5 13
REMARK SMILES IDX 7 14 6 15 82 16 80 17 83 18 72 19 81 20 2 21 1 22 9 23 10 24
REMARK SMILES IDX 73 25 74 26 79 27 75 28 77 29 76 30 78 31 19 32 20 33 21 34
REMARK SMILES IDX 22 35 23 37 24 38 25 39 71 40 26 41 70 42 27 43 28 44 29 45
REMARK SMILES IDX 64 46 30 47 69 48 63 49 65 50 31 51 68 52 62 53 61 54 32 56
REMARK SMILES IDX 54 57 39 58 53 59 40 60 43 61 52 62 66 63 41 64 42 65 51 67
REMARK SMILES IDX 67 68 44 69 33 70 34 71 38 72 35 73 37 74 36 75 55 76 56 77
REMARK SMILES IDX 60 78 57 79 59 80 58 81 45 82 46 83 50 84 47 85 49 86 48 87
REMARK H PARENT 14 8 21 36 65 55 43 66
REMARK Flexibility Score: inf
ROOT
ATOM      1  C   UNL     1      -3.427  -8.005   2.473  1.00  0.00     0.002 C 
ENDROOT
BRANCH   1   2
ATOM      2  C   UNL     1      -2.204  -8.921   2.363  1.00  0.00     0.002 C 
BRANCH   2   3
ATOM      3  C   UNL     1      -1.086  -8.395   1.449  1.00  0.00     0.021 C 
BRANCH   3   4
ATOM      4  C   UNL     1      -0.605  -6.987   1.800  1.00  0.00     0.116 C 
BRANCH   4   5
ATOM      5  N   UNL     1      -0.109  -6.973   3.161  1.00  0.00    -0.355 N 
ATOM      6  C   UNL     1       1.151  -6.716   3.604  1.00  0.00     0.230 C 
ATOM      7  O   UNL     1       1.476  -7.305   4.633  1.00  0.00    -0.274 OA
ATOM      8  H   UNL     1      -0.772  -7.178   3.859  1.00  0.00     0.163 HD
BRANCH   6   9
ATOM      9  C   UNL     1       2.091  -5.851   2.780  1.00  0.00     0.136 C 
ATOM     10  C   UNL     1       0.965  -1.834   1.530  1.00  0.00     0.161 A 
ATOM     11  C   UNL     1       2.234  -2.367   1.264  1.00  0.00     0.064 A 
ATOM     12  C   UNL     1       0.026  -2.611   2.224  1.00  0.00     0.161 A 
ATOM     13  C   UNL     1       2.561  -3.667   1.672  1.00  0.00     0.048 A 
ATOM     14  C   UNL     1       0.379  -3.902   2.655  1.00  0.00     0.056 A 
ATOM     15  C   UNL     1       1.633  -4.456   2.373  1.00  0.00    -0.016 A 
ATOM     16  C   UNL     1       3.942  -4.187   1.420  1.00  0.00     0.254 C 
ATOM     17  N   UNL     1       4.372  -5.237   2.238  1.00  0.00    -0.333 N 
ATOM     18  O   UNL     1       4.636  -3.673   0.550  1.00  0.00    -0.269 OA
ATOM     19  C   UNL     1       3.531  -5.718   3.366  1.00  0.00     0.132 C 
ATOM     20  C   UNL     1       5.721  -5.749   2.084  1.00  0.00     0.147 C 
BRANCH  10  21
ATOM     21  O   UNL     1       0.664  -0.532   1.228  1.00  0.00    -0.493 OA
ATOM     22  C   UNL     1       1.117  -0.081  -0.045  1.00  0.00     0.278 C 
ENDBRANCH  10  21
BRANCH  12  23
ATOM     23  O   UNL     1      -1.261  -2.287   2.569  1.00  0.00    -0.493 OA
ATOM     24  C   UNL     1      -1.846  -1.124   2.001  1.00  0.00     0.278 C 
ENDBRANCH  12  23
BRANCH  19  25
ATOM     25  C   UNL     1       3.679  -4.835   4.625  1.00  0.00    -0.023 A 
ATOM     26  C   UNL     1       3.153  -5.253   5.860  1.00  0.00     0.006 A 
ATOM     27  C   UNL     1       4.325  -3.586   4.608  1.00  0.00     0.026 A 
ATOM     28  C   UNL     1       3.160  -4.427   6.988  1.00  0.00     0.002 A 
ATOM     29  C   UNL     1       4.356  -2.768   5.743  1.00  0.00     0.041 A 
ATOM     30  C   UNL     1       3.752  -3.174   6.926  1.00  0.00     0.020 A 
ATOM     31  Cl  UNL     1       5.145  -1.241   5.671  1.00  0.00    -0.084 Cl
ENDBRANCH  19  25
ENDBRANCH   6   9
ENDBRANCH   4   5
ENDBRANCH   3   4
ENDBRANCH   2   3
ENDBRANCH   1   2
BRANCH   1  32
ATOM     32  C   UNL     1      -4.077  -7.656   1.135  1.00  0.00     0.021 C 
BRANCH  32  33
ATOM     33  C   UNL     1      -4.478  -8.867   0.305  1.00  0.00     0.116 C 
BRANCH  33  34
ATOM     34  N   UNL     1      -5.481  -9.681   0.970  1.00  0.00    -0.352 N 
ATOM     35  C   UNL     1      -6.657 -10.172   0.464  1.00  0.00     0.251 C 
ATOM     36  H   UNL     1      -5.292  -9.911   1.908  1.00  0.00     0.163 HD
ATOM     37  O   UNL     1      -7.488 -10.691   1.204  1.00  0.00    -0.269 OA
BRANCH  35  38
ATOM     38  C   UNL     1      -6.927 -10.048  -0.982  1.00  0.00     0.039 A 
ATOM     39  C   UNL     1      -8.177  -9.588  -1.400  1.00  0.00     0.014 A 
ATOM     40  C   UNL     1      -5.940 -10.366  -1.919  1.00  0.00     0.014 A 
ATOM     41  C   UNL     1      -8.420  -9.399  -2.761  1.00  0.00     0.010 A 
ATOM     42  C   UNL     1      -6.155 -10.099  -3.266  1.00  0.00     0.010 A 
ATOM     43  C   UNL     1      -7.402  -9.625  -3.702  1.00  0.00    -0.014 A 
BRANCH  43  44
ATOM     44  C   UNL     1      -7.627  -9.390  -5.149  1.00  0.00     0.031 A 
ATOM     45  C   UNL     1      -7.552 -10.538  -6.118  1.00  0.00     0.074 A 
ATOM     46  C   UNL     1      -7.847  -8.139  -5.599  1.00  0.00     0.049 A 
ATOM     47  N   UNL     1      -7.670 -10.528  -7.422  1.00  0.00    -0.248 NA
ATOM     48  C   UNL     1      -7.282 -11.870  -5.551  1.00  0.00     0.031 C 
ATOM     49  C   UNL     1      -7.910  -6.936  -4.766  1.00  0.00     0.029 A 
ATOM     50  N   UNL     1      -8.056  -7.673  -6.872  1.00  0.00    -0.354 N 
ATOM     51  C   UNL     1      -7.475 -11.842  -7.828  1.00  0.00     0.074 A 
ATOM     52  C   UNL     1      -7.172 -12.612  -6.642  1.00  0.00     0.031 C 
ATOM     53  C   UNL     1      -8.174  -5.876  -5.546  1.00  0.00     0.029 A 
ATOM     54  C   UNL     1      -8.253  -6.315  -6.936  1.00  0.00     0.049 A 
ATOM     55  H   UNL     1      -8.064  -8.256  -7.665  1.00  0.00     0.167 HD
ATOM     56  C   UNL     1      -7.561 -12.367  -9.073  1.00  0.00     0.031 A 
ATOM     57  C   UNL     1      -8.468  -5.512  -7.995  1.00  0.00     0.031 A 
ATOM     58  C   UNL     1      -7.868 -11.602 -10.251  1.00  0.00     0.049 A 
ATOM     59  C   UNL     1      -8.531  -6.115  -9.371  1.00  0.00     0.074 A 
ATOM     60  C   UNL     1      -8.027 -12.049 -11.551  1.00  0.00     0.029 A 
ATOM     61  N   UNL     1      -8.057 -10.229 -10.273  1.00  0.00    -0.354 N 
ATOM     62  N   UNL     1      -8.410  -7.371  -9.731  1.00  0.00    -0.248 NA
ATOM     63  C   UNL     1      -8.772  -5.190 -10.487  1.00  0.00     0.031 C 
ATOM     64  C   UNL     1      -8.254 -10.938 -12.369  1.00  0.00     0.029 A 
ATOM     65  C   UNL     1      -8.305  -9.808 -11.569  1.00  0.00     0.049 A 
ATOM     66  H   UNL     1      -8.021  -9.641  -9.484  1.00  0.00     0.167 HD
ATOM     67  C   UNL     1      -8.595  -7.390 -11.108  1.00  0.00     0.074 A 
ATOM     68  C   UNL     1      -8.850  -6.024 -11.515  1.00  0.00     0.031 C 
ATOM     69  C   UNL     1      -8.559  -8.445 -11.958  1.00  0.00     0.031 A 
BRANCH  56  70
ATOM     70  C   UNL     1      -7.308 -13.843  -9.221  1.00  0.00    -0.014 A 
ATOM     71  C   UNL     1      -8.202 -14.793  -8.702  1.00  0.00     0.009 A 
ATOM     72  C   UNL     1      -6.174 -14.290  -9.917  1.00  0.00     0.009 A 
ATOM     73  C   UNL     1      -7.944 -16.159  -8.840  1.00  0.00     0.001 A 
ATOM     74  C   UNL     1      -5.936 -15.656 -10.083  1.00  0.00     0.001 A 
ATOM     75  C   UNL     1      -6.815 -16.588  -9.536  1.00  0.00     0.000 A 
ENDBRANCH  56  70
BRANCH  57  76
ATOM     76  C   UNL     1      -8.653  -4.050  -7.799  1.00  0.00    -0.014 A 
ATOM     77  C   UNL     1      -9.901  -3.451  -8.031  1.00  0.00     0.009 A 
ATOM     78  C   UNL     1      -7.580  -3.241  -7.393  1.00  0.00     0.009 A 
ATOM     79  C   UNL     1     -10.062  -2.071  -7.892  1.00  0.00     0.001 A 
ATOM     80  C   UNL     1      -7.752  -1.866  -7.223  1.00  0.00     0.001 A 
ATOM     81  C   UNL     1      -8.990  -1.280  -7.483  1.00  0.00     0.000 A 
ENDBRANCH  57  76
BRANCH  69  82
ATOM     82  C   UNL     1      -8.846  -8.171 -13.409  1.00  0.00    -0.014 A 
ATOM     83  C   UNL     1      -7.935  -7.477 -14.220  1.00  0.00     0.009 A 
ATOM     84  C   UNL     1     -10.033  -8.656 -13.981  1.00  0.00     0.009 A 
ATOM     85  C   UNL     1      -8.225  -7.242 -15.566  1.00  0.00     0.001 A 
ATOM     86  C   UNL     1     -10.304  -8.450 -15.334  1.00  0.00     0.001 A 
ATOM     87  C   UNL     1      -9.405  -7.734 -16.123  1.00  0.00     0.000 A 
ENDBRANCH  69  82
ENDBRANCH  43  44
ENDBRANCH  35  38
ENDBRANCH  33  34
ENDBRANCH  32  33
ENDBRANCH   1  32
TORSDOF 16
