REMARK SMILES C[C@@H]1C(C(=O)NCCCCCCNC(=O)c2ccc(-c3c4nc(c(-c5ccccc5)c5ccc([nH]5)c(-c5ccccc5)c5nc(c(-c6ccccc6)c6ccc3[nH]6)C=C5)C=C4)cc2)=NC2=C1C(=O)C[C@H](c1ccccc1)C2
REMARK SMILES IDX 10 1 9 2 8 3 7 4 6 5 4 6 5 7 3 9 1 10 2 11 66 12 64 13 65 14
REMARK SMILES IDX 67 15 77 16 68 17 69 18 70 19 71 20 72 21 76 22 73 23 75 24
REMARK SMILES IDX 74 25 11 26 12 27 13 28 14 29 15 31 16 32 17 33 63 34 18 35
REMARK SMILES IDX 62 36 19 37 20 38 21 39 56 40 22 41 61 42 55 43 57 44 23 45
REMARK SMILES IDX 60 46 54 47 53 48 24 50 46 51 31 52 45 53 32 54 35 55 44 56
REMARK SMILES IDX 58 57 33 58 34 59 43 61 59 62 36 63 25 64 26 65 30 66 27 67
REMARK SMILES IDX 29 68 28 69 47 70 48 71 52 72 49 73 51 74 50 75 37 76 38 77
REMARK SMILES IDX 42 78 39 79 41 80 40 81
REMARK H PARENT 6 8 13 30 57 49 35 60
REMARK Flexibility Score: inf
ROOT
ATOM      1  C   UNL     1      -1.123  -1.070  -3.752  1.00  0.00     0.002 C 
ENDROOT
BRANCH   1   2
ATOM      2  C   UNL     1      -2.152  -1.303  -2.640  1.00  0.00     0.002 C 
BRANCH   2   3
ATOM      3  C   UNL     1      -1.657  -1.555  -1.219  1.00  0.00     0.021 C 
BRANCH   3   4
ATOM      4  C   UNL     1      -0.585  -0.652  -0.612  1.00  0.00     0.116 C 
BRANCH   4   5
ATOM      5  N   UNL     1      -0.776   0.782  -0.660  1.00  0.00    -0.351 N 
ATOM      6  C   UNL     1      -0.094   1.772   0.041  1.00  0.00     0.266 C 
ATOM      7  O   UNL     1      -0.083   2.918  -0.397  1.00  0.00    -0.268 OA
ATOM      8  H   UNL     1      -1.481   1.098  -1.270  1.00  0.00     0.163 HD
BRANCH   6   9
ATOM      9  C   UNL     1       0.507   1.506   1.425  1.00  0.00     0.113 C 
ATOM     10  C   UNL     1       2.786   0.578   1.851  1.00  0.00     0.020 C 
ATOM     11  C   UNL     1       1.292   0.272   1.783  1.00  0.00     0.076 C 
ATOM     12  C   UNL     1       0.678   0.229   3.144  1.00  0.00     0.026 C 
ATOM     13  N   UNL     1       0.271   2.302   2.441  1.00  0.00    -0.251 NA
ATOM     14  C   UNL     1       0.352   1.465   3.536  1.00  0.00     0.049 C 
ATOM     15  C   UNL     1      -0.257  -0.835   3.573  1.00  0.00     0.161 C 
ATOM     16  C   UNL     1      -0.523   1.685   4.736  1.00  0.00     0.065 C 
ATOM     17  O   UNL     1       0.045  -2.011   3.366  1.00  0.00    -0.294 OA
ATOM     18  C   UNL     1      -1.642  -0.450   4.136  1.00  0.00     0.089 C 
ATOM     19  C   UNL     1      -1.900   1.068   4.421  1.00  0.00     0.033 C 
BRANCH  19  20
ATOM     20  C   UNL     1      -2.674   1.859   3.346  1.00  0.00    -0.044 A 
ATOM     21  C   UNL     1      -2.419   3.233   3.137  1.00  0.00     0.004 A 
ATOM     22  C   UNL     1      -3.646   1.272   2.525  1.00  0.00     0.004 A 
ATOM     23  C   UNL     1      -2.945   3.928   2.048  1.00  0.00     0.000 A 
ATOM     24  C   UNL     1      -4.204   1.978   1.450  1.00  0.00     0.000 A 
ATOM     25  C   UNL     1      -3.822   3.291   1.187  1.00  0.00     0.000 A 
ENDBRANCH  19  20
ENDBRANCH   6   9
ENDBRANCH   4   5
ENDBRANCH   3   4
ENDBRANCH   2   3
ENDBRANCH   1   2
BRANCH   1  26
ATOM     26  C   UNL     1       0.012  -2.086  -3.927  1.00  0.00     0.021 C 
BRANCH  26  27
ATOM     27  C   UNL     1      -0.423  -3.523  -4.163  1.00  0.00     0.116 C 
BRANCH  27  28
ATOM     28  N   UNL     1      -1.120  -3.739  -5.433  1.00  0.00    -0.352 N 
ATOM     29  C   UNL     1      -1.581  -4.940  -5.959  1.00  0.00     0.251 C 
ATOM     30  H   UNL     1      -1.282  -2.937  -5.979  1.00  0.00     0.163 HD
ATOM     31  O   UNL     1      -1.804  -5.066  -7.150  1.00  0.00    -0.269 OA
BRANCH  29  32
ATOM     32  C   UNL     1      -1.818  -6.066  -5.033  1.00  0.00     0.039 A 
ATOM     33  C   UNL     1      -1.547  -7.395  -5.376  1.00  0.00     0.014 A 
ATOM     34  C   UNL     1      -2.317  -5.750  -3.774  1.00  0.00     0.014 A 
ATOM     35  C   UNL     1      -1.726  -8.385  -4.410  1.00  0.00     0.010 A 
ATOM     36  C   UNL     1      -2.280  -6.678  -2.775  1.00  0.00     0.010 A 
ATOM     37  C   UNL     1      -2.084  -8.009  -3.105  1.00  0.00    -0.014 A 
BRANCH  37  38
ATOM     38  C   UNL     1      -2.145  -8.964  -2.007  1.00  0.00     0.031 A 
ATOM     39  C   UNL     1      -0.842  -9.620  -1.746  1.00  0.00     0.074 A 
ATOM     40  C   UNL     1      -3.193  -9.016  -1.151  1.00  0.00     0.049 A 
ATOM     41  N   UNL     1      -0.508 -10.837  -2.018  1.00  0.00    -0.248 NA
ATOM     42  C   UNL     1       0.290  -8.777  -1.312  1.00  0.00     0.031 C 
ATOM     43  C   UNL     1      -4.367  -8.127  -1.124  1.00  0.00     0.029 A 
ATOM     44  N   UNL     1      -3.385  -9.781  -0.040  1.00  0.00    -0.354 N 
ATOM     45  C   UNL     1       0.785 -10.981  -1.523  1.00  0.00     0.074 A 
ATOM     46  C   UNL     1       1.300  -9.649  -1.354  1.00  0.00     0.031 C 
ATOM     47  C   UNL     1      -4.999  -8.236   0.066  1.00  0.00     0.029 A 
ATOM     48  C   UNL     1      -4.395  -9.326   0.807  1.00  0.00     0.049 A 
ATOM     49  H   UNL     1      -2.855 -10.589   0.149  1.00  0.00     0.167 HD
ATOM     50  C   UNL     1       1.162 -12.148  -0.928  1.00  0.00     0.031 A 
ATOM     51  C   UNL     1      -4.713  -9.807   2.035  1.00  0.00     0.031 A 
ATOM     52  C   UNL     1       0.174 -13.173  -1.158  1.00  0.00     0.049 A 
ATOM     53  C   UNL     1      -4.150 -11.169   2.129  1.00  0.00     0.074 A 
ATOM     54  C   UNL     1      -0.239 -13.963  -2.206  1.00  0.00     0.029 A 
ATOM     55  N   UNL     1      -0.838 -13.152  -0.232  1.00  0.00    -0.354 N 
ATOM     56  N   UNL     1      -4.568 -12.161   1.395  1.00  0.00    -0.248 NA
ATOM     57  C   UNL     1      -2.853 -11.361   2.766  1.00  0.00     0.031 C 
ATOM     58  C   UNL     1      -1.607 -14.275  -1.947  1.00  0.00     0.029 A 
ATOM     59  C   UNL     1      -1.976 -13.727  -0.719  1.00  0.00     0.049 A 
ATOM     60  H   UNL     1      -0.753 -12.769   0.671  1.00  0.00     0.167 HD
ATOM     61  C   UNL     1      -3.421 -12.879   1.116  1.00  0.00     0.074 A 
ATOM     62  C   UNL     1      -2.448 -12.457   2.118  1.00  0.00     0.031 C 
ATOM     63  C   UNL     1      -3.258 -13.488  -0.093  1.00  0.00     0.031 A 
BRANCH  50  64
ATOM     64  C   UNL     1       2.049 -12.228   0.302  1.00  0.00    -0.014 A 
ATOM     65  C   UNL     1       2.300 -13.500   0.853  1.00  0.00     0.009 A 
ATOM     66  C   UNL     1       2.385 -11.123   1.106  1.00  0.00     0.009 A 
ATOM     67  C   UNL     1       2.785 -13.652   2.159  1.00  0.00     0.001 A 
ATOM     68  C   UNL     1       2.900 -11.270   2.399  1.00  0.00     0.001 A 
ATOM     69  C   UNL     1       3.076 -12.536   2.935  1.00  0.00     0.000 A 
ENDBRANCH  50  64
BRANCH  51  70
ATOM     70  C   UNL     1      -5.282  -9.121   3.216  1.00  0.00    -0.014 A 
ATOM     71  C   UNL     1      -5.950  -9.839   4.222  1.00  0.00     0.009 A 
ATOM     72  C   UNL     1      -4.904  -7.797   3.499  1.00  0.00     0.009 A 
ATOM     73  C   UNL     1      -6.189  -9.267   5.481  1.00  0.00     0.001 A 
ATOM     74  C   UNL     1      -5.138  -7.228   4.758  1.00  0.00     0.001 A 
ATOM     75  C   UNL     1      -5.767  -7.968   5.754  1.00  0.00     0.000 A 
ENDBRANCH  51  70
BRANCH  63  76
ATOM     76  C   UNL     1      -4.489 -13.792  -0.895  1.00  0.00    -0.014 A 
ATOM     77  C   UNL     1      -5.312 -12.816  -1.479  1.00  0.00     0.009 A 
ATOM     78  C   UNL     1      -4.765 -15.143  -1.148  1.00  0.00     0.009 A 
ATOM     79  C   UNL     1      -6.393 -13.193  -2.285  1.00  0.00     0.001 A 
ATOM     80  C   UNL     1      -5.828 -15.517  -1.967  1.00  0.00     0.001 A 
ATOM     81  C   UNL     1      -6.645 -14.542  -2.533  1.00  0.00     0.000 A 
ENDBRANCH  63  76
ENDBRANCH  37  38
ENDBRANCH  29  32
ENDBRANCH  27  28
ENDBRANCH  26  27
ENDBRANCH   1  26
TORSDOF 14
