REMARK SMILES C[C@@H](NC(=O)[C@H]1CC=CC[C@@H]1C(=O)NCCCCCCNC(=O)c1ccc(-c2c3nc(c(-c4ccccc4)c4ccc([nH]4)c(-c4ccccc4)c4nc(c(-c5ccccc5)c5ccc2[nH]5)C=C4)C=C3)cc1)c1ccc(-n2ccnc2)cc1
REMARK SMILES IDX 16 1 15 2 14 3 12 4 13 5 11 7 6 8 7 9 8 10 10 11 9 12 4 13
REMARK SMILES IDX 3 14 5 16 2 17 1 18 72 19 73 20 82 21 74 22 81 23 75 24
REMARK SMILES IDX 76 25 77 26 80 27 78 28 79 29 17 30 18 31 19 32 20 33 21 34
REMARK SMILES IDX 22 35 23 37 24 38 25 39 71 40 26 41 70 42 27 43 28 44 29 45
REMARK SMILES IDX 64 46 30 47 69 48 63 49 65 50 31 51 68 52 62 53 61 54 32 56
REMARK SMILES IDX 54 57 39 58 53 59 40 60 43 61 52 62 66 63 41 64 42 65 51 67
REMARK SMILES IDX 67 68 44 69 33 70 34 71 38 72 35 73 37 74 36 75 55 76 56 77
REMARK SMILES IDX 60 78 57 79 59 80 58 81 45 82 46 83 50 84 47 85 49 86 48 87
REMARK H PARENT 14 6 3 15 21 36 65 55 43 66
REMARK Flexibility Score: inf
ROOT
ATOM      1  C   UNL     1      -4.252  -5.265   1.237  1.00  0.00     0.021 C 
ENDROOT
BRANCH   1   2
ATOM      2  C   UNL     1      -3.747  -5.509  -0.183  1.00  0.00     0.116 C 
BRANCH   2   3
ATOM      3  N   UNL     1      -4.112  -4.462  -1.093  1.00  0.00    -0.356 N 
ATOM      4  C   UNL     1      -3.364  -3.493  -1.652  1.00  0.00     0.224 C 
ATOM      5  O   UNL     1      -3.824  -2.981  -2.679  1.00  0.00    -0.275 OA
ATOM      6  H   UNL     1      -5.063  -4.451  -1.349  1.00  0.00     0.163 HD
BRANCH   4   7
ATOM      7  C   UNL     1      -2.041  -2.967  -1.079  1.00  0.00     0.095 C 
ATOM      8  C   UNL     1      -1.198  -3.570   0.575  1.00  0.00     0.095 C 
ATOM      9  C   UNL     1      -1.459  -2.555   2.137  1.00  0.00     0.041 C 
ATOM     10  C   UNL     1      -1.764  -0.766   2.105  1.00  0.00    -0.030 C 
ATOM     11  C   UNL     1      -2.220  -0.965  -1.143  1.00  0.00     0.041 C 
ATOM     12  C   UNL     1      -2.057  -0.020   0.821  1.00  0.00    -0.030 C 
BRANCH   8  13
ATOM     13  C   UNL     1       0.551  -3.501   0.468  1.00  0.00     0.224 C 
ATOM     14  N   UNL     1       1.337  -2.319   0.208  1.00  0.00    -0.349 N 
ATOM     15  H   UNL     1       2.269  -2.471   0.488  1.00  0.00     0.164 HD
ATOM     16  O   UNL     1       1.176  -4.543   0.704  1.00  0.00    -0.275 OA
BRANCH  14  17
ATOM     17  C   UNL     1       1.176  -0.756  -0.422  1.00  0.00     0.109 C 
ATOM     18  C   UNL     1       2.103   0.147   0.372  1.00  0.00     0.036 C 
BRANCH  17  19
ATOM     19  C   UNL     1      -0.254  -0.215  -0.391  1.00  0.00    -0.026 A 
ATOM     20  C   UNL     1      -1.266   1.075  -0.958  1.00  0.00     0.008 A 
ATOM     21  C   UNL     1      -1.065  -1.533   0.185  1.00  0.00     0.008 A 
ATOM     22  C   UNL     1      -3.062   1.037  -0.843  1.00  0.00     0.027 A 
ATOM     23  C   UNL     1      -2.993  -1.699   0.439  1.00  0.00     0.027 A 
ATOM     24  C   UNL     1      -3.951  -0.308  -0.094  1.00  0.00     0.046 A 
BRANCH  24  25
ATOM     25  N   UNL     1      -5.340  -0.471  -0.146  1.00  0.00    -0.306 N 
ATOM     26  C   UNL     1      -6.077  -1.321   0.642  1.00  0.00     0.113 A 
ATOM     27  C   UNL     1      -6.205   0.055  -1.067  1.00  0.00     0.204 A 
ATOM     28  C   UNL     1      -7.352  -1.286   0.134  1.00  0.00     0.131 A 
ATOM     29  N   UNL     1      -7.425  -0.423  -0.926  1.00  0.00    -0.245 NA
ENDBRANCH  24  25
ENDBRANCH  17  19
ENDBRANCH  14  17
ENDBRANCH   8  13
ENDBRANCH   4   7
ENDBRANCH   2   3
ENDBRANCH   1   2
BRANCH   1  30
ATOM     30  C   UNL     1      -5.780  -5.226   1.354  1.00  0.00     0.002 C 
BRANCH  30  31
ATOM     31  C   UNL     1      -6.478  -6.456   0.771  1.00  0.00     0.002 C 
BRANCH  31  32
ATOM     32  C   UNL     1      -5.882  -7.784   1.241  1.00  0.00     0.021 C 
BRANCH  32  33
ATOM     33  C   UNL     1      -5.891  -7.939   2.753  1.00  0.00     0.116 C 
BRANCH  33  34
ATOM     34  N   UNL     1      -7.252  -8.009   3.249  1.00  0.00    -0.352 N 
ATOM     35  C   UNL     1      -7.879  -9.081   3.825  1.00  0.00     0.251 C 
ATOM     36  H   UNL     1      -7.789  -7.188   3.162  1.00  0.00     0.163 HD
ATOM     37  O   UNL     1      -9.102  -9.143   3.871  1.00  0.00    -0.269 OA
BRANCH  35  38
ATOM     38  C   UNL     1      -7.051 -10.161   4.396  1.00  0.00     0.039 A 
ATOM     39  C   UNL     1      -7.430 -11.487   4.199  1.00  0.00     0.014 A 
ATOM     40  C   UNL     1      -5.904  -9.849   5.135  1.00  0.00     0.014 A 
ATOM     41  C   UNL     1      -6.646 -12.506   4.737  1.00  0.00     0.010 A 
ATOM     42  C   UNL     1      -5.071 -10.865   5.580  1.00  0.00     0.010 A 
ATOM     43  C   UNL     1      -5.455 -12.202   5.418  1.00  0.00    -0.014 A 
BRANCH  43  44
ATOM     44  C   UNL     1      -4.627 -13.275   6.017  1.00  0.00     0.031 A 
ATOM     45  C   UNL     1      -4.432 -13.327   7.508  1.00  0.00     0.074 A 
ATOM     46  C   UNL     1      -4.035 -14.182   5.218  1.00  0.00     0.049 A 
ATOM     47  N   UNL     1      -3.748 -14.186   8.220  1.00  0.00    -0.248 NA
ATOM     48  C   UNL     1      -5.066 -12.261   8.303  1.00  0.00     0.031 C 
ATOM     49  C   UNL     1      -4.118 -14.207   3.756  1.00  0.00     0.029 A 
ATOM     50  N   UNL     1      -3.250 -15.263   5.526  1.00  0.00    -0.354 N 
ATOM     51  C   UNL     1      -3.861 -13.757   9.537  1.00  0.00     0.074 A 
ATOM     52  C   UNL     1      -4.619 -12.527   9.520  1.00  0.00     0.031 C 
ATOM     53  C   UNL     1      -3.448 -15.277   3.298  1.00  0.00     0.029 A 
ATOM     54  C   UNL     1      -2.853 -15.984   4.427  1.00  0.00     0.049 A 
ATOM     55  H   UNL     1      -2.996 -15.500   6.448  1.00  0.00     0.167 HD
ATOM     56  C   UNL     1      -3.400 -14.348  10.664  1.00  0.00     0.031 A 
ATOM     57  C   UNL     1      -2.093 -17.090   4.341  1.00  0.00     0.031 A 
ATOM     58  C   UNL     1      -2.648 -15.574  10.675  1.00  0.00     0.049 A 
ATOM     59  C   UNL     1      -1.571 -17.715   5.606  1.00  0.00     0.074 A 
ATOM     60  C   UNL     1      -2.172 -16.283  11.763  1.00  0.00     0.029 A 
ATOM     61  N   UNL     1      -2.258 -16.268   9.540  1.00  0.00    -0.354 N 
ATOM     62  N   UNL     1      -1.748 -17.338   6.850  1.00  0.00    -0.248 NA
ATOM     63  C   UNL     1      -0.760 -18.929   5.453  1.00  0.00     0.031 C 
ATOM     64  C   UNL     1      -1.437 -17.372  11.284  1.00  0.00     0.029 A 
ATOM     65  C   UNL     1      -1.522 -17.384   9.901  1.00  0.00     0.049 A 
ATOM     66  H   UNL     1      -2.472 -16.007   8.615  1.00  0.00     0.167 HD
ATOM     67  C   UNL     1      -1.098 -18.287   7.629  1.00  0.00     0.074 A 
ATOM     68  C   UNL     1      -0.543 -19.266   6.717  1.00  0.00     0.031 C 
ATOM     69  C   UNL     1      -0.974 -18.346   8.978  1.00  0.00     0.031 A 
BRANCH  56  70
ATOM     70  C   UNL     1      -3.688 -13.665  11.974  1.00  0.00    -0.014 A 
ATOM     71  C   UNL     1      -4.997 -13.569  12.477  1.00  0.00     0.009 A 
ATOM     72  C   UNL     1      -2.633 -13.133  12.731  1.00  0.00     0.009 A 
ATOM     73  C   UNL     1      -5.246 -12.918  13.687  1.00  0.00     0.001 A 
ATOM     74  C   UNL     1      -2.880 -12.515  13.958  1.00  0.00     0.001 A 
ATOM     75  C   UNL     1      -4.187 -12.398  14.430  1.00  0.00     0.000 A 
ENDBRANCH  56  70
BRANCH  57  76
ATOM     76  C   UNL     1      -1.791 -17.687   3.013  1.00  0.00    -0.014 A 
ATOM     77  C   UNL     1      -2.315 -18.938   2.652  1.00  0.00     0.009 A 
ATOM     78  C   UNL     1      -0.966 -17.010   2.100  1.00  0.00     0.009 A 
ATOM     79  C   UNL     1      -1.991 -19.514   1.421  1.00  0.00     0.001 A 
ATOM     80  C   UNL     1      -0.673 -17.572   0.856  1.00  0.00     0.001 A 
ATOM     81  C   UNL     1      -1.174 -18.828   0.523  1.00  0.00     0.000 A 
ENDBRANCH  57  76
BRANCH  69  82
ATOM     82  C   UNL     1      -0.248 -19.533   9.549  1.00  0.00    -0.014 A 
ATOM     83  C   UNL     1       1.134 -19.705   9.376  1.00  0.00     0.009 A 
ATOM     84  C   UNL     1      -0.961 -20.481  10.301  1.00  0.00     0.009 A 
ATOM     85  C   UNL     1       1.777 -20.827   9.904  1.00  0.00     0.001 A 
ATOM     86  C   UNL     1      -0.310 -21.580  10.860  1.00  0.00     0.001 A 
ATOM     87  C   UNL     1       1.056 -21.760  10.649  1.00  0.00     0.000 A 
ENDBRANCH  69  82
ENDBRANCH  43  44
ENDBRANCH  35  38
ENDBRANCH  33  34
ENDBRANCH  32  33
ENDBRANCH  31  32
ENDBRANCH  30  31
ENDBRANCH   1  30
TORSDOF 17
