REMARK SMILES COC(=O)C1=C(C)N(c2ccccc2)C(=S)N[C@@H]1c1ccc(C(=O)NCCCCCCNC(=O)c2ccc(-c3c4nc(c(-c5ccccc5)c5ccc([nH]5)c(-c5ccccc5)c5nc(c(-c6ccccc6)c6ccc3[nH]6)C=C5)C=C4)cc2)cc1
REMARK SMILES IDX 28 1 27 2 26 3 25 4 23 5 24 6 22 8 19 9 20 10 84 11 21 12
REMARK SMILES IDX 83 13 18 14 5 15 6 16 7 17 8 18 17 19 15 20 16 22 3 23 4 24
REMARK SMILES IDX 2 25 1 26 9 27 10 28 14 29 11 30 13 31 12 32 29 33 30 34
REMARK SMILES IDX 31 35 32 36 33 37 34 39 35 40 36 41 82 42 37 43 81 44 38 45
REMARK SMILES IDX 39 46 40 47 75 48 41 49 80 50 74 51 76 52 42 53 79 54 73 55
REMARK SMILES IDX 72 56 43 58 65 59 50 60 64 61 51 62 54 63 63 64 77 65 52 66
REMARK SMILES IDX 53 67 62 69 78 70 55 71 44 72 45 73 49 74 46 75 48 76 47 77
REMARK SMILES IDX 66 78 67 79 71 80 68 81 70 82 69 83 56 84 57 85 61 86 58 87
REMARK SMILES IDX 60 88 59 89
REMARK H PARENT 25 7 17 21 32 38 76 57 54 68
REMARK Flexibility Score: inf
ROOT
ATOM      1  C   UNL     1      -8.654  -3.636   4.604  1.00  0.00     0.002 C 
ENDROOT
BRANCH   1   2
ATOM      2  C   UNL     1      -7.547  -2.578   4.493  1.00  0.00     0.021 C 
BRANCH   2   3
ATOM      3  C   UNL     1      -6.428  -2.747   5.522  1.00  0.00     0.116 C 
BRANCH   3   4
ATOM      4  N   UNL     1      -5.605  -3.893   5.186  1.00  0.00    -0.352 N 
ATOM      5  C   UNL     1      -4.329  -3.985   4.699  1.00  0.00     0.251 C 
ATOM      6  O   UNL     1      -3.842  -5.103   4.540  1.00  0.00    -0.269 OA
ATOM      7  H   UNL     1      -6.044  -4.761   5.336  1.00  0.00     0.163 HD
BRANCH   5   8
ATOM      8  C   UNL     1      -3.496  -2.789   4.422  1.00  0.00     0.039 A 
ATOM      9  C   UNL     1      -1.758  -0.604   3.964  1.00  0.00    -0.021 A 
ATOM     10  C   UNL     1      -1.292  -1.786   4.565  1.00  0.00     0.007 A 
ATOM     11  C   UNL     1      -3.110  -0.545   3.582  1.00  0.00     0.007 A 
ATOM     12  C   UNL     1      -2.147  -2.867   4.780  1.00  0.00     0.014 A 
ATOM     13  C   UNL     1      -3.966  -1.635   3.791  1.00  0.00     0.014 A 
BRANCH   9  14
ATOM     14  C   UNL     1      -0.861   0.618   3.769  1.00  0.00     0.151 C 
ATOM     15  C   UNL     1       0.597   0.311   3.657  1.00  0.00     0.083 C 
ATOM     16  C   UNL     1       1.443   0.419   4.706  1.00  0.00     0.035 C 
ATOM     17  C   UNL     1       2.877  -0.058   4.643  1.00  0.00     0.065 C 
ATOM     18  N   UNL     1       0.944   0.923   5.937  1.00  0.00    -0.291 N 
ATOM     19  N   UNL     1      -1.068   1.538   4.860  1.00  0.00    -0.351 N 
ATOM     20  C   UNL     1      -0.304   1.585   5.991  1.00  0.00     0.178 C 
ATOM     21  H   UNL     1      -1.813   2.177   4.785  1.00  0.00     0.163 HD
ATOM     22  S   UNL     1      -0.938   2.508   7.247  1.00  0.00    -0.040 S 
BRANCH  15  23
ATOM     23  C   UNL     1       0.990  -0.285   2.362  1.00  0.00     0.337 C 
ATOM     24  O   UNL     1       1.505  -1.382   2.234  1.00  0.00    -0.246 OA
BRANCH  23  25
ATOM     25  O   UNL     1       0.660   0.568   1.360  1.00  0.00    -0.466 OA
ATOM     26  C   UNL     1       0.955   0.063   0.056  1.00  0.00     0.282 C 
ENDBRANCH  23  25
ENDBRANCH  15  23
BRANCH  18  27
ATOM     27  C   UNL     1       1.659   0.726   7.169  1.00  0.00     0.048 A 
ATOM     28  C   UNL     1       2.907   1.313   7.401  1.00  0.00     0.027 A 
ATOM     29  C   UNL     1       1.096  -0.099   8.156  1.00  0.00     0.027 A 
ATOM     30  C   UNL     1       3.591   1.060   8.593  1.00  0.00     0.002 A 
ATOM     31  C   UNL     1       1.776  -0.341   9.351  1.00  0.00     0.002 A 
ATOM     32  C   UNL     1       3.027   0.234   9.565  1.00  0.00     0.000 A 
ENDBRANCH  18  27
ENDBRANCH   9  14
ENDBRANCH   5   8
ENDBRANCH   3   4
ENDBRANCH   2   3
ENDBRANCH   1   2
BRANCH   1  33
ATOM     33  C   UNL     1      -9.482  -3.582   5.894  1.00  0.00     0.002 C 
BRANCH  33  34
ATOM     34  C   UNL     1     -10.142  -2.233   6.193  1.00  0.00     0.021 C 
BRANCH  34  35
ATOM     35  C   UNL     1     -11.096  -1.731   5.112  1.00  0.00     0.116 C 
BRANCH  35  36
ATOM     36  N   UNL     1     -12.277  -2.569   4.989  1.00  0.00    -0.352 N 
ATOM     37  C   UNL     1     -13.599  -2.201   4.949  1.00  0.00     0.251 C 
ATOM     38  H   UNL     1     -12.105  -3.536   4.926  1.00  0.00     0.163 HD
ATOM     39  O   UNL     1     -14.481  -3.051   5.019  1.00  0.00    -0.269 OA
BRANCH  37  40
ATOM     40  C   UNL     1     -13.965  -0.773   4.839  1.00  0.00     0.039 A 
ATOM     41  C   UNL     1     -14.951  -0.262   5.688  1.00  0.00     0.014 A 
ATOM     42  C   UNL     1     -13.357   0.053   3.888  1.00  0.00     0.014 A 
ATOM     43  C   UNL     1     -15.292   1.090   5.620  1.00  0.00     0.010 A 
ATOM     44  C   UNL     1     -13.665   1.411   3.853  1.00  0.00     0.010 A 
ATOM     45  C   UNL     1     -14.635   1.942   4.718  1.00  0.00    -0.014 A 
BRANCH  45  46
ATOM     46  C   UNL     1     -14.950   3.390   4.662  1.00  0.00     0.031 A 
ATOM     47  C   UNL     1     -15.630   3.971   3.455  1.00  0.00     0.074 A 
ATOM     48  C   UNL     1     -14.564   4.195   5.671  1.00  0.00     0.049 A 
ATOM     49  N   UNL     1     -15.917   5.221   3.192  1.00  0.00    -0.248 NA
ATOM     50  C   UNL     1     -16.017   3.027   2.395  1.00  0.00     0.031 C 
ATOM     51  C   UNL     1     -13.867   3.762   6.883  1.00  0.00     0.029 A 
ATOM     52  N   UNL     1     -14.697   5.551   5.828  1.00  0.00    -0.354 N 
ATOM     53  C   UNL     1     -16.498   5.216   1.930  1.00  0.00     0.074 A 
ATOM     54  C   UNL     1     -16.495   3.844   1.468  1.00  0.00     0.031 C 
ATOM     55  C   UNL     1     -13.647   4.830   7.667  1.00  0.00     0.029 A 
ATOM     56  C   UNL     1     -14.159   6.024   7.000  1.00  0.00     0.049 A 
ATOM     57  H   UNL     1     -15.135   6.131   5.164  1.00  0.00     0.167 HD
ATOM     58  C   UNL     1     -16.999   6.257   1.224  1.00  0.00     0.031 A 
ATOM     59  C   UNL     1     -14.083   7.278   7.482  1.00  0.00     0.031 A 
ATOM     60  C   UNL     1     -17.024   7.618   1.687  1.00  0.00     0.049 A 
ATOM     61  C   UNL     1     -14.659   8.413   6.686  1.00  0.00     0.074 A 
ATOM     62  C   UNL     1     -17.561   8.732   1.064  1.00  0.00     0.029 A 
ATOM     63  N   UNL     1     -16.493   8.050   2.892  1.00  0.00    -0.354 N 
ATOM     64  N   UNL     1     -15.248   8.384   5.516  1.00  0.00    -0.248 NA
ATOM     65  C   UNL     1     -14.566   9.753   7.283  1.00  0.00     0.031 C 
ATOM     66  C   UNL     1     -17.328   9.844   1.880  1.00  0.00     0.029 A 
ATOM     67  C   UNL     1     -16.677   9.415   3.026  1.00  0.00     0.049 A 
ATOM     68  H   UNL     1     -16.050   7.471   3.554  1.00  0.00     0.167 HD
ATOM     69  C   UNL     1     -15.617   9.695   5.247  1.00  0.00     0.074 A 
ATOM     70  C   UNL     1     -15.194  10.493   6.380  1.00  0.00     0.031 C 
ATOM     71  C   UNL     1     -16.252  10.192   4.159  1.00  0.00     0.031 A 
BRANCH  58  72
ATOM     72  C   UNL     1     -17.558   5.959  -0.137  1.00  0.00    -0.014 A 
ATOM     73  C   UNL     1     -18.796   5.313  -0.285  1.00  0.00     0.009 A 
ATOM     74  C   UNL     1     -16.854   6.356  -1.284  1.00  0.00     0.009 A 
ATOM     75  C   UNL     1     -19.302   5.043  -1.558  1.00  0.00     0.001 A 
ATOM     76  C   UNL     1     -17.374   6.105  -2.554  1.00  0.00     0.001 A 
ATOM     77  C   UNL     1     -18.593   5.442  -2.691  1.00  0.00     0.000 A 
ENDBRANCH  58  72
BRANCH  59  78
ATOM     78  C   UNL     1     -13.450   7.526   8.801  1.00  0.00    -0.014 A 
ATOM     79  C   UNL     1     -14.242   7.813   9.923  1.00  0.00     0.009 A 
ATOM     80  C   UNL     1     -12.055   7.476   8.945  1.00  0.00     0.009 A 
ATOM     81  C   UNL     1     -13.648   8.066  11.161  1.00  0.00     0.001 A 
ATOM     82  C   UNL     1     -11.465   7.709  10.189  1.00  0.00     0.001 A 
ATOM     83  C   UNL     1     -12.261   8.011  11.293  1.00  0.00     0.000 A 
ENDBRANCH  59  78
BRANCH  71  84
ATOM     84  C   UNL     1     -16.554  11.662   4.157  1.00  0.00    -0.014 A 
ATOM     85  C   UNL     1     -15.550  12.607   3.896  1.00  0.00     0.009 A 
ATOM     86  C   UNL     1     -17.867  12.102   4.382  1.00  0.00     0.009 A 
ATOM     87  C   UNL     1     -15.853  13.969   3.887  1.00  0.00     0.001 A 
ATOM     88  C   UNL     1     -18.170  13.463   4.353  1.00  0.00     0.001 A 
ATOM     89  C   UNL     1     -17.162  14.396   4.112  1.00  0.00     0.000 A 
ENDBRANCH  71  84
ENDBRANCH  45  46
ENDBRANCH  37  40
ENDBRANCH  35  36
ENDBRANCH  34  35
ENDBRANCH  33  34
ENDBRANCH   1  33
TORSDOF 17
