REMARK SMILES CC[C@](C)([NH2+]CC(=O)NCC(F)(F)F)C(=O)NCCCCCCNC(=O)c1ccc(-c2c3nc(c(-c4ccccc4)c4ccc([nH]4)c(-c4ccccc4)c4nc(c(-c5ccccc5)c5ccc2[nH]5)C=C4)C=C3)cc1
REMARK SMILES IDX 19 1 18 2 17 3 15 4 16 5 3 7 4 8 2 9 1 10 5 11 6 14 7 15
REMARK SMILES IDX 8 16 9 17 10 19 11 20 12 21 13 22 14 23 20 24 21 25 22 26
REMARK SMILES IDX 23 27 24 28 25 29 26 31 27 32 28 33 74 34 29 35 73 36 30 37
REMARK SMILES IDX 31 38 32 39 67 40 33 41 72 42 66 43 68 44 34 45 71 46 65 47
REMARK SMILES IDX 64 48 35 50 57 51 42 52 56 53 43 54 46 55 55 56 69 57 44 58
REMARK SMILES IDX 45 59 54 61 70 62 47 63 36 64 37 65 41 66 38 67 40 68 39 69
REMARK SMILES IDX 58 70 59 71 63 72 60 73 62 74 61 75 48 76 49 77 53 78 50 79
REMARK SMILES IDX 52 80 51 81
REMARK H PARENT 17 6 5 12 5 13 9 18 24 30 68 49 46 60
REMARK Flexibility Score: inf
ROOT
ATOM      1  C   UNL     1       3.846  -0.149  -5.628  1.00  0.00     0.021 C 
ENDROOT
BRANCH   1   2
ATOM      2  C   UNL     1       3.417  -0.645  -4.247  1.00  0.00     0.116 C 
BRANCH   2   3
ATOM      3  N   UNL     1       3.021   0.424  -3.328  1.00  0.00    -0.351 N 
ATOM      4  C   UNL     1       2.135   0.248  -2.283  1.00  0.00     0.281 C 
ATOM      5  O   UNL     1       2.623   0.011  -1.173  1.00  0.00    -0.268 OA
ATOM      6  H   UNL     1       3.409   1.319  -3.462  1.00  0.00     0.163 HD
BRANCH   4   7
ATOM      7  C   UNL     1       0.586   0.521  -2.441  1.00  0.00     0.172 C 
ATOM      8  C   UNL     1       0.452   1.917  -1.766  1.00  0.00     0.090 C 
BRANCH   7   9
ATOM      9  C   UNL     1      -0.342  -0.466  -1.671  1.00  0.00     0.075 C 
ATOM     10  C   UNL     1      -1.627   0.068  -1.042  1.00  0.00     0.011 C 
ENDBRANCH   7   9
BRANCH   7  11
ATOM     11  N   UNL     1       0.127   0.643  -3.830  1.00  0.00    -0.326 N 
ATOM     12  H   UNL     1       0.630   1.439  -4.223  1.00  0.00     0.347 HD
ATOM     13  H   UNL     1      -0.884   0.689  -3.706  1.00  0.00     0.347 HD
BRANCH  11  14
ATOM     14  C   UNL     1       0.251  -0.441  -4.817  1.00  0.00     0.362 C 
BRANCH  14  15
ATOM     15  C   UNL     1      -0.198  -1.898  -4.560  1.00  0.00     0.275 C 
ATOM     16  O   UNL     1      -1.149  -2.334  -5.229  1.00  0.00    -0.269 OA
ATOM     17  N   UNL     1       0.377  -2.845  -3.766  1.00  0.00    -0.342 N 
ATOM     18  H   UNL     1      -0.074  -3.714  -3.866  1.00  0.00     0.164 HD
BRANCH  17  19
ATOM     19  C   UNL     1       1.488  -2.929  -2.796  1.00  0.00     0.231 C 
BRANCH  19  20
ATOM     20  C   UNL     1       1.226  -3.672  -1.474  1.00  0.00     0.405 C 
ATOM     21  F   UNL     1       1.249  -5.009  -1.661  1.00  0.00    -0.169 F 
ATOM     22  F   UNL     1       2.178  -3.372  -0.561  1.00  0.00    -0.169 F 
ATOM     23  F   UNL     1       0.029  -3.353  -0.937  1.00  0.00    -0.169 F 
ENDBRANCH  19  20
ENDBRANCH  17  19
ENDBRANCH  14  15
ENDBRANCH  11  14
ENDBRANCH   7  11
ENDBRANCH   4   7
ENDBRANCH   2   3
ENDBRANCH   1   2
BRANCH   1  24
ATOM     24  C   UNL     1       5.213  -0.679  -6.065  1.00  0.00     0.002 C 
BRANCH  24  25
ATOM     25  C   UNL     1       5.331  -2.205  -6.185  1.00  0.00     0.002 C 
BRANCH  25  26
ATOM     26  C   UNL     1       4.402  -2.879  -7.198  1.00  0.00     0.021 C 
BRANCH  26  27
ATOM     27  C   UNL     1       4.463  -2.320  -8.617  1.00  0.00     0.116 C 
BRANCH  27  28
ATOM     28  N   UNL     1       5.814  -2.335  -9.163  1.00  0.00    -0.352 N 
ATOM     29  C   UNL     1       6.283  -2.903 -10.316  1.00  0.00     0.251 C 
ATOM     30  H   UNL     1       6.489  -1.866  -8.622  1.00  0.00     0.163 HD
ATOM     31  O   UNL     1       7.498  -2.977 -10.522  1.00  0.00    -0.269 OA
BRANCH  29  32
ATOM     32  C   UNL     1       5.339  -3.442 -11.313  1.00  0.00     0.039 A 
ATOM     33  C   UNL     1       5.584  -4.695 -11.880  1.00  0.00     0.014 A 
ATOM     34  C   UNL     1       4.215  -2.703 -11.692  1.00  0.00     0.014 A 
ATOM     35  C   UNL     1       4.667  -5.236 -12.783  1.00  0.00     0.010 A 
ATOM     36  C   UNL     1       3.267  -3.274 -12.535  1.00  0.00     0.010 A 
ATOM     37  C   UNL     1       3.485  -4.544 -13.092  1.00  0.00    -0.014 A 
BRANCH  37  38
ATOM     38  C   UNL     1       2.461  -5.120 -13.999  1.00  0.00     0.031 A 
ATOM     39  C   UNL     1       2.139  -4.432 -15.298  1.00  0.00     0.074 A 
ATOM     40  C   UNL     1       1.768  -6.212 -13.618  1.00  0.00     0.049 A 
ATOM     41  N   UNL     1       1.212  -4.719 -16.176  1.00  0.00    -0.248 NA
ATOM     42  C   UNL     1       2.947  -3.250 -15.644  1.00  0.00     0.031 C 
ATOM     43  C   UNL     1       1.965  -6.951 -12.368  1.00  0.00     0.029 A 
ATOM     44  N   UNL     1       0.744  -6.882 -14.239  1.00  0.00    -0.354 N 
ATOM     45  C   UNL     1       1.306  -3.740 -17.157  1.00  0.00     0.074 A 
ATOM     46  C   UNL     1       2.354  -2.831 -16.753  1.00  0.00     0.031 C 
ATOM     47  C   UNL     1       1.105  -7.982 -12.327  1.00  0.00     0.029 A 
ATOM     48  C   UNL     1       0.265  -7.950 -13.518  1.00  0.00     0.049 A 
ATOM     49  H   UNL     1       0.386  -6.622 -15.119  1.00  0.00     0.167 HD
ATOM     50  C   UNL     1       0.590  -3.618 -18.300  1.00  0.00     0.031 A 
ATOM     51  C   UNL     1      -0.750  -8.796 -13.781  1.00  0.00     0.031 A 
ATOM     52  C   UNL     1      -0.432  -4.540 -18.713  1.00  0.00     0.049 A 
ATOM     53  C   UNL     1      -1.538  -8.620 -15.052  1.00  0.00     0.074 A 
ATOM     54  C   UNL     1      -1.159  -4.546 -19.891  1.00  0.00     0.029 A 
ATOM     55  N   UNL     1      -0.876  -5.616 -17.961  1.00  0.00    -0.354 N 
ATOM     56  N   UNL     1      -1.378  -7.740 -16.010  1.00  0.00    -0.248 NA
ATOM     57  C   UNL     1      -2.643  -9.563 -15.280  1.00  0.00     0.031 C 
ATOM     58  C   UNL     1      -2.087  -5.588 -19.825  1.00  0.00     0.029 A 
ATOM     59  C   UNL     1      -1.891  -6.271 -18.636  1.00  0.00     0.049 A 
ATOM     60  H   UNL     1      -0.523  -5.875 -17.079  1.00  0.00     0.167 HD
ATOM     61  C   UNL     1      -2.333  -8.050 -16.970  1.00  0.00     0.074 A 
ATOM     62  C   UNL     1      -3.058  -9.205 -16.486  1.00  0.00     0.031 C 
ATOM     63  C   UNL     1      -2.588  -7.433 -18.149  1.00  0.00     0.031 A 
BRANCH  50  64
ATOM     64  C   UNL     1       0.875  -2.440 -19.189  1.00  0.00    -0.014 A 
ATOM     65  C   UNL     1       2.062  -2.353 -19.931  1.00  0.00     0.009 A 
ATOM     66  C   UNL     1      -0.099  -1.440 -19.345  1.00  0.00     0.009 A 
ATOM     67  C   UNL     1       2.278  -1.277 -20.795  1.00  0.00     0.001 A 
ATOM     68  C   UNL     1       0.107  -0.381 -20.230  1.00  0.00     0.001 A 
ATOM     69  C   UNL     1       1.298  -0.297 -20.950  1.00  0.00     0.000 A 
ENDBRANCH  50  64
BRANCH  51  70
ATOM     70  C   UNL     1      -1.095  -9.886 -12.829  1.00  0.00    -0.014 A 
ATOM     71  C   UNL     1      -0.922 -11.231 -13.193  1.00  0.00     0.009 A 
ATOM     72  C   UNL     1      -1.650  -9.593 -11.574  1.00  0.00     0.009 A 
ATOM     73  C   UNL     1      -1.339 -12.257 -12.341  1.00  0.00     0.001 A 
ATOM     74  C   UNL     1      -2.033 -10.620 -10.709  1.00  0.00     0.001 A 
ATOM     75  C   UNL     1      -1.893 -11.951 -11.100  1.00  0.00     0.000 A 
ENDBRANCH  51  70
BRANCH  63  76
ATOM     76  C   UNL     1      -3.652  -8.027 -19.028  1.00  0.00    -0.014 A 
ATOM     77  C   UNL     1      -5.012  -7.933 -18.699  1.00  0.00     0.009 A 
ATOM     78  C   UNL     1      -3.284  -8.642 -20.235  1.00  0.00     0.009 A 
ATOM     79  C   UNL     1      -5.981  -8.472 -19.548  1.00  0.00     0.001 A 
ATOM     80  C   UNL     1      -4.255  -9.149 -21.098  1.00  0.00     0.001 A 
ATOM     81  C   UNL     1      -5.602  -9.072 -20.749  1.00  0.00     0.000 A 
ENDBRANCH  63  76
ENDBRANCH  37  38
ENDBRANCH  29  32
ENDBRANCH  27  28
ENDBRANCH  26  27
ENDBRANCH  25  26
ENDBRANCH  24  25
ENDBRANCH   1  24
TORSDOF 19
