REMARK SMILES C[C@@H](c1ccccc1)[C@@H](CC(=O)Nc1ccccc1I)C(=O)NCCCCCCNC(=O)c1ccc(-c2c3nc(c(-c4ccccc4)c4ccc([nH]4)c(-c4ccccc4)c4nc(c(-c5ccccc5)c5ccc2[nH]5)C=C4)C=C3)cc1
REMARK SMILES IDX 26 1 25 2 24 3 23 4 21 5 22 6 9 8 2 9 1 10 3 11 4 12 8 13
REMARK SMILES IDX 5 14 7 15 6 16 10 17 11 18 12 19 13 20 14 22 15 23 19 24
REMARK SMILES IDX 16 25 18 26 20 27 17 28 27 29 28 30 29 31 30 32 31 33 32 35
REMARK SMILES IDX 33 36 34 37 80 38 35 39 79 40 36 41 37 42 38 43 73 44 39 45
REMARK SMILES IDX 78 46 72 47 74 48 40 49 77 50 71 51 70 52 41 54 63 55 48 56
REMARK SMILES IDX 62 57 49 58 52 59 61 60 75 61 50 62 51 63 60 65 76 66 53 67
REMARK SMILES IDX 42 68 43 69 47 70 44 71 46 72 45 73 64 74 65 75 69 76 66 77
REMARK SMILES IDX 68 78 67 79 54 80 55 81 59 82 56 83 58 84 57 85
REMARK H PARENT 23 7 13 21 30 34 74 53 52 64
REMARK Flexibility Score: inf
ROOT
ATOM      1  C   UNL     1      -0.205  -0.175  -6.920  1.00  0.00     0.002 C 
ENDROOT
BRANCH   1   2
ATOM      2  C   UNL     1       0.472  -0.197  -5.559  1.00  0.00     0.021 C 
BRANCH   2   3
ATOM      3  C   UNL     1      -0.387   0.123  -4.348  1.00  0.00     0.116 C 
BRANCH   3   4
ATOM      4  N   UNL     1      -1.200  -0.951  -3.853  1.00  0.00    -0.356 N 
ATOM      5  C   UNL     1      -1.629  -1.195  -2.589  1.00  0.00     0.224 C 
ATOM      6  O   UNL     1      -2.592  -1.971  -2.504  1.00  0.00    -0.275 OA
ATOM      7  H   UNL     1      -1.487  -1.607  -4.529  1.00  0.00     0.163 HD
BRANCH   5   8
ATOM      8  C   UNL     1      -1.016  -0.613  -1.287  1.00  0.00     0.095 C 
BRANCH   8   9
ATOM      9  C   UNL     1       0.272  -1.267  -0.729  1.00  0.00     0.029 C 
ATOM     10  C   UNL     1       0.512  -0.843   0.740  1.00  0.00     0.013 C 
BRANCH   9  11
ATOM     11  C   UNL     1       0.532  -2.767  -0.820  1.00  0.00    -0.044 A 
ATOM     12  C   UNL     1      -0.448  -3.745  -0.990  1.00  0.00     0.004 A 
ATOM     13  C   UNL     1       1.871  -3.203  -0.693  1.00  0.00     0.004 A 
ATOM     14  C   UNL     1      -0.094  -5.098  -1.107  1.00  0.00     0.000 A 
ATOM     15  C   UNL     1       2.224  -4.548  -0.790  1.00  0.00     0.000 A 
ATOM     16  C   UNL     1       1.238  -5.497  -1.015  1.00  0.00     0.000 A 
ENDBRANCH   9  11
ENDBRANCH   8   9
BRANCH   8  17
ATOM     17  C   UNL     1      -1.029   0.932  -1.157  1.00  0.00     0.114 C 
BRANCH  17  18
ATOM     18  C   UNL     1      -0.228   1.928  -2.002  1.00  0.00     0.225 C 
ATOM     19  O   UNL     1      -0.893   2.704  -2.716  1.00  0.00    -0.275 OA
ATOM     20  N   UNL     1       1.111   2.178  -2.067  1.00  0.00    -0.325 N 
ATOM     21  H   UNL     1       1.339   2.752  -2.833  1.00  0.00     0.169 HD
BRANCH  20  22
ATOM     22  C   UNL     1       2.253   1.826  -1.319  1.00  0.00     0.054 A 
ATOM     23  C   UNL     1       2.889   2.893  -0.666  1.00  0.00     0.027 A 
ATOM     24  C   UNL     1       3.008   0.646  -1.417  1.00  0.00     0.037 A 
ATOM     25  C   UNL     1       4.088   2.717   0.040  1.00  0.00     0.002 A 
ATOM     26  C   UNL     1       4.109   0.408  -0.576  1.00  0.00     0.017 A 
ATOM     27  I   UNL     1       3.157  -0.520  -3.195  1.00  0.00    -0.042 I 
ATOM     28  C   UNL     1       4.653   1.454   0.152  1.00  0.00     0.001 A 
ENDBRANCH  20  22
ENDBRANCH  17  18
ENDBRANCH   8  17
ENDBRANCH   5   8
ENDBRANCH   3   4
ENDBRANCH   2   3
ENDBRANCH   1   2
BRANCH   1  29
ATOM     29  C   UNL     1      -0.746   1.175  -7.397  1.00  0.00     0.002 C 
BRANCH  29  30
ATOM     30  C   UNL     1       0.190   2.386  -7.316  1.00  0.00     0.021 C 
BRANCH  30  31
ATOM     31  C   UNL     1       1.613   2.208  -7.841  1.00  0.00     0.116 C 
BRANCH  31  32
ATOM     32  N   UNL     1       1.669   1.789  -9.231  1.00  0.00    -0.352 N 
ATOM     33  C   UNL     1       2.336   2.356 -10.281  1.00  0.00     0.251 C 
ATOM     34  H   UNL     1       1.151   0.981  -9.448  1.00  0.00     0.163 HD
ATOM     35  O   UNL     1       2.180   1.911 -11.427  1.00  0.00    -0.269 OA
BRANCH  33  36
ATOM     36  C   UNL     1       3.225   3.515 -10.073  1.00  0.00     0.039 A 
ATOM     37  C   UNL     1       3.089   4.625 -10.911  1.00  0.00     0.014 A 
ATOM     38  C   UNL     1       4.203   3.507  -9.073  1.00  0.00     0.014 A 
ATOM     39  C   UNL     1       3.896   5.748 -10.716  1.00  0.00     0.010 A 
ATOM     40  C   UNL     1       4.967   4.651  -8.841  1.00  0.00     0.010 A 
ATOM     41  C   UNL     1       4.825   5.780  -9.664  1.00  0.00    -0.014 A 
BRANCH  41  42
ATOM     42  C   UNL     1       5.664   6.981  -9.422  1.00  0.00     0.031 A 
ATOM     43  C   UNL     1       7.154   6.915  -9.616  1.00  0.00     0.074 A 
ATOM     44  C   UNL     1       5.094   8.120  -8.984  1.00  0.00     0.049 A 
ATOM     45  N   UNL     1       8.056   7.843  -9.411  1.00  0.00    -0.248 NA
ATOM     46  C   UNL     1       7.705   5.633 -10.082  1.00  0.00     0.031 C 
ATOM     47  C   UNL     1       3.664   8.310  -8.729  1.00  0.00     0.029 A 
ATOM     48  N   UNL     1       5.651   9.336  -8.671  1.00  0.00    -0.354 N 
ATOM     49  C   UNL     1       9.278   7.252  -9.708  1.00  0.00     0.074 A 
ATOM     50  C   UNL     1       9.008   5.875 -10.061  1.00  0.00     0.031 C 
ATOM     51  C   UNL     1       3.455   9.574  -8.325  1.00  0.00     0.029 A 
ATOM     52  C   UNL     1       4.735  10.271  -8.255  1.00  0.00     0.049 A 
ATOM     53  H   UNL     1       6.616   9.519  -8.739  1.00  0.00     0.167 HD
ATOM     54  C   UNL     1      10.513   7.809  -9.706  1.00  0.00     0.031 A 
ATOM     55  C   UNL     1       4.907  11.546  -7.859  1.00  0.00     0.031 A 
ATOM     56  C   UNL     1      10.785   9.180  -9.366  1.00  0.00     0.049 A 
ATOM     57  C   UNL     1       6.290  12.135  -7.847  1.00  0.00     0.074 A 
ATOM     58  C   UNL     1      11.997   9.848  -9.379  1.00  0.00     0.029 A 
ATOM     59  N   UNL     1       9.829  10.093  -8.951  1.00  0.00    -0.354 N 
ATOM     60  N   UNL     1       7.428  11.579  -8.184  1.00  0.00    -0.248 NA
ATOM     61  C   UNL     1       6.409  13.534  -7.410  1.00  0.00     0.031 C 
ATOM     62  C   UNL     1      11.781  11.154  -8.928  1.00  0.00     0.029 A 
ATOM     63  C   UNL     1      10.427  11.314  -8.686  1.00  0.00     0.049 A 
ATOM     64  H   UNL     1       8.867   9.903  -8.859  1.00  0.00     0.167 HD
ATOM     65  C   UNL     1       8.392  12.566  -8.029  1.00  0.00     0.074 A 
ATOM     66  C   UNL     1       7.704  13.759  -7.581  1.00  0.00     0.031 C 
ATOM     67  C   UNL     1       9.728  12.492  -8.242  1.00  0.00     0.031 A 
BRANCH  54  68
ATOM     68  C   UNL     1      11.670   6.923 -10.080  1.00  0.00    -0.014 A 
ATOM     69  C   UNL     1      11.850   6.482 -11.401  1.00  0.00     0.009 A 
ATOM     70  C   UNL     1      12.610   6.552  -9.107  1.00  0.00     0.009 A 
ATOM     71  C   UNL     1      12.925   5.654 -11.730  1.00  0.00     0.001 A 
ATOM     72  C   UNL     1      13.700   5.748  -9.445  1.00  0.00     0.001 A 
ATOM     73  C   UNL     1      13.852   5.292 -10.753  1.00  0.00     0.000 A 
ENDBRANCH  54  68
BRANCH  55  74
ATOM     74  C   UNL     1       3.734  12.365  -7.454  1.00  0.00    -0.014 A 
ATOM     75  C   UNL     1       3.288  13.419  -8.267  1.00  0.00     0.009 A 
ATOM     76  C   UNL     1       3.063  12.107  -6.249  1.00  0.00     0.009 A 
ATOM     77  C   UNL     1       2.211  14.214  -7.869  1.00  0.00     0.001 A 
ATOM     78  C   UNL     1       1.969  12.887  -5.866  1.00  0.00     0.001 A 
ATOM     79  C   UNL     1       1.550  13.945  -6.671  1.00  0.00     0.000 A 
ENDBRANCH  55  74
BRANCH  67  80
ATOM     80  C   UNL     1      10.529  13.745  -8.029  1.00  0.00    -0.014 A 
ATOM     81  C   UNL     1      10.788  14.236  -6.740  1.00  0.00     0.009 A 
ATOM     82  C   UNL     1      11.065  14.422  -9.136  1.00  0.00     0.009 A 
ATOM     83  C   UNL     1      11.542  15.398  -6.566  1.00  0.00     0.001 A 
ATOM     84  C   UNL     1      11.841  15.568  -8.957  1.00  0.00     0.001 A 
ATOM     85  C   UNL     1      12.071  16.060  -7.674  1.00  0.00     0.000 A 
ENDBRANCH  67  80
ENDBRANCH  41  42
ENDBRANCH  33  36
ENDBRANCH  31  32
ENDBRANCH  30  31
ENDBRANCH  29  30
ENDBRANCH   1  29
TORSDOF 18
