REMARK SMILES CC(C)Cc1ccc([C@@H](C)C(=O)NCCCCCCNC(=O)c2ccc(-c3c4nc(c(-c5ccccc5)c5ccc([nH]5)c(-c5ccccc5)c5nc(c(-c6ccccc6)c6ccc3[nH]6)C=C5)C=C4)cc2)cc1
REMARK SMILES IDX 16 1 15 2 14 3 13 4 11 5 12 6 9 8 10 9 8 10 5 11 6 12 72 13
REMARK SMILES IDX 7 14 71 15 4 16 2 17 1 18 3 19 17 20 18 21 19 22 20 23 21 24
REMARK SMILES IDX 22 26 23 27 24 28 70 29 25 30 69 31 26 32 27 33 28 34 63 35
REMARK SMILES IDX 29 36 68 37 62 38 64 39 30 40 67 41 61 42 60 43 31 45 53 46
REMARK SMILES IDX 38 47 52 48 39 49 42 50 51 51 65 52 40 53 41 54 50 56 66 57
REMARK SMILES IDX 43 58 32 59 33 60 37 61 34 62 36 63 35 64 54 65 55 66 59 67
REMARK SMILES IDX 56 68 58 69 57 70 44 71 45 72 49 73 46 74 48 75 47 76
REMARK H PARENT 13 7 20 25 64 44 42 55
REMARK Flexibility Score: inf
ROOT
ATOM      1  C   UNL     1      -3.619   6.920  -0.329  1.00  0.00     0.002 C 
ENDROOT
BRANCH   1   2
ATOM      2  C   UNL     1      -2.691   5.899   0.335  1.00  0.00     0.021 C 
BRANCH   2   3
ATOM      3  C   UNL     1      -2.407   6.185   1.811  1.00  0.00     0.116 C 
BRANCH   3   4
ATOM      4  N   UNL     1      -3.377   5.552   2.679  1.00  0.00    -0.356 N 
ATOM      5  C   UNL     1      -3.329   4.400   3.402  1.00  0.00     0.227 C 
ATOM      6  O   UNL     1      -4.368   4.081   3.994  1.00  0.00    -0.274 OA
ATOM      7  H   UNL     1      -4.225   6.044   2.761  1.00  0.00     0.163 HD
BRANCH   5   8
ATOM      8  C   UNL     1      -2.077   3.522   3.530  1.00  0.00     0.105 C 
ATOM      9  C   UNL     1      -0.878   4.227   4.169  1.00  0.00     0.023 C 
BRANCH   8  10
ATOM     10  C   UNL     1      -1.767   2.704   2.287  1.00  0.00    -0.036 A 
ATOM     11  C   UNL     1      -1.204   1.114   0.011  1.00  0.00    -0.048 A 
ATOM     12  C   UNL     1      -0.699   2.412   0.122  1.00  0.00     0.004 A 
ATOM     13  C   UNL     1      -2.033   0.629   1.028  1.00  0.00     0.004 A 
ATOM     14  C   UNL     1      -0.939   3.174   1.263  1.00  0.00     0.005 A 
ATOM     15  C   UNL     1      -2.322   1.422   2.144  1.00  0.00     0.005 A 
BRANCH  11  16
ATOM     16  C   UNL     1      -0.822   0.247  -1.166  1.00  0.00     0.038 C 
BRANCH  16  17
ATOM     17  C   UNL     1       0.708   0.144  -1.368  1.00  0.00    -0.013 C 
ATOM     18  C   UNL     1       1.399  -0.503  -0.164  1.00  0.00     0.008 C 
ATOM     19  C   UNL     1       1.028  -0.635  -2.642  1.00  0.00     0.008 C 
ENDBRANCH  16  17
ENDBRANCH  11  16
ENDBRANCH   8  10
ENDBRANCH   5   8
ENDBRANCH   3   4
ENDBRANCH   2   3
ENDBRANCH   1   2
BRANCH   1  20
ATOM     20  C   UNL     1      -3.064   8.348  -0.413  1.00  0.00     0.002 C 
BRANCH  20  21
ATOM     21  C   UNL     1      -1.700   8.491  -1.097  1.00  0.00     0.021 C 
BRANCH  21  22
ATOM     22  C   UNL     1      -1.652   8.008  -2.545  1.00  0.00     0.116 C 
BRANCH  22  23
ATOM     23  N   UNL     1      -2.536   8.781  -3.404  1.00  0.00    -0.352 N 
ATOM     24  C   UNL     1      -2.246   9.552  -4.501  1.00  0.00     0.251 C 
ATOM     25  H   UNL     1      -3.489   8.745  -3.160  1.00  0.00     0.163 HD
ATOM     26  O   UNL     1      -3.095  10.308  -4.961  1.00  0.00    -0.269 OA
BRANCH  24  27
ATOM     27  C   UNL     1      -0.910   9.483  -5.133  1.00  0.00     0.039 A 
ATOM     28  C   UNL     1      -0.290  10.671  -5.530  1.00  0.00     0.014 A 
ATOM     29  C   UNL     1      -0.291   8.254  -5.379  1.00  0.00     0.014 A 
ATOM     30  C   UNL     1       0.973  10.631  -6.127  1.00  0.00     0.010 A 
ATOM     31  C   UNL     1       0.992   8.219  -5.921  1.00  0.00     0.010 A 
ATOM     32  C   UNL     1       1.635   9.406  -6.304  1.00  0.00    -0.014 A 
BRANCH  32  33
ATOM     33  C   UNL     1       2.999   9.346  -6.888  1.00  0.00     0.031 A 
ATOM     34  C   UNL     1       3.227   8.680  -8.217  1.00  0.00     0.074 A 
ATOM     35  C   UNL     1       4.044   9.830  -6.189  1.00  0.00     0.049 A 
ATOM     36  N   UNL     1       4.353   8.464  -8.849  1.00  0.00    -0.248 NA
ATOM     37  C   UNL     1       2.037   8.169  -8.919  1.00  0.00     0.031 C 
ATOM     38  C   UNL     1       3.964  10.463  -4.870  1.00  0.00     0.029 A 
ATOM     39  N   UNL     1       5.384   9.852  -6.486  1.00  0.00    -0.354 N 
ATOM     40  C   UNL     1       4.012   7.773 -10.005  1.00  0.00     0.074 A 
ATOM     41  C   UNL     1       2.579   7.576  -9.974  1.00  0.00     0.031 C 
ATOM     42  C   UNL     1       5.198  10.821  -4.479  1.00  0.00     0.029 A 
ATOM     43  C   UNL     1       6.158  10.413  -5.499  1.00  0.00     0.049 A 
ATOM     44  H   UNL     1       5.756   9.498  -7.326  1.00  0.00     0.167 HD
ATOM     45  C   UNL     1       4.817   7.351 -11.009  1.00  0.00     0.031 A 
ATOM     46  C   UNL     1       7.493  10.572  -5.420  1.00  0.00     0.031 A 
ATOM     47  C   UNL     1       6.237   7.571 -11.057  1.00  0.00     0.049 A 
ATOM     48  C   UNL     1       8.360  10.105  -6.555  1.00  0.00     0.074 A 
ATOM     49  C   UNL     1       7.125   7.245 -12.069  1.00  0.00     0.029 A 
ATOM     50  N   UNL     1       6.977   8.172 -10.053  1.00  0.00    -0.354 N 
ATOM     51  N   UNL     1       8.010   9.521  -7.675  1.00  0.00    -0.248 NA
ATOM     52  C   UNL     1       9.807  10.330  -6.419  1.00  0.00     0.031 C 
ATOM     53  C   UNL     1       8.410   7.611 -11.658  1.00  0.00     0.029 A 
ATOM     54  C   UNL     1       8.314   8.207 -10.411  1.00  0.00     0.049 A 
ATOM     55  H   UNL     1       6.608   8.523  -9.210  1.00  0.00     0.167 HD
ATOM     56  C   UNL     1       9.188   9.336  -8.388  1.00  0.00     0.074 A 
ATOM     57  C   UNL     1      10.259   9.883  -7.582  1.00  0.00     0.031 C 
ATOM     58  C   UNL     1       9.366   8.763  -9.602  1.00  0.00     0.031 A 
BRANCH  45  59
ATOM     59  C   UNL     1       4.183   6.603 -12.147  1.00  0.00    -0.014 A 
ATOM     60  C   UNL     1       3.395   7.263 -13.101  1.00  0.00     0.009 A 
ATOM     61  C   UNL     1       4.434   5.230 -12.303  1.00  0.00     0.009 A 
ATOM     62  C   UNL     1       2.851   6.559 -14.178  1.00  0.00     0.001 A 
ATOM     63  C   UNL     1       3.909   4.534 -13.393  1.00  0.00     0.001 A 
ATOM     64  C   UNL     1       3.114   5.197 -14.326  1.00  0.00     0.000 A 
ENDBRANCH  45  59
BRANCH  46  65
ATOM     65  C   UNL     1       8.102  11.205  -4.221  1.00  0.00    -0.014 A 
ATOM     66  C   UNL     1       8.672  12.485  -4.302  1.00  0.00     0.009 A 
ATOM     67  C   UNL     1       8.141  10.521  -2.996  1.00  0.00     0.009 A 
ATOM     68  C   UNL     1       9.301  13.051  -3.191  1.00  0.00     0.001 A 
ATOM     69  C   UNL     1       8.745  11.101  -1.879  1.00  0.00     0.001 A 
ATOM     70  C   UNL     1       9.335  12.360  -1.980  1.00  0.00     0.000 A 
ENDBRANCH  46  65
BRANCH  58  71
ATOM     71  C   UNL     1      10.764   8.733 -10.149  1.00  0.00    -0.014 A 
ATOM     72  C   UNL     1      11.727   7.852  -9.634  1.00  0.00     0.009 A 
ATOM     73  C   UNL     1      11.107   9.570 -11.222  1.00  0.00     0.009 A 
ATOM     74  C   UNL     1      13.019   7.834 -10.164  1.00  0.00     0.001 A 
ATOM     75  C   UNL     1      12.391   9.530 -11.767  1.00  0.00     0.001 A 
ATOM     76  C   UNL     1      13.348   8.669 -11.232  1.00  0.00     0.000 A 
ENDBRANCH  58  71
ENDBRANCH  32  33
ENDBRANCH  24  27
ENDBRANCH  22  23
ENDBRANCH  21  22
ENDBRANCH  20  21
ENDBRANCH   1  20
TORSDOF 16
