REMARK SMILES CSc1ncc(Cl)c(C(=O)Nc2ccsc2C(=O)NCCCCCCNC(=O)c2ccc(-c3c4nc(c(-c5ccccc5)c5ccc([nH]5)c(-c5ccccc5)c5nc(c(-c6ccccc6)c6ccc3[nH]6)C=C5)C=C4)cc2)n1
REMARK SMILES IDX 22 1 21 2 20 3 19 4 17 5 18 6 16 8 12 9 13 10 14 11 15 12
REMARK SMILES IDX 11 13 9 14 10 15 8 17 3 18 4 19 77 20 5 21 6 22 7 23 2 24
REMARK SMILES IDX 1 25 23 26 24 27 25 28 26 29 27 30 28 32 29 33 30 34 76 35
REMARK SMILES IDX 31 36 75 37 32 38 33 39 34 40 69 41 35 42 74 43 68 44 70 45
REMARK SMILES IDX 36 46 73 47 67 48 66 49 37 51 59 52 44 53 58 54 45 55 48 56
REMARK SMILES IDX 57 57 71 58 46 59 47 60 56 62 72 63 49 64 38 65 39 66 43 67
REMARK SMILES IDX 40 68 42 69 41 70 60 71 61 72 65 73 62 74 64 75 63 76 50 77
REMARK SMILES IDX 51 78 55 79 52 80 54 81 53 82
REMARK H PARENT 19 7 11 16 26 31 70 50 48 61
REMARK Flexibility Score: inf
ROOT
ATOM      1  C   UNL     1      -3.650  -9.194  -0.272  1.00  0.00     0.002 C 
ENDROOT
BRANCH   1   2
ATOM      2  C   UNL     1      -2.736  -8.046  -0.696  1.00  0.00     0.021 C 
BRANCH   2   3
ATOM      3  C   UNL     1      -1.238  -8.322  -0.724  1.00  0.00     0.116 C 
BRANCH   3   4
ATOM      4  N   UNL     1      -0.777  -9.328  -1.647  1.00  0.00    -0.351 N 
ATOM      5  C   UNL     1       0.469  -9.591  -2.188  1.00  0.00     0.263 C 
ATOM      6  O   UNL     1       0.480 -10.598  -2.907  1.00  0.00    -0.268 OA
ATOM      7  H   UNL     1      -1.482  -9.944  -1.950  1.00  0.00     0.163 HD
BRANCH   5   8
ATOM      8  C   UNL     1       1.668  -8.754  -1.992  1.00  0.00     0.115 A 
ATOM      9  C   UNL     1       2.088  -7.791  -1.074  1.00  0.00     0.065 A 
ATOM     10  C   UNL     1       3.341  -7.190  -1.418  1.00  0.00     0.038 A 
ATOM     11  C   UNL     1       3.869  -7.704  -2.575  1.00  0.00     0.068 A 
ATOM     12  S   UNL     1       2.873  -8.908  -3.244  1.00  0.00    -0.137 S 
BRANCH   9  13
ATOM     13  N   UNL     1       1.397  -7.463   0.070  1.00  0.00    -0.319 N 
ATOM     14  C   UNL     1       1.010  -6.228   0.551  1.00  0.00     0.276 C 
ATOM     15  O   UNL     1       0.332  -6.232   1.585  1.00  0.00    -0.267 OA
ATOM     16  H   UNL     1       1.139  -8.229   0.633  1.00  0.00     0.170 HD
BRANCH  14  17
ATOM     17  C   UNL     1       1.278  -4.913  -0.126  1.00  0.00     0.151 A 
ATOM     18  C   UNL     1       1.665  -2.677   0.322  1.00  0.00     0.188 A 
ATOM     19  N   UNL     1       1.725  -2.362  -0.977  1.00  0.00    -0.230 NA
ATOM     20  N   UNL     1       1.512  -3.924   0.782  1.00  0.00    -0.216 NA
ATOM     21  C   UNL     1       1.470  -3.355  -1.846  1.00  0.00     0.137 A 
ATOM     22  C   UNL     1       1.161  -4.647  -1.479  1.00  0.00     0.090 A 
ATOM     23  Cl  UNL     1       0.515  -5.651  -2.709  1.00  0.00    -0.080 Cl
BRANCH  18  24
ATOM     24  S   UNL     1       1.627  -1.362   1.509  1.00  0.00    -0.090 SA
ATOM     25  C   UNL     1       1.270   0.036   0.410  1.00  0.00     0.094 C 
ENDBRANCH  18  24
ENDBRANCH  14  17
ENDBRANCH   9  13
ENDBRANCH   5   8
ENDBRANCH   3   4
ENDBRANCH   2   3
ENDBRANCH   1   2
BRANCH   1  26
ATOM     26  C   UNL     1      -3.259  -9.993   0.973  1.00  0.00     0.002 C 
BRANCH  26  27
ATOM     27  C   UNL     1      -2.968  -9.220   2.261  1.00  0.00     0.021 C 
BRANCH  27  28
ATOM     28  C   UNL     1      -4.008  -8.200   2.712  1.00  0.00     0.116 C 
BRANCH  28  29
ATOM     29  N   UNL     1      -5.332  -8.766   2.893  1.00  0.00    -0.352 N 
ATOM     30  C   UNL     1      -6.231  -8.617   3.916  1.00  0.00     0.251 C 
ATOM     31  H   UNL     1      -5.633  -9.352   2.161  1.00  0.00     0.163 HD
ATOM     32  O   UNL     1      -7.277  -9.273   3.891  1.00  0.00    -0.269 OA
BRANCH  30  33
ATOM     33  C   UNL     1      -5.975  -7.712   5.062  1.00  0.00     0.039 A 
ATOM     34  C   UNL     1      -6.398  -8.123   6.332  1.00  0.00     0.014 A 
ATOM     35  C   UNL     1      -5.390  -6.452   4.910  1.00  0.00     0.014 A 
ATOM     36  C   UNL     1      -6.206  -7.295   7.442  1.00  0.00     0.010 A 
ATOM     37  C   UNL     1      -5.135  -5.654   6.029  1.00  0.00     0.010 A 
ATOM     38  C   UNL     1      -5.556  -6.059   7.305  1.00  0.00    -0.014 A 
BRANCH  38  39
ATOM     39  C   UNL     1      -5.351  -5.177   8.484  1.00  0.00     0.031 A 
ATOM     40  C   UNL     1      -6.065  -3.854   8.579  1.00  0.00     0.074 A 
ATOM     41  C   UNL     1      -4.516  -5.557   9.471  1.00  0.00     0.049 A 
ATOM     42  N   UNL     1      -6.029  -2.962   9.538  1.00  0.00    -0.248 NA
ATOM     43  C   UNL     1      -6.921  -3.477   7.443  1.00  0.00     0.031 C 
ATOM     44  C   UNL     1      -3.739  -6.798   9.493  1.00  0.00     0.029 A 
ATOM     45  N   UNL     1      -4.189  -4.939  10.652  1.00  0.00    -0.354 N 
ATOM     46  C   UNL     1      -6.847  -1.920   9.118  1.00  0.00     0.074 A 
ATOM     47  C   UNL     1      -7.324  -2.265   7.796  1.00  0.00     0.031 C 
ATOM     48  C   UNL     1      -3.055  -6.866  10.648  1.00  0.00     0.029 A 
ATOM     49  C   UNL     1      -3.320  -5.663  11.431  1.00  0.00     0.049 A 
ATOM     50  H   UNL     1      -4.544  -4.059  10.916  1.00  0.00     0.167 HD
ATOM     51  C   UNL     1      -7.193  -0.789   9.778  1.00  0.00     0.031 A 
ATOM     52  C   UNL     1      -2.800  -5.394  12.643  1.00  0.00     0.031 A 
ATOM     53  C   UNL     1      -6.730  -0.441  11.095  1.00  0.00     0.049 A 
ATOM     54  C   UNL     1      -3.184  -4.121  13.346  1.00  0.00     0.074 A 
ATOM     55  C   UNL     1      -7.056   0.666  11.860  1.00  0.00     0.029 A 
ATOM     56  N   UNL     1      -5.840  -1.196  11.841  1.00  0.00    -0.354 N 
ATOM     57  N   UNL     1      -4.007  -3.177  12.959  1.00  0.00    -0.248 NA
ATOM     58  C   UNL     1      -2.573  -3.885  14.662  1.00  0.00     0.031 C 
ATOM     59  C   UNL     1      -6.331   0.599  13.056  1.00  0.00     0.029 A 
ATOM     60  C   UNL     1      -5.592  -0.572  13.052  1.00  0.00     0.049 A 
ATOM     61  H   UNL     1      -5.444  -2.050  11.554  1.00  0.00     0.167 HD
ATOM     62  C   UNL     1      -4.034  -2.251  13.993  1.00  0.00     0.074 A 
ATOM     63  C   UNL     1      -3.160  -2.756  15.032  1.00  0.00     0.031 C 
ATOM     64  C   UNL     1      -4.721  -1.086  14.076  1.00  0.00     0.031 A 
BRANCH  51  65
ATOM     65  C   UNL     1      -8.129   0.158   9.079  1.00  0.00    -0.014 A 
ATOM     66  C   UNL     1      -9.484  -0.167   8.898  1.00  0.00     0.009 A 
ATOM     67  C   UNL     1      -7.662   1.401   8.624  1.00  0.00     0.009 A 
ATOM     68  C   UNL     1     -10.343   0.719   8.244  1.00  0.00     0.001 A 
ATOM     69  C   UNL     1      -8.530   2.296   7.995  1.00  0.00     0.001 A 
ATOM     70  C   UNL     1      -9.867   1.950   7.797  1.00  0.00     0.000 A 
ENDBRANCH  51  65
BRANCH  52  71
ATOM     71  C   UNL     1      -1.876  -6.359  13.294  1.00  0.00    -0.014 A 
ATOM     72  C   UNL     1      -2.288  -7.088  14.420  1.00  0.00     0.009 A 
ATOM     73  C   UNL     1      -0.570  -6.536  12.812  1.00  0.00     0.009 A 
ATOM     74  C   UNL     1      -1.402  -7.950  15.069  1.00  0.00     0.001 A 
ATOM     75  C   UNL     1       0.305  -7.420  13.446  1.00  0.00     0.001 A 
ATOM     76  C   UNL     1      -0.108  -8.118  14.580  1.00  0.00     0.000 A 
ENDBRANCH  52  71
BRANCH  64  77
ATOM     77  C   UNL     1      -4.577  -0.296  15.346  1.00  0.00    -0.014 A 
ATOM     78  C   UNL     1      -3.393   0.397  15.642  1.00  0.00     0.009 A 
ATOM     79  C   UNL     1      -5.651  -0.227  16.247  1.00  0.00     0.009 A 
ATOM     80  C   UNL     1      -3.275   1.114  16.834  1.00  0.00     0.001 A 
ATOM     81  C   UNL     1      -5.540   0.514  17.425  1.00  0.00     0.001 A 
ATOM     82  C   UNL     1      -4.349   1.174  17.722  1.00  0.00     0.000 A 
ENDBRANCH  64  77
ENDBRANCH  38  39
ENDBRANCH  30  33
ENDBRANCH  28  29
ENDBRANCH  27  28
ENDBRANCH  26  27
ENDBRANCH   1  26
TORSDOF 16
