REMARK SMILES O=C(NCCCCCCNC(=O)c1ccc(-c2c3nc(c(-c4ccccc4)c4ccc([nH]4)c(-c4ccccc4)c4nc(c(-c5ccccc5)c5ccc2[nH]5)C=C4)C=C3)cc1)C1=Cc2cc(C(F)(F)F)ccc2O[C@@H]1C(F)(F)F
REMARK SMILES IDX 7 1 6 2 5 3 4 4 3 5 1 6 2 7 61 9 62 10 74 11 63 12 73 13
REMARK SMILES IDX 64 14 72 15 65 16 71 17 70 18 75 19 76 20 77 21 78 22 66 23
REMARK SMILES IDX 67 24 68 25 69 26 8 27 9 28 10 29 11 30 12 32 13 33 14 34
REMARK SMILES IDX 60 35 15 36 59 37 16 38 17 39 18 40 53 41 19 42 58 43 52 44
REMARK SMILES IDX 54 45 20 46 57 47 51 48 50 49 21 51 43 52 28 53 42 54 29 55
REMARK SMILES IDX 32 56 41 57 55 58 30 59 31 60 40 62 56 63 33 64 22 65 23 66
REMARK SMILES IDX 27 67 24 68 26 69 25 70 44 71 45 72 49 73 46 74 48 75 47 76
REMARK SMILES IDX 34 77 35 78 39 79 36 80 38 81 37 82
REMARK H PARENT 3 8 10 31 54 50 32 61
REMARK Flexibility Score: inf
ROOT
ATOM      1  C   UNL     1       4.419  -4.137   2.090  1.00  0.00     0.002 C 
ENDROOT
BRANCH   1   2
ATOM      2  C   UNL     1       3.759  -3.172   3.083  1.00  0.00     0.002 C 
BRANCH   2   3
ATOM      3  C   UNL     1       4.095  -1.692   2.922  1.00  0.00     0.021 C 
BRANCH   3   4
ATOM      4  C   UNL     1       3.807  -1.085   1.554  1.00  0.00     0.116 C 
BRANCH   4   5
ATOM      5  N   UNL     1       2.522  -0.423   1.420  1.00  0.00    -0.352 N 
ATOM      6  O   UNL     1       0.952   0.879   0.477  1.00  0.00    -0.270 OA
ATOM      7  C   UNL     1       2.139   0.568   0.557  1.00  0.00     0.251 C 
ATOM      8  H   UNL     1       1.823  -0.733   2.041  1.00  0.00     0.163 HD
BRANCH   7   9
ATOM      9  C   UNL     1       3.104   1.232  -0.368  1.00  0.00     0.067 C 
ATOM     10  C   UNL     1       4.288   1.699   0.068  1.00  0.00     0.025 C 
ATOM     11  C   UNL     1       2.969   0.780  -1.803  1.00  0.00     0.314 C 
ATOM     12  C   UNL     1       5.413   0.883  -0.453  1.00  0.00     0.018 A 
ATOM     13  O   UNL     1       4.018  -0.158  -2.171  1.00  0.00    -0.475 OA
ATOM     14  C   UNL     1       6.592   0.842   0.302  1.00  0.00     0.025 A 
ATOM     15  C   UNL     1       5.191  -0.066  -1.462  1.00  0.00     0.128 A 
ATOM     16  C   UNL     1       7.496  -0.218   0.136  1.00  0.00     0.056 A 
ATOM     17  C   UNL     1       6.127  -1.071  -1.689  1.00  0.00     0.048 A 
ATOM     18  C   UNL     1       7.263  -1.161  -0.879  1.00  0.00     0.017 A 
BRANCH  11  19
ATOM     19  C   UNL     1       2.916   1.961  -2.784  1.00  0.00     0.429 C 
ATOM     20  F   UNL     1       2.623   1.544  -4.039  1.00  0.00    -0.167 F 
ATOM     21  F   UNL     1       1.967   2.862  -2.437  1.00  0.00    -0.167 F 
ATOM     22  F   UNL     1       4.093   2.629  -2.849  1.00  0.00    -0.167 F 
ENDBRANCH  11  19
BRANCH  16  23
ATOM     23  C   UNL     1       8.652  -0.381   1.095  1.00  0.00     0.416 C 
ATOM     24  F   UNL     1       9.755   0.314   0.719  1.00  0.00    -0.166 F 
ATOM     25  F   UNL     1       8.345   0.042   2.356  1.00  0.00    -0.166 F 
ATOM     26  F   UNL     1       9.041  -1.679   1.238  1.00  0.00    -0.166 F 
ENDBRANCH  16  23
ENDBRANCH   7   9
ENDBRANCH   4   5
ENDBRANCH   3   4
ENDBRANCH   2   3
ENDBRANCH   1   2
BRANCH   1  27
ATOM     27  C   UNL     1       5.935  -4.017   1.905  1.00  0.00     0.021 C 
BRANCH  27  28
ATOM     28  C   UNL     1       6.782  -4.110   3.172  1.00  0.00     0.116 C 
BRANCH  28  29
ATOM     29  N   UNL     1       6.567  -5.344   3.907  1.00  0.00    -0.352 N 
ATOM     30  C   UNL     1       7.469  -6.262   4.386  1.00  0.00     0.251 C 
ATOM     31  H   UNL     1       5.624  -5.556   4.092  1.00  0.00     0.163 HD
ATOM     32  O   UNL     1       7.063  -7.316   4.867  1.00  0.00    -0.269 OA
BRANCH  30  33
ATOM     33  C   UNL     1       8.926  -6.011   4.308  1.00  0.00     0.039 A 
ATOM     34  C   UNL     1       9.767  -7.073   3.959  1.00  0.00     0.014 A 
ATOM     35  C   UNL     1       9.475  -4.763   4.613  1.00  0.00     0.014 A 
ATOM     36  C   UNL     1      11.146  -6.870   3.865  1.00  0.00     0.010 A 
ATOM     37  C   UNL     1      10.842  -4.543   4.449  1.00  0.00     0.010 A 
ATOM     38  C   UNL     1      11.693  -5.596   4.081  1.00  0.00    -0.014 A 
BRANCH  38  39
ATOM     39  C   UNL     1      13.151  -5.352   3.929  1.00  0.00     0.031 A 
ATOM     40  C   UNL     1      13.984  -4.949   5.114  1.00  0.00     0.074 A 
ATOM     41  C   UNL     1      13.718  -5.447   2.710  1.00  0.00     0.049 A 
ATOM     42  N   UNL     1      15.261  -4.660   5.167  1.00  0.00    -0.248 NA
ATOM     43  C   UNL     1      13.289  -4.834   6.405  1.00  0.00     0.031 C 
ATOM     44  C   UNL     1      13.016  -5.795   1.474  1.00  0.00     0.029 A 
ATOM     45  N   UNL     1      15.017  -5.253   2.312  1.00  0.00    -0.354 N 
ATOM     46  C   UNL     1      15.516  -4.317   6.488  1.00  0.00     0.074 A 
ATOM     47  C   UNL     1      14.254  -4.382   7.192  1.00  0.00     0.031 C 
ATOM     48  C   UNL     1      13.896  -5.816   0.460  1.00  0.00     0.029 A 
ATOM     49  C   UNL     1      15.214  -5.443   0.966  1.00  0.00     0.049 A 
ATOM     50  H   UNL     1      15.739  -5.001   2.932  1.00  0.00     0.167 HD
ATOM     51  C   UNL     1      16.696  -3.994   7.070  1.00  0.00     0.031 A 
ATOM     52  C   UNL     1      16.327  -5.324   0.218  1.00  0.00     0.031 A 
ATOM     53  C   UNL     1      17.952  -3.927   6.371  1.00  0.00     0.049 A 
ATOM     54  C   UNL     1      17.621  -4.941   0.880  1.00  0.00     0.074 A 
ATOM     55  C   UNL     1      19.211  -3.658   6.881  1.00  0.00     0.029 A 
ATOM     56  N   UNL     1      18.108  -4.125   5.007  1.00  0.00    -0.354 N 
ATOM     57  N   UNL     1      17.858  -4.686   2.144  1.00  0.00    -0.248 NA
ATOM     58  C   UNL     1      18.803  -4.842   0.013  1.00  0.00     0.031 C 
ATOM     59  C   UNL     1      20.118  -3.636   5.816  1.00  0.00     0.029 A 
ATOM     60  C   UNL     1      19.436  -3.955   4.653  1.00  0.00     0.049 A 
ATOM     61  H   UNL     1      17.381  -4.351   4.383  1.00  0.00     0.167 HD
ATOM     62  C   UNL     1      19.219  -4.422   2.228  1.00  0.00     0.074 A 
ATOM     63  C   UNL     1      19.757  -4.565   0.891  1.00  0.00     0.031 C 
ATOM     64  C   UNL     1      19.957  -4.093   3.317  1.00  0.00     0.031 A 
BRANCH  51  65
ATOM     65  C   UNL     1      16.676  -3.673   8.540  1.00  0.00    -0.014 A 
ATOM     66  C   UNL     1      16.416  -4.665   9.501  1.00  0.00     0.009 A 
ATOM     67  C   UNL     1      16.941  -2.365   8.974  1.00  0.00     0.009 A 
ATOM     68  C   UNL     1      16.376  -4.344  10.859  1.00  0.00     0.001 A 
ATOM     69  C   UNL     1      16.933  -2.053  10.335  1.00  0.00     0.001 A 
ATOM     70  C   UNL     1      16.639  -3.039  11.275  1.00  0.00     0.000 A 
ENDBRANCH  51  65
BRANCH  52  71
ATOM     71  C   UNL     1      16.268  -5.585  -1.244  1.00  0.00    -0.014 A 
ATOM     72  C   UNL     1      16.872  -6.727  -1.790  1.00  0.00     0.009 A 
ATOM     73  C   UNL     1      15.599  -4.696  -2.101  1.00  0.00     0.009 A 
ATOM     74  C   UNL     1      16.827  -6.963  -3.166  1.00  0.00     0.001 A 
ATOM     75  C   UNL     1      15.530  -4.949  -3.472  1.00  0.00     0.001 A 
ATOM     76  C   UNL     1      16.151  -6.077  -4.005  1.00  0.00     0.000 A 
ENDBRANCH  52  71
BRANCH  64  77
ATOM     77  C   UNL     1      21.433  -3.895   3.113  1.00  0.00    -0.014 A 
ATOM     78  C   UNL     1      21.934  -2.772   2.436  1.00  0.00     0.009 A 
ATOM     79  C   UNL     1      22.338  -4.829   3.642  1.00  0.00     0.009 A 
ATOM     80  C   UNL     1      23.310  -2.607   2.264  1.00  0.00     0.001 A 
ATOM     81  C   UNL     1      23.714  -4.645   3.495  1.00  0.00     0.001 A 
ATOM     82  C   UNL     1      24.198  -3.540   2.798  1.00  0.00     0.000 A 
ENDBRANCH  64  77
ENDBRANCH  38  39
ENDBRANCH  30  33
ENDBRANCH  28  29
ENDBRANCH  27  28
ENDBRANCH   1  27
TORSDOF 15
