REMARK SMILES COc1cc(C(=O)NCCCCCCNC(=O)c2ccc(-c3c4nc(c(-c5ccccc5)c5ccc([nH]5)c(-c5ccccc5)c5nc(c(-c6ccccc6)c6ccc3[nH]6)C=C5)C=C4)cc2)c([N+](=O)[O-])cc1OCC[NH+](C)C
REMARK SMILES IDX 10 1 9 2 8 3 6 4 7 5 5 7 3 8 4 9 71 10 70 11 66 12 2 13 1 14
REMARK SMILES IDX 72 15 73 16 74 17 75 18 76 19 77 20 67 22 68 23 69 24 11 25
REMARK SMILES IDX 12 26 13 27 14 28 15 29 16 30 17 32 18 33 19 34 65 35 20 36
REMARK SMILES IDX 64 37 21 38 22 39 23 40 58 41 24 42 63 43 57 44 59 45 25 46
REMARK SMILES IDX 62 47 56 48 55 49 26 51 48 52 33 53 47 54 34 55 37 56 46 57
REMARK SMILES IDX 60 58 35 59 36 60 45 62 61 63 38 64 27 65 28 66 32 67 29 68
REMARK SMILES IDX 31 69 30 70 49 71 50 72 54 73 51 74 53 75 52 76 39 77 40 78
REMARK SMILES IDX 44 79 41 80 43 81 42 82
REMARK H PARENT 8 6 75 21 15 31 59 50 37 61
REMARK Flexibility Score: inf
ROOT
ATOM      1  C   UNL     1       1.752   5.061   7.119  1.00  0.00     0.021 C 
ENDROOT
BRANCH   1   2
ATOM      2  C   UNL     1       1.497   3.679   6.535  1.00  0.00     0.116 C 
BRANCH   2   3
ATOM      3  N   UNL     1       0.145   3.453   6.056  1.00  0.00    -0.352 N 
ATOM      4  C   UNL     1      -0.307   2.769   4.949  1.00  0.00     0.258 C 
ATOM      5  O   UNL     1      -1.513   2.699   4.730  1.00  0.00    -0.269 OA
ATOM      6  H   UNL     1      -0.562   3.852   6.613  1.00  0.00     0.163 HD
BRANCH   4   7
ATOM      7  C   UNL     1       0.632   2.177   3.965  1.00  0.00     0.121 A 
ATOM      8  C   UNL     1       1.278   1.945   1.617  1.00  0.00     0.162 A 
ATOM      9  C   UNL     1       0.407   2.448   2.600  1.00  0.00     0.071 A 
ATOM     10  C   UNL     1       2.401   1.202   2.001  1.00  0.00     0.168 A 
ATOM     11  C   UNL     1       2.657   0.974   3.350  1.00  0.00     0.136 A 
ATOM     12  C   UNL     1       1.725   1.381   4.306  1.00  0.00     0.286 A 
BRANCH   8  13
ATOM     13  O   UNL     1       1.106   2.312   0.309  1.00  0.00    -0.493 OA
ATOM     14  C   UNL     1       0.038   1.613  -0.334  1.00  0.00     0.278 C 
ENDBRANCH   8  13
BRANCH  10  15
ATOM     15  O   UNL     1       3.313   0.623   1.166  1.00  0.00    -0.484 OA
BRANCH  15  16
ATOM     16  C   UNL     1       2.793  -0.342   0.242  1.00  0.00     0.291 C 
BRANCH  16  17
ATOM     17  C   UNL     1       2.051  -1.586   0.813  1.00  0.00     0.303 C 
BRANCH  17  18
ATOM     18  N   UNL     1       0.793  -1.309   1.536  1.00  0.00    -0.337 N 
ATOM     19  C   UNL     1      -0.370  -1.936   0.902  1.00  0.00     0.332 C 
ATOM     20  C   UNL     1       0.854  -1.761   2.930  1.00  0.00     0.332 C 
ATOM     21  H   UNL     1       0.683  -0.296   1.505  1.00  0.00     0.347 HD
ENDBRANCH  17  18
ENDBRANCH  16  17
ENDBRANCH  15  16
ENDBRANCH  10  15
BRANCH  12  22
ATOM     22  N   UNL     1       1.869   0.811   5.631  1.00  0.00     0.063 N 
ATOM     23  O   UNL     1       0.879   0.270   6.135  1.00  0.00    -0.258 OA
ATOM     24  O   UNL     1       2.993   0.876   6.152  1.00  0.00    -0.258 OA
ENDBRANCH  12  22
ENDBRANCH   4   7
ENDBRANCH   2   3
ENDBRANCH   1   2
BRANCH   1  25
ATOM     25  C   UNL     1       0.992   5.410   8.399  1.00  0.00     0.002 C 
BRANCH  25  26
ATOM     26  C   UNL     1       1.067   4.402   9.550  1.00  0.00     0.002 C 
BRANCH  26  27
ATOM     27  C   UNL     1       2.463   3.952   9.989  1.00  0.00     0.021 C 
BRANCH  27  28
ATOM     28  C   UNL     1       3.466   5.060  10.288  1.00  0.00     0.116 C 
BRANCH  28  29
ATOM     29  N   UNL     1       3.019   5.975  11.323  1.00  0.00    -0.352 N 
ATOM     30  C   UNL     1       3.679   6.432  12.438  1.00  0.00     0.251 C 
ATOM     31  H   UNL     1       2.104   6.320  11.208  1.00  0.00     0.163 HD
ATOM     32  O   UNL     1       3.087   7.117  13.263  1.00  0.00    -0.269 OA
BRANCH  30  33
ATOM     33  C   UNL     1       5.098   6.073  12.667  1.00  0.00     0.039 A 
ATOM     34  C   UNL     1       5.487   5.675  13.949  1.00  0.00     0.014 A 
ATOM     35  C   UNL     1       6.042   6.139  11.639  1.00  0.00     0.014 A 
ATOM     36  C   UNL     1       6.807   5.282  14.184  1.00  0.00     0.010 A 
ATOM     37  C   UNL     1       7.339   5.677  11.857  1.00  0.00     0.010 A 
ATOM     38  C   UNL     1       7.736   5.246  13.132  1.00  0.00    -0.014 A 
BRANCH  38  39
ATOM     39  C   UNL     1       9.120   4.750  13.349  1.00  0.00     0.031 A 
ATOM     40  C   UNL     1      10.297   5.669  13.163  1.00  0.00     0.074 A 
ATOM     41  C   UNL     1       9.322   3.454  13.658  1.00  0.00     0.049 A 
ATOM     42  N   UNL     1      11.575   5.404  13.264  1.00  0.00    -0.248 NA
ATOM     43  C   UNL     1      10.001   7.063  12.795  1.00  0.00     0.031 C 
ATOM     44  C   UNL     1       8.271   2.449  13.827  1.00  0.00     0.029 A 
ATOM     45  N   UNL     1      10.485   2.757  13.877  1.00  0.00    -0.354 N 
ATOM     46  C   UNL     1      12.233   6.588  12.953  1.00  0.00     0.074 A 
ATOM     47  C   UNL     1      11.216   7.560  12.616  1.00  0.00     0.031 C 
ATOM     48  C   UNL     1       8.834   1.273  14.147  1.00  0.00     0.029 A 
ATOM     49  C   UNL     1      10.285   1.428  14.163  1.00  0.00     0.049 A 
ATOM     50  H   UNL     1      11.377   3.170  13.833  1.00  0.00     0.167 HD
ATOM     51  C   UNL     1      13.562   6.849  12.964  1.00  0.00     0.031 A 
ATOM     52  C   UNL     1      11.169   0.440  14.401  1.00  0.00     0.031 A 
ATOM     53  C   UNL     1      14.573   5.884  13.307  1.00  0.00     0.049 A 
ATOM     54  C   UNL     1      12.640   0.752  14.389  1.00  0.00     0.074 A 
ATOM     55  C   UNL     1      15.941   6.071  13.408  1.00  0.00     0.029 A 
ATOM     56  N   UNL     1      14.328   4.551  13.596  1.00  0.00    -0.354 N 
ATOM     57  N   UNL     1      13.240   1.898  14.173  1.00  0.00    -0.248 NA
ATOM     58  C   UNL     1      13.555  -0.364  14.667  1.00  0.00     0.031 C 
ATOM     59  C   UNL     1      16.530   4.836  13.697  1.00  0.00     0.029 A 
ATOM     60  C   UNL     1      15.523   3.895  13.844  1.00  0.00     0.049 A 
ATOM     61  H   UNL     1      13.438   4.133  13.622  1.00  0.00     0.167 HD
ATOM     62  C   UNL     1      14.599   1.646  14.318  1.00  0.00     0.074 A 
ATOM     63  C   UNL     1      14.732   0.245  14.659  1.00  0.00     0.031 C 
ATOM     64  C   UNL     1      15.642   2.500  14.181  1.00  0.00     0.031 A 
BRANCH  51  65
ATOM     65  C   UNL     1      14.004   8.235  12.577  1.00  0.00    -0.014 A 
ATOM     66  C   UNL     1      13.746   9.341  13.403  1.00  0.00     0.009 A 
ATOM     67  C   UNL     1      14.728   8.429  11.391  1.00  0.00     0.009 A 
ATOM     68  C   UNL     1      14.174  10.618  13.030  1.00  0.00     0.001 A 
ATOM     69  C   UNL     1      15.182   9.701  11.036  1.00  0.00     0.001 A 
ATOM     70  C   UNL     1      14.896  10.795  11.850  1.00  0.00     0.000 A 
ENDBRANCH  51  65
BRANCH  52  71
ATOM     71  C   UNL     1      10.691  -0.942  14.673  1.00  0.00    -0.014 A 
ATOM     72  C   UNL     1      10.843  -1.515  15.945  1.00  0.00     0.009 A 
ATOM     73  C   UNL     1      10.093  -1.703  13.655  1.00  0.00     0.009 A 
ATOM     74  C   UNL     1      10.438  -2.831  16.183  1.00  0.00     0.001 A 
ATOM     75  C   UNL     1       9.658  -3.006  13.905  1.00  0.00     0.001 A 
ATOM     76  C   UNL     1       9.842  -3.573  15.165  1.00  0.00     0.000 A 
ENDBRANCH  52  71
BRANCH  64  77
ATOM     77  C   UNL     1      17.019   1.953  14.438  1.00  0.00    -0.014 A 
ATOM     78  C   UNL     1      17.628   1.054  13.549  1.00  0.00     0.009 A 
ATOM     79  C   UNL     1      17.733   2.377  15.571  1.00  0.00     0.009 A 
ATOM     80  C   UNL     1      18.910   0.564  13.809  1.00  0.00     0.001 A 
ATOM     81  C   UNL     1      19.026   1.911  15.810  1.00  0.00     0.001 A 
ATOM     82  C   UNL     1      19.609   0.997  14.935  1.00  0.00     0.000 A 
ENDBRANCH  64  77
ENDBRANCH  38  39
ENDBRANCH  30  33
ENDBRANCH  28  29
ENDBRANCH  27  28
ENDBRANCH  26  27
ENDBRANCH  25  26
ENDBRANCH   1  25
TORSDOF 19
