REMARK SMILES Nc1cc(C(=O)NCCCCCCNC(=O)c2ccc(-c3c4nc(c(-c5ccccc5)c5ccc([nH]5)c(-c5ccccc5)c5nc(c(-c6ccccc6)c6ccc3[nH]6)C=C5)C=C4)cc2)ccc1N1CC2(CCOCC2)C1
REMARK SMILES IDX 11 1 10 2 9 3 8 4 7 5 5 6 6 7 4 9 2 10 3 11 67 12 66 13
REMARK SMILES IDX 65 14 1 15 68 18 69 19 76 20 70 21 71 22 75 23 72 24 74 25
REMARK SMILES IDX 73 26 12 27 13 28 14 29 15 30 16 32 17 33 18 34 64 35 19 36
REMARK SMILES IDX 63 37 20 38 21 39 22 40 57 41 23 42 62 43 56 44 58 45 24 46
REMARK SMILES IDX 61 47 55 48 54 49 25 51 47 52 32 53 46 54 33 55 36 56 45 57
REMARK SMILES IDX 59 58 34 59 35 60 44 62 60 63 37 64 26 65 27 66 31 67 28 68
REMARK SMILES IDX 30 69 29 70 48 71 49 72 53 73 50 74 52 75 51 76 38 77 39 78
REMARK SMILES IDX 43 79 40 80 42 81 41 82
REMARK H PARENT 7 8 1 16 1 17 14 31 58 50 36 61
REMARK Flexibility Score: inf
ROOT
ATOM      1  C   UNL     1      -7.075  -2.722  -0.078  1.00  0.00     0.002 C 
ENDROOT
BRANCH   1   2
ATOM      2  C   UNL     1      -5.997  -2.616  -1.166  1.00  0.00     0.002 C 
BRANCH   2   3
ATOM      3  C   UNL     1      -5.011  -1.452  -0.982  1.00  0.00     0.021 C 
BRANCH   3   4
ATOM      4  C   UNL     1      -4.229  -1.538   0.329  1.00  0.00     0.116 C 
BRANCH   4   5
ATOM      5  N   UNL     1      -3.125  -2.457   0.180  1.00  0.00    -0.352 N 
ATOM      6  C   UNL     1      -1.796  -2.310  -0.100  1.00  0.00     0.251 C 
ATOM      7  O   UNL     1      -1.162  -3.358  -0.251  1.00  0.00    -0.269 OA
ATOM      8  H   UNL     1      -3.388  -3.397   0.308  1.00  0.00     0.163 HD
BRANCH   6   9
ATOM      9  C   UNL     1      -1.066  -1.007  -0.178  1.00  0.00     0.041 A 
ATOM     10  C   UNL     1       1.159   0.028  -0.137  1.00  0.00     0.056 A 
ATOM     11  C   UNL     1       0.334  -1.102  -0.126  1.00  0.00     0.041 A 
ATOM     12  C   UNL     1       0.572   1.310  -0.125  1.00  0.00     0.060 A 
ATOM     13  C   UNL     1      -0.819   1.412  -0.202  1.00  0.00     0.029 A 
ATOM     14  C   UNL     1      -1.626   0.266  -0.279  1.00  0.00     0.016 A 
BRANCH  10  15
ATOM     15  N   UNL     1       2.531  -0.153   0.031  1.00  0.00    -0.397 N 
ATOM     16  H   UNL     1       2.914  -1.060   0.018  1.00  0.00     0.156 HD
ATOM     17  H   UNL     1       3.118   0.627   0.163  1.00  0.00     0.156 HD
ENDBRANCH  10  15
BRANCH  12  18
ATOM     18  N   UNL     1       1.365   2.456  -0.009  1.00  0.00    -0.369 N 
ATOM     19  C   UNL     1       2.322   3.030  -0.893  1.00  0.00     0.125 C 
ATOM     20  C   UNL     1       1.266   3.616   0.812  1.00  0.00     0.125 C 
ATOM     21  C   UNL     1       2.685   3.972   0.288  1.00  0.00     0.010 C 
ATOM     22  C   UNL     1       2.941   5.435  -0.059  1.00  0.00     0.039 C 
ATOM     23  C   UNL     1       3.821   3.443   1.183  1.00  0.00     0.039 C 
ATOM     24  C   UNL     1       4.322   5.550  -0.699  1.00  0.00     0.161 C 
ATOM     25  C   UNL     1       5.147   3.657   0.467  1.00  0.00     0.161 C 
ATOM     26  O   UNL     1       5.331   5.045   0.180  1.00  0.00    -0.381 OA
ENDBRANCH  12  18
ENDBRANCH   6   9
ENDBRANCH   4   5
ENDBRANCH   3   4
ENDBRANCH   2   3
ENDBRANCH   1   2
BRANCH   1  27
ATOM     27  C   UNL     1      -7.858  -1.432   0.175  1.00  0.00     0.021 C 
BRANCH  27  28
ATOM     28  C   UNL     1      -8.637  -0.935  -1.038  1.00  0.00     0.116 C 
BRANCH  28  29
ATOM     29  N   UNL     1      -9.684  -1.870  -1.417  1.00  0.00    -0.352 N 
ATOM     30  C   UNL     1     -11.034  -1.658  -1.531  1.00  0.00     0.251 C 
ATOM     31  H   UNL     1      -9.381  -2.785  -1.620  1.00  0.00     0.163 HD
ATOM     32  O   UNL     1     -11.806  -2.606  -1.618  1.00  0.00    -0.269 OA
BRANCH  30  33
ATOM     33  C   UNL     1     -11.555  -0.277  -1.540  1.00  0.00     0.039 A 
ATOM     34  C   UNL     1     -12.689   0.026  -0.782  1.00  0.00     0.014 A 
ATOM     35  C   UNL     1     -10.934   0.711  -2.310  1.00  0.00     0.014 A 
ATOM     36  C   UNL     1     -13.172   1.335  -0.758  1.00  0.00     0.010 A 
ATOM     37  C   UNL     1     -11.373   2.028  -2.228  1.00  0.00     0.010 A 
ATOM     38  C   UNL     1     -12.501   2.351  -1.459  1.00  0.00    -0.014 A 
BRANCH  38  39
ATOM     39  C   UNL     1     -12.969   3.757  -1.407  1.00  0.00     0.031 A 
ATOM     40  C   UNL     1     -13.465   4.434  -2.655  1.00  0.00     0.074 A 
ATOM     41  C   UNL     1     -12.888   4.444  -0.251  1.00  0.00     0.049 A 
ATOM     42  N   UNL     1     -13.858   5.671  -2.823  1.00  0.00    -0.248 NA
ATOM     43  C   UNL     1     -13.500   3.621  -3.882  1.00  0.00     0.031 C 
ATOM     44  C   UNL     1     -12.390   3.910   1.019  1.00  0.00     0.029 A 
ATOM     45  N   UNL     1     -13.219   5.742   0.040  1.00  0.00    -0.354 N 
ATOM     46  C   UNL     1     -14.170   5.788  -4.172  1.00  0.00     0.074 A 
ATOM     47  C   UNL     1     -13.872   4.513  -4.788  1.00  0.00     0.031 C 
ATOM     48  C   UNL     1     -12.475   4.866   1.959  1.00  0.00     0.029 A 
ATOM     49  C   UNL     1     -12.991   6.087   1.350  1.00  0.00     0.049 A 
ATOM     50  H   UNL     1     -13.585   6.368  -0.626  1.00  0.00     0.167 HD
ATOM     51  C   UNL     1     -14.677   6.854  -4.835  1.00  0.00     0.031 A 
ATOM     52  C   UNL     1     -13.173   7.258   1.989  1.00  0.00     0.031 A 
ATOM     53  C   UNL     1     -14.982   8.117  -4.219  1.00  0.00     0.049 A 
ATOM     54  C   UNL     1     -13.722   8.432   1.226  1.00  0.00     0.074 A 
ATOM     55  C   UNL     1     -15.549   9.242  -4.793  1.00  0.00     0.029 A 
ATOM     56  N   UNL     1     -14.743   8.423  -2.888  1.00  0.00    -0.354 N 
ATOM     57  N   UNL     1     -14.073   8.506  -0.035  1.00  0.00    -0.248 NA
ATOM     58  C   UNL     1     -13.910   9.679   1.980  1.00  0.00     0.031 C 
ATOM     59  C   UNL     1     -15.604  10.246  -3.822  1.00  0.00     0.029 A 
ATOM     60  C   UNL     1     -15.128   9.727  -2.628  1.00  0.00     0.049 A 
ATOM     61  H   UNL     1     -14.357   7.805  -2.226  1.00  0.00     0.167 HD
ATOM     62  C   UNL     1     -14.553   9.797  -0.218  1.00  0.00     0.074 A 
ATOM     63  C   UNL     1     -14.460  10.464   1.064  1.00  0.00     0.031 C 
ATOM     64  C   UNL     1     -15.031  10.376  -1.346  1.00  0.00     0.031 A 
BRANCH  51  65
ATOM     65  C   UNL     1     -14.925   6.698  -6.310  1.00  0.00    -0.014 A 
ATOM     66  C   UNL     1     -15.950   5.868  -6.793  1.00  0.00     0.009 A 
ATOM     67  C   UNL     1     -14.147   7.419  -7.229  1.00  0.00     0.009 A 
ATOM     68  C   UNL     1     -16.165   5.734  -8.166  1.00  0.00     0.001 A 
ATOM     69  C   UNL     1     -14.384   7.306  -8.601  1.00  0.00     0.001 A 
ATOM     70  C   UNL     1     -15.386   6.457  -9.068  1.00  0.00     0.000 A 
ENDBRANCH  51  65
BRANCH  52  71
ATOM     71  C   UNL     1     -12.847   7.377   3.434  1.00  0.00    -0.014 A 
ATOM     72  C   UNL     1     -13.869   7.520   4.385  1.00  0.00     0.009 A 
ATOM     73  C   UNL     1     -11.513   7.354   3.871  1.00  0.00     0.009 A 
ATOM     74  C   UNL     1     -13.561   7.667   5.739  1.00  0.00     0.001 A 
ATOM     75  C   UNL     1     -11.209   7.470   5.229  1.00  0.00     0.001 A 
ATOM     76  C   UNL     1     -12.232   7.637   6.160  1.00  0.00     0.000 A 
ENDBRANCH  52  71
BRANCH  64  77
ATOM     77  C   UNL     1     -15.529  11.789  -1.236  1.00  0.00    -0.014 A 
ATOM     78  C   UNL     1     -14.643  12.866  -1.075  1.00  0.00     0.009 A 
ATOM     79  C   UNL     1     -16.904  12.048  -1.340  1.00  0.00     0.009 A 
ATOM     80  C   UNL     1     -15.131  14.172  -0.988  1.00  0.00     0.001 A 
ATOM     81  C   UNL     1     -17.386  13.356  -1.284  1.00  0.00     0.001 A 
ATOM     82  C   UNL     1     -16.500  14.416  -1.098  1.00  0.00     0.000 A 
ENDBRANCH  64  77
ENDBRANCH  38  39
ENDBRANCH  30  33
ENDBRANCH  28  29
ENDBRANCH  27  28
ENDBRANCH   1  27
TORSDOF 15
