REMARK SMILES COc1cccc([C@H]2C=C(C(=O)NCCCCCCNC(=O)c3ccc(-c4c5nc(c(-c6ccccc6)c6ccc([nH]6)c(-c6ccccc6)c6nc(c(-c7ccccc7)c7ccc4[nH]7)C=C6)C=C5)cc3)Nc3nnnn32)c1OC
REMARK SMILES IDX 16 1 15 2 14 3 13 4 11 5 12 6 10 8 8 9 9 10 76 11 72 12
REMARK SMILES IDX 75 13 71 14 73 15 74 16 7 18 3 19 4 20 77 21 5 22 6 23 2 24
REMARK SMILES IDX 1 25 78 26 79 27 17 28 18 29 19 30 20 31 21 32 22 34 23 35
REMARK SMILES IDX 24 36 70 37 25 38 69 39 26 40 27 41 28 42 63 43 29 44 68 45
REMARK SMILES IDX 62 46 64 47 30 48 67 49 61 50 60 51 31 53 53 54 38 55 52 56
REMARK SMILES IDX 39 57 42 58 51 59 65 60 40 61 41 62 50 64 66 65 43 66 32 67
REMARK SMILES IDX 33 68 37 69 34 70 36 71 35 72 54 73 55 74 59 75 56 76 58 77
REMARK SMILES IDX 57 78 44 79 45 80 49 81 46 82 48 83 47 84
REMARK H PARENT 13 7 71 17 20 33 64 52 42 63
REMARK Flexibility Score: inf
ROOT
ATOM      1  C   UNL     1       6.423   0.203  -7.568  1.00  0.00     0.002 C 
ENDROOT
BRANCH   1   2
ATOM      2  C   UNL     1       6.045   1.410  -6.713  1.00  0.00     0.021 C 
BRANCH   2   3
ATOM      3  C   UNL     1       5.426   1.108  -5.356  1.00  0.00     0.116 C 
BRANCH   3   4
ATOM      4  N   UNL     1       6.325   0.450  -4.433  1.00  0.00    -0.351 N 
ATOM      5  C   UNL     1       6.548   0.632  -3.102  1.00  0.00     0.267 C 
ATOM      6  O   UNL     1       7.427  -0.042  -2.558  1.00  0.00    -0.268 OA
ATOM      7  H   UNL     1       6.875  -0.257  -4.841  1.00  0.00     0.163 HD
BRANCH   5   8
ATOM      8  C   UNL     1       5.824   1.668  -2.275  1.00  0.00     0.105 C 
ATOM      9  C   UNL     1       4.041   3.329  -1.722  1.00  0.00     0.172 C 
ATOM     10  C   UNL     1       4.614   2.191  -2.562  1.00  0.00     0.037 C 
ATOM     11  N   UNL     1       4.560   3.212  -0.366  1.00  0.00    -0.200 N 
ATOM     12  C   UNL     1       5.742   2.592  -0.062  1.00  0.00     0.248 A 
ATOM     13  N   UNL     1       3.891   3.528   0.754  1.00  0.00    -0.043 NA
ATOM     14  N   UNL     1       6.425   1.983  -1.054  1.00  0.00    -0.319 N 
ATOM     15  N   UNL     1       5.905   2.661   1.238  1.00  0.00    -0.090 NA
ATOM     16  N   UNL     1       4.746   3.239   1.732  1.00  0.00    -0.022 NA
ATOM     17  H   UNL     1       7.373   1.755  -0.914  1.00  0.00     0.170 HD
BRANCH   9  18
ATOM     18  C   UNL     1       4.274   4.698  -2.408  1.00  0.00     0.027 A 
ATOM     19  C   UNL     1       4.906   7.063  -2.450  1.00  0.00     0.161 A 
ATOM     20  C   UNL     1       4.404   7.190  -3.746  1.00  0.00     0.050 A 
ATOM     21  C   UNL     1       4.886   5.818  -1.792  1.00  0.00     0.166 A 
ATOM     22  C   UNL     1       3.877   6.082  -4.399  1.00  0.00     0.004 A 
ATOM     23  C   UNL     1       3.782   4.862  -3.727  1.00  0.00     0.010 A 
BRANCH  19  24
ATOM     24  O   UNL     1       5.274   8.218  -1.812  1.00  0.00    -0.493 OA
ATOM     25  C   UNL     1       6.633   8.574  -2.037  1.00  0.00     0.278 C 
ENDBRANCH  19  24
BRANCH  21  26
ATOM     26  O   UNL     1       5.560   5.573  -0.630  1.00  0.00    -0.492 OA
ATOM     27  C   UNL     1       5.546   6.541   0.407  1.00  0.00     0.278 C 
ENDBRANCH  21  26
ENDBRANCH   9  18
ENDBRANCH   5   8
ENDBRANCH   3   4
ENDBRANCH   2   3
ENDBRANCH   1   2
BRANCH   1  28
ATOM     28  C   UNL     1       5.316  -0.825  -7.812  1.00  0.00     0.002 C 
BRANCH  28  29
ATOM     29  C   UNL     1       3.982  -0.275  -8.322  1.00  0.00     0.021 C 
BRANCH  29  30
ATOM     30  C   UNL     1       4.061   0.606  -9.563  1.00  0.00     0.116 C 
BRANCH  30  31
ATOM     31  N   UNL     1       4.623  -0.087 -10.707  1.00  0.00    -0.352 N 
ATOM     32  C   UNL     1       4.117  -0.240 -11.974  1.00  0.00     0.251 C 
ATOM     33  H   UNL     1       5.498  -0.511 -10.551  1.00  0.00     0.163 HD
ATOM     34  O   UNL     1       4.660  -1.002 -12.765  1.00  0.00    -0.269 OA
BRANCH  32  35
ATOM     35  C   UNL     1       2.898   0.495 -12.380  1.00  0.00     0.039 A 
ATOM     36  C   UNL     1       1.906  -0.192 -13.085  1.00  0.00     0.014 A 
ATOM     37  C   UNL     1       2.736   1.851 -12.086  1.00  0.00     0.014 A 
ATOM     38  C   UNL     1       0.727   0.465 -13.441  1.00  0.00     0.010 A 
ATOM     39  C   UNL     1       1.530   2.486 -12.377  1.00  0.00     0.010 A 
ATOM     40  C   UNL     1       0.513   1.800 -13.059  1.00  0.00    -0.014 A 
BRANCH  40  41
ATOM     41  C   UNL     1      -0.772   2.484 -13.355  1.00  0.00     0.031 A 
ATOM     42  C   UNL     1      -0.807   3.683 -14.264  1.00  0.00     0.074 A 
ATOM     43  C   UNL     1      -1.903   2.061 -12.754  1.00  0.00     0.049 A 
ATOM     44  N   UNL     1      -1.825   4.437 -14.595  1.00  0.00    -0.248 NA
ATOM     45  C   UNL     1       0.470   4.106 -14.861  1.00  0.00     0.031 C 
ATOM     46  C   UNL     1      -1.998   0.939 -11.817  1.00  0.00     0.029 A 
ATOM     47  N   UNL     1      -3.191   2.532 -12.835  1.00  0.00    -0.354 N 
ATOM     48  C   UNL     1      -1.309   5.430 -15.418  1.00  0.00     0.074 A 
ATOM     49  C   UNL     1       0.117   5.210 -15.506  1.00  0.00     0.031 C 
ATOM     50  C   UNL     1      -3.274   0.797 -11.426  1.00  0.00     0.029 A 
ATOM     51  C   UNL     1      -4.081   1.841 -12.048  1.00  0.00     0.049 A 
ATOM     52  H   UNL     1      -3.451   3.293 -13.403  1.00  0.00     0.167 HD
ATOM     53  C   UNL     1      -1.967   6.428 -16.054  1.00  0.00     0.031 A 
ATOM     54  C   UNL     1      -5.397   2.035 -11.838  1.00  0.00     0.031 A 
ATOM     55  C   UNL     1      -3.389   6.635 -15.985  1.00  0.00     0.049 A 
ATOM     56  C   UNL     1      -6.099   3.155 -12.557  1.00  0.00     0.074 A 
ATOM     57  C   UNL     1      -4.155   7.571 -16.658  1.00  0.00     0.029 A 
ATOM     58  N   UNL     1      -4.258   5.902 -15.192  1.00  0.00    -0.354 N 
ATOM     59  N   UNL     1      -5.609   4.028 -13.403  1.00  0.00    -0.248 NA
ATOM     60  C   UNL     1      -7.538   3.307 -12.301  1.00  0.00     0.031 C 
ATOM     61  C   UNL     1      -5.477   7.448 -16.224  1.00  0.00     0.029 A 
ATOM     62  C   UNL     1      -5.546   6.390 -15.332  1.00  0.00     0.049 A 
ATOM     63  H   UNL     1      -3.998   5.147 -14.616  1.00  0.00     0.167 HD
ATOM     64  C   UNL     1      -6.685   4.812 -13.802  1.00  0.00     0.074 A 
ATOM     65  C   UNL     1      -7.855   4.298 -13.122  1.00  0.00     0.031 C 
ATOM     66  C   UNL     1      -6.702   5.866 -14.653  1.00  0.00     0.031 A 
BRANCH  53  67
ATOM     67  C   UNL     1      -1.160   7.391 -16.881  1.00  0.00    -0.014 A 
ATOM     68  C   UNL     1      -0.584   7.004 -18.101  1.00  0.00     0.009 A 
ATOM     69  C   UNL     1      -1.045   8.729 -16.470  1.00  0.00     0.009 A 
ATOM     70  C   UNL     1       0.110   7.932 -18.881  1.00  0.00     0.001 A 
ATOM     71  C   UNL     1      -0.376   9.661 -17.266  1.00  0.00     0.001 A 
ATOM     72  C   UNL     1       0.206   9.260 -18.467  1.00  0.00     0.000 A 
ENDBRANCH  53  67
BRANCH  54  73
ATOM     73  C   UNL     1      -6.145   1.162 -10.893  1.00  0.00    -0.014 A 
ATOM     74  C   UNL     1      -7.142   0.289 -11.355  1.00  0.00     0.009 A 
ATOM     75  C   UNL     1      -5.890   1.227  -9.514  1.00  0.00     0.009 A 
ATOM     76  C   UNL     1      -7.896  -0.467 -10.453  1.00  0.00     0.001 A 
ATOM     77  C   UNL     1      -6.621   0.444  -8.618  1.00  0.00     0.001 A 
ATOM     78  C   UNL     1      -7.633  -0.391  -9.087  1.00  0.00     0.000 A 
ENDBRANCH  54  73
BRANCH  66  79
ATOM     79  C   UNL     1      -8.032   6.510 -14.929  1.00  0.00    -0.014 A 
ATOM     80  C   UNL     1      -8.691   7.275 -13.954  1.00  0.00     0.009 A 
ATOM     81  C   UNL     1      -8.614   6.380 -16.200  1.00  0.00     0.009 A 
ATOM     82  C   UNL     1      -9.924   7.867 -14.236  1.00  0.00     0.001 A 
ATOM     83  C   UNL     1      -9.829   7.001 -16.490  1.00  0.00     0.001 A 
ATOM     84  C   UNL     1     -10.488   7.734 -15.505  1.00  0.00     0.000 A 
ENDBRANCH  66  79
ENDBRANCH  40  41
ENDBRANCH  32  35
ENDBRANCH  30  31
ENDBRANCH  29  30
ENDBRANCH  28  29
ENDBRANCH   1  28
TORSDOF 16
