REMARK SMILES CCCCCCCCNC(=O)Oc1cccc(-c2ccc([C@@H](C)C(=O)NCCCCCCNC(=O)c3ccc(-c4c5nc(c(-c6ccccc6)c6ccc([nH]6)c(-c6ccccc6)c6nc(c(-c7ccccc7)c7ccc4[nH]7)C=C6)C=C5)cc3)cc2F)c1
REMARK SMILES IDX 22 1 23 2 21 3 18 4 19 5 85 6 20 7 84 8 86 9 17 10 13 11
REMARK SMILES IDX 14 12 87 13 15 14 16 15 12 16 10 17 9 18 11 20 8 21 7 22
REMARK SMILES IDX 6 23 5 24 4 25 3 26 2 27 1 28 24 29 25 30 26 31 27 33 28 34
REMARK SMILES IDX 29 35 30 36 31 37 32 38 33 39 34 40 35 42 36 43 37 44 83 45
REMARK SMILES IDX 38 46 82 47 39 48 40 49 41 50 76 51 42 52 81 53 75 54 77 55
REMARK SMILES IDX 43 56 80 57 74 58 73 59 44 61 66 62 51 63 65 64 52 65 55 66
REMARK SMILES IDX 64 67 78 68 53 69 54 70 63 72 79 73 56 74 45 75 46 76 50 77
REMARK SMILES IDX 47 78 49 79 48 80 67 81 68 82 72 83 69 84 71 85 70 86 57 87
REMARK SMILES IDX 58 88 62 89 59 90 61 91 60 92
REMARK H PARENT 9 19 26 32 33 41 77 60 55 71
REMARK Flexibility Score: inf
ROOT
ATOM      1  C   UNL     1      -9.363  -9.326  -8.652  1.00  0.00     0.105 C 
ATOM      2  C   UNL     1      -9.903 -10.564  -9.368  1.00  0.00     0.023 C 
ENDROOT
BRANCH   1   3
ATOM      3  C   UNL     1      -8.225  -9.568  -7.673  1.00  0.00    -0.033 A 
ATOM      4  C   UNL     1      -6.115  -9.849  -5.757  1.00  0.00     0.018 A 
ATOM      5  C   UNL     1      -7.196 -10.744  -5.804  1.00  0.00     0.012 A 
ATOM      6  C   UNL     1      -6.103  -8.835  -6.726  1.00  0.00     0.131 A 
ATOM      7  C   UNL     1      -8.210 -10.627  -6.761  1.00  0.00     0.005 A 
ATOM      8  C   UNL     1      -7.140  -8.680  -7.651  1.00  0.00     0.044 A 
ATOM      9  F   UNL     1      -5.079  -7.970  -6.798  1.00  0.00    -0.206 F 
BRANCH   4  10
ATOM     10  C   UNL     1      -5.076  -9.973  -4.710  1.00  0.00    -0.012 A 
ATOM     11  C   UNL     1      -3.542  -8.972  -3.111  1.00  0.00     0.133 A 
ATOM     12  C   UNL     1      -3.136 -10.221  -2.657  1.00  0.00     0.047 A 
ATOM     13  C   UNL     1      -4.492  -8.839  -4.125  1.00  0.00     0.056 A 
ATOM     14  C   UNL     1      -3.701 -11.358  -3.220  1.00  0.00     0.004 A 
ATOM     15  C   UNL     1      -4.652 -11.233  -4.240  1.00  0.00     0.009 A 
BRANCH  11  16
ATOM     16  O   UNL     1      -2.859  -7.855  -2.611  1.00  0.00    -0.410 OA
BRANCH  16  17
ATOM     17  C   UNL     1      -3.611  -6.816  -2.089  1.00  0.00     0.412 C 
ATOM     18  N   UNL     1      -2.855  -5.715  -1.796  1.00  0.00    -0.321 N 
ATOM     19  H   UNL     1      -3.323  -4.951  -1.389  1.00  0.00     0.167 HD
ATOM     20  O   UNL     1      -4.818  -6.830  -1.881  1.00  0.00    -0.224 OA
BRANCH  18  21
ATOM     21  C   UNL     1      -1.433  -5.563  -2.026  1.00  0.00     0.119 C 
BRANCH  21  22
ATOM     22  C   UNL     1      -1.125  -4.371  -2.933  1.00  0.00     0.021 C 
BRANCH  22  23
ATOM     23  C   UNL     1      -1.534  -3.008  -2.360  1.00  0.00     0.002 C 
BRANCH  23  24
ATOM     24  C   UNL     1      -0.949  -2.677  -0.983  1.00  0.00     0.000 C 
BRANCH  24  25
ATOM     25  C   UNL     1       0.582  -2.643  -0.923  1.00  0.00    -0.000 C 
BRANCH  25  26
ATOM     26  C   UNL     1       1.239  -1.559  -1.784  1.00  0.00    -0.000 C 
BRANCH  26  27
ATOM     27  C   UNL     1       0.816  -0.123  -1.462  1.00  0.00    -0.003 C 
ATOM     28  C   UNL     1       1.135   0.294  -0.034  1.00  0.00     0.004 C 
ENDBRANCH  26  27
ENDBRANCH  25  26
ENDBRANCH  24  25
ENDBRANCH  23  24
ENDBRANCH  22  23
ENDBRANCH  21  22
ENDBRANCH  18  21
ENDBRANCH  16  17
ENDBRANCH  11  16
ENDBRANCH   4  10
ENDBRANCH   1   3
BRANCH   1  29
ATOM     29  C   UNL     1     -10.455  -8.392  -8.108  1.00  0.00     0.227 C 
ATOM     30  O   UNL     1     -10.531  -7.229  -8.522  1.00  0.00    -0.274 OA
ATOM     31  N   UNL     1     -11.380  -8.767  -7.184  1.00  0.00    -0.356 N 
ATOM     32  H   UNL     1     -12.064  -8.084  -6.998  1.00  0.00     0.163 HD
BRANCH  31  33
ATOM     33  C   UNL     1     -11.542  -9.989  -6.426  1.00  0.00     0.116 C 
BRANCH  33  34
ATOM     34  C   UNL     1     -11.050  -9.833  -4.986  1.00  0.00     0.021 C 
BRANCH  34  35
ATOM     35  C   UNL     1     -12.125  -9.332  -4.015  1.00  0.00     0.002 C 
BRANCH  35  36
ATOM     36  C   UNL     1     -13.322 -10.273  -3.827  1.00  0.00     0.002 C 
BRANCH  36  37
ATOM     37  C   UNL     1     -12.978 -11.701  -3.391  1.00  0.00     0.021 C 
BRANCH  37  38
ATOM     38  C   UNL     1     -12.236 -11.804  -2.061  1.00  0.00     0.116 C 
BRANCH  38  39
ATOM     39  N   UNL     1     -13.027 -11.283  -0.957  1.00  0.00    -0.352 N 
ATOM     40  C   UNL     1     -13.480 -11.909   0.176  1.00  0.00     0.251 C 
ATOM     41  H   UNL     1     -13.275 -10.334  -1.036  1.00  0.00     0.163 HD
ATOM     42  O   UNL     1     -14.329 -11.366   0.877  1.00  0.00    -0.269 OA
BRANCH  40  43
ATOM     43  C   UNL     1     -12.961 -13.240   0.556  1.00  0.00     0.039 A 
ATOM     44  C   UNL     1     -13.857 -14.200   1.035  1.00  0.00     0.014 A 
ATOM     45  C   UNL     1     -11.596 -13.531   0.483  1.00  0.00     0.014 A 
ATOM     46  C   UNL     1     -13.393 -15.469   1.387  1.00  0.00     0.010 A 
ATOM     47  C   UNL     1     -11.143 -14.817   0.772  1.00  0.00     0.010 A 
ATOM     48  C   UNL     1     -12.036 -15.797   1.230  1.00  0.00    -0.014 A 
BRANCH  48  49
ATOM     49  C   UNL     1     -11.547 -17.168   1.520  1.00  0.00     0.031 A 
ATOM     50  C   UNL     1     -10.579 -17.416   2.643  1.00  0.00     0.074 A 
ATOM     51  C   UNL     1     -11.936 -18.187   0.730  1.00  0.00     0.049 A 
ATOM     52  N   UNL     1     -10.039 -18.544   3.031  1.00  0.00    -0.248 NA
ATOM     53  C   UNL     1     -10.142 -16.243   3.415  1.00  0.00     0.031 C 
ATOM     54  C   UNL     1     -12.829 -18.069  -0.424  1.00  0.00     0.029 A 
ATOM     55  N   UNL     1     -11.624 -19.522   0.776  1.00  0.00    -0.354 N 
ATOM     56  C   UNL     1      -9.188 -18.215   4.079  1.00  0.00     0.074 A 
ATOM     57  C   UNL     1      -9.248 -16.778   4.234  1.00  0.00     0.031 C 
ATOM     58  C   UNL     1     -13.018 -19.286  -0.959  1.00  0.00     0.029 A 
ATOM     59  C   UNL     1     -12.234 -20.262  -0.208  1.00  0.00     0.049 A 
ATOM     60  H   UNL     1     -11.022 -19.913   1.449  1.00  0.00     0.167 HD
ATOM     61  C   UNL     1      -8.437 -19.036   4.852  1.00  0.00     0.031 A 
ATOM     62  C   UNL     1     -12.170 -21.578  -0.479  1.00  0.00     0.031 A 
ATOM     63  C   UNL     1      -8.381 -20.466   4.700  1.00  0.00     0.049 A 
ATOM     64  C   UNL     1     -11.336 -22.470   0.396  1.00  0.00     0.074 A 
ATOM     65  C   UNL     1      -7.706 -21.391   5.479  1.00  0.00     0.029 A 
ATOM     66  N   UNL     1      -9.020 -21.179   3.697  1.00  0.00    -0.354 N 
ATOM     67  N   UNL     1     -10.603 -22.154   1.436  1.00  0.00    -0.248 NA
ATOM     68  C   UNL     1     -11.333 -23.901   0.066  1.00  0.00     0.031 C 
ATOM     69  C   UNL     1      -7.893 -22.657   4.913  1.00  0.00     0.029 A 
ATOM     70  C   UNL     1      -8.729 -22.528   3.817  1.00  0.00     0.049 A 
ATOM     71  H   UNL     1      -9.594 -20.784   3.002  1.00  0.00     0.167 HD
ATOM     72  C   UNL     1     -10.066 -23.348   1.897  1.00  0.00     0.074 A 
ATOM     73  C   UNL     1     -10.575 -24.396   1.035  1.00  0.00     0.031 C 
ATOM     74  C   UNL     1      -9.228 -23.558   2.941  1.00  0.00     0.031 A 
BRANCH  61  75
ATOM     75  C   UNL     1      -7.602 -18.396   5.927  1.00  0.00    -0.014 A 
ATOM     76  C   UNL     1      -8.192 -17.810   7.059  1.00  0.00     0.009 A 
ATOM     77  C   UNL     1      -6.202 -18.398   5.817  1.00  0.00     0.009 A 
ATOM     78  C   UNL     1      -7.401 -17.200   8.035  1.00  0.00     0.001 A 
ATOM     79  C   UNL     1      -5.412 -17.814   6.810  1.00  0.00     0.001 A 
ATOM     80  C   UNL     1      -6.012 -17.206   7.912  1.00  0.00     0.000 A 
ENDBRANCH  61  75
BRANCH  62  81
ATOM     81  C   UNL     1     -12.944 -22.134  -1.619  1.00  0.00    -0.014 A 
ATOM     82  C   UNL     1     -14.087 -22.913  -1.390  1.00  0.00     0.009 A 
ATOM     83  C   UNL     1     -12.554 -21.869  -2.941  1.00  0.00     0.009 A 
ATOM     84  C   UNL     1     -14.815 -23.431  -2.463  1.00  0.00     0.001 A 
ATOM     85  C   UNL     1     -13.299 -22.367  -4.012  1.00  0.00     0.001 A 
ATOM     86  C   UNL     1     -14.425 -23.153  -3.772  1.00  0.00     0.000 A 
ENDBRANCH  62  81
BRANCH  74  87
ATOM     87  C   UNL     1      -8.821 -24.978   3.215  1.00  0.00    -0.014 A 
ATOM     88  C   UNL     1      -7.931 -25.656   2.367  1.00  0.00     0.009 A 
ATOM     89  C   UNL     1      -9.317 -25.639   4.350  1.00  0.00     0.009 A 
ATOM     90  C   UNL     1      -7.574 -26.980   2.632  1.00  0.00     0.001 A 
ATOM     91  C   UNL     1      -8.936 -26.952   4.627  1.00  0.00     0.001 A 
ATOM     92  C   UNL     1      -8.073 -27.625   3.763  1.00  0.00     0.000 A 
ENDBRANCH  74  87
ENDBRANCH  48  49
ENDBRANCH  40  43
ENDBRANCH  38  39
ENDBRANCH  37  38
ENDBRANCH  36  37
ENDBRANCH  35  36
ENDBRANCH  34  35
ENDBRANCH  33  34
ENDBRANCH  31  33
ENDBRANCH   1  29
TORSDOF 24
