REMARK SMILES C=CCOC(=O)N[C@@H](Cc1ccccc1)C(=O)NCCCCCCNC(=O)c1ccc(-c2c3nc(c(-c4ccccc4)c4ccc([nH]4)c(-c4ccccc4)c4nc(c(-c5ccccc5)c5ccc2[nH]5)C=C4)C=C3)cc1
REMARK SMILES IDX 20 1 19 2 18 3 16 4 17 5 8 7 7 8 5 9 6 10 4 12 3 13 2 14
REMARK SMILES IDX 1 15 9 16 10 17 11 18 15 19 12 20 14 21 13 22 21 23 22 24
REMARK SMILES IDX 23 25 24 26 25 27 26 28 27 30 28 31 29 32 75 33 30 34 74 35
REMARK SMILES IDX 31 36 32 37 33 38 68 39 34 40 73 41 67 42 69 43 35 44 72 45
REMARK SMILES IDX 66 46 65 47 36 49 58 50 43 51 57 52 44 53 47 54 56 55 70 56
REMARK SMILES IDX 45 57 46 58 55 60 71 61 48 62 37 63 38 64 42 65 39 66 41 67
REMARK SMILES IDX 40 68 59 69 60 70 64 71 61 72 63 73 62 74 49 75 50 76 54 77
REMARK SMILES IDX 51 78 53 79 52 80
REMARK H PARENT 18 6 7 11 25 29 69 48 47 59
REMARK Flexibility Score: inf
ROOT
ATOM      1  C   UNL     1       0.056   7.069  -2.520  1.00  0.00     0.021 C 
ENDROOT
BRANCH   1   2
ATOM      2  C   UNL     1      -1.261   6.354  -2.783  1.00  0.00     0.116 C 
BRANCH   2   3
ATOM      3  N   UNL     1      -1.209   5.400  -3.868  1.00  0.00    -0.354 N 
ATOM      4  C   UNL     1      -1.954   4.275  -4.073  1.00  0.00     0.243 C 
ATOM      5  O   UNL     1      -2.032   3.874  -5.242  1.00  0.00    -0.273 OA
ATOM      6  H   UNL     1      -0.537   5.591  -4.562  1.00  0.00     0.163 HD
BRANCH   4   7
ATOM      7  C   UNL     1      -2.797   3.594  -2.968  1.00  0.00     0.179 C 
BRANCH   7   8
ATOM      8  N   UNL     1      -2.157   3.498  -1.658  1.00  0.00    -0.309 N 
ATOM      9  C   UNL     1      -1.553   2.411  -1.102  1.00  0.00     0.408 C 
ATOM     10  O   UNL     1      -1.105   2.470   0.033  1.00  0.00    -0.225 OA
ATOM     11  H   UNL     1      -2.163   4.316  -1.111  1.00  0.00     0.167 HD
BRANCH   9  12
ATOM     12  O   UNL     1      -1.568   1.315  -1.896  1.00  0.00    -0.445 OA
BRANCH  12  13
ATOM     13  C   UNL     1      -1.161   0.099  -1.258  1.00  0.00     0.262 C 
BRANCH  13  14
ATOM     14  C   UNL     1       0.330  -0.042  -1.289  1.00  0.00     0.006 C 
ATOM     15  C   UNL     1       1.090  -0.157  -0.191  1.00  0.00     0.007 C 
ENDBRANCH  13  14
ENDBRANCH  12  13
ENDBRANCH   9  12
ENDBRANCH   7   8
BRANCH   7  16
ATOM     16  C   UNL     1      -4.244   4.132  -2.881  1.00  0.00     0.070 C 
BRANCH  16  17
ATOM     17  C   UNL     1      -4.420   5.577  -2.472  1.00  0.00    -0.045 A 
ATOM     18  C   UNL     1      -4.368   5.961  -1.123  1.00  0.00     0.004 A 
ATOM     19  C   UNL     1      -4.616   6.565  -3.449  1.00  0.00     0.004 A 
ATOM     20  C   UNL     1      -4.455   7.309  -0.766  1.00  0.00     0.000 A 
ATOM     21  C   UNL     1      -4.712   7.912  -3.088  1.00  0.00     0.000 A 
ATOM     22  C   UNL     1      -4.621   8.284  -1.749  1.00  0.00     0.000 A 
ENDBRANCH  16  17
ENDBRANCH   7  16
ENDBRANCH   4   7
ENDBRANCH   2   3
ENDBRANCH   1   2
BRANCH   1  23
ATOM     23  C   UNL     1       0.424   8.126  -3.564  1.00  0.00     0.002 C 
BRANCH  23  24
ATOM     24  C   UNL     1      -0.643   9.191  -3.849  1.00  0.00     0.002 C 
BRANCH  24  25
ATOM     25  C   UNL     1      -1.205   9.918  -2.624  1.00  0.00     0.021 C 
BRANCH  25  26
ATOM     26  C   UNL     1      -0.167  10.596  -1.738  1.00  0.00     0.116 C 
BRANCH  26  27
ATOM     27  N   UNL     1       0.631  11.567  -2.462  1.00  0.00    -0.352 N 
ATOM     28  C   UNL     1       0.953  12.859  -2.139  1.00  0.00     0.251 C 
ATOM     29  H   UNL     1       0.999  11.249  -3.318  1.00  0.00     0.163 HD
ATOM     30  O   UNL     1       1.504  13.575  -2.971  1.00  0.00    -0.269 OA
BRANCH  28  31
ATOM     31  C   UNL     1       0.625  13.407  -0.804  1.00  0.00     0.039 A 
ATOM     32  C   UNL     1       0.183  14.729  -0.721  1.00  0.00     0.014 A 
ATOM     33  C   UNL     1       0.782  12.650   0.361  1.00  0.00     0.014 A 
ATOM     34  C   UNL     1      -0.136  15.277   0.522  1.00  0.00     0.010 A 
ATOM     35  C   UNL     1       0.379  13.168   1.590  1.00  0.00     0.010 A 
ATOM     36  C   UNL     1      -0.068  14.493   1.686  1.00  0.00    -0.014 A 
BRANCH  36  37
ATOM     37  C   UNL     1      -0.459  15.063   3.000  1.00  0.00     0.031 A 
ATOM     38  C   UNL     1       0.552  15.209   4.105  1.00  0.00     0.074 A 
ATOM     39  C   UNL     1      -1.737  15.440   3.201  1.00  0.00     0.049 A 
ATOM     40  N   UNL     1       0.400  15.731   5.297  1.00  0.00    -0.248 NA
ATOM     41  C   UNL     1       1.903  14.684   3.851  1.00  0.00     0.031 C 
ATOM     42  C   UNL     1      -2.823  15.307   2.227  1.00  0.00     0.029 A 
ATOM     43  N   UNL     1      -2.336  16.027   4.287  1.00  0.00    -0.354 N 
ATOM     44  C   UNL     1       1.628  15.591   5.932  1.00  0.00     0.074 A 
ATOM     45  C   UNL     1       2.495  14.880   5.019  1.00  0.00     0.031 C 
ATOM     46  C   UNL     1      -3.941  15.843   2.740  1.00  0.00     0.029 A 
ATOM     47  C   UNL     1      -3.664  16.319   4.091  1.00  0.00     0.049 A 
ATOM     48  H   UNL     1      -1.860  16.219   5.128  1.00  0.00     0.167 HD
ATOM     49  C   UNL     1       2.010  16.034   7.154  1.00  0.00     0.031 A 
ATOM     50  C   UNL     1      -4.558  16.911   4.904  1.00  0.00     0.031 A 
ATOM     51  C   UNL     1       1.144  16.738   8.064  1.00  0.00     0.049 A 
ATOM     52  C   UNL     1      -4.113  17.382   6.260  1.00  0.00     0.074 A 
ATOM     53  C   UNL     1       1.447  17.268   9.306  1.00  0.00     0.029 A 
ATOM     54  N   UNL     1      -0.197  17.002   7.833  1.00  0.00    -0.354 N 
ATOM     55  N   UNL     1      -2.927  17.309   6.814  1.00  0.00    -0.248 NA
ATOM     56  C   UNL     1      -5.130  18.035   7.094  1.00  0.00     0.031 C 
ATOM     57  C   UNL     1       0.273  17.798   9.853  1.00  0.00     0.029 A 
ATOM     58  C   UNL     1      -0.743  17.665   8.921  1.00  0.00     0.049 A 
ATOM     59  H   UNL     1      -0.689  16.755   7.017  1.00  0.00     0.167 HD
ATOM     60  C   UNL     1      -3.047  17.937   8.048  1.00  0.00     0.074 A 
ATOM     61  C   UNL     1      -4.415  18.403   8.147  1.00  0.00     0.031 C 
ATOM     62  C   UNL     1      -2.109  18.113   9.012  1.00  0.00     0.031 A 
BRANCH  49  63
ATOM     63  C   UNL     1       3.427  15.758   7.580  1.00  0.00    -0.014 A 
ATOM     64  C   UNL     1       4.516  16.381   6.947  1.00  0.00     0.009 A 
ATOM     65  C   UNL     1       3.678  14.886   8.652  1.00  0.00     0.009 A 
ATOM     66  C   UNL     1       5.824  16.106   7.351  1.00  0.00     0.001 A 
ATOM     67  C   UNL     1       4.985  14.640   9.076  1.00  0.00     0.001 A 
ATOM     68  C   UNL     1       6.058  15.240   8.419  1.00  0.00     0.000 A 
ENDBRANCH  49  63
BRANCH  50  69
ATOM     69  C   UNL     1      -5.959  17.117   4.449  1.00  0.00    -0.014 A 
ATOM     70  C   UNL     1      -6.451  18.409   4.205  1.00  0.00     0.009 A 
ATOM     71  C   UNL     1      -6.818  16.021   4.270  1.00  0.00     0.009 A 
ATOM     72  C   UNL     1      -7.781  18.600   3.824  1.00  0.00     0.001 A 
ATOM     73  C   UNL     1      -8.137  16.213   3.856  1.00  0.00     0.001 A 
ATOM     74  C   UNL     1      -8.621  17.502   3.645  1.00  0.00     0.000 A 
ENDBRANCH  50  69
BRANCH  62  75
ATOM     75  C   UNL     1      -2.527  18.880  10.238  1.00  0.00    -0.014 A 
ATOM     76  C   UNL     1      -3.454  18.357  11.154  1.00  0.00     0.009 A 
ATOM     77  C   UNL     1      -1.978  20.150  10.479  1.00  0.00     0.009 A 
ATOM     78  C   UNL     1      -3.865  19.114  12.253  1.00  0.00     0.001 A 
ATOM     79  C   UNL     1      -2.361  20.888  11.600  1.00  0.00     0.001 A 
ATOM     80  C   UNL     1      -3.317  20.377  12.476  1.00  0.00     0.000 A 
ENDBRANCH  62  75
ENDBRANCH  36  37
ENDBRANCH  28  31
ENDBRANCH  26  27
ENDBRANCH  25  26
ENDBRANCH  24  25
ENDBRANCH  23  24
ENDBRANCH   1  23
TORSDOF 19
