REMARK SMILES CCCOc1ccccc1O[C@@H]1CC[C@@]([NH3+])(C(=O)NCCCCCCNC(=O)c2ccc(-c3c4nc(c(-c5ccccc5)c5ccc([nH]5)c(-c5ccccc5)c5nc(c(-c6ccccc6)c6ccc3[nH]6)C=C5)C=C4)cc2)C1
REMARK SMILES IDX 21 1 20 2 19 3 17 4 18 5 15 7 12 8 13 9 77 10 14 11 11 12
REMARK SMILES IDX 10 13 5 14 6 15 7 16 9 17 8 18 4 19 3 20 2 21 1 22 16 23
REMARK SMILES IDX 22 27 23 28 24 29 25 30 26 31 27 32 28 34 29 35 30 36 76 37
REMARK SMILES IDX 31 38 75 39 32 40 33 41 34 42 69 43 35 44 74 45 68 46 70 47
REMARK SMILES IDX 36 48 73 49 67 50 66 51 37 53 59 54 44 55 58 56 45 57 48 58
REMARK SMILES IDX 57 59 71 60 46 61 47 62 56 64 72 65 49 66 38 67 39 68 43 69
REMARK SMILES IDX 40 70 42 71 41 72 60 73 61 74 65 75 62 76 64 77 63 78 50 79
REMARK SMILES IDX 51 80 55 81 52 82 54 83 53 84
REMARK H PARENT 19 6 16 24 16 25 16 26 26 33 70 52 48 63
REMARK Flexibility Score: inf
ROOT
ATOM      1  C   UNL     1      -1.862   5.964   1.533  1.00  0.00     0.021 C 
ENDROOT
BRANCH   1   2
ATOM      2  C   UNL     1      -0.360   5.894   1.222  1.00  0.00     0.116 C 
BRANCH   2   3
ATOM      3  N   UNL     1       0.404   4.998   2.087  1.00  0.00    -0.351 N 
ATOM      4  C   UNL     1       1.213   3.930   1.739  1.00  0.00     0.281 C 
ATOM      5  O   UNL     1       2.043   3.513   2.546  1.00  0.00    -0.268 OA
ATOM      6  H   UNL     1       0.334   5.180   3.052  1.00  0.00     0.163 HD
BRANCH   4   7
ATOM      7  C   UNL     1       1.048   3.282   0.258  1.00  0.00     0.177 C 
ATOM      8  C   UNL     1       0.321   0.173  -0.554  1.00  0.00     0.180 C 
ATOM      9  C   UNL     1      -1.364   1.263  -0.686  1.00  0.00     0.052 C 
ATOM     10  C   UNL     1       1.846   1.439  -0.045  1.00  0.00     0.124 C 
ATOM     11  C   UNL     1      -0.937   3.096  -0.035  1.00  0.00     0.083 C 
BRANCH   8  12
ATOM     12  O   UNL     1       0.565  -0.966  -1.352  1.00  0.00    -0.486 OA
BRANCH  12  13
ATOM     13  C   UNL     1       1.050  -0.718  -2.575  1.00  0.00     0.161 A 
ATOM     14  C   UNL     1       0.903   0.517  -3.163  1.00  0.00     0.161 A 
ATOM     15  C   UNL     1       1.388   0.723  -4.449  1.00  0.00     0.050 A 
ATOM     16  C   UNL     1       2.001  -0.338  -5.133  1.00  0.00     0.004 A 
ATOM     17  C   UNL     1       1.607  -1.791  -3.260  1.00  0.00     0.050 A 
ATOM     18  C   UNL     1       2.086  -1.604  -4.549  1.00  0.00     0.004 A 
BRANCH  14  19
ATOM     19  O   UNL     1       0.024   1.377  -2.578  1.00  0.00    -0.490 OA
BRANCH  19  20
ATOM     20  C   UNL     1       0.403   2.055  -1.266  1.00  0.00     0.229 C 
BRANCH  20  21
ATOM     21  C   UNL     1       0.060   1.537   0.819  1.00  0.00     0.038 C 
ATOM     22  C   UNL     1       0.859   0.441   1.942  1.00  0.00     0.007 C 
ENDBRANCH  20  21
ENDBRANCH  19  20
ENDBRANCH  14  19
ENDBRANCH  12  13
ENDBRANCH   8  12
BRANCH   7  23
ATOM     23  N   UNL     1       1.744   4.347  -0.545  1.00  0.00    -0.345 N 
ATOM     24  H   UNL     1       1.310   5.251  -0.360  1.00  0.00     0.345 HD
ATOM     25  H   UNL     1       1.666   4.130  -1.539  1.00  0.00     0.345 HD
ATOM     26  H   UNL     1       2.729   4.383  -0.282  1.00  0.00     0.345 HD
ENDBRANCH   7  23
ENDBRANCH   4   7
ENDBRANCH   2   3
ENDBRANCH   1   2
BRANCH   1  27
ATOM     27  C   UNL     1      -2.224   6.534   2.904  1.00  0.00     0.002 C 
BRANCH  27  28
ATOM     28  C   UNL     1      -1.686   7.939   3.172  1.00  0.00     0.002 C 
BRANCH  28  29
ATOM     29  C   UNL     1      -2.098   8.991   2.139  1.00  0.00     0.021 C 
BRANCH  29  30
ATOM     30  C   UNL     1      -3.604   9.184   2.002  1.00  0.00     0.116 C 
BRANCH  30  31
ATOM     31  N   UNL     1      -4.204   9.671   3.236  1.00  0.00    -0.352 N 
ATOM     32  C   UNL     1      -4.859  10.853   3.476  1.00  0.00     0.251 C 
ATOM     33  H   UNL     1      -4.130   9.065   4.009  1.00  0.00     0.163 HD
ATOM     34  O   UNL     1      -5.101  11.213   4.623  1.00  0.00    -0.269 OA
BRANCH  32  35
ATOM     35  C   UNL     1      -5.251  11.704   2.336  1.00  0.00     0.039 A 
ATOM     36  C   UNL     1      -4.952  13.068   2.370  1.00  0.00     0.014 A 
ATOM     37  C   UNL     1      -5.881  11.144   1.221  1.00  0.00     0.014 A 
ATOM     38  C   UNL     1      -5.208  13.855   1.247  1.00  0.00     0.010 A 
ATOM     39  C   UNL     1      -6.062  11.912   0.077  1.00  0.00     0.010 A 
ATOM     40  C   UNL     1      -5.716  13.272   0.074  1.00  0.00    -0.014 A 
BRANCH  40  41
ATOM     41  C   UNL     1      -5.854  14.055  -1.179  1.00  0.00     0.031 A 
ATOM     42  C   UNL     1      -7.206  14.262  -1.800  1.00  0.00     0.074 A 
ATOM     43  C   UNL     1      -4.748  14.512  -1.799  1.00  0.00     0.049 A 
ATOM     44  N   UNL     1      -7.512  14.843  -2.933  1.00  0.00    -0.248 NA
ATOM     45  C   UNL     1      -8.363  13.731  -1.063  1.00  0.00     0.031 C 
ATOM     46  C   UNL     1      -3.376  14.354  -1.311  1.00  0.00     0.029 A 
ATOM     47  N   UNL     1      -4.602  15.195  -2.981  1.00  0.00    -0.354 N 
ATOM     48  C   UNL     1      -8.892  14.738  -3.049  1.00  0.00     0.074 A 
ATOM     49  C   UNL     1      -9.357  13.993  -1.899  1.00  0.00     0.031 C 
ATOM     50  C   UNL     1      -2.532  14.946  -2.171  1.00  0.00     0.029 A 
ATOM     51  C   UNL     1      -3.294  15.472  -3.298  1.00  0.00     0.049 A 
ATOM     52  H   UNL     1      -5.362  15.462  -3.546  1.00  0.00     0.167 HD
ATOM     53  C   UNL     1      -9.700  15.229  -4.018  1.00  0.00     0.031 A 
ATOM     54  C   UNL     1      -2.763  16.063  -4.386  1.00  0.00     0.031 A 
ATOM     55  C   UNL     1      -9.231  15.958  -5.167  1.00  0.00     0.049 A 
ATOM     56  C   UNL     1      -3.678  16.540  -5.480  1.00  0.00     0.074 A 
ATOM     57  C   UNL     1      -9.975  16.534  -6.182  1.00  0.00     0.029 A 
ATOM     58  N   UNL     1      -7.898  16.198  -5.463  1.00  0.00    -0.354 N 
ATOM     59  N   UNL     1      -4.987  16.497  -5.541  1.00  0.00    -0.248 NA
ATOM     60  C   UNL     1      -3.041  17.149  -6.657  1.00  0.00     0.031 C 
ATOM     61  C   UNL     1      -9.090  17.053  -7.131  1.00  0.00     0.029 A 
ATOM     62  C   UNL     1      -7.797  16.874  -6.668  1.00  0.00     0.049 A 
ATOM     63  H   UNL     1      -7.136  15.928  -4.900  1.00  0.00     0.167 HD
ATOM     64  C   UNL     1      -5.330  17.096  -6.746  1.00  0.00     0.074 A 
ATOM     65  C   UNL     1      -4.094  17.515  -7.373  1.00  0.00     0.031 C 
ATOM     66  C   UNL     1      -6.560  17.282  -7.285  1.00  0.00     0.031 A 
BRANCH  53  67
ATOM     67  C   UNL     1     -11.177  14.972  -3.890  1.00  0.00    -0.014 A 
ATOM     68  C   UNL     1     -11.939  15.568  -2.872  1.00  0.00     0.009 A 
ATOM     69  C   UNL     1     -11.825  14.154  -4.829  1.00  0.00     0.009 A 
ATOM     70  C   UNL     1     -13.309  15.318  -2.775  1.00  0.00     0.001 A 
ATOM     71  C   UNL     1     -13.201  13.935  -4.751  1.00  0.00     0.001 A 
ATOM     72  C   UNL     1     -13.940  14.507  -3.717  1.00  0.00     0.000 A 
ENDBRANCH  53  67
BRANCH  54  73
ATOM     73  C   UNL     1      -1.288  16.224  -4.505  1.00  0.00    -0.014 A 
ATOM     74  C   UNL     1      -0.705  17.501  -4.498  1.00  0.00     0.009 A 
ATOM     75  C   UNL     1      -0.456  15.102  -4.646  1.00  0.00     0.009 A 
ATOM     76  C   UNL     1       0.674  17.651  -4.663  1.00  0.00     0.001 A 
ATOM     77  C   UNL     1       0.927  15.253  -4.772  1.00  0.00     0.001 A 
ATOM     78  C   UNL     1       1.489  16.527  -4.794  1.00  0.00     0.000 A 
ENDBRANCH  54  73
BRANCH  66  79
ATOM     79  C   UNL     1      -6.637  17.993  -8.608  1.00  0.00    -0.014 A 
ATOM     80  C   UNL     1      -6.190  17.386  -9.792  1.00  0.00     0.009 A 
ATOM     81  C   UNL     1      -7.221  19.268  -8.678  1.00  0.00     0.009 A 
ATOM     82  C   UNL     1      -6.299  18.055 -11.014  1.00  0.00     0.001 A 
ATOM     83  C   UNL     1      -7.363  19.918  -9.905  1.00  0.00     0.001 A 
ATOM     84  C   UNL     1      -6.893  19.315 -11.070  1.00  0.00     0.000 A 
ENDBRANCH  66  79
ENDBRANCH  40  41
ENDBRANCH  32  35
ENDBRANCH  30  31
ENDBRANCH  29  30
ENDBRANCH  28  29
ENDBRANCH  27  28
ENDBRANCH   1  27
TORSDOF 19
