REMARK SMILES Cc1nc(-c2ccccc2Cl)sc1C(=O)NC[C@H]1CC[C@@H](C(=O)NCCCCCCNC(=O)c2ccc(-c3c4nc(c(-c5ccccc5)c5ccc([nH]5)c(-c5ccccc5)c5nc(c(-c6ccccc6)c6ccc3[nH]6)C=C5)C=C4)cc2)CC1
REMARK SMILES IDX 26 1 25 2 24 3 22 4 23 5 21 7 18 8 19 9 83 10 20 11 82 12
REMARK SMILES IDX 17 13 16 14 14 15 15 16 13 18 1 19 2 20 3 21 4 22 12 23 5 24
REMARK SMILES IDX 6 25 10 26 7 27 9 28 11 29 8 30 27 31 28 32 29 33 30 34
REMARK SMILES IDX 31 35 32 36 33 38 34 39 35 40 81 41 36 42 80 43 37 44 38 45
REMARK SMILES IDX 39 46 74 47 40 48 79 49 73 50 75 51 41 52 78 53 72 54 71 55
REMARK SMILES IDX 42 57 64 58 49 59 63 60 50 61 53 62 62 63 76 64 51 65 52 66
REMARK SMILES IDX 61 68 77 69 54 70 43 71 44 72 48 73 45 74 47 75 46 76 65 77
REMARK SMILES IDX 66 78 70 79 67 80 69 81 68 82 55 83 56 84 60 85 57 86 59 87
REMARK SMILES IDX 58 88
REMARK H PARENT 24 6 16 17 31 37 75 56 53 67
REMARK Flexibility Score: inf
ROOT
ATOM      1  C   UNL     1      -6.008  -1.744   1.561  1.00  0.00     0.021 C 
ENDROOT
BRANCH   1   2
ATOM      2  C   UNL     1      -6.112  -3.072   0.807  1.00  0.00     0.116 C 
BRANCH   2   3
ATOM      3  N   UNL     1      -7.287  -3.176  -0.025  1.00  0.00    -0.356 N 
ATOM      4  C   UNL     1      -7.470  -3.399  -1.349  1.00  0.00     0.223 C 
ATOM      5  O   UNL     1      -8.637  -3.642  -1.684  1.00  0.00    -0.275 OA
ATOM      6  H   UNL     1      -8.129  -3.063   0.472  1.00  0.00     0.163 HD
BRANCH   4   7
ATOM      7  C   UNL     1      -6.385  -3.344  -2.437  1.00  0.00     0.078 C 
ATOM      8  C   UNL     1      -3.478  -2.940  -1.666  1.00  0.00     0.008 C 
ATOM      9  C   UNL     1      -4.115  -4.349  -1.709  1.00  0.00     0.006 C 
ATOM     10  C   UNL     1      -4.460  -1.762  -1.839  1.00  0.00     0.006 C 
ATOM     11  C   UNL     1      -5.389  -4.493  -2.530  1.00  0.00     0.014 C 
ATOM     12  C   UNL     1      -5.720  -1.996  -2.647  1.00  0.00     0.014 C 
BRANCH   8  13
ATOM     13  C   UNL     1      -2.654  -2.773  -0.353  1.00  0.00     0.119 C 
BRANCH  13  14
ATOM     14  N   UNL     1      -1.237  -2.946  -0.539  1.00  0.00    -0.351 N 
ATOM     15  C   UNL     1      -0.116  -2.185  -0.329  1.00  0.00     0.263 C 
ATOM     16  O   UNL     1       0.910  -2.880  -0.377  1.00  0.00    -0.268 OA
ATOM     17  H   UNL     1      -1.018  -3.832  -0.910  1.00  0.00     0.163 HD
BRANCH  15  18
ATOM     18  C   UNL     1      -0.062  -0.741  -0.099  1.00  0.00     0.115 A 
ATOM     19  C   UNL     1      -2.391   0.480  -0.121  1.00  0.00     0.068 C 
ATOM     20  C   UNL     1      -0.924   0.352  -0.013  1.00  0.00     0.062 A 
ATOM     21  N   UNL     1      -0.315   1.586   0.157  1.00  0.00    -0.240 NA
ATOM     22  C   UNL     1       0.987   1.488   0.082  1.00  0.00     0.125 A 
ATOM     23  S   UNL     1       1.572  -0.108   0.086  1.00  0.00    -0.108 S 
BRANCH  22  24
ATOM     24  C   UNL     1       1.864   2.656   0.080  1.00  0.00     0.029 A 
ATOM     25  C   UNL     1       1.728   3.571   1.140  1.00  0.00     0.013 A 
ATOM     26  C   UNL     1       2.725   2.979  -0.980  1.00  0.00     0.051 A 
ATOM     27  C   UNL     1       2.441   4.770   1.152  1.00  0.00     0.001 A 
ATOM     28  C   UNL     1       3.442   4.182  -0.964  1.00  0.00     0.021 A 
ATOM     29  Cl  UNL     1       2.899   1.986  -2.387  1.00  0.00    -0.084 Cl
ATOM     30  C   UNL     1       3.298   5.075   0.099  1.00  0.00     0.002 A 
ENDBRANCH  22  24
ENDBRANCH  15  18
ENDBRANCH  13  14
ENDBRANCH   8  13
ENDBRANCH   4   7
ENDBRANCH   2   3
ENDBRANCH   1   2
BRANCH   1  31
ATOM     31  C   UNL     1      -6.279  -1.853   3.063  1.00  0.00     0.002 C 
BRANCH  31  32
ATOM     32  C   UNL     1      -5.333  -2.777   3.844  1.00  0.00     0.002 C 
BRANCH  32  33
ATOM     33  C   UNL     1      -3.838  -2.458   3.742  1.00  0.00     0.021 C 
BRANCH  33  34
ATOM     34  C   UNL     1      -3.434  -1.054   4.189  1.00  0.00     0.116 C 
BRANCH  34  35
ATOM     35  N   UNL     1      -3.829  -0.776   5.559  1.00  0.00    -0.352 N 
ATOM     36  C   UNL     1      -3.073  -0.454   6.657  1.00  0.00     0.251 C 
ATOM     37  H   UNL     1      -4.798  -0.828   5.727  1.00  0.00     0.163 HD
ATOM     38  O   UNL     1      -3.588  -0.456   7.771  1.00  0.00    -0.269 OA
BRANCH  36  39
ATOM     39  C   UNL     1      -1.641  -0.112   6.517  1.00  0.00     0.039 A 
ATOM     40  C   UNL     1      -0.738  -0.602   7.466  1.00  0.00     0.014 A 
ATOM     41  C   UNL     1      -1.192   0.731   5.496  1.00  0.00     0.014 A 
ATOM     42  C   UNL     1       0.619  -0.289   7.363  1.00  0.00     0.010 A 
ATOM     43  C   UNL     1       0.170   0.989   5.356  1.00  0.00     0.010 A 
ATOM     44  C   UNL     1       1.088   0.489   6.292  1.00  0.00    -0.014 A 
BRANCH  44  45
ATOM     45  C   UNL     1       2.531   0.797   6.142  1.00  0.00     0.031 A 
ATOM     46  C   UNL     1       3.023   2.212   6.274  1.00  0.00     0.074 A 
ATOM     47  C   UNL     1       3.394  -0.190   5.833  1.00  0.00     0.049 A 
ATOM     48  N   UNL     1       4.234   2.684   6.120  1.00  0.00    -0.248 NA
ATOM     49  C   UNL     1       2.016   3.235   6.600  1.00  0.00     0.031 C 
ATOM     50  C   UNL     1       3.041  -1.598   5.649  1.00  0.00     0.029 A 
ATOM     51  N   UNL     1       4.748  -0.154   5.614  1.00  0.00    -0.354 N 
ATOM     52  C   UNL     1       4.133   4.055   6.313  1.00  0.00     0.074 A 
ATOM     53  C   UNL     1       2.735   4.346   6.551  1.00  0.00     0.031 C 
ATOM     54  C   UNL     1       4.153  -2.296   5.369  1.00  0.00     0.029 A 
ATOM     55  C   UNL     1       5.288  -1.381   5.315  1.00  0.00     0.049 A 
ATOM     56  H   UNL     1       5.282   0.672   5.666  1.00  0.00     0.167 HD
ATOM     57  C   UNL     1       5.116   4.987   6.312  1.00  0.00     0.031 A 
ATOM     58  C   UNL     1       6.555  -1.730   5.024  1.00  0.00     0.031 A 
ATOM     59  C   UNL     1       6.507   4.698   6.088  1.00  0.00     0.049 A 
ATOM     60  C   UNL     1       7.624  -0.673   5.006  1.00  0.00     0.074 A 
ATOM     61  C   UNL     1       7.585   5.566   6.121  1.00  0.00     0.029 A 
ATOM     62  N   UNL     1       7.013   3.443   5.787  1.00  0.00    -0.354 N 
ATOM     63  N   UNL     1       7.522   0.610   5.253  1.00  0.00    -0.248 NA
ATOM     64  C   UNL     1       8.986  -1.119   4.679  1.00  0.00     0.031 C 
ATOM     65  C   UNL     1       8.738   4.843   5.795  1.00  0.00     0.029 A 
ATOM     66  C   UNL     1       8.384   3.517   5.609  1.00  0.00     0.049 A 
ATOM     67  H   UNL     1       6.476   2.621   5.712  1.00  0.00     0.167 HD
ATOM     68  C   UNL     1       8.808   1.121   5.138  1.00  0.00     0.074 A 
ATOM     69  C   UNL     1       9.675   0.006   4.814  1.00  0.00     0.031 C 
ATOM     70  C   UNL     1       9.233   2.399   5.288  1.00  0.00     0.031 A 
BRANCH  57  71
ATOM     71  C   UNL     1       4.712   6.415   6.551  1.00  0.00    -0.014 A 
ATOM     72  C   UNL     1       4.276   6.846   7.815  1.00  0.00     0.009 A 
ATOM     73  C   UNL     1       4.791   7.349   5.506  1.00  0.00     0.009 A 
ATOM     74  C   UNL     1       3.889   8.173   8.015  1.00  0.00     0.001 A 
ATOM     75  C   UNL     1       4.431   8.681   5.717  1.00  0.00     0.001 A 
ATOM     76  C   UNL     1       3.970   9.090   6.968  1.00  0.00     0.000 A 
ENDBRANCH  57  71
BRANCH  58  77
ATOM     77  C   UNL     1       6.890  -3.150   4.745  1.00  0.00    -0.014 A 
ATOM     78  C   UNL     1       7.629  -3.899   5.674  1.00  0.00     0.009 A 
ATOM     79  C   UNL     1       6.478  -3.763   3.552  1.00  0.00     0.009 A 
ATOM     80  C   UNL     1       7.969  -5.226   5.402  1.00  0.00     0.001 A 
ATOM     81  C   UNL     1       6.796  -5.098   3.296  1.00  0.00     0.001 A 
ATOM     82  C   UNL     1       7.549  -5.826   4.216  1.00  0.00     0.000 A 
ENDBRANCH  58  77
BRANCH  70  83
ATOM     83  C   UNL     1      10.706   2.652   5.141  1.00  0.00    -0.014 A 
ATOM     84  C   UNL     1      11.328   2.623   3.883  1.00  0.00     0.009 A 
ATOM     85  C   UNL     1      11.475   2.959   6.274  1.00  0.00     0.009 A 
ATOM     86  C   UNL     1      12.699   2.865   3.769  1.00  0.00     0.001 A 
ATOM     87  C   UNL     1      12.839   3.227   6.154  1.00  0.00     0.001 A 
ATOM     88  C   UNL     1      13.451   3.171   4.903  1.00  0.00     0.000 A 
ENDBRANCH  70  83
ENDBRANCH  44  45
ENDBRANCH  36  39
ENDBRANCH  34  35
ENDBRANCH  33  34
ENDBRANCH  32  33
ENDBRANCH  31  32
ENDBRANCH   1  31
TORSDOF 17
