REMARK SMILES CC[C@@H](C(=O)NCCCCCCNC(=O)c1ccc(-c2c3nc(c(-c4ccccc4)c4ccc([nH]4)c(-c4ccccc4)c4nc(c(-c5ccccc5)c5ccc2[nH]5)C=C4)C=C3)cc1)n1c(SCc2cccc(C(F)(F)F)c2)nc2ccncc21
REMARK SMILES IDX 8 1 7 2 6 3 4 4 5 5 3 7 2 8 1 9 64 10 65 11 84 12 78 13
REMARK SMILES IDX 79 14 83 15 80 16 82 17 81 18 66 19 67 20 68 21 69 22 77 23
REMARK SMILES IDX 70 24 72 25 71 26 73 27 74 28 75 29 76 30 9 31 10 32 11 33
REMARK SMILES IDX 12 34 13 35 14 36 15 38 16 39 17 40 63 41 18 42 62 43 19 44
REMARK SMILES IDX 20 45 21 46 56 47 22 48 61 49 55 50 57 51 23 52 60 53 54 54
REMARK SMILES IDX 53 55 24 57 46 58 31 59 45 60 32 61 35 62 44 63 58 64 33 65
REMARK SMILES IDX 34 66 43 68 59 69 36 70 25 71 26 72 30 73 27 74 29 75 28 76
REMARK SMILES IDX 47 77 48 78 52 79 49 80 51 81 50 82 37 83 38 84 42 85 39 86
REMARK SMILES IDX 41 87 40 88
REMARK H PARENT 6 6 13 37 57 56 35 67
REMARK Flexibility Score: inf
ROOT
ATOM      1  C   UNL     1       0.974  -2.249   0.716  1.00  0.00     0.021 C 
ENDROOT
BRANCH   1   2
ATOM      2  C   UNL     1       1.418  -1.818  -0.685  1.00  0.00     0.116 C 
BRANCH   2   3
ATOM      3  N   UNL     1       0.244  -1.705  -1.533  1.00  0.00    -0.354 N 
ATOM      4  C   UNL     1      -0.439  -0.569  -1.877  1.00  0.00     0.243 C 
ATOM      5  O   UNL     1      -1.667  -0.637  -1.946  1.00  0.00    -0.273 OA
ATOM      6  H   UNL     1      -0.103  -2.548  -1.906  1.00  0.00     0.163 HD
BRANCH   4   7
ATOM      7  C   UNL     1       0.328   0.715  -2.191  1.00  0.00     0.178 C 
BRANCH   7   8
ATOM      8  C   UNL     1       0.112   1.728  -1.047  1.00  0.00     0.032 C 
ATOM      9  C   UNL     1       0.514   1.274   0.347  1.00  0.00     0.006 C 
ENDBRANCH   7   8
BRANCH   7  10
ATOM     10  N   UNL     1       0.004   1.246  -3.547  1.00  0.00    -0.305 N 
ATOM     11  C   UNL     1      -0.015   0.507  -4.723  1.00  0.00     0.170 A 
ATOM     12  C   UNL     1       0.092   2.574  -3.960  1.00  0.00     0.088 A 
ATOM     13  N   UNL     1       0.453   1.198  -5.737  1.00  0.00    -0.222 NA
ATOM     14  C   UNL     1       0.479   2.495  -5.297  1.00  0.00     0.093 A 
ATOM     15  C   UNL     1      -0.119   3.809  -3.360  1.00  0.00     0.139 A 
ATOM     16  C   UNL     1       0.762   3.661  -6.012  1.00  0.00     0.051 A 
ATOM     17  N   UNL     1       0.117   4.941  -4.063  1.00  0.00    -0.262 NA
ATOM     18  C   UNL     1       0.550   4.850  -5.338  1.00  0.00     0.113 A 
BRANCH  11  19
ATOM     19  S   UNL     1      -0.925  -0.946  -4.927  1.00  0.00    -0.083 SA
BRANCH  19  20
ATOM     20  C   UNL     1       0.173  -2.343  -5.176  1.00  0.00     0.113 C 
BRANCH  20  21
ATOM     21  C   UNL     1       1.538  -2.421  -4.535  1.00  0.00    -0.037 A 
ATOM     22  C   UNL     1       1.968  -3.652  -4.006  1.00  0.00     0.004 A 
ATOM     23  C   UNL     1       2.443  -1.357  -4.509  1.00  0.00     0.017 A 
ATOM     24  C   UNL     1       3.224  -3.784  -3.409  1.00  0.00     0.001 A 
ATOM     25  C   UNL     1       3.653  -1.437  -3.804  1.00  0.00     0.056 A 
ATOM     26  C   UNL     1       4.051  -2.672  -3.279  1.00  0.00     0.013 A 
BRANCH  25  27
ATOM     27  C   UNL     1       4.468  -0.194  -3.549  1.00  0.00     0.416 C 
ATOM     28  F   UNL     1       4.689  -0.012  -2.213  1.00  0.00    -0.166 F 
ATOM     29  F   UNL     1       5.691  -0.218  -4.136  1.00  0.00    -0.166 F 
ATOM     30  F   UNL     1       3.860   0.952  -3.966  1.00  0.00    -0.166 F 
ENDBRANCH  25  27
ENDBRANCH  20  21
ENDBRANCH  19  20
ENDBRANCH  11  19
ENDBRANCH   7  10
ENDBRANCH   4   7
ENDBRANCH   2   3
ENDBRANCH   1   2
BRANCH   1  31
ATOM     31  C   UNL     1       0.691  -3.754   0.817  1.00  0.00     0.002 C 
BRANCH  31  32
ATOM     32  C   UNL     1       1.943  -4.634   0.854  1.00  0.00     0.002 C 
BRANCH  32  33
ATOM     33  C   UNL     1       2.925  -4.313   1.983  1.00  0.00     0.021 C 
BRANCH  33  34
ATOM     34  C   UNL     1       2.307  -4.280   3.377  1.00  0.00     0.116 C 
BRANCH  34  35
ATOM     35  N   UNL     1       1.763  -5.571   3.764  1.00  0.00    -0.352 N 
ATOM     36  C   UNL     1       2.026  -6.324   4.881  1.00  0.00     0.251 C 
ATOM     37  H   UNL     1       1.114  -5.961   3.135  1.00  0.00     0.163 HD
ATOM     38  O   UNL     1       1.640  -7.484   4.948  1.00  0.00    -0.269 OA
BRANCH  36  39
ATOM     39  C   UNL     1       2.790  -5.733   6.001  1.00  0.00     0.039 A 
ATOM     40  C   UNL     1       3.779  -6.500   6.621  1.00  0.00     0.014 A 
ATOM     41  C   UNL     1       2.516  -4.440   6.454  1.00  0.00     0.014 A 
ATOM     42  C   UNL     1       4.517  -5.955   7.673  1.00  0.00     0.010 A 
ATOM     43  C   UNL     1       3.307  -3.870   7.447  1.00  0.00     0.010 A 
ATOM     44  C   UNL     1       4.301  -4.628   8.082  1.00  0.00    -0.014 A 
BRANCH  44  45
ATOM     45  C   UNL     1       5.080  -4.038   9.199  1.00  0.00     0.031 A 
ATOM     46  C   UNL     1       4.385  -3.622  10.468  1.00  0.00     0.074 A 
ATOM     47  C   UNL     1       6.406  -3.845   9.062  1.00  0.00     0.049 A 
ATOM     48  N   UNL     1       4.892  -3.084  11.549  1.00  0.00    -0.248 NA
ATOM     49  C   UNL     1       2.926  -3.813  10.522  1.00  0.00     0.031 C 
ATOM     50  C   UNL     1       7.192  -4.168   7.870  1.00  0.00     0.029 A 
ATOM     51  N   UNL     1       7.329  -3.333   9.940  1.00  0.00    -0.354 N 
ATOM     52  C   UNL     1       3.816  -2.861  12.399  1.00  0.00     0.074 A 
ATOM     53  C   UNL     1       2.623  -3.263  11.688  1.00  0.00     0.031 C 
ATOM     54  C   UNL     1       8.483  -3.882   8.104  1.00  0.00     0.029 A 
ATOM     55  C   UNL     1       8.611  -3.321   9.445  1.00  0.00     0.049 A 
ATOM     56  H   UNL     1       7.095  -3.006  10.838  1.00  0.00     0.167 HD
ATOM     57  C   UNL     1       3.818  -2.387  13.668  1.00  0.00     0.031 A 
ATOM     58  C   UNL     1       9.760  -2.907  10.011  1.00  0.00     0.031 A 
ATOM     59  C   UNL     1       5.005  -1.993  14.380  1.00  0.00     0.049 A 
ATOM     60  C   UNL     1       9.736  -2.374  11.417  1.00  0.00     0.074 A 
ATOM     61  C   UNL     1       5.119  -1.547  15.685  1.00  0.00     0.029 A 
ATOM     62  N   UNL     1       6.283  -1.997  13.844  1.00  0.00    -0.354 N 
ATOM     63  N   UNL     1       8.719  -2.235  12.232  1.00  0.00    -0.248 NA
ATOM     64  C   UNL     1      11.025  -1.959  11.986  1.00  0.00     0.031 C 
ATOM     65  C   UNL     1       6.461  -1.228  15.921  1.00  0.00     0.029 A 
ATOM     66  C   UNL     1       7.191  -1.540  14.785  1.00  0.00     0.049 A 
ATOM     67  H   UNL     1       6.512  -2.283  12.930  1.00  0.00     0.167 HD
ATOM     68  C   UNL     1       9.250  -1.751  13.421  1.00  0.00     0.074 A 
ATOM     69  C   UNL     1      10.680  -1.637  13.224  1.00  0.00     0.031 C 
ATOM     70  C   UNL     1       8.611  -1.432  14.574  1.00  0.00     0.031 A 
BRANCH  57  71
ATOM     71  C   UNL     1       2.489  -2.262  14.363  1.00  0.00    -0.014 A 
ATOM     72  C   UNL     1       1.747  -3.397  14.730  1.00  0.00     0.009 A 
ATOM     73  C   UNL     1       1.982  -0.992  14.679  1.00  0.00     0.009 A 
ATOM     74  C   UNL     1       0.508  -3.262  15.360  1.00  0.00     0.001 A 
ATOM     75  C   UNL     1       0.758  -0.860  15.338  1.00  0.00     0.001 A 
ATOM     76  C   UNL     1       0.017  -1.994  15.668  1.00  0.00     0.000 A 
ENDBRANCH  57  71
BRANCH  58  77
ATOM     77  C   UNL     1      11.039  -3.003   9.258  1.00  0.00    -0.014 A 
ATOM     78  C   UNL     1      12.030  -3.918   9.649  1.00  0.00     0.009 A 
ATOM     79  C   UNL     1      11.283  -2.172   8.154  1.00  0.00     0.009 A 
ATOM     80  C   UNL     1      13.250  -3.974   8.970  1.00  0.00     0.001 A 
ATOM     81  C   UNL     1      12.491  -2.253   7.458  1.00  0.00     0.001 A 
ATOM     82  C   UNL     1      13.477  -3.145   7.873  1.00  0.00     0.000 A 
ENDBRANCH  58  77
BRANCH  70  83
ATOM     83  C   UNL     1       9.463  -0.977  15.727  1.00  0.00    -0.014 A 
ATOM     84  C   UNL     1      10.111   0.268  15.716  1.00  0.00     0.009 A 
ATOM     85  C   UNL     1       9.595  -1.801  16.856  1.00  0.00     0.009 A 
ATOM     86  C   UNL     1      10.910   0.657  16.794  1.00  0.00     0.001 A 
ATOM     87  C   UNL     1      10.365  -1.395  17.946  1.00  0.00     0.001 A 
ATOM     88  C   UNL     1      11.033  -0.172  17.909  1.00  0.00     0.000 A 
ENDBRANCH  70  83
ENDBRANCH  44  45
ENDBRANCH  36  39
ENDBRANCH  34  35
ENDBRANCH  33  34
ENDBRANCH  32  33
ENDBRANCH  31  32
ENDBRANCH   1  31
TORSDOF 19
