REMARK SMILES O=C(Cc1cccn(C(F)F)c1=O)NCCCCCCNC(=O)c1ccc(-c2c3nc(c(-c4ccccc4)c4ccc([nH]4)c(-c4ccccc4)c4nc(c(-c5ccccc5)c5ccc2[nH]5)C=C4)C=C3)cc1
REMARK SMILES IDX 17 1 16 2 15 3 14 4 1 5 2 6 3 8 4 9 5 10 12 11 6 12 8 13
REMARK SMILES IDX 13 14 7 15 9 16 10 17 11 18 18 19 19 20 20 21 21 22 22 23
REMARK SMILES IDX 23 25 24 26 25 27 71 28 26 29 70 30 27 31 28 32 29 33 64 34
REMARK SMILES IDX 30 35 69 36 63 37 65 38 31 39 68 40 62 41 61 42 32 44 54 45
REMARK SMILES IDX 39 46 53 47 40 48 43 49 52 50 66 51 41 52 42 53 51 55 67 56
REMARK SMILES IDX 44 57 33 58 34 59 38 60 35 61 37 62 36 63 55 64 56 65 60 66
REMARK SMILES IDX 57 67 59 68 58 69 45 70 46 71 50 72 47 73 49 74 48 75
REMARK H PARENT 14 7 21 24 65 43 43 54
REMARK Flexibility Score: inf
ROOT
ATOM      1  C   UNL     1       4.162   1.421   3.489  1.00  0.00     0.002 C 
ENDROOT
BRANCH   1   2
ATOM      2  C   UNL     1       2.652   1.180   3.346  1.00  0.00     0.021 C 
BRANCH   2   3
ATOM      3  C   UNL     1       2.080   1.469   1.960  1.00  0.00     0.116 C 
BRANCH   3   4
ATOM      4  N   UNL     1       2.720   0.667   0.940  1.00  0.00    -0.356 N 
ATOM      5  O   UNL     1       0.793  -0.017  -0.111  1.00  0.00    -0.275 OA
ATOM      6  C   UNL     1       2.017  -0.006  -0.037  1.00  0.00     0.224 C 
ATOM      7  H   UNL     1       3.703   0.599   0.943  1.00  0.00     0.163 HD
BRANCH   6   8
ATOM      8  C   UNL     1       2.908  -0.726  -1.040  1.00  0.00     0.141 C 
BRANCH   8   9
ATOM      9  C   UNL     1       3.699   0.203  -1.923  1.00  0.00     0.027 A 
ATOM     10  C   UNL     1       3.489   1.523  -2.090  1.00  0.00     0.011 A 
ATOM     11  C   UNL     1       4.841  -0.439  -2.665  1.00  0.00     0.258 A 
ATOM     12  C   UNL     1       4.343   2.322  -2.930  1.00  0.00     0.019 A 
ATOM     13  N   UNL     1       5.600   0.395  -3.467  1.00  0.00    -0.258 N 
ATOM     14  O   UNL     1       5.059  -1.640  -2.531  1.00  0.00    -0.269 OA
ATOM     15  C   UNL     1       5.356   1.749  -3.586  1.00  0.00     0.095 A 
BRANCH  13  16
ATOM     16  C   UNL     1       6.686  -0.194  -4.209  1.00  0.00     0.451 C 
ATOM     17  F   UNL     1       6.508   0.045  -5.537  1.00  0.00    -0.185 F 
ATOM     18  F   UNL     1       7.852   0.418  -3.869  1.00  0.00    -0.185 F 
ENDBRANCH  13  16
ENDBRANCH   8   9
ENDBRANCH   6   8
ENDBRANCH   3   4
ENDBRANCH   2   3
ENDBRANCH   1   2
BRANCH   1  19
ATOM     19  C   UNL     1       4.645   2.837   3.164  1.00  0.00     0.002 C 
BRANCH  19  20
ATOM     20  C   UNL     1       3.979   3.958   3.961  1.00  0.00     0.021 C 
BRANCH  20  21
ATOM     21  C   UNL     1       4.053   3.811   5.477  1.00  0.00     0.116 C 
BRANCH  21  22
ATOM     22  N   UNL     1       5.411   3.873   5.995  1.00  0.00    -0.352 N 
ATOM     23  C   UNL     1       5.904   4.592   7.059  1.00  0.00     0.251 C 
ATOM     24  H   UNL     1       6.071   3.321   5.517  1.00  0.00     0.163 HD
ATOM     25  O   UNL     1       7.110   4.613   7.287  1.00  0.00    -0.269 OA
BRANCH  23  26
ATOM     26  C   UNL     1       4.981   5.379   7.908  1.00  0.00     0.039 A 
ATOM     27  C   UNL     1       3.768   4.840   8.338  1.00  0.00     0.014 A 
ATOM     28  C   UNL     1       5.328   6.688   8.259  1.00  0.00     0.014 A 
ATOM     29  C   UNL     1       2.834   5.657   8.966  1.00  0.00     0.010 A 
ATOM     30  C   UNL     1       4.421   7.482   8.969  1.00  0.00     0.010 A 
ATOM     31  C   UNL     1       3.146   6.989   9.285  1.00  0.00    -0.014 A 
BRANCH  31  32
ATOM     32  C   UNL     1       2.124   7.832   9.958  1.00  0.00     0.031 A 
ATOM     33  C   UNL     1       1.529   9.031   9.270  1.00  0.00     0.074 A 
ATOM     34  C   UNL     1       1.680   7.471  11.178  1.00  0.00     0.049 A 
ATOM     35  N   UNL     1       0.574   9.826   9.686  1.00  0.00    -0.248 NA
ATOM     36  C   UNL     1       2.069   9.389   7.948  1.00  0.00     0.031 C 
ATOM     37  C   UNL     1       2.170   6.324  11.945  1.00  0.00     0.029 A 
ATOM     38  N   UNL     1       0.694   8.004  11.970  1.00  0.00    -0.354 N 
ATOM     39  C   UNL     1       0.410  10.781   8.690  1.00  0.00     0.074 A 
ATOM     40  C   UNL     1       1.382  10.487   7.660  1.00  0.00     0.031 C 
ATOM     41  C   UNL     1       1.438   6.197  13.060  1.00  0.00     0.029 A 
ATOM     42  C   UNL     1       0.471   7.289  13.122  1.00  0.00     0.049 A 
ATOM     43  H   UNL     1       0.195   8.820  11.736  1.00  0.00     0.167 HD
ATOM     44  C   UNL     1      -0.478  11.802   8.634  1.00  0.00     0.031 A 
ATOM     45  C   UNL     1      -0.408   7.484  14.122  1.00  0.00     0.031 A 
ATOM     46  C   UNL     1      -1.454  12.087   9.653  1.00  0.00     0.049 A 
ATOM     47  C   UNL     1      -1.352   8.649  14.055  1.00  0.00     0.074 A 
ATOM     48  C   UNL     1      -2.416  13.083   9.663  1.00  0.00     0.029 A 
ATOM     49  N   UNL     1      -1.593  11.384  10.839  1.00  0.00    -0.354 N 
ATOM     50  N   UNL     1      -1.507   9.526  13.094  1.00  0.00    -0.248 NA
ATOM     51  C   UNL     1      -2.239   8.853  15.209  1.00  0.00     0.031 C 
ATOM     52  C   UNL     1      -3.097  13.020  10.881  1.00  0.00     0.029 A 
ATOM     53  C   UNL     1      -2.604  11.945  11.602  1.00  0.00     0.049 A 
ATOM     54  H   UNL     1      -1.054  10.602  11.100  1.00  0.00     0.167 HD
ATOM     55  C   UNL     1      -2.512  10.383  13.523  1.00  0.00     0.074 A 
ATOM     56  C   UNL     1      -2.948   9.905  14.819  1.00  0.00     0.031 C 
ATOM     57  C   UNL     1      -3.021  11.471  12.897  1.00  0.00     0.031 A 
BRANCH  44  58
ATOM     58  C   UNL     1      -0.443  12.708   7.434  1.00  0.00    -0.014 A 
ATOM     59  C   UNL     1      -0.022  14.040   7.580  1.00  0.00     0.009 A 
ATOM     60  C   UNL     1      -0.922  12.281   6.186  1.00  0.00     0.009 A 
ATOM     61  C   UNL     1      -0.095  14.930   6.506  1.00  0.00     0.001 A 
ATOM     62  C   UNL     1      -0.969  13.166   5.106  1.00  0.00     0.001 A 
ATOM     63  C   UNL     1      -0.565  14.491   5.270  1.00  0.00     0.000 A 
ENDBRANCH  44  58
BRANCH  45  64
ATOM     64  C   UNL     1      -0.433   6.535  15.266  1.00  0.00    -0.014 A 
ATOM     65  C   UNL     1       0.646   6.469  16.162  1.00  0.00     0.009 A 
ATOM     66  C   UNL     1      -1.508   5.650  15.433  1.00  0.00     0.009 A 
ATOM     67  C   UNL     1       0.664   5.518  17.183  1.00  0.00     0.001 A 
ATOM     68  C   UNL     1      -1.502   4.720  16.476  1.00  0.00     0.001 A 
ATOM     69  C   UNL     1      -0.412   4.646  17.342  1.00  0.00     0.000 A 
ENDBRANCH  45  64
BRANCH  57  70
ATOM     70  C   UNL     1      -4.110  12.234  13.597  1.00  0.00    -0.014 A 
ATOM     71  C   UNL     1      -5.417  12.216  13.086  1.00  0.00     0.009 A 
ATOM     72  C   UNL     1      -3.824  13.044  14.707  1.00  0.00     0.009 A 
ATOM     73  C   UNL     1      -6.414  13.004  13.663  1.00  0.00     0.001 A 
ATOM     74  C   UNL     1      -4.830  13.809  15.300  1.00  0.00     0.001 A 
ATOM     75  C   UNL     1      -6.121  13.796  14.772  1.00  0.00     0.000 A 
ENDBRANCH  57  70
ENDBRANCH  31  32
ENDBRANCH  23  26
ENDBRANCH  21  22
ENDBRANCH  20  21
ENDBRANCH  19  20
ENDBRANCH   1  19
TORSDOF 15
