REMARK SMILES O=C(CC(=O)c1ccccc1)Nc1cccc(C(=O)NCCCCCCNC(=O)c2ccc(-c3c4nc(c(-c5ccccc5)c5ccc([nH]5)c(-c5ccccc5)c5nc(c(-c6ccccc6)c6ccc3[nH]6)C=C5)C=C4)cc2)c1
REMARK SMILES IDX 22 1 21 2 20 3 18 4 19 5 17 7 13 8 14 9 78 10 15 11 16 12
REMARK SMILES IDX 12 13 1 14 2 15 3 17 4 18 5 19 6 20 7 21 11 22 8 23 10 24
REMARK SMILES IDX 9 25 23 26 24 27 25 28 26 29 27 30 28 31 29 33 30 34 31 35
REMARK SMILES IDX 77 36 32 37 76 38 33 39 34 40 35 41 70 42 36 43 75 44 69 45
REMARK SMILES IDX 71 46 37 47 74 48 68 49 67 50 38 52 60 53 45 54 59 55 46 56
REMARK SMILES IDX 49 57 58 58 72 59 47 60 48 61 57 63 73 64 50 65 39 66 40 67
REMARK SMILES IDX 44 68 41 69 43 70 42 71 61 72 62 73 66 74 63 75 65 76 64 77
REMARK SMILES IDX 51 78 52 79 56 80 53 81 55 82 54 83
REMARK H PARENT 20 6 12 16 27 32 71 51 49 62
REMARK Flexibility Score: inf
ROOT
ATOM      1  C   UNL     1       0.233   4.890  -0.619  1.00  0.00     0.021 C 
ENDROOT
BRANCH   1   2
ATOM      2  C   UNL     1       0.053   3.493  -1.199  1.00  0.00     0.116 C 
BRANCH   2   3
ATOM      3  N   UNL     1      -0.694   3.439  -2.448  1.00  0.00    -0.352 N 
ATOM      4  C   UNL     1      -0.498   2.653  -3.567  1.00  0.00     0.251 C 
ATOM      5  O   UNL     1      -1.247   2.775  -4.533  1.00  0.00    -0.269 OA
ATOM      6  H   UNL     1      -1.457   4.060  -2.504  1.00  0.00     0.163 HD
BRANCH   4   7
ATOM      7  C   UNL     1       0.649   1.709  -3.650  1.00  0.00     0.041 A 
ATOM      8  C   UNL     1       2.335   0.388  -2.520  1.00  0.00     0.041 A 
ATOM      9  C   UNL     1       3.036   0.272  -3.724  1.00  0.00     0.026 A 
ATOM     10  C   UNL     1       1.083   0.997  -2.532  1.00  0.00     0.040 A 
ATOM     11  C   UNL     1       2.521   0.833  -4.898  1.00  0.00     0.003 A 
ATOM     12  C   UNL     1       1.344   1.582  -4.854  1.00  0.00     0.014 A 
BRANCH   8  13
ATOM     13  N   UNL     1       2.959  -0.056  -1.332  1.00  0.00    -0.326 N 
ATOM     14  O   UNL     1       1.414   0.638   0.272  1.00  0.00    -0.274 OA
ATOM     15  C   UNL     1       2.457   0.069  -0.045  1.00  0.00     0.232 C 
ATOM     16  H   UNL     1       3.835  -0.495  -1.427  1.00  0.00     0.169 HD
BRANCH  15  17
ATOM     17  C   UNL     1       3.324  -0.507   1.037  1.00  0.00     0.181 C 
BRANCH  17  18
ATOM     18  C   UNL     1       4.068  -1.774   0.733  1.00  0.00     0.172 C 
ATOM     19  O   UNL     1       5.299  -1.794   0.752  1.00  0.00    -0.294 OA
BRANCH  18  20
ATOM     20  C   UNL     1       3.340  -3.041   0.450  1.00  0.00     0.018 A 
ATOM     21  C   UNL     1       3.888  -4.222   0.965  1.00  0.00     0.012 A 
ATOM     22  C   UNL     1       2.209  -3.110  -0.370  1.00  0.00     0.012 A 
ATOM     23  C   UNL     1       3.319  -5.457   0.653  1.00  0.00     0.001 A 
ATOM     24  C   UNL     1       1.658  -4.350  -0.701  1.00  0.00     0.001 A 
ATOM     25  C   UNL     1       2.212  -5.521  -0.191  1.00  0.00     0.000 A 
ENDBRANCH  18  20
ENDBRANCH  17  18
ENDBRANCH  15  17
ENDBRANCH   8  13
ENDBRANCH   4   7
ENDBRANCH   2   3
ENDBRANCH   1   2
BRANCH   1  26
ATOM     26  C   UNL     1      -1.035   5.611  -0.168  1.00  0.00     0.002 C 
BRANCH  26  27
ATOM     27  C   UNL     1      -1.937   4.863   0.816  1.00  0.00     0.002 C 
BRANCH  27  28
ATOM     28  C   UNL     1      -1.275   4.311   2.081  1.00  0.00     0.021 C 
BRANCH  28  29
ATOM     29  C   UNL     1      -0.465   5.303   2.913  1.00  0.00     0.116 C 
BRANCH  29  30
ATOM     30  N   UNL     1      -1.246   6.437   3.372  1.00  0.00    -0.352 N 
ATOM     31  C   UNL     1      -1.363   6.987   4.624  1.00  0.00     0.251 C 
ATOM     32  H   UNL     1      -1.778   6.882   2.674  1.00  0.00     0.163 HD
ATOM     33  O   UNL     1      -2.177   7.886   4.816  1.00  0.00    -0.269 OA
BRANCH  31  34
ATOM     34  C   UNL     1      -0.542   6.498   5.758  1.00  0.00     0.039 A 
ATOM     35  C   UNL     1      -1.155   6.365   7.008  1.00  0.00     0.014 A 
ATOM     36  C   UNL     1       0.820   6.217   5.622  1.00  0.00     0.014 A 
ATOM     37  C   UNL     1      -0.420   5.901   8.103  1.00  0.00     0.010 A 
ATOM     38  C   UNL     1       1.538   5.693   6.699  1.00  0.00     0.010 A 
ATOM     39  C   UNL     1       0.926   5.534   7.952  1.00  0.00    -0.014 A 
BRANCH  39  40
ATOM     40  C   UNL     1       1.693   4.978   9.098  1.00  0.00     0.031 A 
ATOM     41  C   UNL     1       2.851   5.737   9.688  1.00  0.00     0.074 A 
ATOM     42  C   UNL     1       1.367   3.768   9.591  1.00  0.00     0.049 A 
ATOM     43  N   UNL     1       3.628   5.407  10.690  1.00  0.00    -0.248 NA
ATOM     44  C   UNL     1       3.192   7.023   9.061  1.00  0.00     0.031 C 
ATOM     45  C   UNL     1       0.293   2.909   9.086  1.00  0.00     0.029 A 
ATOM     46  N   UNL     1       1.905   3.050  10.630  1.00  0.00    -0.354 N 
ATOM     47  C   UNL     1       4.554   6.437  10.805  1.00  0.00     0.074 A 
ATOM     48  C   UNL     1       4.272   7.378   9.743  1.00  0.00     0.031 C 
ATOM     49  C   UNL     1       0.229   1.798   9.838  1.00  0.00     0.029 A 
ATOM     50  C   UNL     1       1.275   1.850  10.854  1.00  0.00     0.049 A 
ATOM     51  H   UNL     1       2.669   3.366  11.165  1.00  0.00     0.167 HD
ATOM     52  C   UNL     1       5.539   6.596  11.723  1.00  0.00     0.031 A 
ATOM     53  C   UNL     1       1.510   0.897  11.775  1.00  0.00     0.031 A 
ATOM     54  C   UNL     1       5.820   5.667  12.785  1.00  0.00     0.049 A 
ATOM     55  C   UNL     1       2.610   1.096  12.779  1.00  0.00     0.074 A 
ATOM     56  C   UNL     1       6.764   5.768  13.793  1.00  0.00     0.029 A 
ATOM     57  N   UNL     1       5.160   4.463  12.976  1.00  0.00    -0.354 N 
ATOM     58  N   UNL     1       3.433   2.108  12.915  1.00  0.00    -0.248 NA
ATOM     59  C   UNL     1       2.803   0.025  13.767  1.00  0.00     0.031 C 
ATOM     60  C   UNL     1       6.706   4.603  14.566  1.00  0.00     0.029 A 
ATOM     61  C   UNL     1       5.690   3.802  14.072  1.00  0.00     0.049 A 
ATOM     62  H   UNL     1       4.423   4.128  12.415  1.00  0.00     0.167 HD
ATOM     63  C   UNL     1       4.222   1.807  14.017  1.00  0.00     0.074 A 
ATOM     64  C   UNL     1       3.768   0.529  14.523  1.00  0.00     0.031 C 
ATOM     65  C   UNL     1       5.234   2.527  14.561  1.00  0.00     0.031 A 
BRANCH  52  66
ATOM     66  C   UNL     1       6.393   7.830  11.611  1.00  0.00    -0.014 A 
ATOM     67  C   UNL     1       5.878   9.100  11.918  1.00  0.00     0.009 A 
ATOM     68  C   UNL     1       7.738   7.718  11.227  1.00  0.00     0.009 A 
ATOM     69  C   UNL     1       6.682  10.236  11.806  1.00  0.00     0.001 A 
ATOM     70  C   UNL     1       8.548   8.852  11.143  1.00  0.00     0.001 A 
ATOM     71  C   UNL     1       8.017  10.111  11.423  1.00  0.00     0.000 A 
ENDBRANCH  52  66
BRANCH  53  72
ATOM     72  C   UNL     1       0.666  -0.325  11.812  1.00  0.00    -0.014 A 
ATOM     73  C   UNL     1      -0.258  -0.520  12.850  1.00  0.00     0.009 A 
ATOM     74  C   UNL     1       0.784  -1.306  10.815  1.00  0.00     0.009 A 
ATOM     75  C   UNL     1      -1.028  -1.684  12.903  1.00  0.00     0.001 A 
ATOM     76  C   UNL     1      -0.007  -2.455  10.855  1.00  0.00     0.001 A 
ATOM     77  C   UNL     1      -0.905  -2.648  11.904  1.00  0.00     0.000 A 
ENDBRANCH  53  72
BRANCH  65  78
ATOM     78  C   UNL     1       5.896   1.957  15.784  1.00  0.00    -0.014 A 
ATOM     79  C   UNL     1       6.742   0.841  15.701  1.00  0.00     0.009 A 
ATOM     80  C   UNL     1       5.684   2.559  17.033  1.00  0.00     0.009 A 
ATOM     81  C   UNL     1       7.331   0.315  16.853  1.00  0.00     0.001 A 
ATOM     82  C   UNL     1       6.296   2.049  18.179  1.00  0.00     0.001 A 
ATOM     83  C   UNL     1       7.110   0.920  18.089  1.00  0.00     0.000 A 
ENDBRANCH  65  78
ENDBRANCH  39  40
ENDBRANCH  31  34
ENDBRANCH  29  30
ENDBRANCH  28  29
ENDBRANCH  27  28
ENDBRANCH  26  27
ENDBRANCH   1  26
TORSDOF 17
