REMARK SMILES C[C@@H]1CN([C@@H](CCS(C)(=O)=O)C(=O)NCCCCCCNC(=O)c2ccc(-c3c4nc(c(-c5ccccc5)c5ccc([nH]5)c(-c5ccccc5)c5nc(c(-c6ccccc6)c6ccc3[nH]6)C=C5)C=C4)cc2)S(=O)(=O)C1
REMARK SMILES IDX 17 1 16 2 15 3 14 4 12 5 13 6 5 8 4 9 1 10 2 11 3 12 75 13
REMARK SMILES IDX 72 14 73 15 74 16 6 17 7 18 8 19 9 20 10 21 11 22 18 23
REMARK SMILES IDX 19 24 20 25 21 26 22 27 23 29 24 30 25 31 71 32 26 33 70 34
REMARK SMILES IDX 27 35 28 36 29 37 64 38 30 39 69 40 63 41 65 42 31 43 68 44
REMARK SMILES IDX 62 45 61 46 32 48 54 49 39 50 53 51 40 52 43 53 52 54 66 55
REMARK SMILES IDX 41 56 42 57 51 59 67 60 44 61 33 62 34 63 38 64 35 65 37 66
REMARK SMILES IDX 36 67 55 68 56 69 60 70 57 71 59 72 58 73 45 74 46 75 50 76
REMARK SMILES IDX 47 77 49 78 48 79
REMARK H PARENT 14 7 21 28 65 47 43 58
REMARK Flexibility Score: inf
ROOT
ATOM      1  C   UNL     1       0.401  -7.582   2.617  1.00  0.00     0.002 C 
ENDROOT
BRANCH   1   2
ATOM      2  C   UNL     1       0.858  -6.172   2.233  1.00  0.00     0.021 C 
BRANCH   2   3
ATOM      3  C   UNL     1       0.419  -5.147   3.268  1.00  0.00     0.116 C 
BRANCH   3   4
ATOM      4  N   UNL     1       1.521  -4.552   3.973  1.00  0.00    -0.355 N 
ATOM      5  C   UNL     1       1.747  -3.270   4.335  1.00  0.00     0.238 C 
ATOM      6  O   UNL     1       2.634  -3.090   5.183  1.00  0.00    -0.273 OA
ATOM      7  H   UNL     1       2.228  -5.184   4.237  1.00  0.00     0.163 HD
BRANCH   5   8
ATOM      8  C   UNL     1       0.947  -2.068   3.843  1.00  0.00     0.163 C 
BRANCH   8   9
ATOM      9  N   UNL     1       0.688  -1.691   2.417  1.00  0.00    -0.189 NA
ATOM     10  C   UNL     1       1.242   1.089  -0.096  1.00  0.00     0.010 C 
ATOM     11  C   UNL     1       0.741  -0.174   0.579  1.00  0.00     0.017 C 
ATOM     12  C   UNL     1       1.157  -0.319   2.047  1.00  0.00     0.107 C 
ATOM     13  C   UNL     1       1.277  -1.427  -0.099  1.00  0.00     0.159 C 
ATOM     14  S   UNL     1       1.054  -2.722   1.105  1.00  0.00     0.215 S 
ATOM     15  O   UNL     1       2.338  -3.344   1.325  1.00  0.00    -0.212 OA
ATOM     16  O   UNL     1      -0.143  -3.450   0.758  1.00  0.00    -0.212 OA
ENDBRANCH   8   9
BRANCH   8  17
ATOM     17  C   UNL     1      -0.306  -1.771   4.717  1.00  0.00     0.046 C 
BRANCH  17  18
ATOM     18  C   UNL     1      -1.599  -2.520   4.411  1.00  0.00     0.139 C 
BRANCH  18  19
ATOM     19  S   UNL     1      -1.978  -3.872   5.532  1.00  0.00     0.147 S 
ATOM     20  C   UNL     1      -2.602  -3.112   7.003  1.00  0.00     0.158 C 
ATOM     21  O   UNL     1      -3.066  -4.627   4.939  1.00  0.00    -0.229 OA
ATOM     22  O   UNL     1      -0.754  -4.531   5.931  1.00  0.00    -0.229 OA
ENDBRANCH  18  19
ENDBRANCH  17  18
ENDBRANCH   8  17
ENDBRANCH   5   8
ENDBRANCH   3   4
ENDBRANCH   2   3
ENDBRANCH   1   2
BRANCH   1  23
ATOM     23  C   UNL     1      -1.109  -7.726   2.875  1.00  0.00     0.002 C 
BRANCH  23  24
ATOM     24  C   UNL     1      -2.011  -7.208   1.754  1.00  0.00     0.021 C 
BRANCH  24  25
ATOM     25  C   UNL     1      -1.710  -7.812   0.388  1.00  0.00     0.116 C 
BRANCH  25  26
ATOM     26  N   UNL     1      -1.656  -9.267   0.441  1.00  0.00    -0.352 N 
ATOM     27  C   UNL     1      -2.363 -10.196  -0.270  1.00  0.00     0.251 C 
ATOM     28  H   UNL     1      -1.013  -9.637   1.088  1.00  0.00     0.163 HD
ATOM     29  O   UNL     1      -2.355 -11.376   0.061  1.00  0.00    -0.269 OA
BRANCH  27  30
ATOM     30  C   UNL     1      -3.144  -9.760  -1.440  1.00  0.00     0.039 A 
ATOM     31  C   UNL     1      -4.444 -10.240  -1.598  1.00  0.00     0.014 A 
ATOM     32  C   UNL     1      -2.591  -8.875  -2.368  1.00  0.00     0.014 A 
ATOM     33  C   UNL     1      -5.217  -9.780  -2.663  1.00  0.00     0.010 A 
ATOM     34  C   UNL     1      -3.386  -8.358  -3.382  1.00  0.00     0.010 A 
ATOM     35  C   UNL     1      -4.706  -8.807  -3.538  1.00  0.00    -0.014 A 
BRANCH  35  36
ATOM     36  C   UNL     1      -5.543  -8.230  -4.615  1.00  0.00     0.031 A 
ATOM     37  C   UNL     1      -5.163  -8.433  -6.053  1.00  0.00     0.074 A 
ATOM     38  C   UNL     1      -6.607  -7.471  -4.288  1.00  0.00     0.049 A 
ATOM     39  N   UNL     1      -5.725  -7.945  -7.130  1.00  0.00    -0.248 NA
ATOM     40  C   UNL     1      -3.985  -9.277  -6.319  1.00  0.00     0.031 C 
ATOM     41  C   UNL     1      -7.056  -7.180  -2.924  1.00  0.00     0.029 A 
ATOM     42  N   UNL     1      -7.501  -6.799  -5.082  1.00  0.00    -0.354 N 
ATOM     43  C   UNL     1      -4.968  -8.417  -8.195  1.00  0.00     0.074 A 
ATOM     44  C   UNL     1      -3.876  -9.182  -7.636  1.00  0.00     0.031 C 
ATOM     45  C   UNL     1      -8.157  -6.415  -2.978  1.00  0.00     0.029 A 
ATOM     46  C   UNL     1      -8.460  -6.116  -4.373  1.00  0.00     0.049 A 
ATOM     47  H   UNL     1      -7.460  -6.806  -6.065  1.00  0.00     0.167 HD
ATOM     48  C   UNL     1      -5.179  -8.245  -9.521  1.00  0.00     0.031 A 
ATOM     49  C   UNL     1      -9.459  -5.322  -4.801  1.00  0.00     0.031 A 
ATOM     50  C   UNL     1      -6.265  -7.480 -10.071  1.00  0.00     0.049 A 
ATOM     51  C   UNL     1      -9.630  -5.100  -6.279  1.00  0.00     0.074 A 
ATOM     52  C   UNL     1      -6.587  -7.277 -11.402  1.00  0.00     0.029 A 
ATOM     53  N   UNL     1      -7.204  -6.789  -9.321  1.00  0.00    -0.354 N 
ATOM     54  N   UNL     1      -8.946  -5.605  -7.276  1.00  0.00    -0.248 NA
ATOM     55  C   UNL     1     -10.715  -4.197  -6.690  1.00  0.00     0.031 C 
ATOM     56  C   UNL     1      -7.683  -6.412 -11.457  1.00  0.00     0.029 A 
ATOM     57  C   UNL     1      -8.085  -6.131 -10.161  1.00  0.00     0.049 A 
ATOM     58  H   UNL     1      -7.238  -6.770  -8.337  1.00  0.00     0.167 HD
ATOM     59  C   UNL     1      -9.535  -5.107  -8.431  1.00  0.00     0.074 A 
ATOM     60  C   UNL     1     -10.645  -4.278  -8.011  1.00  0.00     0.031 C 
ATOM     61  C   UNL     1      -9.187  -5.314  -9.724  1.00  0.00     0.031 A 
BRANCH  48  62
ATOM     62  C   UNL     1      -4.211  -8.893 -10.471  1.00  0.00    -0.014 A 
ATOM     63  C   UNL     1      -4.170 -10.289 -10.625  1.00  0.00     0.009 A 
ATOM     64  C   UNL     1      -3.368  -8.099 -11.263  1.00  0.00     0.009 A 
ATOM     65  C   UNL     1      -3.286 -10.875 -11.533  1.00  0.00     0.001 A 
ATOM     66  C   UNL     1      -2.506  -8.686 -12.192  1.00  0.00     0.001 A 
ATOM     67  C   UNL     1      -2.461 -10.073 -12.320  1.00  0.00     0.000 A 
ENDBRANCH  48  62
BRANCH  49  68
ATOM     68  C   UNL     1     -10.373  -4.667  -3.827  1.00  0.00    -0.014 A 
ATOM     69  C   UNL     1     -11.731  -5.016  -3.777  1.00  0.00     0.009 A 
ATOM     70  C   UNL     1      -9.900  -3.666  -2.964  1.00  0.00     0.009 A 
ATOM     71  C   UNL     1     -12.604  -4.347  -2.914  1.00  0.00     0.001 A 
ATOM     72  C   UNL     1     -10.767  -3.024  -2.077  1.00  0.00     0.001 A 
ATOM     73  C   UNL     1     -12.120  -3.354  -2.064  1.00  0.00     0.000 A 
ENDBRANCH  49  68
BRANCH  61  74
ATOM     74  C   UNL     1     -10.036  -4.662 -10.779  1.00  0.00    -0.014 A 
ATOM     75  C   UNL     1      -9.999  -3.275 -10.991  1.00  0.00     0.009 A 
ATOM     76  C   UNL     1     -10.843  -5.456 -11.609  1.00  0.00     0.009 A 
ATOM     77  C   UNL     1     -10.776  -2.694 -11.994  1.00  0.00     0.001 A 
ATOM     78  C   UNL     1     -11.593  -4.877 -12.633  1.00  0.00     0.001 A 
ATOM     79  C   UNL     1     -11.566  -3.496 -12.819  1.00  0.00     0.000 A 
ENDBRANCH  61  74
ENDBRANCH  35  36
ENDBRANCH  27  30
ENDBRANCH  25  26
ENDBRANCH  24  25
ENDBRANCH  23  24
ENDBRANCH   1  23
TORSDOF 17
