REMARK SMILES CCc1n[nH]c(C(=O)N[C@@]2(C(=O)NCCCCCCNC(=O)c3ccc(-c4c5nc(c(-c6ccccc6)c6ccc([nH]6)c(-c6ccccc6)c6nc(c(-c7ccccc7)c7ccc4[nH]7)C=C6)C=C5)cc3)CCCC[C@H]2C)n1
REMARK SMILES IDX 16 1 15 2 14 3 13 4 11 5 12 6 10 8 71 9 75 10 72 11 74 12
REMARK SMILES IDX 76 13 73 14 9 15 7 16 8 17 6 19 3 20 4 21 77 22 5 23 2 25
REMARK SMILES IDX 1 26 17 27 18 28 19 29 20 30 21 31 22 33 23 34 24 35 70 36
REMARK SMILES IDX 25 37 69 38 26 39 27 40 28 41 63 42 29 43 68 44 62 45 64 46
REMARK SMILES IDX 30 47 67 48 61 49 60 50 31 52 53 53 38 54 52 55 39 56 42 57
REMARK SMILES IDX 51 58 65 59 40 60 41 61 50 63 66 64 43 65 32 66 33 67 37 68
REMARK SMILES IDX 34 69 36 70 35 71 54 72 55 73 59 74 56 75 58 76 57 77 44 78
REMARK SMILES IDX 45 79 49 80 46 81 48 82 47 83
REMARK H PARENT 13 7 9 18 5 24 20 32 64 51 42 62
REMARK Flexibility Score: inf
ROOT
ATOM      1  C   UNL     1       5.444   2.826   2.018  1.00  0.00     0.002 C 
ENDROOT
BRANCH   1   2
ATOM      2  C   UNL     1       4.398   2.483   3.084  1.00  0.00     0.021 C 
BRANCH   2   3
ATOM      3  C   UNL     1       3.327   1.501   2.620  1.00  0.00     0.116 C 
BRANCH   3   4
ATOM      4  N   UNL     1       3.892   0.191   2.398  1.00  0.00    -0.354 N 
ATOM      5  C   UNL     1       3.667  -1.012   2.984  1.00  0.00     0.246 C 
ATOM      6  O   UNL     1       4.520  -1.878   2.737  1.00  0.00    -0.272 OA
ATOM      7  H   UNL     1       4.570   0.166   1.685  1.00  0.00     0.163 HD
BRANCH   5   8
ATOM      8  C   UNL     1       2.502  -1.278   4.008  1.00  0.00     0.122 C 
ATOM      9  C   UNL     1       1.087  -0.811   3.554  1.00  0.00     0.039 C 
ATOM     10  C   UNL     1       2.867  -0.528   5.351  1.00  0.00     0.021 C 
ATOM     11  C   UNL     1       0.021  -0.920   4.638  1.00  0.00     0.003 C 
ATOM     12  C   UNL     1       1.746  -0.588   6.405  1.00  0.00     0.006 C 
ATOM     13  C   UNL     1       4.193  -0.960   5.994  1.00  0.00     0.011 C 
ATOM     14  C   UNL     1       0.412  -0.105   5.852  1.00  0.00     0.000 C 
BRANCH   8  15
ATOM     15  N   UNL     1       2.501  -2.754   4.228  1.00  0.00    -0.335 N 
ATOM     16  C   UNL     1       2.224  -3.795   3.362  1.00  0.00     0.289 C 
ATOM     17  O   UNL     1       2.289  -4.936   3.826  1.00  0.00    -0.266 OA
ATOM     18  H   UNL     1       2.738  -3.032   5.142  1.00  0.00     0.165 HD
BRANCH  16  19
ATOM     19  C   UNL     1       1.792  -3.564   2.000  1.00  0.00     0.214 A 
ATOM     20  C   UNL     1       1.065  -2.696   0.210  1.00  0.00     0.151 A 
ATOM     21  N   UNL     1       0.572  -3.939   0.155  1.00  0.00    -0.158 NA
ATOM     22  N   UNL     1       1.885  -2.462   1.280  1.00  0.00    -0.207 NA
ATOM     23  N   UNL     1       1.102  -4.487   1.267  1.00  0.00    -0.255 N 
ATOM     24  H   UNL     1       1.003  -5.433   1.520  1.00  0.00     0.192 HD
BRANCH  20  25
ATOM     25  C   UNL     1       0.641  -1.619  -0.727  1.00  0.00     0.076 C 
ATOM     26  C   UNL     1       0.990  -0.214  -0.248  1.00  0.00     0.012 C 
ENDBRANCH  20  25
ENDBRANCH  16  19
ENDBRANCH   8  15
ENDBRANCH   5   8
ENDBRANCH   3   4
ENDBRANCH   2   3
ENDBRANCH   1   2
BRANCH   1  27
ATOM     27  C   UNL     1       4.871   3.331   0.690  1.00  0.00     0.002 C 
BRANCH  27  28
ATOM     28  C   UNL     1       3.878   4.489   0.812  1.00  0.00     0.021 C 
BRANCH  28  29
ATOM     29  C   UNL     1       4.420   5.713   1.540  1.00  0.00     0.116 C 
BRANCH  29  30
ATOM     30  N   UNL     1       5.557   6.297   0.851  1.00  0.00    -0.352 N 
ATOM     31  C   UNL     1       5.744   7.583   0.412  1.00  0.00     0.251 C 
ATOM     32  H   UNL     1       6.302   5.679   0.672  1.00  0.00     0.163 HD
ATOM     33  O   UNL     1       6.677   7.851  -0.333  1.00  0.00    -0.269 OA
BRANCH  31  34
ATOM     34  C   UNL     1       4.801   8.645   0.826  1.00  0.00     0.039 A 
ATOM     35  C   UNL     1       4.359   9.559  -0.132  1.00  0.00     0.014 A 
ATOM     36  C   UNL     1       4.362   8.745   2.150  1.00  0.00     0.014 A 
ATOM     37  C   UNL     1       3.434  10.540   0.225  1.00  0.00     0.010 A 
ATOM     38  C   UNL     1       3.380   9.672   2.486  1.00  0.00     0.010 A 
ATOM     39  C   UNL     1       2.910  10.582   1.528  1.00  0.00    -0.014 A 
BRANCH  39  40
ATOM     40  C   UNL     1       1.856  11.562   1.890  1.00  0.00     0.031 A 
ATOM     41  C   UNL     1       2.116  12.620   2.926  1.00  0.00     0.074 A 
ATOM     42  C   UNL     1       0.640  11.465   1.318  1.00  0.00     0.049 A 
ATOM     43  N   UNL     1       1.311  13.552   3.373  1.00  0.00    -0.248 NA
ATOM     44  C   UNL     1       3.442  12.617   3.562  1.00  0.00     0.031 C 
ATOM     45  C   UNL     1       0.246  10.452   0.337  1.00  0.00     0.029 A 
ATOM     46  N   UNL     1      -0.489  12.227   1.481  1.00  0.00    -0.354 N 
ATOM     47  C   UNL     1       2.027  14.234   4.348  1.00  0.00     0.074 A 
ATOM     48  C   UNL     1       3.310  13.576   4.466  1.00  0.00     0.031 C 
ATOM     49  C   UNL     1      -1.022  10.677  -0.040  1.00  0.00     0.029 A 
ATOM     50  C   UNL     1      -1.544  11.819   0.703  1.00  0.00     0.049 A 
ATOM     51  H   UNL     1      -0.538  12.994   2.097  1.00  0.00     0.167 HD
ATOM     52  C   UNL     1       1.658  15.320   5.069  1.00  0.00     0.031 A 
ATOM     53  C   UNL     1      -2.796  12.304   0.601  1.00  0.00     0.031 A 
ATOM     54  C   UNL     1       0.379  15.971   4.951  1.00  0.00     0.049 A 
ATOM     55  C   UNL     1      -3.188  13.501   1.419  1.00  0.00     0.074 A 
ATOM     56  C   UNL     1      -0.067  17.116   5.587  1.00  0.00     0.029 A 
ATOM     57  N   UNL     1      -0.664  15.525   4.153  1.00  0.00    -0.354 N 
ATOM     58  N   UNL     1      -2.469  14.188   2.273  1.00  0.00    -0.248 NA
ATOM     59  C   UNL     1      -4.561  13.996   1.249  1.00  0.00     0.031 C 
ATOM     60  C   UNL     1      -1.403  17.323   5.229  1.00  0.00     0.029 A 
ATOM     61  C   UNL     1      -1.767  16.349   4.312  1.00  0.00     0.049 A 
ATOM     62  H   UNL     1      -0.627  14.739   3.562  1.00  0.00     0.167 HD
ATOM     63  C   UNL     1      -3.294  15.210   2.726  1.00  0.00     0.074 A 
ATOM     64  C   UNL     1      -4.559  15.063   2.035  1.00  0.00     0.031 C 
ATOM     65  C   UNL     1      -3.026  16.183   3.632  1.00  0.00     0.031 A 
BRANCH  52  66
ATOM     66  C   UNL     1       2.647  15.856   6.069  1.00  0.00    -0.014 A 
ATOM     67  C   UNL     1       3.850  16.457   5.662  1.00  0.00     0.009 A 
ATOM     68  C   UNL     1       2.360  15.780   7.441  1.00  0.00     0.009 A 
ATOM     69  C   UNL     1       4.764  16.925   6.609  1.00  0.00     0.001 A 
ATOM     70  C   UNL     1       3.260  16.280   8.384  1.00  0.00     0.001 A 
ATOM     71  C   UNL     1       4.467  16.840   7.969  1.00  0.00     0.000 A 
ENDBRANCH  52  66
BRANCH  53  72
ATOM     72  C   UNL     1      -3.763  11.657  -0.325  1.00  0.00    -0.014 A 
ATOM     73  C   UNL     1      -4.178  12.308  -1.496  1.00  0.00     0.009 A 
ATOM     74  C   UNL     1      -4.263  10.375  -0.048  1.00  0.00     0.009 A 
ATOM     75  C   UNL     1      -5.089  11.697  -2.361  1.00  0.00     0.001 A 
ATOM     76  C   UNL     1      -5.149   9.753  -0.930  1.00  0.00     0.001 A 
ATOM     77  C   UNL     1      -5.568  10.418  -2.081  1.00  0.00     0.000 A 
ENDBRANCH  53  72
BRANCH  65  78
ATOM     78  C   UNL     1      -4.118  17.179   3.912  1.00  0.00    -0.014 A 
ATOM     79  C   UNL     1      -5.280  16.814   4.611  1.00  0.00     0.009 A 
ATOM     80  C   UNL     1      -3.966  18.512   3.499  1.00  0.00     0.009 A 
ATOM     81  C   UNL     1      -6.283  17.755   4.854  1.00  0.00     0.001 A 
ATOM     82  C   UNL     1      -4.954  19.458   3.773  1.00  0.00     0.001 A 
ATOM     83  C   UNL     1      -6.117  19.077   4.440  1.00  0.00     0.000 A 
ENDBRANCH  65  78
ENDBRANCH  39  40
ENDBRANCH  31  34
ENDBRANCH  29  30
ENDBRANCH  28  29
ENDBRANCH  27  28
ENDBRANCH   1  27
TORSDOF 16
