REMARK SMILES C[C@@H]1CCCC[C@@H]1NC(=O)NCc1ccc(C(=O)NCCCCCCNC(=O)c2ccc(-c3c4nc(c(-c5ccccc5)c5ccc([nH]5)c(-c5ccccc5)c5nc(c(-c6ccccc6)c6ccc3[nH]6)C=C5)C=C4)cc2)o1
REMARK SMILES IDX 22 1 21 2 20 3 19 4 17 5 18 6 16 8 13 9 14 10 77 11 15 12
REMARK SMILES IDX 12 13 11 14 8 15 9 16 10 18 7 20 1 21 2 22 3 23 4 24 6 25
REMARK SMILES IDX 5 26 23 27 24 28 25 29 26 30 27 31 28 33 29 34 30 35 76 36
REMARK SMILES IDX 31 37 75 38 32 39 33 40 34 41 69 42 35 43 74 44 68 45 70 46
REMARK SMILES IDX 36 47 73 48 67 49 66 50 37 52 59 53 44 54 58 55 45 56 48 57
REMARK SMILES IDX 57 58 71 59 46 60 47 61 56 63 72 64 49 65 38 66 39 67 43 68
REMARK SMILES IDX 40 69 42 70 41 71 60 72 61 73 65 74 62 75 64 76 63 77 50 78
REMARK SMILES IDX 51 79 55 80 52 81 54 82 53 83
REMARK H PARENT 19 7 8 17 11 19 26 32 70 51 48 62
REMARK Flexibility Score: inf
ROOT
ATOM      1  C   UNL     1       3.163   6.663  -5.082  1.00  0.00     0.002 C 
ENDROOT
BRANCH   1   2
ATOM      2  C   UNL     1       3.119   5.131  -5.185  1.00  0.00     0.021 C 
BRANCH   2   3
ATOM      3  C   UNL     1       3.703   4.425  -3.962  1.00  0.00     0.116 C 
BRANCH   3   4
ATOM      4  N   UNL     1       2.682   4.211  -2.965  1.00  0.00    -0.349 N 
ATOM      5  C   UNL     1       1.938   3.107  -2.625  1.00  0.00     0.286 C 
ATOM      6  O   UNL     1       1.126   3.311  -1.721  1.00  0.00    -0.266 OA
ATOM      7  H   UNL     1       2.480   5.009  -2.425  1.00  0.00     0.163 HD
BRANCH   5   8
ATOM      8  C   UNL     1       2.106   1.813  -3.273  1.00  0.00     0.191 A 
ATOM      9  C   UNL     1       1.790  -0.390  -3.389  1.00  0.00     0.124 A 
ATOM     10  C   UNL     1       2.558  -0.048  -4.479  1.00  0.00     0.048 A 
ATOM     11  O   UNL     1       1.507   0.728  -2.661  1.00  0.00    -0.454 OA
ATOM     12  C   UNL     1       2.728   1.357  -4.423  1.00  0.00     0.056 A 
BRANCH   9  13
ATOM     13  C   UNL     1       1.234  -1.688  -2.926  1.00  0.00     0.193 C 
BRANCH  13  14
ATOM     14  N   UNL     1       2.098  -2.261  -1.917  1.00  0.00    -0.331 N 
ATOM     15  N   UNL     1       0.874  -2.227   0.105  1.00  0.00    -0.335 N 
ATOM     16  C   UNL     1       1.882  -2.669  -0.661  1.00  0.00     0.315 C 
ATOM     17  H   UNL     1       0.626  -2.835   0.838  1.00  0.00     0.165 HD
ATOM     18  O   UNL     1       2.656  -3.502  -0.184  1.00  0.00    -0.249 OA
ATOM     19  H   UNL     1       3.031  -2.372  -2.213  1.00  0.00     0.165 HD
BRANCH  15  20
ATOM     20  C   UNL     1       0.084  -1.008   0.045  1.00  0.00     0.086 C 
ATOM     21  C   UNL     1       1.033  -0.006   2.231  1.00  0.00     0.010 C 
ATOM     22  C   UNL     1       0.773   0.188   0.734  1.00  0.00     0.008 C 
ATOM     23  C   UNL     1      -0.084   1.439   0.478  1.00  0.00     0.005 C 
ATOM     24  C   UNL     1      -1.551   1.283   0.883  1.00  0.00     0.000 C 
ATOM     25  C   UNL     1      -1.333  -1.228   0.582  1.00  0.00     0.025 C 
ATOM     26  C   UNL     1      -2.184   0.013   0.316  1.00  0.00     0.002 C 
ENDBRANCH  15  20
ENDBRANCH  13  14
ENDBRANCH   9  13
ENDBRANCH   5   8
ENDBRANCH   3   4
ENDBRANCH   2   3
ENDBRANCH   1   2
BRANCH   1  27
ATOM     27  C   UNL     1       4.568   7.267  -4.952  1.00  0.00     0.002 C 
BRANCH  27  28
ATOM     28  C   UNL     1       5.578   6.796  -6.003  1.00  0.00     0.021 C 
BRANCH  28  29
ATOM     29  C   UNL     1       5.188   7.128  -7.440  1.00  0.00     0.116 C 
BRANCH  29  30
ATOM     30  N   UNL     1       5.163   8.563  -7.672  1.00  0.00    -0.352 N 
ATOM     31  C   UNL     1       5.875   9.312  -8.575  1.00  0.00     0.251 C 
ATOM     32  H   UNL     1       4.545   9.071  -7.098  1.00  0.00     0.163 HD
ATOM     33  O   UNL     1       5.902  10.534  -8.480  1.00  0.00    -0.269 OA
BRANCH  31  34
ATOM     34  C   UNL     1       6.622   8.640  -9.659  1.00  0.00     0.039 A 
ATOM     35  C   UNL     1       7.925   9.057  -9.942  1.00  0.00     0.014 A 
ATOM     36  C   UNL     1       6.033   7.613 -10.401  1.00  0.00     0.014 A 
ATOM     37  C   UNL     1       8.660   8.400 -10.931  1.00  0.00     0.010 A 
ATOM     38  C   UNL     1       6.789   6.915 -11.338  1.00  0.00     0.010 A 
ATOM     39  C   UNL     1       8.109   7.302 -11.612  1.00  0.00    -0.014 A 
BRANCH  39  40
ATOM     40  C   UNL     1       8.905   6.535 -12.601  1.00  0.00     0.031 A 
ATOM     41  C   UNL     1       8.502   6.513 -14.048  1.00  0.00     0.074 A 
ATOM     42  C   UNL     1       9.952   5.799 -12.180  1.00  0.00     0.049 A 
ATOM     43  N   UNL     1       9.038   5.854 -15.044  1.00  0.00    -0.248 NA
ATOM     44  C   UNL     1       7.329   7.320 -14.422  1.00  0.00     0.031 C 
ATOM     45  C   UNL     1      10.421   5.707 -10.796  1.00  0.00     0.029 A 
ATOM     46  N   UNL     1      10.806   4.982 -12.877  1.00  0.00    -0.354 N 
ATOM     47  C   UNL     1       8.262   6.154 -16.156  1.00  0.00     0.074 A 
ATOM     48  C   UNL     1       7.190   7.014 -15.704  1.00  0.00     0.031 C 
ATOM     49  C   UNL     1      11.495   4.902 -10.750  1.00  0.00     0.029 A 
ATOM     50  C   UNL     1      11.763   4.389 -12.089  1.00  0.00     0.049 A 
ATOM     51  H   UNL     1      10.740   4.835 -13.848  1.00  0.00     0.167 HD
ATOM     52  C   UNL     1       8.435   5.762 -17.441  1.00  0.00     0.031 A 
ATOM     53  C   UNL     1      12.743   3.523 -12.408  1.00  0.00     0.031 A 
ATOM     54  C   UNL     1       9.502   4.908 -17.890  1.00  0.00     0.049 A 
ATOM     55  C   UNL     1      12.897   3.080 -13.835  1.00  0.00     0.074 A 
ATOM     56  C   UNL     1       9.798   4.503 -19.180  1.00  0.00     0.029 A 
ATOM     57  N   UNL     1      10.446   4.322 -17.061  1.00  0.00    -0.354 N 
ATOM     58  N   UNL     1      12.196   3.428 -14.887  1.00  0.00    -0.248 NA
ATOM     59  C   UNL     1      13.981   2.131 -14.118  1.00  0.00     0.031 C 
ATOM     60  C   UNL     1      10.886   3.626 -19.124  1.00  0.00     0.029 A 
ATOM     61  C   UNL     1      11.305   3.532 -17.806  1.00  0.00     0.049 A 
ATOM     62  H   UNL     1      10.498   4.450 -16.086  1.00  0.00     0.167 HD
ATOM     63  C   UNL     1      12.768   2.758 -15.960  1.00  0.00     0.074 A 
ATOM     64  C   UNL     1      13.883   1.998 -15.434  1.00  0.00     0.031 C 
ATOM     65  C   UNL     1      12.403   2.772 -17.266  1.00  0.00     0.031 A 
BRANCH  52  66
ATOM     66  C   UNL     1       7.432   6.248 -18.451  1.00  0.00    -0.014 A 
ATOM     67  C   UNL     1       7.375   7.599 -18.832  1.00  0.00     0.009 A 
ATOM     68  C   UNL     1       6.546   5.338 -19.050  1.00  0.00     0.009 A 
ATOM     69  C   UNL     1       6.425   8.035 -19.758  1.00  0.00     0.001 A 
ATOM     70  C   UNL     1       5.618   5.771 -19.999  1.00  0.00     0.001 A 
ATOM     71  C   UNL     1       5.550   7.121 -20.343  1.00  0.00     0.000 A 
ENDBRANCH  52  66
BRANCH  53  72
ATOM     72  C   UNL     1      13.664   3.027 -11.353  1.00  0.00    -0.014 A 
ATOM     73  C   UNL     1      15.001   3.453 -11.321  1.00  0.00     0.009 A 
ATOM     74  C   UNL     1      13.212   2.133 -10.370  1.00  0.00     0.009 A 
ATOM     75  C   UNL     1      15.871   2.978 -10.338  1.00  0.00     0.001 A 
ATOM     76  C   UNL     1      14.078   1.682  -9.371  1.00  0.00     0.001 A 
ATOM     77  C   UNL     1      15.408   2.098  -9.361  1.00  0.00     0.000 A 
ENDBRANCH  53  72
BRANCH  65  78
ATOM     78  C   UNL     1      13.230   1.956 -18.218  1.00  0.00    -0.014 A 
ATOM     79  C   UNL     1      13.156   0.555 -18.229  1.00  0.00     0.009 A 
ATOM     80  C   UNL     1      14.065   2.602 -19.143  1.00  0.00     0.009 A 
ATOM     81  C   UNL     1      13.926  -0.185 -19.129  1.00  0.00     0.001 A 
ATOM     82  C   UNL     1      14.812   1.861 -20.061  1.00  0.00     0.001 A 
ATOM     83  C   UNL     1      14.748   0.469 -20.047  1.00  0.00     0.000 A 
ENDBRANCH  65  78
ENDBRANCH  39  40
ENDBRANCH  31  34
ENDBRANCH  29  30
ENDBRANCH  28  29
ENDBRANCH  27  28
ENDBRANCH   1  27
TORSDOF 16
