REMARK SMILES C/C=C/C(=O)N[C@@H](Cc1ccc(F)cc1)C(=O)NCCCCCCNC(=O)c1ccc(-c2c3nc(c(-c4ccccc4)c4ccc([nH]4)c(-c4ccccc4)c4nc(c(-c5ccccc5)c5ccc2[nH]5)C=C4)C=C3)cc1
REMARK SMILES IDX 21 1 20 2 19 3 18 4 16 5 17 6 7 8 6 9 4 10 5 11 3 13 1 14
REMARK SMILES IDX 2 15 8 16 9 17 10 18 15 19 11 20 14 21 12 22 13 23 22 24
REMARK SMILES IDX 23 25 24 26 25 27 26 28 27 30 28 31 29 32 75 33 30 34 74 35
REMARK SMILES IDX 31 36 32 37 33 38 68 39 34 40 73 41 67 42 69 43 35 44 72 45
REMARK SMILES IDX 66 46 65 47 36 49 58 50 43 51 57 52 44 53 47 54 56 55 70 56
REMARK SMILES IDX 45 57 46 58 55 60 71 61 48 62 37 63 38 64 42 65 39 66 41 67
REMARK SMILES IDX 40 68 59 69 60 70 64 71 61 72 63 73 62 74 49 75 50 76 54 77
REMARK SMILES IDX 51 78 53 79 52 80
REMARK H PARENT 18 7 6 12 25 29 69 48 47 59
REMARK Flexibility Score: inf
ROOT
ATOM      1  C   UNL     1      -3.269  -2.390   7.721  1.00  0.00     0.002 C 
ENDROOT
BRANCH   1   2
ATOM      2  C   UNL     1      -2.805  -1.083   7.070  1.00  0.00     0.021 C 
BRANCH   2   3
ATOM      3  C   UNL     1      -1.393  -1.098   6.496  1.00  0.00     0.116 C 
BRANCH   3   4
ATOM      4  N   UNL     1      -1.227  -1.944   5.332  1.00  0.00    -0.354 N 
ATOM      5  C   UNL     1      -0.279  -1.915   4.349  1.00  0.00     0.242 C 
ATOM      6  O   UNL     1      -0.102  -2.967   3.723  1.00  0.00    -0.273 OA
ATOM      7  H   UNL     1      -1.904  -2.652   5.234  1.00  0.00     0.163 HD
BRANCH   5   8
ATOM      8  C   UNL     1       0.633  -0.695   4.062  1.00  0.00     0.176 C 
BRANCH   8   9
ATOM      9  N   UNL     1      -0.091   0.573   4.006  1.00  0.00    -0.340 N 
ATOM     10  C   UNL     1      -0.521   1.357   2.993  1.00  0.00     0.244 C 
ATOM     11  O   UNL     1      -1.249   2.307   3.291  1.00  0.00    -0.270 OA
ATOM     12  H   UNL     1      -0.313   0.932   4.896  1.00  0.00     0.164 HD
BRANCH  10  13
ATOM     13  C   UNL     1      -0.091   1.240   1.575  1.00  0.00     0.066 C 
ATOM     14  C   UNL     1       0.773   0.388  -0.604  1.00  0.00     0.036 C 
ATOM     15  C   UNL     1       0.389   0.228   0.836  1.00  0.00    -0.025 C 
ENDBRANCH  10  13
ENDBRANCH   8   9
BRANCH   8  16
ATOM     16  C   UNL     1       1.936  -0.645   4.882  1.00  0.00     0.070 C 
BRANCH  16  17
ATOM     17  C   UNL     1       1.841  -0.594   6.386  1.00  0.00    -0.045 A 
ATOM     18  C   UNL     1       2.015  -1.770   7.138  1.00  0.00     0.007 A 
ATOM     19  C   UNL     1       1.597   0.616   7.054  1.00  0.00     0.007 A 
ATOM     20  C   UNL     1       1.921  -1.739   8.529  1.00  0.00     0.039 A 
ATOM     21  C   UNL     1       1.497   0.641   8.447  1.00  0.00     0.039 A 
ATOM     22  C   UNL     1       1.657  -0.536   9.170  1.00  0.00     0.123 A 
ATOM     23  F   UNL     1       1.530  -0.513  10.503  1.00  0.00    -0.207 F 
ENDBRANCH  16  17
ENDBRANCH   8  16
ENDBRANCH   5   8
ENDBRANCH   3   4
ENDBRANCH   2   3
ENDBRANCH   1   2
BRANCH   1  24
ATOM     24  C   UNL     1      -2.320  -3.022   8.746  1.00  0.00     0.002 C 
BRANCH  24  25
ATOM     25  C   UNL     1      -1.822  -2.110   9.870  1.00  0.00     0.021 C 
BRANCH  25  26
ATOM     26  C   UNL     1      -2.896  -1.416  10.697  1.00  0.00     0.116 C 
BRANCH  26  27
ATOM     27  N   UNL     1      -3.793  -2.345  11.356  1.00  0.00    -0.352 N 
ATOM     28  C   UNL     1      -4.271  -2.345  12.641  1.00  0.00     0.251 C 
ATOM     29  H   UNL     1      -4.106  -3.090  10.795  1.00  0.00     0.163 HD
ATOM     30  O   UNL     1      -4.930  -3.303  13.038  1.00  0.00    -0.269 OA
BRANCH  28  31
ATOM     31  C   UNL     1      -3.993  -1.219  13.565  1.00  0.00     0.039 A 
ATOM     32  C   UNL     1      -3.758  -1.514  14.912  1.00  0.00     0.014 A 
ATOM     33  C   UNL     1      -4.020   0.114  13.145  1.00  0.00     0.014 A 
ATOM     34  C   UNL     1      -3.529  -0.482  15.825  1.00  0.00     0.010 A 
ATOM     35  C   UNL     1      -3.715   1.139  14.041  1.00  0.00     0.010 A 
ATOM     36  C   UNL     1      -3.492   0.853  15.396  1.00  0.00    -0.014 A 
BRANCH  36  37
ATOM     37  C   UNL     1      -3.270   1.954  16.368  1.00  0.00     0.031 A 
ATOM     38  C   UNL     1      -4.364   2.950  16.648  1.00  0.00     0.074 A 
ATOM     39  C   UNL     1      -2.082   2.068  16.991  1.00  0.00     0.049 A 
ATOM     40  N   UNL     1      -4.367   3.962  17.480  1.00  0.00    -0.248 NA
ATOM     41  C   UNL     1      -5.610   2.807  15.878  1.00  0.00     0.031 C 
ATOM     42  C   UNL     1      -0.926   1.195  16.779  1.00  0.00     0.029 A 
ATOM     43  N   UNL     1      -1.653   2.963  17.939  1.00  0.00    -0.354 N 
ATOM     44  C   UNL     1      -5.602   4.579  17.322  1.00  0.00     0.074 A 
ATOM     45  C   UNL     1      -6.301   3.863  16.278  1.00  0.00     0.031 C 
ATOM     46  C   UNL     1       0.066   1.573  17.601  1.00  0.00     0.029 A 
ATOM     47  C   UNL     1      -0.372   2.731  18.375  1.00  0.00     0.049 A 
ATOM     48  H   UNL     1      -2.211   3.702  18.274  1.00  0.00     0.167 HD
ATOM     49  C   UNL     1      -6.122   5.630  18.001  1.00  0.00     0.031 A 
ATOM     50  C   UNL     1       0.365   3.372  19.301  1.00  0.00     0.031 A 
ATOM     51  C   UNL     1      -5.437   6.333  19.051  1.00  0.00     0.049 A 
ATOM     52  C   UNL     1      -0.235   4.534  20.043  1.00  0.00     0.074 A 
ATOM     53  C   UNL     1      -5.899   7.374  19.838  1.00  0.00     0.029 A 
ATOM     54  N   UNL     1      -4.140   6.067  19.461  1.00  0.00    -0.354 N 
ATOM     55  N   UNL     1      -1.432   5.056  19.933  1.00  0.00    -0.248 NA
ATOM     56  C   UNL     1       0.616   5.182  21.051  1.00  0.00     0.031 C 
ATOM     57  C   UNL     1      -4.865   7.768  20.694  1.00  0.00     0.029 A 
ATOM     58  C   UNL     1      -3.777   6.938  20.475  1.00  0.00     0.049 A 
ATOM     59  H   UNL     1      -3.562   5.363  19.088  1.00  0.00     0.167 HD
ATOM     60  C   UNL     1      -1.486   6.080  20.870  1.00  0.00     0.074 A 
ATOM     61  C   UNL     1      -0.210   6.087  21.556  1.00  0.00     0.031 C 
ATOM     62  C   UNL     1      -2.500   6.938  21.140  1.00  0.00     0.031 A 
BRANCH  49  63
ATOM     63  C   UNL     1      -7.505   6.082  17.619  1.00  0.00    -0.014 A 
ATOM     64  C   UNL     1      -8.633   5.298  17.913  1.00  0.00     0.009 A 
ATOM     65  C   UNL     1      -7.686   7.317  16.978  1.00  0.00     0.009 A 
ATOM     66  C   UNL     1      -9.909   5.725  17.537  1.00  0.00     0.001 A 
ATOM     67  C   UNL     1      -8.965   7.754  16.630  1.00  0.00     0.001 A 
ATOM     68  C   UNL     1     -10.074   6.953  16.900  1.00  0.00     0.000 A 
ENDBRANCH  49  63
BRANCH  50  69
ATOM     69  C   UNL     1       1.746   2.914  19.603  1.00  0.00    -0.014 A 
ATOM     70  C   UNL     1       2.036   2.283  20.823  1.00  0.00     0.009 A 
ATOM     71  C   UNL     1       2.783   3.112  18.678  1.00  0.00     0.009 A 
ATOM     72  C   UNL     1       3.341   1.886  21.122  1.00  0.00     0.001 A 
ATOM     73  C   UNL     1       4.082   2.689  18.969  1.00  0.00     0.001 A 
ATOM     74  C   UNL     1       4.361   2.085  20.194  1.00  0.00     0.000 A 
ENDBRANCH  50  69
BRANCH  62  75
ATOM     75  C   UNL     1      -2.273   7.940  22.236  1.00  0.00    -0.014 A 
ATOM     76  C   UNL     1      -1.402   9.026  22.059  1.00  0.00     0.009 A 
ATOM     77  C   UNL     1      -2.958   7.807  23.454  1.00  0.00     0.009 A 
ATOM     78  C   UNL     1      -1.192   9.937  23.096  1.00  0.00     0.001 A 
ATOM     79  C   UNL     1      -2.768   8.736  24.477  1.00  0.00     0.001 A 
ATOM     80  C   UNL     1      -1.877   9.793  24.302  1.00  0.00     0.000 A 
ENDBRANCH  62  75
ENDBRANCH  36  37
ENDBRANCH  28  31
ENDBRANCH  26  27
ENDBRANCH  25  26
ENDBRANCH  24  25
ENDBRANCH   1  24
TORSDOF 17
