REMARK SMILES CN(CCOCC1CC1)C(=O)N1CC[C@](C)(C(=O)NCCCCCCNC(=O)c2ccc(-c3c4nc(c(-c5ccccc5)c5ccc([nH]5)c(-c5ccccc5)c5nc(c(-c6ccccc6)c6ccc3[nH]6)C=C5)C=C4)cc2)C1
REMARK SMILES IDX 20 1 19 2 17 3 18 4 15 6 12 7 13 8 77 9 14 10 16 11 10 12
REMARK SMILES IDX 11 13 2 14 1 15 3 16 4 17 5 18 6 19 7 20 8 21 9 22 21 23
REMARK SMILES IDX 22 24 23 25 24 26 25 27 26 28 27 29 28 31 29 32 30 33 76 34
REMARK SMILES IDX 31 35 75 36 32 37 33 38 34 39 69 40 35 41 74 42 68 43 70 44
REMARK SMILES IDX 36 45 73 46 67 47 66 48 37 50 59 51 44 52 58 53 45 54 48 55
REMARK SMILES IDX 57 56 71 57 46 58 47 59 56 61 72 62 49 63 38 64 39 65 43 66
REMARK SMILES IDX 40 67 42 68 41 69 60 70 61 71 65 72 62 73 64 74 63 75 50 76
REMARK SMILES IDX 51 77 55 78 52 79 54 80 53 81
REMARK H PARENT 19 5 26 30 70 49 48 60
REMARK Flexibility Score: inf
ROOT
ATOM      1  C   UNL     1      -3.796  -3.400   4.100  1.00  0.00     0.116 C 
ENDROOT
BRANCH   1   2
ATOM      2  N   UNL     1      -3.159  -4.643   3.711  1.00  0.00    -0.356 N 
ATOM      3  C   UNL     1      -1.877  -5.084   3.743  1.00  0.00     0.227 C 
ATOM      4  O   UNL     1      -1.711  -6.230   3.311  1.00  0.00    -0.274 OA
ATOM      5  H   UNL     1      -3.790  -5.306   3.347  1.00  0.00     0.163 HD
BRANCH   3   6
ATOM      6  C   UNL     1      -0.713  -4.287   4.362  1.00  0.00     0.066 C 
ATOM      7  N   UNL     1       0.798  -2.769   3.215  1.00  0.00    -0.324 N 
ATOM      8  C   UNL     1       1.606  -3.864   3.718  1.00  0.00     0.122 C 
ATOM      9  C   UNL     1      -0.536  -2.868   3.790  1.00  0.00     0.138 C 
ATOM     10  C   UNL     1       0.623  -4.981   3.999  1.00  0.00     0.040 C 
ATOM     11  C   UNL     1      -0.901  -4.250   5.883  1.00  0.00     0.024 C 
BRANCH   7  12
ATOM     12  C   UNL     1       1.365  -1.901   2.313  1.00  0.00     0.319 C 
ATOM     13  O   UNL     1       2.500  -2.149   1.887  1.00  0.00    -0.248 OA
BRANCH  12  14
ATOM     14  N   UNL     1       0.698  -0.785   1.840  1.00  0.00    -0.325 N 
ATOM     15  C   UNL     1       1.329  -0.071   0.728  1.00  0.00     0.148 C 
BRANCH  14  16
ATOM     16  C   UNL     1      -0.572  -0.198   2.277  1.00  0.00     0.149 C 
BRANCH  16  17
ATOM     17  C   UNL     1      -1.729  -0.341   1.269  1.00  0.00     0.181 C 
BRANCH  17  18
ATOM     18  O   UNL     1      -2.341  -1.624   1.248  1.00  0.00    -0.379 OA
BRANCH  18  19
ATOM     19  C   UNL     1      -1.639  -2.639   0.532  1.00  0.00     0.163 C 
BRANCH  19  20
ATOM     20  C   UNL     1      -2.088  -2.694  -0.885  1.00  0.00     0.015 C 
ATOM     21  C   UNL     1      -1.234  -2.144  -1.997  1.00  0.00     0.006 C 
ATOM     22  C   UNL     1      -1.368  -3.631  -1.822  1.00  0.00     0.006 C 
ENDBRANCH  19  20
ENDBRANCH  18  19
ENDBRANCH  17  18
ENDBRANCH  16  17
ENDBRANCH  14  16
ENDBRANCH  12  14
ENDBRANCH   7  12
ENDBRANCH   3   6
ENDBRANCH   1   2
BRANCH   1  23
ATOM     23  C   UNL     1      -4.719  -2.887   2.991  1.00  0.00     0.021 C 
BRANCH  23  24
ATOM     24  C   UNL     1      -5.987  -3.712   2.742  1.00  0.00     0.002 C 
BRANCH  24  25
ATOM     25  C   UNL     1      -6.946  -3.824   3.927  1.00  0.00     0.002 C 
BRANCH  25  26
ATOM     26  C   UNL     1      -7.366  -2.494   4.555  1.00  0.00     0.021 C 
BRANCH  26  27
ATOM     27  C   UNL     1      -7.997  -1.494   3.591  1.00  0.00     0.116 C 
BRANCH  27  28
ATOM     28  N   UNL     1      -9.252  -1.970   3.034  1.00  0.00    -0.352 N 
ATOM     29  C   UNL     1     -10.487  -1.371   3.029  1.00  0.00     0.251 C 
ATOM     30  H   UNL     1      -9.211  -2.851   2.596  1.00  0.00     0.163 HD
ATOM     31  O   UNL     1     -11.477  -2.001   2.659  1.00  0.00    -0.269 OA
BRANCH  29  32
ATOM     32  C   UNL     1     -10.637   0.025   3.491  1.00  0.00     0.039 A 
ATOM     33  C   UNL     1     -11.703   0.345   4.335  1.00  0.00     0.014 A 
ATOM     34  C   UNL     1      -9.740   1.019   3.090  1.00  0.00     0.014 A 
ATOM     35  C   UNL     1     -11.833   1.646   4.826  1.00  0.00     0.010 A 
ATOM     36  C   UNL     1      -9.825   2.296   3.642  1.00  0.00     0.010 A 
ATOM     37  C   UNL     1     -10.875   2.625   4.513  1.00  0.00    -0.014 A 
BRANCH  37  38
ATOM     38  C   UNL     1     -10.960   3.993   5.087  1.00  0.00     0.031 A 
ATOM     39  C   UNL     1     -11.150   5.185   4.187  1.00  0.00     0.074 A 
ATOM     40  C   UNL     1     -10.819   4.171   6.416  1.00  0.00     0.049 A 
ATOM     41  N   UNL     1     -11.201   6.456   4.500  1.00  0.00    -0.248 NA
ATOM     42  C   UNL     1     -11.278   4.918   2.745  1.00  0.00     0.031 C 
ATOM     43  C   UNL     1     -10.593   3.105   7.396  1.00  0.00     0.029 A 
ATOM     44  N   UNL     1     -10.842   5.316   7.173  1.00  0.00    -0.354 N 
ATOM     45  C   UNL     1     -11.361   7.135   3.298  1.00  0.00     0.074 A 
ATOM     46  C   UNL     1     -11.339   6.144   2.246  1.00  0.00     0.031 C 
ATOM     47  C   UNL     1     -10.527   3.644   8.624  1.00  0.00     0.029 A 
ATOM     48  C   UNL     1     -10.661   5.093   8.518  1.00  0.00     0.049 A 
ATOM     49  H   UNL     1     -10.977   6.213   6.790  1.00  0.00     0.167 HD
ATOM     50  C   UNL     1     -11.536   8.462   3.089  1.00  0.00     0.031 A 
ATOM     51  C   UNL     1     -10.599   5.957   9.548  1.00  0.00     0.031 A 
ATOM     52  C   UNL     1     -11.562   9.451   4.134  1.00  0.00     0.049 A 
ATOM     53  C   UNL     1     -10.768   7.429   9.283  1.00  0.00     0.074 A 
ATOM     54  C   UNL     1     -11.766  10.815   4.024  1.00  0.00     0.029 A 
ATOM     55  N   UNL     1     -11.380   9.181   5.481  1.00  0.00    -0.354 N 
ATOM     56  N   UNL     1     -10.975   8.046   8.146  1.00  0.00    -0.248 NA
ATOM     57  C   UNL     1     -10.712   8.321  10.450  1.00  0.00     0.031 C 
ATOM     58  C   UNL     1     -11.655  11.379   5.298  1.00  0.00     0.029 A 
ATOM     59  C   UNL     1     -11.451  10.356   6.210  1.00  0.00     0.049 A 
ATOM     60  H   UNL     1     -11.224   8.287   5.863  1.00  0.00     0.167 HD
ATOM     61  C   UNL     1     -11.113   9.392   8.466  1.00  0.00     0.074 A 
ATOM     62  C   UNL     1     -10.982   9.497   9.903  1.00  0.00     0.031 C 
ATOM     63  C   UNL     1     -11.330  10.446   7.642  1.00  0.00     0.031 A 
BRANCH  50  64
ATOM     64  C   UNL     1     -11.719   8.925   1.670  1.00  0.00    -0.014 A 
ATOM     65  C   UNL     1     -12.890   8.626   0.955  1.00  0.00     0.009 A 
ATOM     66  C   UNL     1     -10.736   9.719   1.058  1.00  0.00     0.009 A 
ATOM     67  C   UNL     1     -13.060   9.088  -0.352  1.00  0.00     0.001 A 
ATOM     68  C   UNL     1     -10.922  10.205  -0.238  1.00  0.00     0.001 A 
ATOM     69  C   UNL     1     -12.080   9.882  -0.944  1.00  0.00     0.000 A 
ENDBRANCH  50  64
BRANCH  51  70
ATOM     70  C   UNL     1     -10.368   5.463  10.933  1.00  0.00    -0.014 A 
ATOM     71  C   UNL     1     -11.370   5.571  11.910  1.00  0.00     0.009 A 
ATOM     72  C   UNL     1      -9.128   4.914  11.295  1.00  0.00     0.009 A 
ATOM     73  C   UNL     1     -11.120   5.181  13.228  1.00  0.00     0.001 A 
ATOM     74  C   UNL     1      -8.893   4.491  12.605  1.00  0.00     0.001 A 
ATOM     75  C   UNL     1      -9.884   4.639  13.574  1.00  0.00     0.000 A 
ENDBRANCH  51  70
BRANCH  63  76
ATOM     76  C   UNL     1     -11.500  11.797   8.280  1.00  0.00    -0.014 A 
ATOM     77  C   UNL     1     -10.425  12.469   8.880  1.00  0.00     0.009 A 
ATOM     78  C   UNL     1     -12.758  12.420   8.248  1.00  0.00     0.009 A 
ATOM     79  C   UNL     1     -10.616  13.720   9.472  1.00  0.00     0.001 A 
ATOM     80  C   UNL     1     -12.939  13.685   8.809  1.00  0.00     0.001 A 
ATOM     81  C   UNL     1     -11.871  14.328   9.432  1.00  0.00     0.000 A 
ENDBRANCH  63  76
ENDBRANCH  37  38
ENDBRANCH  29  32
ENDBRANCH  27  28
ENDBRANCH  26  27
ENDBRANCH  25  26
ENDBRANCH  24  25
ENDBRANCH  23  24
ENDBRANCH   1  23
TORSDOF 20
