REMARK SMILES O=C(NCCCCCCNC(=O)[C@H](CO)NC(=O)[C@H](CS)NC(=O)c1ccc(F)cc1)c1ccc(-c2c3nc(c(-c4ccccc4)c4ccc([nH]4)c(-c4ccccc4)c4nc(c(-c5ccccc5)c5ccc2[nH]5)C=C4)C=C3)cc1
REMARK SMILES IDX 7 1 6 2 5 3 4 4 3 5 1 6 2 7 32 9 33 10 79 11 34 12 78 13
REMARK SMILES IDX 35 14 36 15 37 16 72 17 38 18 77 19 71 20 73 21 39 22 76 23
REMARK SMILES IDX 70 24 69 25 40 27 62 28 47 29 61 30 48 31 51 32 60 33 74 34
REMARK SMILES IDX 49 35 50 36 59 38 75 39 52 40 41 41 42 42 46 43 43 44 45 45
REMARK SMILES IDX 44 46 63 47 64 48 68 49 65 50 67 51 66 52 53 53 54 54 58 55
REMARK SMILES IDX 55 56 57 57 56 58 8 59 9 60 10 61 11 62 12 64 13 65 16 66
REMARK SMILES IDX 17 67 18 69 19 70 22 71 23 72 24 74 25 75 26 76 31 77 27 78
REMARK SMILES IDX 30 79 28 80 29 81 20 82 21 83 14 85 15 86
REMARK H PARENT 3 8 73 26 51 37 10 63 16 68 22 73 21 84 15 87
REMARK Flexibility Score: inf
ROOT
ATOM      1  C   UNL     1      12.665   9.706   3.126  1.00  0.00     0.002 C 
ENDROOT
BRANCH   1   2
ATOM      2  C   UNL     1      12.696   8.252   3.606  1.00  0.00     0.002 C 
BRANCH   2   3
ATOM      3  C   UNL     1      14.005   7.503   3.349  1.00  0.00     0.021 C 
BRANCH   3   4
ATOM      4  C   UNL     1      15.249   8.176   3.912  1.00  0.00     0.116 C 
BRANCH   4   5
ATOM      5  N   UNL     1      15.213   8.284   5.361  1.00  0.00    -0.352 N 
ATOM      6  O   UNL     1      15.849   7.863   7.485  1.00  0.00    -0.269 OA
ATOM      7  C   UNL     1      16.121   7.837   6.288  1.00  0.00     0.251 C 
ATOM      8  H   UNL     1      14.425   8.744   5.731  1.00  0.00     0.163 HD
BRANCH   7   9
ATOM      9  C   UNL     1      17.425   7.306   5.840  1.00  0.00     0.039 A 
ATOM     10  C   UNL     1      18.168   7.975   4.864  1.00  0.00     0.014 A 
ATOM     11  C   UNL     1      17.917   6.132   6.417  1.00  0.00     0.014 A 
ATOM     12  C   UNL     1      19.337   7.404   4.374  1.00  0.00     0.010 A 
ATOM     13  C   UNL     1      19.136   5.604   5.983  1.00  0.00     0.010 A 
ATOM     14  C   UNL     1      19.845   6.225   4.942  1.00  0.00    -0.014 A 
BRANCH  14  15
ATOM     15  C   UNL     1      21.158   5.707   4.487  1.00  0.00     0.031 A 
ATOM     16  C   UNL     1      21.278   4.383   3.788  1.00  0.00     0.074 A 
ATOM     17  C   UNL     1      22.253   6.464   4.697  1.00  0.00     0.049 A 
ATOM     18  N   UNL     1      22.350   3.802   3.309  1.00  0.00    -0.248 NA
ATOM     19  C   UNL     1      20.042   3.607   3.604  1.00  0.00     0.031 C 
ATOM     20  C   UNL     1      22.261   7.766   5.371  1.00  0.00     0.029 A 
ATOM     21  N   UNL     1      23.563   6.262   4.351  1.00  0.00    -0.354 N 
ATOM     22  C   UNL     1      21.924   2.588   2.786  1.00  0.00     0.074 A 
ATOM     23  C   UNL     1      20.499   2.504   3.026  1.00  0.00     0.031 C 
ATOM     24  C   UNL     1      23.504   8.266   5.346  1.00  0.00     0.029 A 
ATOM     25  C   UNL     1      24.390   7.295   4.717  1.00  0.00     0.049 A 
ATOM     26  H   UNL     1      23.881   5.455   3.885  1.00  0.00     0.167 HD
ATOM     27  C   UNL     1      22.655   1.634   2.159  1.00  0.00     0.031 A 
ATOM     28  C   UNL     1      25.720   7.442   4.581  1.00  0.00     0.031 A 
ATOM     29  C   UNL     1      24.074   1.720   1.929  1.00  0.00     0.049 A 
ATOM     30  C   UNL     1      26.509   6.351   3.921  1.00  0.00     0.074 A 
ATOM     31  C   UNL     1      24.898   0.818   1.277  1.00  0.00     0.029 A 
ATOM     32  N   UNL     1      24.883   2.764   2.352  1.00  0.00    -0.354 N 
ATOM     33  N   UNL     1      26.083   5.228   3.396  1.00  0.00    -0.248 NA
ATOM     34  C   UNL     1      27.961   6.549   3.833  1.00  0.00     0.031 C 
ATOM     35  C   UNL     1      26.212   1.290   1.353  1.00  0.00     0.029 A 
ATOM     36  C   UNL     1      26.200   2.515   2.000  1.00  0.00     0.049 A 
ATOM     37  H   UNL     1      24.568   3.564   2.832  1.00  0.00     0.167 HD
ATOM     38  C   UNL     1      27.212   4.592   2.899  1.00  0.00     0.074 A 
ATOM     39  C   UNL     1      28.337   5.466   3.166  1.00  0.00     0.031 C 
ATOM     40  C   UNL     1      27.308   3.391   2.279  1.00  0.00     0.031 A 
BRANCH  27  41
ATOM     41  C   UNL     1      21.936   0.394   1.701  1.00  0.00    -0.014 A 
ATOM     42  C   UNL     1      21.053   0.421   0.610  1.00  0.00     0.009 A 
ATOM     43  C   UNL     1      22.187  -0.831   2.340  1.00  0.00     0.009 A 
ATOM     44  C   UNL     1      20.413  -0.747   0.189  1.00  0.00     0.001 A 
ATOM     45  C   UNL     1      21.567  -2.002   1.899  1.00  0.00     0.001 A 
ATOM     46  C   UNL     1      20.674  -1.958   0.830  1.00  0.00     0.000 A 
ENDBRANCH  27  41
BRANCH  28  47
ATOM     47  C   UNL     1      26.385   8.666   5.097  1.00  0.00    -0.014 A 
ATOM     48  C   UNL     1      26.930   9.611   4.215  1.00  0.00     0.009 A 
ATOM     49  C   UNL     1      26.463   8.902   6.479  1.00  0.00     0.009 A 
ATOM     50  C   UNL     1      27.559  10.756   4.708  1.00  0.00     0.001 A 
ATOM     51  C   UNL     1      27.064  10.063   6.967  1.00  0.00     0.001 A 
ATOM     52  C   UNL     1      27.619  10.984   6.082  1.00  0.00     0.000 A 
ENDBRANCH  28  47
BRANCH  40  53
ATOM     53  C   UNL     1      28.676   2.971   1.821  1.00  0.00    -0.014 A 
ATOM     54  C   UNL     1      29.661   2.570   2.737  1.00  0.00     0.009 A 
ATOM     55  C   UNL     1      28.973   2.953   0.449  1.00  0.00     0.009 A 
ATOM     56  C   UNL     1      30.929   2.195   2.289  1.00  0.00     0.001 A 
ATOM     57  C   UNL     1      30.232   2.548   0.003  1.00  0.00     0.001 A 
ATOM     58  C   UNL     1      31.211   2.180   0.923  1.00  0.00     0.000 A 
ENDBRANCH  40  53
ENDBRANCH  14  15
ENDBRANCH   7   9
ENDBRANCH   4   5
ENDBRANCH   3   4
ENDBRANCH   2   3
ENDBRANCH   1   2
BRANCH   1  59
ATOM     59  C   UNL     1      13.065   9.923   1.666  1.00  0.00     0.021 C 
BRANCH  59  60
ATOM     60  C   UNL     1      12.249   9.121   0.660  1.00  0.00     0.116 C 
BRANCH  60  61
ATOM     61  N   UNL     1      10.872   9.573   0.585  1.00  0.00    -0.354 N 
ATOM     62  C   UNL     1      10.187  10.091  -0.477  1.00  0.00     0.244 C 
ATOM     63  H   UNL     1      10.357   9.497   1.421  1.00  0.00     0.163 HD
ATOM     64  O   UNL     1       9.012  10.429  -0.317  1.00  0.00    -0.273 OA
BRANCH  62  65
ATOM     65  C   UNL     1      10.905  10.286  -1.818  1.00  0.00     0.197 C 
BRANCH  65  66
ATOM     66  N   UNL     1       9.986   9.948  -2.906  1.00  0.00    -0.340 N 
ATOM     67  C   UNL     1       9.828   8.827  -3.658  1.00  0.00     0.244 C 
ATOM     68  H   UNL     1       9.362  10.673  -3.139  1.00  0.00     0.164 HD
ATOM     69  O   UNL     1       8.819   8.804  -4.375  1.00  0.00    -0.273 OA
BRANCH  67  70
ATOM     70  C   UNL     1      10.899   7.705  -3.808  1.00  0.00     0.181 C 
BRANCH  70  71
ATOM     71  N   UNL     1      11.972   7.637  -2.812  1.00  0.00    -0.339 N 
ATOM     72  C   UNL     1      13.321   7.851  -2.889  1.00  0.00     0.251 C 
ATOM     73  H   UNL     1      11.662   7.389  -1.911  1.00  0.00     0.164 HD
ATOM     74  O   UNL     1      14.001   7.683  -1.878  1.00  0.00    -0.269 OA
BRANCH  72  75
ATOM     75  C   UNL     1      13.986   8.255  -4.145  1.00  0.00     0.040 A 
ATOM     76  C   UNL     1      13.498   9.274  -4.970  1.00  0.00     0.017 A 
ATOM     77  C   UNL     1      15.198   7.622  -4.460  1.00  0.00     0.017 A 
ATOM     78  C   UNL     1      14.178   9.599  -6.146  1.00  0.00     0.040 A 
ATOM     79  C   UNL     1      15.883   7.960  -5.627  1.00  0.00     0.040 A 
ATOM     80  C   UNL     1      15.358   8.935  -6.468  1.00  0.00     0.123 A 
ATOM     81  F   UNL     1      16.005   9.248  -7.597  1.00  0.00    -0.207 F 
ENDBRANCH  72  75
ENDBRANCH  70  71
BRANCH  70  82
ATOM     82  C   UNL     1      10.201   6.329  -3.957  1.00  0.00     0.101 C 
BRANCH  82  83
ATOM     83  S   UNL     1      10.098   5.368  -2.400  1.00  0.00    -0.177 SA
ATOM     84  H   UNL     1      11.353   5.087  -1.957  1.00  0.00     0.102 HD
ENDBRANCH  82  83
ENDBRANCH  70  82
ENDBRANCH  67  70
ENDBRANCH  65  66
BRANCH  65  85
ATOM     85  C   UNL     1      11.438  11.721  -1.903  1.00  0.00     0.191 C 
BRANCH  85  86
ATOM     86  O   UNL     1      12.692  11.741  -2.595  1.00  0.00    -0.394 OA
ATOM     87  H   UNL     1      13.335  11.195  -2.115  1.00  0.00     0.210 HD
ENDBRANCH  85  86
ENDBRANCH  65  85
ENDBRANCH  62  65
ENDBRANCH  60  61
ENDBRANCH  59  60
ENDBRANCH   1  59
TORSDOF 21
