REMARK SMILES COc1cccc([C@H]2CC(c3ccc(S(C)(=O)=O)cc3)=NN2c2ccc(C(=O)NCCCCCCNC(=O)c3ccc(-c4c5nc(c(-c6ccccc6)c6ccc([nH]6)c(-c6ccccc6)c6nc(c(-c7ccccc7)c7ccc4[nH]7)C=C6)C=C5)cc3)cc2)c1
REMARK SMILES IDX 32 1 31 2 30 3 29 4 27 5 28 6 26 8 23 9 24 10 88 11 25 12
REMARK SMILES IDX 87 13 22 14 8 15 9 16 10 17 21 18 7 19 3 20 4 21 89 22 5 23
REMARK SMILES IDX 6 24 2 25 1 26 11 27 12 28 20 29 13 30 19 31 14 32 15 33
REMARK SMILES IDX 16 34 17 35 18 36 33 37 34 38 35 39 36 40 37 41 38 43 39 44
REMARK SMILES IDX 40 45 86 46 41 47 85 48 42 49 43 50 44 51 79 52 45 53 84 54
REMARK SMILES IDX 78 55 80 56 46 57 83 58 77 59 76 60 47 62 69 63 54 64 68 65
REMARK SMILES IDX 55 66 58 67 67 68 81 69 56 70 57 71 66 73 82 74 59 75 48 76
REMARK SMILES IDX 49 77 53 78 50 79 52 80 51 81 70 82 71 83 75 84 72 85 74 86
REMARK SMILES IDX 73 87 60 88 61 89 65 90 62 91 64 92 63 93
REMARK H PARENT 29 7 36 42 80 61 58 72
REMARK Flexibility Score: inf
ROOT
ATOM      1  C   UNL     1       5.104 -12.105   2.823  1.00  0.00     0.002 C 
ENDROOT
BRANCH   1   2
ATOM      2  C   UNL     1       4.960 -10.917   1.861  1.00  0.00     0.021 C 
BRANCH   2   3
ATOM      3  C   UNL     1       3.792  -9.993   2.213  1.00  0.00     0.116 C 
BRANCH   3   4
ATOM      4  N   UNL     1       4.148  -9.157   3.340  1.00  0.00    -0.352 N 
ATOM      5  C   UNL     1       4.556  -7.853   3.440  1.00  0.00     0.251 C 
ATOM      6  O   UNL     1       4.816  -7.433   4.568  1.00  0.00    -0.269 OA
ATOM      7  H   UNL     1       4.083  -9.617   4.208  1.00  0.00     0.163 HD
BRANCH   5   8
ATOM      8  C   UNL     1       4.642  -6.921   2.281  1.00  0.00     0.039 A 
ATOM      9  C   UNL     1       4.707  -4.986   0.211  1.00  0.00     0.060 A 
ATOM     10  C   UNL     1       4.549  -4.604   1.546  1.00  0.00     0.029 A 
ATOM     11  C   UNL     1       4.884  -6.343  -0.069  1.00  0.00     0.029 A 
ATOM     12  C   UNL     1       4.494  -5.557   2.566  1.00  0.00     0.016 A 
ATOM     13  C   UNL     1       4.896  -7.296   0.959  1.00  0.00     0.016 A 
BRANCH   9  14
ATOM     14  N   UNL     1       4.731  -4.022  -0.780  1.00  0.00    -0.257 N 
ATOM     15  C   UNL     1       3.867  -3.999  -1.959  1.00  0.00     0.144 C 
ATOM     16  C   UNL     1       4.473  -2.865  -2.800  1.00  0.00     0.091 C 
ATOM     17  C   UNL     1       5.634  -2.485  -1.926  1.00  0.00     0.071 C 
ATOM     18  N   UNL     1       5.757  -3.138  -0.815  1.00  0.00    -0.176 NA
BRANCH  15  19
ATOM     19  C   UNL     1       2.418  -3.743  -1.575  1.00  0.00    -0.019 A 
ATOM     20  C   UNL     1       0.715  -2.382  -0.478  1.00  0.00     0.119 A 
ATOM     21  C   UNL     1      -0.250  -3.333  -0.803  1.00  0.00     0.046 A 
ATOM     22  C   UNL     1       2.046  -2.597  -0.844  1.00  0.00     0.052 A 
ATOM     23  C   UNL     1       0.100  -4.473  -1.526  1.00  0.00     0.004 A 
ATOM     24  C   UNL     1       1.425  -4.675  -1.915  1.00  0.00     0.006 A 
BRANCH  20  25
ATOM     25  O   UNL     1       0.268  -1.309   0.243  1.00  0.00    -0.497 OA
ATOM     26  C   UNL     1       0.935  -0.082  -0.033  1.00  0.00     0.278 C 
ENDBRANCH  20  25
ENDBRANCH  15  19
BRANCH  17  27
ATOM     27  C   UNL     1       6.601  -1.468  -2.341  1.00  0.00    -0.002 A 
ATOM     28  C   UNL     1       7.941  -1.845  -2.479  1.00  0.00     0.011 A 
ATOM     29  C   UNL     1       6.196  -0.148  -2.541  1.00  0.00     0.011 A 
ATOM     30  C   UNL     1       8.892  -0.891  -2.835  1.00  0.00     0.021 A 
ATOM     31  C   UNL     1       7.152   0.815  -2.872  1.00  0.00     0.021 A 
ATOM     32  C   UNL     1       8.493   0.439  -3.012  1.00  0.00     0.067 A 
BRANCH  32  33
ATOM     33  S   UNL     1       9.720   1.655  -3.431  1.00  0.00     0.175 S 
ATOM     34  C   UNL     1      10.823   1.655  -2.041  1.00  0.00     0.163 C 
ATOM     35  O   UNL     1      10.432   1.146  -4.586  1.00  0.00    -0.224 OA
ATOM     36  O   UNL     1       9.060   2.947  -3.467  1.00  0.00    -0.224 OA
ENDBRANCH  32  33
ENDBRANCH  17  27
ENDBRANCH   9  14
ENDBRANCH   5   8
ENDBRANCH   3   4
ENDBRANCH   2   3
ENDBRANCH   1   2
BRANCH   1  37
ATOM     37  C   UNL     1       3.929 -13.092   2.808  1.00  0.00     0.002 C 
BRANCH  37  38
ATOM     38  C   UNL     1       3.587 -13.669   1.432  1.00  0.00     0.021 C 
BRANCH  38  39
ATOM     39  C   UNL     1       4.716 -14.466   0.787  1.00  0.00     0.116 C 
BRANCH  39  40
ATOM     40  N   UNL     1       5.005 -15.686   1.524  1.00  0.00    -0.352 N 
ATOM     41  C   UNL     1       5.051 -16.981   1.071  1.00  0.00     0.251 C 
ATOM     42  H   UNL     1       5.194 -15.567   2.482  1.00  0.00     0.163 HD
ATOM     43  O   UNL     1       5.098 -17.915   1.864  1.00  0.00    -0.269 OA
BRANCH  41  44
ATOM     44  C   UNL     1       5.031 -17.250  -0.382  1.00  0.00     0.039 A 
ATOM     45  C   UNL     1       4.190 -18.251  -0.874  1.00  0.00     0.014 A 
ATOM     46  C   UNL     1       5.854 -16.529  -1.252  1.00  0.00     0.014 A 
ATOM     47  C   UNL     1       4.136 -18.495  -2.248  1.00  0.00     0.010 A 
ATOM     48  C   UNL     1       5.756 -16.732  -2.625  1.00  0.00     0.010 A 
ATOM     49  C   UNL     1       4.900 -17.721  -3.135  1.00  0.00    -0.014 A 
BRANCH  49  50
ATOM     50  C   UNL     1       4.825 -17.932  -4.602  1.00  0.00     0.031 A 
ATOM     51  C   UNL     1       6.025 -18.438  -5.353  1.00  0.00     0.074 A 
ATOM     52  C   UNL     1       3.701 -17.603  -5.266  1.00  0.00     0.049 A 
ATOM     53  N   UNL     1       6.179 -18.613  -6.641  1.00  0.00    -0.248 NA
ATOM     54  C   UNL     1       7.216 -18.767  -4.553  1.00  0.00     0.031 C 
ATOM     55  C   UNL     1       2.480 -17.070  -4.658  1.00  0.00     0.029 A 
ATOM     56  N   UNL     1       3.408 -17.661  -6.606  1.00  0.00    -0.354 N 
ATOM     57  C   UNL     1       7.487 -19.050  -6.807  1.00  0.00     0.074 A 
ATOM     58  C   UNL     1       8.096 -19.076  -5.495  1.00  0.00     0.031 C 
ATOM     59  C   UNL     1       1.564 -16.869  -5.619  1.00  0.00     0.029 A 
ATOM     60  C   UNL     1       2.143 -17.224  -6.911  1.00  0.00     0.049 A 
ATOM     61  H   UNL     1       4.045 -17.986  -7.283  1.00  0.00     0.167 HD
ATOM     62  C   UNL     1       8.120 -19.414  -7.948  1.00  0.00     0.031 A 
ATOM     63  C   UNL     1       1.520 -17.114  -8.100  1.00  0.00     0.031 A 
ATOM     64  C   UNL     1       7.511 -19.406  -9.251  1.00  0.00     0.049 A 
ATOM     65  C   UNL     1       2.245 -17.522  -9.351  1.00  0.00     0.074 A 
ATOM     66  C   UNL     1       8.052 -19.811 -10.459  1.00  0.00     0.029 A 
ATOM     67  N   UNL     1       6.222 -18.971  -9.515  1.00  0.00    -0.354 N 
ATOM     68  N   UNL     1       3.463 -17.989  -9.485  1.00  0.00    -0.248 NA
ATOM     69  C   UNL     1       1.504 -17.398 -10.614  1.00  0.00     0.031 C 
ATOM     70  C   UNL     1       7.104 -19.582 -11.461  1.00  0.00     0.029 A 
ATOM     71  C   UNL     1       5.956 -19.079 -10.869  1.00  0.00     0.049 A 
ATOM     72  H   UNL     1       5.589 -18.635  -8.839  1.00  0.00     0.167 HD
ATOM     73  C   UNL     1       3.625 -18.238 -10.841  1.00  0.00     0.074 A 
ATOM     74  C   UNL     1       2.377 -17.883 -11.486  1.00  0.00     0.031 C 
ATOM     75  C   UNL     1       4.710 -18.721 -11.493  1.00  0.00     0.031 A 
BRANCH  62  76
ATOM     76  C   UNL     1       9.555 -19.846  -7.833  1.00  0.00    -0.014 A 
ATOM     77  C   UNL     1       9.899 -21.073  -7.245  1.00  0.00     0.009 A 
ATOM     78  C   UNL     1      10.573 -19.029  -8.346  1.00  0.00     0.009 A 
ATOM     79  C   UNL     1      11.238 -21.456  -7.140  1.00  0.00     0.001 A 
ATOM     80  C   UNL     1      11.909 -19.427  -8.265  1.00  0.00     0.001 A 
ATOM     81  C   UNL     1      12.241 -20.635  -7.653  1.00  0.00     0.000 A 
ENDBRANCH  62  76
BRANCH  63  82
ATOM     82  C   UNL     1       0.125 -16.611  -8.162  1.00  0.00    -0.014 A 
ATOM     83  C   UNL     1      -0.933 -17.487  -8.447  1.00  0.00     0.009 A 
ATOM     84  C   UNL     1      -0.157 -15.254  -7.939  1.00  0.00     0.009 A 
ATOM     85  C   UNL     1      -2.243 -17.011  -8.531  1.00  0.00     0.001 A 
ATOM     86  C   UNL     1      -1.471 -14.786  -7.998  1.00  0.00     0.001 A 
ATOM     87  C   UNL     1      -2.512 -15.662  -8.302  1.00  0.00     0.000 A 
ENDBRANCH  63  82
BRANCH  75  88
ATOM     88  C   UNL     1       4.583 -18.924 -12.976  1.00  0.00    -0.014 A 
ATOM     89  C   UNL     1       4.592 -17.837 -13.862  1.00  0.00     0.009 A 
ATOM     90  C   UNL     1       4.496 -20.226 -13.492  1.00  0.00     0.009 A 
ATOM     91  C   UNL     1       4.486 -18.049 -15.238  1.00  0.00     0.001 A 
ATOM     92  C   UNL     1       4.416 -20.437 -14.869  1.00  0.00     0.001 A 
ATOM     93  C   UNL     1       4.402 -19.348 -15.740  1.00  0.00     0.000 A 
ENDBRANCH  75  88
ENDBRANCH  49  50
ENDBRANCH  41  44
ENDBRANCH  39  40
ENDBRANCH  38  39
ENDBRANCH  37  38
ENDBRANCH   1  37
TORSDOF 18
