REMARK SMILES CN(CC(=O)NCCCCCCNC(=O)c1ccc(-c2c3nc(c(-c4ccccc4)c4ccc([nH]4)c(-c4ccccc4)c4nc(c(-c5ccccc5)c5ccc2[nH]5)C=C4)C=C3)cc1)c1nc2cc(N)ccc2[nH]1
REMARK SMILES IDX 9 1 8 2 7 3 6 4 4 5 5 6 3 8 2 9 1 10 64 11 65 12 73 13 66 14
REMARK SMILES IDX 72 15 67 17 71 18 68 19 70 20 69 21 10 24 11 25 12 26 13 27
REMARK SMILES IDX 14 28 15 30 16 31 17 32 63 33 18 34 62 35 19 36 20 37 21 38
REMARK SMILES IDX 56 39 22 40 61 41 55 42 57 43 23 44 60 45 54 46 53 47 24 49
REMARK SMILES IDX 46 50 31 51 45 52 32 53 35 54 44 55 58 56 33 57 34 58 43 60
REMARK SMILES IDX 59 61 36 62 25 63 26 64 30 65 27 66 29 67 28 68 47 69 48 70
REMARK SMILES IDX 52 71 49 72 51 73 50 74 37 75 38 76 42 77 39 78 41 79 40 80
REMARK H PARENT 6 7 73 16 69 22 69 23 13 29 57 48 35 59
REMARK Flexibility Score: inf
ROOT
ATOM      1  C   UNL     1      -3.473   0.765  -2.303  1.00  0.00     0.002 C 
ENDROOT
BRANCH   1   2
ATOM      2  C   UNL     1      -2.091   0.761  -1.637  1.00  0.00     0.021 C 
BRANCH   2   3
ATOM      3  C   UNL     1      -2.082   0.225  -0.207  1.00  0.00     0.116 C 
BRANCH   3   4
ATOM      4  N   UNL     1      -2.426  -1.175  -0.136  1.00  0.00    -0.355 N 
ATOM      5  C   UNL     1      -1.623  -2.230   0.201  1.00  0.00     0.239 C 
ATOM      6  O   UNL     1      -2.156  -3.333   0.358  1.00  0.00    -0.273 OA
ATOM      7  H   UNL     1      -3.358  -1.399  -0.359  1.00  0.00     0.163 HD
BRANCH   5   8
ATOM      8  C   UNL     1      -0.134  -1.997   0.508  1.00  0.00     0.219 C 
BRANCH   8   9
ATOM      9  N   UNL     1       0.656  -1.425  -0.603  1.00  0.00    -0.336 N 
ATOM     10  C   UNL     1       1.500  -0.278  -0.351  1.00  0.00     0.147 C 
BRANCH   9  11
ATOM     11  C   UNL     1       0.644  -2.090  -1.784  1.00  0.00     0.204 A 
ATOM     12  N   UNL     1      -0.291  -2.901  -2.212  1.00  0.00    -0.213 NA
ATOM     13  N   UNL     1       1.669  -2.019  -2.698  1.00  0.00    -0.324 N 
ATOM     14  C   UNL     1       0.133  -3.375  -3.420  1.00  0.00     0.093 A 
ATOM     15  C   UNL     1       1.381  -2.863  -3.742  1.00  0.00     0.067 A 
ATOM     16  H   UNL     1       2.474  -1.457  -2.617  1.00  0.00     0.170 HD
ATOM     17  C   UNL     1      -0.504  -4.261  -4.299  1.00  0.00     0.056 A 
ATOM     18  C   UNL     1       2.067  -3.218  -4.903  1.00  0.00     0.030 A 
ATOM     19  C   UNL     1       0.154  -4.656  -5.467  1.00  0.00     0.034 A 
ATOM     20  C   UNL     1       1.416  -4.122  -5.760  1.00  0.00     0.028 A 
BRANCH  19  21
ATOM     21  N   UNL     1      -0.493  -5.478  -6.380  1.00  0.00    -0.399 N 
ATOM     22  H   UNL     1      -1.380  -5.848  -6.166  1.00  0.00     0.156 HD
ATOM     23  H   UNL     1      -0.066  -5.689  -7.241  1.00  0.00     0.156 HD
ENDBRANCH  19  21
ENDBRANCH   9  11
ENDBRANCH   8   9
ENDBRANCH   5   8
ENDBRANCH   3   4
ENDBRANCH   2   3
ENDBRANCH   1   2
BRANCH   1  24
ATOM     24  C   UNL     1      -4.577   1.487  -1.523  1.00  0.00     0.002 C 
BRANCH  24  25
ATOM     25  C   UNL     1      -4.262   2.932  -1.131  1.00  0.00     0.021 C 
BRANCH  25  26
ATOM     26  C   UNL     1      -3.989   3.864  -2.306  1.00  0.00     0.116 C 
BRANCH  26  27
ATOM     27  N   UNL     1      -5.158   4.036  -3.153  1.00  0.00    -0.352 N 
ATOM     28  C   UNL     1      -5.771   5.192  -3.567  1.00  0.00     0.251 C 
ATOM     29  H   UNL     1      -5.569   3.202  -3.478  1.00  0.00     0.163 HD
ATOM     30  O   UNL     1      -6.862   5.148  -4.125  1.00  0.00    -0.269 OA
BRANCH  28  31
ATOM     31  C   UNL     1      -5.122   6.499  -3.325  1.00  0.00     0.039 A 
ATOM     32  C   UNL     1      -5.901   7.567  -2.872  1.00  0.00     0.014 A 
ATOM     33  C   UNL     1      -3.756   6.677  -3.559  1.00  0.00     0.014 A 
ATOM     34  C   UNL     1      -5.300   8.799  -2.605  1.00  0.00     0.010 A 
ATOM     35  C   UNL     1      -3.145   7.880  -3.218  1.00  0.00     0.010 A 
ATOM     36  C   UNL     1      -3.912   8.957  -2.749  1.00  0.00    -0.014 A 
BRANCH  36  37
ATOM     37  C   UNL     1      -3.246  10.247  -2.435  1.00  0.00     0.031 A 
ATOM     38  C   UNL     1      -2.547  11.019  -3.521  1.00  0.00     0.074 A 
ATOM     39  C   UNL     1      -3.222  10.698  -1.165  1.00  0.00     0.049 A 
ATOM     40  N   UNL     1      -1.860  12.130  -3.434  1.00  0.00    -0.248 NA
ATOM     41  C   UNL     1      -2.605  10.455  -4.880  1.00  0.00     0.031 C 
ATOM     42  C   UNL     1      -3.834  10.030  -0.015  1.00  0.00     0.029 A 
ATOM     43  N   UNL     1      -2.653  11.827  -0.629  1.00  0.00    -0.354 N 
ATOM     44  C   UNL     1      -1.393  12.386  -4.717  1.00  0.00     0.074 A 
ATOM     45  C   UNL     1      -1.826  11.288  -5.553  1.00  0.00     0.031 C 
ATOM     46  C   UNL     1      -3.633  10.775   1.084  1.00  0.00     0.029 A 
ATOM     47  C   UNL     1      -2.841  11.948   0.726  1.00  0.00     0.049 A 
ATOM     48  H   UNL     1      -2.158  12.487  -1.166  1.00  0.00     0.167 HD
ATOM     49  C   UNL     1      -0.684  13.449  -5.167  1.00  0.00     0.031 A 
ATOM     50  C   UNL     1      -2.418  12.893   1.587  1.00  0.00     0.031 A 
ATOM     51  C   UNL     1      -0.261  14.547  -4.339  1.00  0.00     0.049 A 
ATOM     52  C   UNL     1      -1.611  14.051   1.066  1.00  0.00     0.074 A 
ATOM     53  C   UNL     1       0.416  15.695  -4.710  1.00  0.00     0.029 A 
ATOM     54  N   UNL     1      -0.474  14.631  -2.972  1.00  0.00    -0.354 N 
ATOM     55  N   UNL     1      -1.232  14.310  -0.162  1.00  0.00    -0.248 NA
ATOM     56  C   UNL     1      -1.185  15.055   2.052  1.00  0.00     0.031 C 
ATOM     57  C   UNL     1       0.665  16.447  -3.558  1.00  0.00     0.029 A 
ATOM     58  C   UNL     1       0.083  15.800  -2.480  1.00  0.00     0.049 A 
ATOM     59  H   UNL     1      -0.950  13.960  -2.431  1.00  0.00     0.167 HD
ATOM     60  C   UNL     1      -0.554  15.521  -0.101  1.00  0.00     0.074 A 
ATOM     61  C   UNL     1      -0.587  15.952   1.281  1.00  0.00     0.031 C 
ATOM     62  C   UNL     1       0.040  16.217  -1.102  1.00  0.00     0.031 A 
BRANCH  49  63
ATOM     63  C   UNL     1      -0.314  13.470  -6.625  1.00  0.00    -0.014 A 
ATOM     64  C   UNL     1      -1.286  13.640  -7.623  1.00  0.00     0.009 A 
ATOM     65  C   UNL     1       1.033  13.355  -7.005  1.00  0.00     0.009 A 
ATOM     66  C   UNL     1      -0.923  13.654  -8.972  1.00  0.00     0.001 A 
ATOM     67  C   UNL     1       1.397  13.403  -8.352  1.00  0.00     0.001 A 
ATOM     68  C   UNL     1       0.418  13.542  -9.334  1.00  0.00     0.000 A 
ENDBRANCH  49  63
BRANCH  50  69
ATOM     69  C   UNL     1      -2.755  12.795   3.032  1.00  0.00    -0.014 A 
ATOM     70  C   UNL     1      -3.640  13.710   3.622  1.00  0.00     0.009 A 
ATOM     71  C   UNL     1      -2.179  11.797   3.834  1.00  0.00     0.009 A 
ATOM     72  C   UNL     1      -3.916  13.648   4.990  1.00  0.00     0.001 A 
ATOM     73  C   UNL     1      -2.482  11.717   5.195  1.00  0.00     0.001 A 
ATOM     74  C   UNL     1      -3.341  12.650   5.774  1.00  0.00     0.000 A 
ENDBRANCH  50  69
BRANCH  62  75
ATOM     75  C   UNL     1       0.663  17.539  -0.749  1.00  0.00    -0.014 A 
ATOM     76  C   UNL     1       1.841  17.616   0.011  1.00  0.00     0.009 A 
ATOM     77  C   UNL     1       0.081  18.726  -1.222  1.00  0.00     0.009 A 
ATOM     78  C   UNL     1       2.401  18.858   0.319  1.00  0.00     0.001 A 
ATOM     79  C   UNL     1       0.661  19.962  -0.942  1.00  0.00     0.001 A 
ATOM     80  C   UNL     1       1.815  20.028  -0.162  1.00  0.00     0.000 A 
ENDBRANCH  62  75
ENDBRANCH  36  37
ENDBRANCH  28  31
ENDBRANCH  26  27
ENDBRANCH  25  26
ENDBRANCH  24  25
ENDBRANCH   1  24
TORSDOF 16
