REMARK SMILES CN(C)S(=O)(=O)c1ccc(-n2c(CCC(=O)NCCCCCCNC(=O)c3ccc(-c4c5nc(c(-c6ccccc6)c6ccc([nH]6)c(-c6ccccc6)c6nc(c(-c7ccccc7)c7ccc4[nH]7)C=C6)C=C5)cc3)ccc2-c2ccc(F)cc2)cc1
REMARK SMILES IDX 19 1 18 2 17 3 15 4 16 5 14 7 13 8 12 9 11 10 77 11 75 12
REMARK SMILES IDX 76 13 10 14 7 15 8 16 86 17 9 18 85 19 4 20 5 21 6 22 2 23
REMARK SMILES IDX 1 24 3 25 78 26 79 27 84 28 80 29 83 30 81 31 82 32 20 33
REMARK SMILES IDX 21 34 22 35 23 36 24 37 25 38 26 40 27 41 28 42 74 43 29 44
REMARK SMILES IDX 73 45 30 46 31 47 32 48 67 49 33 50 72 51 66 52 68 53 34 54
REMARK SMILES IDX 71 55 65 56 64 57 35 59 57 60 42 61 56 62 43 63 46 64 55 65
REMARK SMILES IDX 69 66 44 67 45 68 54 70 70 71 47 72 36 73 37 74 41 75 38 76
REMARK SMILES IDX 40 77 39 78 58 79 59 80 63 81 60 82 62 83 61 84 48 85 49 86
REMARK SMILES IDX 53 87 50 88 52 89 51 90
REMARK H PARENT 17 6 24 39 68 58 46 69
REMARK Flexibility Score: inf
ROOT
ATOM      1  C   UNL     1       1.032  -7.364  -4.688  1.00  0.00     0.021 C 
ENDROOT
BRANCH   1   2
ATOM      2  C   UNL     1       2.121  -8.083  -3.888  1.00  0.00     0.116 C 
BRANCH   2   3
ATOM      3  N   UNL     1       2.459  -7.400  -2.647  1.00  0.00    -0.356 N 
ATOM      4  C   UNL     1       2.076  -7.655  -1.363  1.00  0.00     0.220 C 
ATOM      5  O   UNL     1       2.572  -6.970  -0.464  1.00  0.00    -0.275 OA
ATOM      6  H   UNL     1       3.063  -6.630  -2.752  1.00  0.00     0.163 HD
BRANCH   4   7
ATOM      7  C   UNL     1       1.033  -8.707  -1.032  1.00  0.00     0.106 C 
BRANCH   7   8
ATOM      8  C   UNL     1      -0.367  -8.159  -0.695  1.00  0.00     0.064 C 
BRANCH   8   9
ATOM      9  C   UNL     1      -1.269  -7.985  -1.897  1.00  0.00     0.024 A 
ATOM     10  N   UNL     1      -1.727  -6.786  -2.491  1.00  0.00    -0.314 N 
ATOM     11  C   UNL     1      -2.561  -7.166  -3.580  1.00  0.00     0.053 A 
ATOM     12  C   UNL     1      -1.855  -9.049  -2.565  1.00  0.00     0.024 A 
ATOM     13  C   UNL     1      -2.654  -8.546  -3.598  1.00  0.00     0.029 A 
BRANCH  10  14
ATOM     14  C   UNL     1      -1.312  -5.421  -2.209  1.00  0.00     0.046 A 
ATOM     15  C   UNL     1      -0.232  -2.822  -2.154  1.00  0.00     0.082 A 
ATOM     16  C   UNL     1      -1.492  -3.030  -2.697  1.00  0.00     0.024 A 
ATOM     17  C   UNL     1       0.460  -3.870  -1.568  1.00  0.00     0.024 A 
ATOM     18  C   UNL     1      -2.043  -4.316  -2.673  1.00  0.00     0.028 A 
ATOM     19  C   UNL     1      -0.091  -5.149  -1.595  1.00  0.00     0.028 A 
BRANCH  15  20
ATOM     20  S   UNL     1       0.498  -1.215  -2.107  1.00  0.00     0.242 S 
ATOM     21  O   UNL     1      -0.334  -0.312  -2.890  1.00  0.00    -0.207 OA
ATOM     22  O   UNL     1       1.903  -1.358  -2.378  1.00  0.00    -0.207 OA
BRANCH  20  23
ATOM     23  N   UNL     1       0.287  -0.820  -0.457  1.00  0.00    -0.204 NA
ATOM     24  C   UNL     1       1.065   0.361  -0.039  1.00  0.00     0.124 C 
ATOM     25  C   UNL     1      -1.119  -0.766  -0.000  1.00  0.00     0.124 C 
ENDBRANCH  20  23
ENDBRANCH  15  20
ENDBRANCH  10  14
BRANCH  11  26
ATOM     26  C   UNL     1      -3.047  -6.271  -4.642  1.00  0.00    -0.001 A 
ATOM     27  C   UNL     1      -4.404  -5.969  -4.795  1.00  0.00     0.013 A 
ATOM     28  C   UNL     1      -2.120  -5.639  -5.482  1.00  0.00     0.013 A 
ATOM     29  C   UNL     1      -4.797  -4.992  -5.720  1.00  0.00     0.040 A 
ATOM     30  C   UNL     1      -2.503  -4.671  -6.405  1.00  0.00     0.040 A 
ATOM     31  C   UNL     1      -3.845  -4.345  -6.506  1.00  0.00     0.123 A 
ATOM     32  F   UNL     1      -4.233  -3.445  -7.417  1.00  0.00    -0.207 F 
ENDBRANCH  11  26
ENDBRANCH   8   9
ENDBRANCH   7   8
ENDBRANCH   4   7
ENDBRANCH   2   3
ENDBRANCH   1   2
BRANCH   1  33
ATOM     33  C   UNL     1       1.514  -6.205  -5.571  1.00  0.00     0.002 C 
BRANCH  33  34
ATOM     34  C   UNL     1       1.367  -6.293  -7.114  1.00  0.00     0.002 C 
BRANCH  34  35
ATOM     35  C   UNL     1       0.761  -7.529  -7.816  1.00  0.00     0.021 C 
BRANCH  35  36
ATOM     36  C   UNL     1      -0.729  -7.468  -8.242  1.00  0.00     0.116 C 
BRANCH  36  37
ATOM     37  N   UNL     1      -0.974  -6.495  -9.303  1.00  0.00    -0.352 N 
ATOM     38  C   UNL     1      -2.032  -6.262 -10.156  1.00  0.00     0.251 C 
ATOM     39  H   UNL     1      -0.223  -5.872  -9.438  1.00  0.00     0.163 HD
ATOM     40  O   UNL     1      -1.773  -5.641 -11.190  1.00  0.00    -0.269 OA
BRANCH  38  41
ATOM     41  C   UNL     1      -3.456  -6.659  -9.930  1.00  0.00     0.039 A 
ATOM     42  C   UNL     1      -4.309  -6.751 -11.048  1.00  0.00     0.014 A 
ATOM     43  C   UNL     1      -4.033  -6.798  -8.672  1.00  0.00     0.014 A 
ATOM     44  C   UNL     1      -5.684  -7.016 -10.909  1.00  0.00     0.010 A 
ATOM     45  C   UNL     1      -5.423  -6.981  -8.521  1.00  0.00     0.010 A 
ATOM     46  C   UNL     1      -6.254  -7.151  -9.639  1.00  0.00    -0.014 A 
BRANCH  46  47
ATOM     47  C   UNL     1      -7.585  -7.828  -9.486  1.00  0.00     0.031 A 
ATOM     48  C   UNL     1      -7.426  -9.349  -9.269  1.00  0.00     0.074 A 
ATOM     49  C   UNL     1      -8.760  -7.125  -9.573  1.00  0.00     0.049 A 
ATOM     50  N   UNL     1      -8.312 -10.293  -9.363  1.00  0.00    -0.248 NA
ATOM     51  C   UNL     1      -6.090  -9.913  -8.920  1.00  0.00     0.031 C 
ATOM     52  C   UNL     1      -8.852  -5.662  -9.755  1.00  0.00     0.029 A 
ATOM     53  N   UNL     1     -10.107  -7.480  -9.532  1.00  0.00    -0.354 N 
ATOM     54  C   UNL     1      -7.697 -11.498  -8.958  1.00  0.00     0.074 A 
ATOM     55  C   UNL     1      -6.317 -11.212  -8.741  1.00  0.00     0.031 C 
ATOM     56  C   UNL     1     -10.142  -5.271  -9.884  1.00  0.00     0.029 A 
ATOM     57  C   UNL     1     -11.026  -6.421  -9.775  1.00  0.00     0.049 A 
ATOM     58  H   UNL     1     -10.403  -8.401  -9.346  1.00  0.00     0.167 HD
ATOM     59  C   UNL     1      -8.377 -12.655  -8.726  1.00  0.00     0.031 A 
ATOM     60  C   UNL     1     -12.393  -6.444  -9.906  1.00  0.00     0.031 A 
ATOM     61  C   UNL     1      -9.729 -12.533  -9.134  1.00  0.00     0.049 A 
ATOM     62  C   UNL     1     -12.853  -7.785  -9.521  1.00  0.00     0.074 A 
ATOM     63  C   UNL     1     -10.322 -12.413 -10.362  1.00  0.00     0.029 A 
ATOM     64  N   UNL     1     -10.630 -12.201  -8.157  1.00  0.00    -0.354 N 
ATOM     65  N   UNL     1     -12.952  -8.210  -8.299  1.00  0.00    -0.248 NA
ATOM     66  C   UNL     1     -13.312  -8.714 -10.564  1.00  0.00     0.031 C 
ATOM     67  C   UNL     1     -11.422 -11.570 -10.113  1.00  0.00     0.029 A 
ATOM     68  C   UNL     1     -11.533 -11.352  -8.735  1.00  0.00     0.049 A 
ATOM     69  H   UNL     1     -10.628 -12.513  -7.223  1.00  0.00     0.167 HD
ATOM     70  C   UNL     1     -13.076  -9.564  -8.480  1.00  0.00     0.074 A 
ATOM     71  C   UNL     1     -13.639  -9.754  -9.799  1.00  0.00     0.031 C 
ATOM     72  C   UNL     1     -12.163 -10.372  -7.885  1.00  0.00     0.031 A 
BRANCH  59  73
ATOM     73  C   UNL     1      -7.997 -13.864  -7.924  1.00  0.00    -0.014 A 
ATOM     74  C   UNL     1      -8.833 -15.002  -8.029  1.00  0.00     0.009 A 
ATOM     75  C   UNL     1      -7.109 -13.816  -6.844  1.00  0.00     0.009 A 
ATOM     76  C   UNL     1      -8.871 -15.980  -7.035  1.00  0.00     0.001 A 
ATOM     77  C   UNL     1      -7.117 -14.821  -5.867  1.00  0.00     0.001 A 
ATOM     78  C   UNL     1      -8.022 -15.878  -5.942  1.00  0.00     0.000 A 
ENDBRANCH  59  73
BRANCH  60  79
ATOM     79  C   UNL     1     -13.524  -5.518 -10.321  1.00  0.00    -0.014 A 
ATOM     80  C   UNL     1     -13.402  -4.178 -10.684  1.00  0.00     0.009 A 
ATOM     81  C   UNL     1     -14.844  -6.054 -10.439  1.00  0.00     0.009 A 
ATOM     82  C   UNL     1     -14.504  -3.459 -11.208  1.00  0.00     0.001 A 
ATOM     83  C   UNL     1     -15.923  -5.368 -11.004  1.00  0.00     0.001 A 
ATOM     84  C   UNL     1     -15.748  -4.061 -11.402  1.00  0.00     0.000 A 
ENDBRANCH  60  79
BRANCH  72  85
ATOM     85  C   UNL     1     -11.572  -9.817  -6.601  1.00  0.00    -0.014 A 
ATOM     86  C   UNL     1     -12.413  -9.536  -5.511  1.00  0.00     0.009 A 
ATOM     87  C   UNL     1     -10.221  -9.441  -6.487  1.00  0.00     0.009 A 
ATOM     88  C   UNL     1     -11.931  -8.892  -4.365  1.00  0.00     0.001 A 
ATOM     89  C   UNL     1      -9.733  -8.802  -5.338  1.00  0.00     0.001 A 
ATOM     90  C   UNL     1     -10.591  -8.523  -4.278  1.00  0.00     0.000 A 
ENDBRANCH  72  85
ENDBRANCH  46  47
ENDBRANCH  38  41
ENDBRANCH  36  37
ENDBRANCH  35  36
ENDBRANCH  34  35
ENDBRANCH  33  34
ENDBRANCH   1  33
TORSDOF 19
