REMARK SMILES O=C(NCCCCCCNC(=O)c1ccc(C[NH+]2CC3(CCCCCC3)C2)o1)c1ccc(-c2c3nc(c(-c4ccccc4)c4ccc([nH]4)c(-c4ccccc4)c4nc(c(-c5ccccc5)c5ccc2[nH]5)C=C4)C=C3)cc1
REMARK SMILES IDX 8 1 7 2 6 3 5 4 4 5 3 6 1 7 2 8 29 10 30 11 76 12 31 13
REMARK SMILES IDX 75 14 32 15 33 16 34 17 69 18 35 19 74 20 68 21 70 22 36 23
REMARK SMILES IDX 73 24 67 25 66 26 37 28 59 29 44 30 58 31 45 32 48 33 57 34
REMARK SMILES IDX 71 35 46 36 47 37 56 39 72 40 49 41 38 42 39 43 43 44 40 45
REMARK SMILES IDX 42 46 41 47 60 48 61 49 65 50 62 51 64 52 63 53 50 54 51 55
REMARK SMILES IDX 55 56 52 57 54 58 53 59 9 60 10 61 11 62 12 64 13 65 14 66
REMARK SMILES IDX 28 67 15 68 16 69 17 70 18 71 19 72 27 73 20 75 21 76 22 77
REMARK SMILES IDX 23 78 26 80 25 81 24 82
REMARK H PARENT 3 9 70 27 48 38 10 63 18 74
REMARK Flexibility Score: 90.00
ROOT
ATOM      1  C   UNL     1       6.039   3.095   3.290  1.00  0.00     0.021 C 
ENDROOT
BRANCH   1   2
ATOM      2  C   UNL     1       4.526   3.210   3.131  1.00  0.00     0.002 C 
BRANCH   2   3
ATOM      3  C   UNL     1       4.044   3.617   1.736  1.00  0.00     0.002 C 
BRANCH   3   4
ATOM      4  C   UNL     1       4.603   2.791   0.574  1.00  0.00     0.021 C 
BRANCH   4   5
ATOM      5  C   UNL     1       4.400   1.288   0.700  1.00  0.00     0.116 C 
BRANCH   5   6
ATOM      6  N   UNL     1       2.996   0.926   0.725  1.00  0.00    -0.352 N 
ATOM      7  O   UNL     1       1.113  -0.074  -0.009  1.00  0.00    -0.269 OA
ATOM      8  C   UNL     1       2.338  -0.012  -0.027  1.00  0.00     0.251 C 
ATOM      9  H   UNL     1       2.440   1.421   1.369  1.00  0.00     0.163 HD
BRANCH   8  10
ATOM     10  C   UNL     1       3.111  -0.947  -0.872  1.00  0.00     0.039 A 
ATOM     11  C   UNL     1       4.232  -1.611  -0.362  1.00  0.00     0.014 A 
ATOM     12  C   UNL     1       2.673  -1.199  -2.174  1.00  0.00     0.014 A 
ATOM     13  C   UNL     1       4.956  -2.473  -1.179  1.00  0.00     0.010 A 
ATOM     14  C   UNL     1       3.364  -2.112  -2.973  1.00  0.00     0.010 A 
ATOM     15  C   UNL     1       4.509  -2.756  -2.479  1.00  0.00    -0.014 A 
BRANCH  15  16
ATOM     16  C   UNL     1       5.163  -3.833  -3.257  1.00  0.00     0.031 A 
ATOM     17  C   UNL     1       5.942  -3.539  -4.503  1.00  0.00     0.074 A 
ATOM     18  C   UNL     1       5.016  -5.101  -2.825  1.00  0.00     0.049 A 
ATOM     19  N   UNL     1       6.552  -4.377  -5.303  1.00  0.00    -0.248 NA
ATOM     20  C   UNL     1       6.051  -2.130  -4.912  1.00  0.00     0.031 C 
ATOM     21  C   UNL     1       4.258  -5.505  -1.636  1.00  0.00     0.029 A 
ATOM     22  N   UNL     1       5.492  -6.282  -3.331  1.00  0.00    -0.354 N 
ATOM     23  C   UNL     1       7.099  -3.604  -6.318  1.00  0.00     0.074 A 
ATOM     24  C   UNL     1       6.742  -2.229  -6.041  1.00  0.00     0.031 C 
ATOM     25  C   UNL     1       4.338  -6.835  -1.494  1.00  0.00     0.029 A 
ATOM     26  C   UNL     1       5.102  -7.383  -2.607  1.00  0.00     0.049 A 
ATOM     27  H   UNL     1       6.057  -6.337  -4.135  1.00  0.00     0.167 HD
ATOM     28  C   UNL     1       7.830  -4.011  -7.383  1.00  0.00     0.031 A 
ATOM     29  C   UNL     1       5.307  -8.693  -2.830  1.00  0.00     0.031 A 
ATOM     30  C   UNL     1       8.186  -5.381  -7.647  1.00  0.00     0.049 A 
ATOM     31  C   UNL     1       6.088  -9.111  -4.039  1.00  0.00     0.074 A 
ATOM     32  C   UNL     1       8.989  -5.882  -8.658  1.00  0.00     0.029 A 
ATOM     33  N   UNL     1       7.747  -6.468  -6.909  1.00  0.00    -0.354 N 
ATOM     34  N   UNL     1       6.664  -8.360  -4.946  1.00  0.00    -0.248 NA
ATOM     35  C   UNL     1       6.241 -10.555  -4.261  1.00  0.00     0.031 C 
ATOM     36  C   UNL     1       8.991  -7.277  -8.565  1.00  0.00     0.029 A 
ATOM     37  C   UNL     1       8.226  -7.642  -7.468  1.00  0.00     0.049 A 
ATOM     38  H   UNL     1       7.181  -6.415  -6.106  1.00  0.00     0.167 HD
ATOM     39  C   UNL     1       7.249  -9.239  -5.845  1.00  0.00     0.074 A 
ATOM     40  C   UNL     1       6.984 -10.578  -5.358  1.00  0.00     0.031 C 
ATOM     41  C   UNL     1       7.936  -8.963  -6.979  1.00  0.00     0.031 A 
BRANCH  28  42
ATOM     42  C   UNL     1       8.284  -2.972  -8.367  1.00  0.00    -0.014 A 
ATOM     43  C   UNL     1       9.359  -2.118  -8.080  1.00  0.00     0.009 A 
ATOM     44  C   UNL     1       7.686  -2.912  -9.636  1.00  0.00     0.009 A 
ATOM     45  C   UNL     1       9.818  -1.215  -9.042  1.00  0.00     0.001 A 
ATOM     46  C   UNL     1       8.158  -2.021 -10.601  1.00  0.00     0.001 A 
ATOM     47  C   UNL     1       9.222  -1.172 -10.303  1.00  0.00     0.000 A 
ENDBRANCH  28  42
BRANCH  29  48
ATOM     48  C   UNL     1       4.720  -9.701  -1.913  1.00  0.00    -0.014 A 
ATOM     49  C   UNL     1       5.538 -10.465  -1.068  1.00  0.00     0.009 A 
ATOM     50  C   UNL     1       3.330  -9.901  -1.879  1.00  0.00     0.009 A 
ATOM     51  C   UNL     1       4.976 -11.426  -0.224  1.00  0.00     0.001 A 
ATOM     52  C   UNL     1       2.770 -10.841  -1.013  1.00  0.00     0.001 A 
ATOM     53  C   UNL     1       3.594 -11.609  -0.193  1.00  0.00     0.000 A 
ENDBRANCH  29  48
BRANCH  41  54
ATOM     54  C   UNL     1       8.443 -10.135  -7.764  1.00  0.00    -0.014 A 
ATOM     55  C   UNL     1       7.568 -10.914  -8.537  1.00  0.00     0.009 A 
ATOM     56  C   UNL     1       9.810 -10.450  -7.753  1.00  0.00     0.009 A 
ATOM     57  C   UNL     1       8.049 -12.004  -9.263  1.00  0.00     0.001 A 
ATOM     58  C   UNL     1      10.292 -11.526  -8.499  1.00  0.00     0.001 A 
ATOM     59  C   UNL     1       9.411 -12.306  -9.246  1.00  0.00     0.000 A 
ENDBRANCH  41  54
ENDBRANCH  15  16
ENDBRANCH   8  10
ENDBRANCH   5   6
ENDBRANCH   4   5
ENDBRANCH   3   4
ENDBRANCH   2   3
ENDBRANCH   1   2
BRANCH   1  60
ATOM     60  C   UNL     1       6.819   4.321   2.840  1.00  0.00     0.116 C 
BRANCH  60  61
ATOM     61  N   UNL     1       6.582   5.477   3.682  1.00  0.00    -0.349 N 
ATOM     62  C   UNL     1       7.491   6.207   4.424  1.00  0.00     0.286 C 
ATOM     63  H   UNL     1       5.647   5.783   3.733  1.00  0.00     0.163 HD
ATOM     64  O   UNL     1       7.052   7.045   5.202  1.00  0.00    -0.266 OA
BRANCH  62  65
ATOM     65  C   UNL     1       8.897   5.919   4.233  1.00  0.00     0.191 A 
ATOM     66  C   UNL     1       9.624   5.594   3.103  1.00  0.00     0.057 A 
ATOM     67  O   UNL     1       9.738   5.947   5.315  1.00  0.00    -0.450 OA
ATOM     68  C   UNL     1      10.893   5.179   3.548  1.00  0.00     0.052 A 
ATOM     69  C   UNL     1      10.966   5.538   4.879  1.00  0.00     0.159 A 
BRANCH  69  70
ATOM     70  C   UNL     1      12.123   5.676   5.825  1.00  0.00     0.338 C 
BRANCH  70  71
ATOM     71  N   UNL     1      12.657   7.053   5.950  1.00  0.00    -0.327 N 
ATOM     72  C   UNL     1      12.493   7.877   4.745  1.00  0.00     0.275 C 
ATOM     73  C   UNL     1      14.135   7.165   5.785  1.00  0.00     0.275 C 
ATOM     74  H   UNL     1      12.206   7.307   6.829  1.00  0.00     0.348 HD
ATOM     75  C   UNL     1      13.950   7.546   4.267  1.00  0.00     0.068 C 
BRANCH  75  76
ATOM     76  C   UNL     1      14.068   6.311   3.351  1.00  0.00     0.019 C 
BRANCH  76  77
ATOM     77  C   UNL     1      15.311   6.183   2.486  1.00  0.00     0.001 C 
BRANCH  77  78
ATOM     78  C   UNL     1      15.205   7.083   1.265  1.00  0.00     0.000 CG0
ATOM     79  G   UNL     1      15.676   8.509   1.508  1.00  0.00     0.000 G0
ENDBRANCH  77  78
ENDBRANCH  76  77
ENDBRANCH  75  76
BRANCH  75  80
ATOM     80  C   UNL     1      14.382   8.902   3.671  1.00  0.00     0.019 C 
BRANCH  80  81
ATOM     81  C   UNL     1      15.725   8.964   2.968  1.00  0.00     0.001 C 
BRANCH  81  82
ATOM     82  C   UNL     1      15.676   8.509   1.508  1.00  0.00     0.000 CG0
ATOM     83  G   UNL     1      15.205   7.083   1.265  1.00  0.00     0.000 G0
ENDBRANCH  81  82
ENDBRANCH  80  81
ENDBRANCH  75  80
ENDBRANCH  70  71
ENDBRANCH  69  70
ENDBRANCH  62  65
ENDBRANCH  60  61
ENDBRANCH   1  60
TORSDOF 15
