REMARK SMILES O=C(COc1cccc(NC(=O)c2ccc3c(c2)C(=O)N(c2ccccc2-c2ccccc2)C3=O)c1)NCCCCCCNC(=O)c1ccc(-c2c3nc(c(-c4ccccc4)c4ccc([nH]4)c(-c4ccccc4)c4nc(c(-c5ccccc5)c5ccc2[nH]5)C=C4)C=C3)cc1
REMARK SMILES IDX 38 1 37 2 1 3 2 4 3 6 4 7 5 8 6 9 36 10 7 11 9 12 8 13 10 14
REMARK SMILES IDX 11 15 12 17 13 18 14 19 18 20 15 21 17 22 16 23 19 24 34 25
REMARK SMILES IDX 20 26 21 27 35 28 22 29 23 30 27 31 24 32 26 33 25 34 28 35
REMARK SMILES IDX 29 36 33 37 30 38 32 39 31 40 39 41 40 42 41 43 42 44 43 45
REMARK SMILES IDX 44 46 45 47 46 49 47 50 48 51 94 52 49 53 93 54 50 55 51 56
REMARK SMILES IDX 52 57 87 58 53 59 92 60 86 61 88 62 54 63 91 64 85 65 84 66
REMARK SMILES IDX 55 68 77 69 62 70 76 71 63 72 66 73 75 74 89 75 64 76 65 77
REMARK SMILES IDX 74 79 90 80 67 81 56 82 57 83 61 84 58 85 60 86 59 87 78 88
REMARK SMILES IDX 79 89 83 90 80 91 82 92 81 93 68 94 69 95 73 96 70 97 72 98
REMARK SMILES IDX 71 99
REMARK H PARENT 37 5 10 16 44 48 88 67 66 78
REMARK Flexibility Score: inf
ROOT
ATOM      1  C   UNL     1       2.068  -2.085   1.245  1.00  0.00     0.116 C 
ENDROOT
BRANCH   1   2
ATOM      2  N   UNL     1       2.606  -0.949   0.532  1.00  0.00    -0.353 N 
ATOM      3  O   UNL     1       0.748  -0.560  -0.765  1.00  0.00    -0.271 OA
ATOM      4  C   UNL     1       1.859  -0.221  -0.371  1.00  0.00     0.257 C 
ATOM      5  H   UNL     1       3.540  -0.686   0.696  1.00  0.00     0.163 HD
BRANCH   4   6
ATOM      6  C   UNL     1       2.521   1.081  -0.825  1.00  0.00     0.329 C 
BRANCH   6   7
ATOM      7  O   UNL     1       3.569   1.576  -0.003  1.00  0.00    -0.484 OA
BRANCH   7   8
ATOM      8  C   UNL     1       3.207   2.272   1.120  1.00  0.00     0.122 A 
ATOM      9  C   UNL     1       4.026   3.357   1.417  1.00  0.00     0.046 A 
ATOM     10  C   UNL     1       2.212   1.880   2.029  1.00  0.00     0.072 A 
ATOM     11  C   UNL     1       3.867   4.031   2.619  1.00  0.00     0.006 A 
ATOM     12  C   UNL     1       2.062   2.527   3.265  1.00  0.00     0.045 A 
ATOM     13  C   UNL     1       2.909   3.600   3.540  1.00  0.00     0.026 A 
BRANCH  12  14
ATOM     14  N   UNL     1       1.146   1.962   4.192  1.00  0.00    -0.322 N 
ATOM     15  C   UNL     1       0.637   2.408   5.401  1.00  0.00     0.255 C 
ATOM     16  H   UNL     1       0.804   1.079   3.922  1.00  0.00     0.170 HD
ATOM     17  O   UNL     1       0.071   1.651   6.181  1.00  0.00    -0.269 OA
BRANCH  15  18
ATOM     18  C   UNL     1       0.632   3.853   5.682  1.00  0.00     0.041 A 
ATOM     19  C   UNL     1       1.595   4.425   6.544  1.00  0.00     0.015 A 
ATOM     20  C   UNL     1      -0.165   4.630   4.846  1.00  0.00     0.028 A 
ATOM     21  C   UNL     1       1.927   5.783   6.402  1.00  0.00     0.015 A 
ATOM     22  C   UNL     1       0.201   5.949   4.733  1.00  0.00     0.054 A 
ATOM     23  C   UNL     1       1.257   6.497   5.418  1.00  0.00     0.053 A 
ATOM     24  C   UNL     1      -0.165   6.854   3.669  1.00  0.00     0.266 C 
ATOM     25  C   UNL     1       1.610   7.734   4.709  1.00  0.00     0.266 C 
ATOM     26  O   UNL     1      -1.224   6.693   3.092  1.00  0.00    -0.268 OA
ATOM     27  N   UNL     1       0.874   7.750   3.538  1.00  0.00    -0.242 N 
ATOM     28  O   UNL     1       2.376   8.527   5.223  1.00  0.00    -0.268 OA
BRANCH  27  29
ATOM     29  C   UNL     1       1.115   8.494   2.324  1.00  0.00     0.060 A 
ATOM     30  C   UNL     1       0.107   8.486   1.326  1.00  0.00     0.027 A 
ATOM     31  C   UNL     1       2.338   9.126   1.972  1.00  0.00     0.006 A 
ATOM     32  C   UNL     1       0.264   9.058   0.061  1.00  0.00     0.002 A 
ATOM     33  C   UNL     1       2.459   9.736   0.692  1.00  0.00     0.011 A 
ATOM     34  C   UNL     1       1.442   9.698  -0.256  1.00  0.00     0.001 A 
BRANCH  31  35
ATOM     35  C   UNL     1       3.586   9.113   2.749  1.00  0.00    -0.016 A 
ATOM     36  C   UNL     1       3.996  10.246   3.470  1.00  0.00     0.009 A 
ATOM     37  C   UNL     1       4.452   8.009   2.689  1.00  0.00     0.009 A 
ATOM     38  C   UNL     1       5.212  10.252   4.158  1.00  0.00     0.001 A 
ATOM     39  C   UNL     1       5.670   8.016   3.372  1.00  0.00     0.001 A 
ATOM     40  C   UNL     1       6.044   9.135   4.114  1.00  0.00     0.000 A 
ENDBRANCH  31  35
ENDBRANCH  27  29
ENDBRANCH  15  18
ENDBRANCH  12  14
ENDBRANCH   7   8
ENDBRANCH   6   7
ENDBRANCH   4   6
ENDBRANCH   1   2
BRANCH   1  41
ATOM     41  C   UNL     1       2.686  -3.400   0.790  1.00  0.00     0.021 C 
BRANCH  41  42
ATOM     42  C   UNL     1       4.192  -3.520   1.049  1.00  0.00     0.002 C 
BRANCH  42  43
ATOM     43  C   UNL     1       4.632  -3.349   2.507  1.00  0.00     0.002 C 
BRANCH  43  44
ATOM     44  C   UNL     1       3.941  -4.263   3.521  1.00  0.00     0.021 C 
BRANCH  44  45
ATOM     45  C   UNL     1       4.057  -5.757   3.235  1.00  0.00     0.116 C 
BRANCH  45  46
ATOM     46  N   UNL     1       5.429  -6.234   3.285  1.00  0.00    -0.352 N 
ATOM     47  C   UNL     1       5.942  -7.349   3.900  1.00  0.00     0.251 C 
ATOM     48  H   UNL     1       6.085  -5.676   2.808  1.00  0.00     0.163 HD
ATOM     49  O   UNL     1       7.157  -7.515   3.954  1.00  0.00    -0.269 OA
BRANCH  47  50
ATOM     50  C   UNL     1       5.038  -8.343   4.521  1.00  0.00     0.039 A 
ATOM     51  C   UNL     1       5.377  -8.868   5.773  1.00  0.00     0.014 A 
ATOM     52  C   UNL     1       3.882  -8.783   3.870  1.00  0.00     0.014 A 
ATOM     53  C   UNL     1       4.533  -9.795   6.391  1.00  0.00     0.010 A 
ATOM     54  C   UNL     1       3.009  -9.656   4.516  1.00  0.00     0.010 A 
ATOM     55  C   UNL     1       3.330 -10.180   5.777  1.00  0.00    -0.014 A 
BRANCH  55  56
ATOM     56  C   UNL     1       2.413 -11.154   6.424  1.00  0.00     0.031 A 
ATOM     57  C   UNL     1       2.170 -12.496   5.786  1.00  0.00     0.074 A 
ATOM     58  C   UNL     1       1.763 -10.820   7.556  1.00  0.00     0.049 A 
ATOM     59  N   UNL     1       1.352 -13.450   6.153  1.00  0.00    -0.248 NA
ATOM     60  C   UNL     1       2.931 -12.796   4.562  1.00  0.00     0.031 C 
ATOM     61  C   UNL     1       1.885  -9.543   8.262  1.00  0.00     0.029 A 
ATOM     62  N   UNL     1       0.859 -11.530   8.307  1.00  0.00    -0.354 N 
ATOM     63  C   UNL     1       1.492 -14.453   5.202  1.00  0.00     0.074 A 
ATOM     64  C   UNL     1       2.433 -13.973   4.214  1.00  0.00     0.031 C 
ATOM     65  C   UNL     1       1.099  -9.567   9.351  1.00  0.00     0.029 A 
ATOM     66  C   UNL     1       0.393 -10.843   9.402  1.00  0.00     0.049 A 
ATOM     67  H   UNL     1       0.572 -12.444   8.082  1.00  0.00     0.167 HD
ATOM     68  C   UNL     1       0.909 -15.675   5.164  1.00  0.00     0.031 A 
ATOM     69  C   UNL     1      -0.508 -11.199  10.338  1.00  0.00     0.031 A 
ATOM     70  C   UNL     1      -0.019 -16.163   6.149  1.00  0.00     0.049 A 
ATOM     71  C   UNL     1      -1.146 -12.559  10.267  1.00  0.00     0.074 A 
ATOM     72  C   UNL     1      -0.649 -17.395   6.205  1.00  0.00     0.029 A 
ATOM     73  N   UNL     1      -0.440 -15.447   7.257  1.00  0.00    -0.354 N 
ATOM     74  N   UNL     1      -0.973 -13.510   9.382  1.00  0.00    -0.248 NA
ATOM     75  C   UNL     1      -2.093 -12.902  11.339  1.00  0.00     0.031 C 
ATOM     76  C   UNL     1      -1.475 -17.412   7.333  1.00  0.00     0.029 A 
ATOM     77  C   UNL     1      -1.321 -16.210   8.003  1.00  0.00     0.049 A 
ATOM     78  H   UNL     1      -0.155 -14.531   7.480  1.00  0.00     0.167 HD
ATOM     79  C   UNL     1      -1.757 -14.573   9.810  1.00  0.00     0.074 A 
ATOM     80  C   UNL     1      -2.396 -14.157  11.040  1.00  0.00     0.031 C 
ATOM     81  C   UNL     1      -1.932 -15.788   9.236  1.00  0.00     0.031 A 
BRANCH  68  82
ATOM     82  C   UNL     1       1.270 -16.578   4.018  1.00  0.00    -0.014 A 
ATOM     83  C   UNL     1       2.539 -17.175   3.944  1.00  0.00     0.009 A 
ATOM     84  C   UNL     1       0.321 -16.873   3.028  1.00  0.00     0.009 A 
ATOM     85  C   UNL     1       2.860 -18.026   2.885  1.00  0.00     0.001 A 
ATOM     86  C   UNL     1       0.635 -17.746   1.984  1.00  0.00     0.001 A 
ATOM     87  C   UNL     1       1.906 -18.315   1.909  1.00  0.00     0.000 A 
ENDBRANCH  68  82
BRANCH  69  88
ATOM     88  C   UNL     1      -0.862 -10.261  11.435  1.00  0.00    -0.014 A 
ATOM     89  C   UNL     1      -0.472 -10.528  12.757  1.00  0.00     0.009 A 
ATOM     90  C   UNL     1      -1.625  -9.113  11.173  1.00  0.00     0.009 A 
ATOM     91  C   UNL     1      -0.873  -9.687  13.798  1.00  0.00     0.001 A 
ATOM     92  C   UNL     1      -1.998  -8.257  12.212  1.00  0.00     0.001 A 
ATOM     93  C   UNL     1      -1.634  -8.552  13.524  1.00  0.00     0.000 A 
ENDBRANCH  69  88
BRANCH  81  94
ATOM     94  C   UNL     1      -2.800 -16.774   9.963  1.00  0.00    -0.014 A 
ATOM     95  C   UNL     1      -4.194 -16.627  10.013  1.00  0.00     0.009 A 
ATOM     96  C   UNL     1      -2.210 -17.890  10.579  1.00  0.00     0.009 A 
ATOM     97  C   UNL     1      -4.977 -17.559  10.698  1.00  0.00     0.001 A 
ATOM     98  C   UNL     1      -2.997 -18.834  11.238  1.00  0.00     0.001 A 
ATOM     99  C   UNL     1      -4.379 -18.663  11.306  1.00  0.00     0.000 A 
ENDBRANCH  81  94
ENDBRANCH  55  56
ENDBRANCH  47  50
ENDBRANCH  45  46
ENDBRANCH  44  45
ENDBRANCH  43  44
ENDBRANCH  42  43
ENDBRANCH  41  42
ENDBRANCH   1  41
TORSDOF 19
