REMARK SMILES CS(=O)(=O)c1ccc(/C=C(/C(=O)NCCCCCCNC(=O)c2ccc(-c3c4nc(c(-c5ccccc5)c5ccc([nH]5)c(-c5ccccc5)c5nc(c(-c6ccccc6)c6ccc3[nH]6)C=C5)C=C4)cc2)c2cccc(Br)c2)cc1
REMARK SMILES IDX 16 1 15 2 14 3 13 4 11 5 12 6 10 8 9 9 8 10 5 11 6 12 79 13
REMARK SMILES IDX 7 14 78 15 2 16 1 17 3 18 4 19 71 20 72 21 77 22 73 23 75 24
REMARK SMILES IDX 74 25 76 26 17 27 18 28 19 29 20 30 21 31 22 33 23 34 24 35
REMARK SMILES IDX 70 36 25 37 69 38 26 39 27 40 28 41 63 42 29 43 68 44 62 45
REMARK SMILES IDX 64 46 30 47 67 48 61 49 60 50 31 52 53 53 38 54 52 55 39 56
REMARK SMILES IDX 42 57 51 58 65 59 40 60 41 61 50 63 66 64 43 65 32 66 33 67
REMARK SMILES IDX 37 68 34 69 36 70 35 71 54 72 55 73 59 74 56 75 58 76 57 77
REMARK SMILES IDX 44 78 45 79 49 80 46 81 48 82 47 83
REMARK H PARENT 13 7 20 32 64 51 42 62
REMARK Flexibility Score: inf
ROOT
ATOM      1  C   UNL     1       5.082  -4.747  -9.104  1.00  0.00     0.002 C 
ENDROOT
BRANCH   1   2
ATOM      2  C   UNL     1       4.546  -4.217  -7.764  1.00  0.00     0.021 C 
BRANCH   2   3
ATOM      3  C   UNL     1       3.022  -4.314  -7.644  1.00  0.00     0.116 C 
BRANCH   3   4
ATOM      4  N   UNL     1       2.647  -5.701  -7.469  1.00  0.00    -0.352 N 
ATOM      5  C   UNL     1       2.247  -6.449  -6.411  1.00  0.00     0.251 C 
ATOM      6  O   UNL     1       2.135  -7.659  -6.626  1.00  0.00    -0.269 OA
ATOM      7  H   UNL     1       2.694  -6.217  -8.306  1.00  0.00     0.163 HD
BRANCH   5   8
ATOM      8  C   UNL     1       1.845  -5.866  -5.074  1.00  0.00     0.047 C 
ATOM      9  C   UNL     1       2.457  -4.784  -4.536  1.00  0.00     0.022 C 
BRANCH   9  10
ATOM     10  C   UNL     1       2.078  -3.998  -3.338  1.00  0.00    -0.025 A 
ATOM     11  C   UNL     1       1.119  -2.384  -1.242  1.00  0.00     0.067 A 
ATOM     12  C   UNL     1       1.212  -3.768  -1.078  1.00  0.00     0.021 A 
ATOM     13  C   UNL     1       1.565  -1.787  -2.420  1.00  0.00     0.021 A 
ATOM     14  C   UNL     1       1.716  -4.564  -2.111  1.00  0.00     0.009 A 
ATOM     15  C   UNL     1       2.040  -2.597  -3.460  1.00  0.00     0.009 A 
BRANCH  11  16
ATOM     16  S   UNL     1       0.402  -1.434   0.079  1.00  0.00     0.175 S 
ATOM     17  C   UNL     1       1.101   0.189  -0.009  1.00  0.00     0.163 C 
ATOM     18  O   UNL     1       0.873  -2.026   1.320  1.00  0.00    -0.224 OA
ATOM     19  O   UNL     1      -1.012  -1.327  -0.213  1.00  0.00    -0.224 OA
ENDBRANCH  11  16
ENDBRANCH   9  10
BRANCH   8  20
ATOM     20  C   UNL     1       0.851  -6.648  -4.293  1.00  0.00    -0.012 A 
ATOM     21  C   UNL     1       1.225  -7.924  -3.831  1.00  0.00     0.009 A 
ATOM     22  C   UNL     1      -0.397  -6.133  -3.924  1.00  0.00     0.024 A 
ATOM     23  C   UNL     1       0.388  -8.660  -2.994  1.00  0.00     0.002 A 
ATOM     24  C   UNL     1      -1.216  -6.863  -3.058  1.00  0.00     0.018 A 
ATOM     25  C   UNL     1      -0.829  -8.120  -2.592  1.00  0.00     0.016 A 
ATOM     26  Br  UNL     1      -2.844  -6.112  -2.458  1.00  0.00    -0.051 Br
ENDBRANCH   8  20
ENDBRANCH   5   8
ENDBRANCH   3   4
ENDBRANCH   2   3
ENDBRANCH   1   2
BRANCH   1  27
ATOM     27  C   UNL     1       4.543  -4.021 -10.342  1.00  0.00     0.002 C 
BRANCH  27  28
ATOM     28  C   UNL     1       4.717  -2.501 -10.314  1.00  0.00     0.021 C 
BRANCH  28  29
ATOM     29  C   UNL     1       6.168  -2.047 -10.211  1.00  0.00     0.116 C 
BRANCH  29  30
ATOM     30  N   UNL     1       6.931  -2.426 -11.388  1.00  0.00    -0.352 N 
ATOM     31  C   UNL     1       7.652  -1.636 -12.244  1.00  0.00     0.251 C 
ATOM     32  H   UNL     1       6.929  -3.387 -11.600  1.00  0.00     0.163 HD
ATOM     33  O   UNL     1       8.033  -2.081 -13.322  1.00  0.00    -0.269 OA
BRANCH  31  34
ATOM     34  C   UNL     1       7.968  -0.242 -11.869  1.00  0.00     0.039 A 
ATOM     35  C   UNL     1       7.887   0.755 -12.843  1.00  0.00     0.014 A 
ATOM     36  C   UNL     1       8.380   0.075 -10.570  1.00  0.00     0.014 A 
ATOM     37  C   UNL     1       8.194   2.074 -12.508  1.00  0.00     0.010 A 
ATOM     38  C   UNL     1       8.603   1.401 -10.217  1.00  0.00     0.010 A 
ATOM     39  C   UNL     1       8.539   2.410 -11.189  1.00  0.00    -0.014 A 
BRANCH  39  40
ATOM     40  C   UNL     1       8.882   3.806 -10.822  1.00  0.00     0.031 A 
ATOM     41  C   UNL     1      10.273   4.140 -10.352  1.00  0.00     0.074 A 
ATOM     42  C   UNL     1       7.940   4.766 -10.881  1.00  0.00     0.049 A 
ATOM     43  N   UNL     1      10.762   5.293  -9.971  1.00  0.00    -0.248 NA
ATOM     44  C   UNL     1      11.234   3.027 -10.274  1.00  0.00     0.031 C 
ATOM     45  C   UNL     1       6.548   4.564 -11.288  1.00  0.00     0.029 A 
ATOM     46  N   UNL     1       8.013   6.107 -10.600  1.00  0.00    -0.354 N 
ATOM     47  C   UNL     1      12.076   5.041  -9.598  1.00  0.00     0.074 A 
ATOM     48  C   UNL     1      12.291   3.618  -9.738  1.00  0.00     0.031 C 
ATOM     49  C   UNL     1       5.909   5.745 -11.266  1.00  0.00     0.029 A 
ATOM     50  C   UNL     1       6.832   6.777 -10.806  1.00  0.00     0.049 A 
ATOM     51  H   UNL     1       8.834   6.546 -10.281  1.00  0.00     0.167 HD
ATOM     52  C   UNL     1      13.029   5.916  -9.200  1.00  0.00     0.031 A 
ATOM     53  C   UNL     1       6.528   8.079 -10.643  1.00  0.00     0.031 A 
ATOM     54  C   UNL     1      12.818   7.333  -9.070  1.00  0.00     0.049 A 
ATOM     55  C   UNL     1       7.599   9.028 -10.180  1.00  0.00     0.074 A 
ATOM     56  C   UNL     1      13.730   8.312  -8.719  1.00  0.00     0.029 A 
ATOM     57  N   UNL     1      11.606   7.971  -9.284  1.00  0.00    -0.354 N 
ATOM     58  N   UNL     1       8.855   8.784  -9.894  1.00  0.00    -0.248 NA
ATOM     59  C   UNL     1       7.211  10.438 -10.033  1.00  0.00     0.031 C 
ATOM     60  C   UNL     1      13.056   9.536  -8.666  1.00  0.00     0.029 A 
ATOM     61  C   UNL     1      11.741   9.329  -9.050  1.00  0.00     0.049 A 
ATOM     62  H   UNL     1      10.774   7.526  -9.563  1.00  0.00     0.167 HD
ATOM     63  C   UNL     1       9.415  10.013  -9.569  1.00  0.00     0.074 A 
ATOM     64  C   UNL     1       8.365  11.001  -9.707  1.00  0.00     0.031 C 
ATOM     65  C   UNL     1      10.686  10.299  -9.193  1.00  0.00     0.031 A 
BRANCH  52  66
ATOM     66  C   UNL     1      14.387   5.358  -8.866  1.00  0.00    -0.014 A 
ATOM     67  C   UNL     1      15.220   4.821  -9.861  1.00  0.00     0.009 A 
ATOM     68  C   UNL     1      14.851   5.394  -7.542  1.00  0.00     0.009 A 
ATOM     69  C   UNL     1      16.470   4.292  -9.530  1.00  0.00     0.001 A 
ATOM     70  C   UNL     1      16.115   4.896  -7.219  1.00  0.00     0.001 A 
ATOM     71  C   UNL     1      16.918   4.335  -8.211  1.00  0.00     0.000 A 
ENDBRANCH  52  66
BRANCH  53  72
ATOM     72  C   UNL     1       5.156   8.568 -10.939  1.00  0.00    -0.014 A 
ATOM     73  C   UNL     1       4.920   9.409 -12.038  1.00  0.00     0.009 A 
ATOM     74  C   UNL     1       4.076   8.206 -10.119  1.00  0.00     0.009 A 
ATOM     75  C   UNL     1       3.638   9.905 -12.289  1.00  0.00     0.001 A 
ATOM     76  C   UNL     1       2.789   8.677 -10.391  1.00  0.00     0.001 A 
ATOM     77  C   UNL     1       2.574   9.535 -11.468  1.00  0.00     0.000 A 
ENDBRANCH  53  72
BRANCH  65  78
ATOM     78  C   UNL     1      11.024  11.744  -8.951  1.00  0.00    -0.014 A 
ATOM     79  C   UNL     1      10.525  12.439  -7.838  1.00  0.00     0.009 A 
ATOM     80  C   UNL     1      11.888  12.409  -9.836  1.00  0.00     0.009 A 
ATOM     81  C   UNL     1      10.854  13.782  -7.639  1.00  0.00     0.001 A 
ATOM     82  C   UNL     1      12.242  13.741  -9.616  1.00  0.00     0.001 A 
ATOM     83  C   UNL     1      11.715  14.429  -8.525  1.00  0.00     0.000 A 
ENDBRANCH  65  78
ENDBRANCH  39  40
ENDBRANCH  31  34
ENDBRANCH  29  30
ENDBRANCH  28  29
ENDBRANCH  27  28
ENDBRANCH   1  27
TORSDOF 16
