REMARK SMILES Cc1cc(OCC(=O)N[C@@H](Cc2ccc(Cl)cc2)C(=O)NCCCCCCNC(=O)c2ccc(-c3c4nc(c(-c5ccccc5)c5ccc([nH]5)c(-c5ccccc5)c5nc(c(-c6ccccc6)c6ccc3[nH]6)C=C5)C=C4)cc2)c2c(C)c(C)c(=O)oc2c1
REMARK SMILES IDX 23 1 22 2 21 3 19 4 20 5 10 7 9 8 7 9 8 10 6 12 5 13 4 14
REMARK SMILES IDX 1 15 2 16 3 17 88 18 87 19 79 20 86 21 80 22 84 23 81 24
REMARK SMILES IDX 82 25 85 26 83 27 11 28 12 29 13 30 18 31 14 32 17 33 15 34
REMARK SMILES IDX 16 35 24 36 25 37 26 38 27 39 28 40 29 41 30 43 31 44 32 45
REMARK SMILES IDX 78 46 33 47 77 48 34 49 35 50 36 51 71 52 37 53 76 54 70 55
REMARK SMILES IDX 72 56 38 57 75 58 69 59 68 60 39 62 61 63 46 64 60 65 47 66
REMARK SMILES IDX 50 67 59 68 73 69 48 70 49 71 58 73 74 74 51 75 40 76 41 77
REMARK SMILES IDX 45 78 42 79 44 80 43 81 62 82 63 83 67 84 64 85 66 86 65 87
REMARK SMILES IDX 52 88 53 89 57 90 54 91 56 92 55 93
REMARK H PARENT 21 6 9 11 28 42 72 61 50 72
REMARK Flexibility Score: inf
ROOT
ATOM      1  C   UNL     1      -7.758  -0.087  -1.356  1.00  0.00     0.021 C 
ENDROOT
BRANCH   1   2
ATOM      2  C   UNL     1      -7.045  -1.429  -1.343  1.00  0.00     0.116 C 
BRANCH   2   3
ATOM      3  N   UNL     1      -6.862  -2.021  -2.647  1.00  0.00    -0.354 N 
ATOM      4  C   UNL     1      -5.776  -2.672  -3.155  1.00  0.00     0.242 C 
ATOM      5  O   UNL     1      -5.967  -3.402  -4.135  1.00  0.00    -0.273 OA
ATOM      6  H   UNL     1      -7.630  -1.943  -3.257  1.00  0.00     0.163 HD
BRANCH   4   7
ATOM      7  C   UNL     1      -4.365  -2.592  -2.520  1.00  0.00     0.175 C 
BRANCH   7   8
ATOM      8  N   UNL     1      -3.943  -1.215  -2.246  1.00  0.00    -0.341 N 
ATOM      9  C   UNL     1      -2.978  -0.474  -2.858  1.00  0.00     0.258 C 
ATOM     10  O   UNL     1      -2.904   0.724  -2.574  1.00  0.00    -0.271 OA
ATOM     11  H   UNL     1      -4.424  -0.762  -1.516  1.00  0.00     0.164 HD
BRANCH   9  12
ATOM     12  C   UNL     1      -2.025  -1.110  -3.876  1.00  0.00     0.329 C 
BRANCH  12  13
ATOM     13  O   UNL     1      -1.370  -2.311  -3.504  1.00  0.00    -0.483 OA
BRANCH  13  14
ATOM     14  C   UNL     1      -0.541  -2.351  -2.417  1.00  0.00     0.131 A 
ATOM     15  C   UNL     1       1.133   0.056   0.049  1.00  0.00     0.044 C 
ATOM     16  C   UNL     1       0.710  -1.203  -0.647  1.00  0.00    -0.044 A 
ATOM     17  C   UNL     1      -0.112  -1.169  -1.775  1.00  0.00     0.050 A 
ATOM     18  C   UNL     1       1.126  -2.438  -0.174  1.00  0.00     0.051 A 
ATOM     19  C   UNL     1       0.724  -3.607  -0.830  1.00  0.00     0.142 A 
ATOM     20  C   UNL     1      -0.113  -3.623  -1.954  1.00  0.00     0.063 A 
ATOM     21  O   UNL     1       1.245  -4.780  -0.257  1.00  0.00    -0.422 OA
ATOM     22  C   UNL     1      -0.455  -4.966  -2.519  1.00  0.00    -0.026 A 
ATOM     23  C   UNL     1       0.998  -6.022  -0.793  1.00  0.00     0.339 A 
ATOM     24  C   UNL     1      -1.385  -5.147  -3.695  1.00  0.00     0.046 C 
ATOM     25  C   UNL     1       0.089  -6.076  -1.964  1.00  0.00     0.038 A 
ATOM     26  O   UNL     1       1.496  -7.032  -0.308  1.00  0.00    -0.246 OA
ATOM     27  C   UNL     1      -0.136  -7.492  -2.440  1.00  0.00     0.052 C 
ENDBRANCH  13  14
ENDBRANCH  12  13
ENDBRANCH   9  12
ENDBRANCH   7   8
BRANCH   7  28
ATOM     28  C   UNL     1      -4.112  -3.589  -1.363  1.00  0.00     0.070 C 
BRANCH  28  29
ATOM     29  C   UNL     1      -4.833  -3.392  -0.048  1.00  0.00    -0.045 A 
ATOM     30  C   UNL     1      -5.848  -4.281   0.343  1.00  0.00     0.005 A 
ATOM     31  C   UNL     1      -4.509  -2.324   0.805  1.00  0.00     0.005 A 
ATOM     32  C   UNL     1      -6.565  -4.071   1.524  1.00  0.00     0.021 A 
ATOM     33  C   UNL     1      -5.245  -2.098   1.973  1.00  0.00     0.021 A 
ATOM     34  C   UNL     1      -6.275  -2.968   2.323  1.00  0.00     0.041 A 
ATOM     35  Cl  UNL     1      -7.211  -2.662   3.735  1.00  0.00    -0.084 Cl
ENDBRANCH  28  29
ENDBRANCH   7  28
ENDBRANCH   4   7
ENDBRANCH   2   3
ENDBRANCH   1   2
BRANCH   1  36
ATOM     36  C   UNL     1      -9.281  -0.168  -1.461  1.00  0.00     0.002 C 
BRANCH  36  37
ATOM     37  C   UNL     1      -9.978  -1.071  -0.435  1.00  0.00     0.002 C 
BRANCH  37  38
ATOM     38  C   UNL     1      -9.580  -0.859   1.027  1.00  0.00     0.021 C 
BRANCH  38  39
ATOM     39  C   UNL     1      -9.794   0.551   1.562  1.00  0.00     0.116 C 
BRANCH  39  40
ATOM     40  N   UNL     1     -11.189   0.956   1.545  1.00  0.00    -0.352 N 
ATOM     41  C   UNL     1     -11.987   1.425   2.563  1.00  0.00     0.251 C 
ATOM     42  H   UNL     1     -11.633   0.883   0.669  1.00  0.00     0.163 HD
ATOM     43  O   UNL     1     -13.188   1.572   2.381  1.00  0.00    -0.269 OA
BRANCH  41  44
ATOM     44  C   UNL     1     -11.399   1.721   3.890  1.00  0.00     0.039 A 
ATOM     45  C   UNL     1     -10.171   2.372   4.006  1.00  0.00     0.014 A 
ATOM     46  C   UNL     1     -12.095   1.337   5.040  1.00  0.00     0.014 A 
ATOM     47  C   UNL     1      -9.558   2.476   5.250  1.00  0.00     0.010 A 
ATOM     48  C   UNL     1     -11.521   1.533   6.300  1.00  0.00     0.010 A 
ATOM     49  C   UNL     1     -10.225   2.059   6.413  1.00  0.00    -0.014 A 
BRANCH  49  50
ATOM     50  C   UNL     1      -9.552   2.191   7.733  1.00  0.00     0.031 A 
ATOM     51  C   UNL     1      -9.226   0.975   8.559  1.00  0.00     0.074 A 
ATOM     52  C   UNL     1      -9.188   3.414   8.167  1.00  0.00     0.049 A 
ATOM     53  N   UNL     1      -8.625   0.910   9.721  1.00  0.00    -0.248 NA
ATOM     54  C   UNL     1      -9.624  -0.335   8.019  1.00  0.00     0.031 C 
ATOM     55  C   UNL     1      -9.429   4.667   7.447  1.00  0.00     0.029 A 
ATOM     56  N   UNL     1      -8.515   3.805   9.297  1.00  0.00    -0.354 N 
ATOM     57  C   UNL     1      -8.590  -0.438  10.057  1.00  0.00     0.074 A 
ATOM     58  C   UNL     1      -9.260  -1.155   8.995  1.00  0.00     0.031 C 
ATOM     59  C   UNL     1      -8.858   5.676   8.120  1.00  0.00     0.029 A 
ATOM     60  C   UNL     1      -8.280   5.158   9.356  1.00  0.00     0.049 A 
ATOM     61  H   UNL     1      -8.228   3.177   9.999  1.00  0.00     0.167 HD
ATOM     62  C   UNL     1      -8.037  -1.024  11.146  1.00  0.00     0.031 A 
ATOM     63  C   UNL     1      -7.680   5.909  10.300  1.00  0.00     0.031 A 
ATOM     64  C   UNL     1      -7.357  -0.307  12.192  1.00  0.00     0.049 A 
ATOM     65  C   UNL     1      -7.125   5.240  11.524  1.00  0.00     0.074 A 
ATOM     66  C   UNL     1      -6.739  -0.822  13.320  1.00  0.00     0.029 A 
ATOM     67  N   UNL     1      -7.201   1.069  12.243  1.00  0.00    -0.354 N 
ATOM     68  N   UNL     1      -7.086   3.963  11.816  1.00  0.00    -0.248 NA
ATOM     69  C   UNL     1      -6.533   6.111  12.549  1.00  0.00     0.031 C 
ATOM     70  C   UNL     1      -6.277   0.246  14.089  1.00  0.00     0.029 A 
ATOM     71  C   UNL     1      -6.528   1.423  13.401  1.00  0.00     0.049 A 
ATOM     72  H   UNL     1      -7.520   1.701  11.559  1.00  0.00     0.167 HD
ATOM     73  C   UNL     1      -6.449   3.874  13.047  1.00  0.00     0.074 A 
ATOM     74  C   UNL     1      -6.101   5.224  13.437  1.00  0.00     0.031 C 
ATOM     75  C   UNL     1      -6.183   2.769  13.785  1.00  0.00     0.031 A 
BRANCH  62  76
ATOM     76  C   UNL     1      -8.142  -2.520  11.284  1.00  0.00    -0.014 A 
ATOM     77  C   UNL     1      -8.896  -3.070  12.334  1.00  0.00     0.009 A 
ATOM     78  C   UNL     1      -7.408  -3.383  10.455  1.00  0.00     0.009 A 
ATOM     79  C   UNL     1      -8.895  -4.447  12.566  1.00  0.00     0.001 A 
ATOM     80  C   UNL     1      -7.436  -4.763  10.669  1.00  0.00     0.001 A 
ATOM     81  C   UNL     1      -8.168  -5.293  11.731  1.00  0.00     0.000 A 
ENDBRANCH  62  76
BRANCH  63  82
ATOM     82  C   UNL     1      -7.573   7.380  10.100  1.00  0.00    -0.014 A 
ATOM     83  C   UNL     1      -8.726   8.183  10.067  1.00  0.00     0.009 A 
ATOM     84  C   UNL     1      -6.326   7.981   9.873  1.00  0.00     0.009 A 
ATOM     85  C   UNL     1      -8.637   9.545   9.775  1.00  0.00     0.001 A 
ATOM     86  C   UNL     1      -6.237   9.352   9.617  1.00  0.00     0.001 A 
ATOM     87  C   UNL     1      -7.393  10.129   9.554  1.00  0.00     0.000 A 
ENDBRANCH  63  82
BRANCH  75  88
ATOM     88  C   UNL     1      -5.464   2.948  15.094  1.00  0.00    -0.014 A 
ATOM     89  C   UNL     1      -4.167   2.429  15.252  1.00  0.00     0.009 A 
ATOM     90  C   UNL     1      -6.106   3.516  16.204  1.00  0.00     0.009 A 
ATOM     91  C   UNL     1      -3.539   2.453  16.498  1.00  0.00     0.001 A 
ATOM     92  C   UNL     1      -5.462   3.569  17.442  1.00  0.00     0.001 A 
ATOM     93  C   UNL     1      -4.186   3.026  17.591  1.00  0.00     0.000 A 
ENDBRANCH  75  88
ENDBRANCH  49  50
ENDBRANCH  41  44
ENDBRANCH  39  40
ENDBRANCH  38  39
ENDBRANCH  37  38
ENDBRANCH  36  37
ENDBRANCH   1  36
TORSDOF 19
