REMARK SMILES CN(C(=O)C[C@@H]1SC(=O)N(c2ccccc2)C1=O)c1ccccc1C(=O)NCCCCCCNC(=O)c1ccc(-c2c3nc(c(-c4ccccc4)c4ccc([nH]4)c(-c4ccccc4)c4nc(c(-c5ccccc5)c5ccc2[nH]5)C=C4)C=C3)cc1
REMARK SMILES IDX 29 1 28 2 27 3 25 4 26 5 24 7 19 8 20 9 21 10 23 11 22 12
REMARK SMILES IDX 2 13 1 14 3 15 4 16 5 17 6 18 7 19 17 20 8 21 10 22 18 23
REMARK SMILES IDX 9 24 11 25 12 26 16 27 13 28 15 29 14 30 30 31 31 32 32 33
REMARK SMILES IDX 33 34 34 35 35 36 36 38 37 39 38 40 84 41 39 42 83 43 40 44
REMARK SMILES IDX 41 45 42 46 77 47 43 48 82 49 76 50 78 51 44 52 81 53 75 54
REMARK SMILES IDX 74 55 45 57 67 58 52 59 66 60 53 61 56 62 65 63 79 64 54 65
REMARK SMILES IDX 55 66 64 68 80 69 57 70 46 71 47 72 51 73 48 74 50 75 49 76
REMARK SMILES IDX 68 77 69 78 73 79 70 80 72 81 71 82 58 83 59 84 63 85 60 86
REMARK SMILES IDX 62 87 61 88
REMARK H PARENT 27 6 34 37 78 56 56 67
REMARK Flexibility Score: inf
ROOT
ATOM      1  C   UNL     1       1.577  -0.224  -1.333  1.00  0.00     0.021 C 
ENDROOT
BRANCH   1   2
ATOM      2  C   UNL     1       2.269  -1.207  -0.391  1.00  0.00     0.116 C 
BRANCH   2   3
ATOM      3  N   UNL     1       3.236  -0.525   0.441  1.00  0.00    -0.352 N 
ATOM      4  C   UNL     1       3.228  -0.121   1.752  1.00  0.00     0.253 C 
ATOM      5  O   UNL     1       4.290   0.339   2.183  1.00  0.00    -0.269 OA
ATOM      6  H   UNL     1       4.072  -0.304  -0.031  1.00  0.00     0.163 HD
BRANCH   4   7
ATOM      7  C   UNL     1       2.109  -0.313   2.723  1.00  0.00     0.063 A 
ATOM      8  C   UNL     1       0.741  -0.006   2.577  1.00  0.00     0.056 A 
ATOM      9  C   UNL     1      -0.120  -0.154   3.690  1.00  0.00     0.027 A 
ATOM     10  C   UNL     1       0.348  -0.580   4.931  1.00  0.00     0.002 A 
ATOM     11  C   UNL     1       2.551  -0.769   3.989  1.00  0.00     0.016 A 
ATOM     12  C   UNL     1       1.687  -0.895   5.080  1.00  0.00     0.001 A 
BRANCH   8  13
ATOM     13  N   UNL     1       0.141   0.600   1.429  1.00  0.00    -0.315 N 
ATOM     14  C   UNL     1      -0.985  -0.145   0.850  1.00  0.00     0.153 C 
BRANCH  13  15
ATOM     15  C   UNL     1       0.427   1.945   1.192  1.00  0.00     0.228 C 
ATOM     16  O   UNL     1       1.218   2.589   1.881  1.00  0.00    -0.274 OA
BRANCH  15  17
ATOM     17  C   UNL     1      -0.330   2.648   0.075  1.00  0.00     0.125 C 
BRANCH  17  18
ATOM     18  C   UNL     1       0.379   3.875  -0.498  1.00  0.00     0.156 C 
ATOM     19  S   UNL     1       1.863   3.432  -1.418  1.00  0.00    -0.050 SA
ATOM     20  C   UNL     1       0.831   4.940   0.488  1.00  0.00     0.248 C 
ATOM     21  C   UNL     1       2.887   4.057  -0.154  1.00  0.00     0.293 C 
ATOM     22  N   UNL     1       2.217   5.072   0.492  1.00  0.00    -0.240 N 
ATOM     23  O   UNL     1      -0.008   5.597   1.100  1.00  0.00    -0.273 OA
ATOM     24  O   UNL     1       4.000   3.607   0.016  1.00  0.00    -0.261 OA
BRANCH  22  25
ATOM     25  C   UNL     1       2.930   6.190   1.028  1.00  0.00     0.053 A 
ATOM     26  C   UNL     1       2.315   7.175   1.810  1.00  0.00     0.027 A 
ATOM     27  C   UNL     1       4.264   6.422   0.635  1.00  0.00     0.027 A 
ATOM     28  C   UNL     1       2.981   8.366   2.126  1.00  0.00     0.002 A 
ATOM     29  C   UNL     1       4.928   7.609   0.943  1.00  0.00     0.002 A 
ATOM     30  C   UNL     1       4.279   8.591   1.676  1.00  0.00     0.000 A 
ENDBRANCH  22  25
ENDBRANCH  17  18
ENDBRANCH  15  17
ENDBRANCH  13  15
ENDBRANCH   8  13
ENDBRANCH   4   7
ENDBRANCH   2   3
ENDBRANCH   1   2
BRANCH   1  31
ATOM     31  C   UNL     1       2.184  -0.067  -2.734  1.00  0.00     0.002 C 
BRANCH  31  32
ATOM     32  C   UNL     1       1.254  -0.541  -3.861  1.00  0.00     0.002 C 
BRANCH  32  33
ATOM     33  C   UNL     1      -0.129   0.127  -3.956  1.00  0.00     0.021 C 
BRANCH  33  34
ATOM     34  C   UNL     1      -0.143   1.637  -4.177  1.00  0.00     0.116 C 
BRANCH  34  35
ATOM     35  N   UNL     1       0.454   2.037  -5.436  1.00  0.00    -0.352 N 
ATOM     36  C   UNL     1      -0.120   2.596  -6.551  1.00  0.00     0.251 C 
ATOM     37  H   UNL     1       1.424   1.885  -5.502  1.00  0.00     0.163 HD
ATOM     38  O   UNL     1       0.530   2.709  -7.586  1.00  0.00    -0.269 OA
BRANCH  36  39
ATOM     39  C   UNL     1      -1.530   3.046  -6.529  1.00  0.00     0.039 A 
ATOM     40  C   UNL     1      -2.368   2.666  -7.582  1.00  0.00     0.014 A 
ATOM     41  C   UNL     1      -2.017   3.874  -5.514  1.00  0.00     0.014 A 
ATOM     42  C   UNL     1      -3.708   3.062  -7.585  1.00  0.00     0.010 A 
ATOM     43  C   UNL     1      -3.369   4.223  -5.489  1.00  0.00     0.010 A 
ATOM     44  C   UNL     1      -4.229   3.819  -6.522  1.00  0.00    -0.014 A 
BRANCH  44  45
ATOM     45  C   UNL     1      -5.672   4.176  -6.479  1.00  0.00     0.031 A 
ATOM     46  C   UNL     1      -6.113   5.609  -6.592  1.00  0.00     0.074 A 
ATOM     47  C   UNL     1      -6.591   3.208  -6.293  1.00  0.00     0.049 A 
ATOM     48  N   UNL     1      -7.325   6.105  -6.548  1.00  0.00    -0.248 NA
ATOM     49  C   UNL     1      -5.056   6.619  -6.758  1.00  0.00     0.031 C 
ATOM     50  C   UNL     1      -6.300   1.781  -6.137  1.00  0.00     0.029 A 
ATOM     51  N   UNL     1      -7.960   3.278  -6.200  1.00  0.00    -0.354 N 
ATOM     52  C   UNL     1      -7.176   7.482  -6.667  1.00  0.00     0.074 A 
ATOM     53  C   UNL     1      -5.754   7.745  -6.740  1.00  0.00     0.031 C 
ATOM     54  C   UNL     1      -7.454   1.110  -5.995  1.00  0.00     0.029 A 
ATOM     55  C   UNL     1      -8.563   2.058  -6.013  1.00  0.00     0.049 A 
ATOM     56  H   UNL     1      -8.461   4.123  -6.263  1.00  0.00     0.167 HD
ATOM     57  C   UNL     1      -8.133   8.439  -6.725  1.00  0.00     0.031 A 
ATOM     58  C   UNL     1      -9.862   1.736  -5.868  1.00  0.00     0.031 A 
ATOM     59  C   UNL     1      -9.547   8.182  -6.661  1.00  0.00     0.049 A 
ATOM     60  C   UNL     1     -10.904   2.818  -5.920  1.00  0.00     0.074 A 
ATOM     61  C   UNL     1     -10.593   9.084  -6.767  1.00  0.00     0.029 A 
ATOM     62  N   UNL     1     -10.115   6.933  -6.469  1.00  0.00    -0.354 N 
ATOM     63  N   UNL     1     -10.746   4.107  -6.100  1.00  0.00    -0.248 NA
ATOM     64  C   UNL     1     -12.303   2.397  -5.762  1.00  0.00     0.031 C 
ATOM     65  C   UNL     1     -11.793   8.387  -6.590  1.00  0.00     0.029 A 
ATOM     66  C   UNL     1     -11.495   7.043  -6.428  1.00  0.00     0.049 A 
ATOM     67  H   UNL     1      -9.612   6.092  -6.376  1.00  0.00     0.167 HD
ATOM     68  C   UNL     1     -12.026   4.647  -6.103  1.00  0.00     0.074 A 
ATOM     69  C   UNL     1     -12.948   3.545  -5.923  1.00  0.00     0.031 C 
ATOM     70  C   UNL     1     -12.403   5.941  -6.246  1.00  0.00     0.031 A 
BRANCH  57  71
ATOM     71  C   UNL     1      -7.676   9.866  -6.858  1.00  0.00    -0.014 A 
ATOM     72  C   UNL     1      -7.112  10.341  -8.053  1.00  0.00     0.009 A 
ATOM     73  C   UNL     1      -7.848  10.758  -5.788  1.00  0.00     0.009 A 
ATOM     74  C   UNL     1      -6.694  11.670  -8.159  1.00  0.00     0.001 A 
ATOM     75  C   UNL     1      -7.457  12.092  -5.907  1.00  0.00     0.001 A 
ATOM     76  C   UNL     1      -6.871  12.545  -7.088  1.00  0.00     0.000 A 
ENDBRANCH  57  71
BRANCH  58  77
ATOM     77  C   UNL     1     -10.259   0.317  -5.673  1.00  0.00    -0.014 A 
ATOM     78  C   UNL     1     -10.921  -0.384  -6.693  1.00  0.00     0.009 A 
ATOM     79  C   UNL     1      -9.986  -0.342  -4.464  1.00  0.00     0.009 A 
ATOM     80  C   UNL     1     -11.324  -1.706  -6.497  1.00  0.00     0.001 A 
ATOM     81  C   UNL     1     -10.365  -1.673  -4.281  1.00  0.00     0.001 A 
ATOM     82  C   UNL     1     -11.042  -2.351  -5.293  1.00  0.00     0.000 A 
ENDBRANCH  58  77
BRANCH  70  83
ATOM     83  C   UNL     1     -13.877   6.232  -6.245  1.00  0.00    -0.014 A 
ATOM     84  C   UNL     1     -14.633   6.167  -5.064  1.00  0.00     0.009 A 
ATOM     85  C   UNL     1     -14.510   6.615  -7.438  1.00  0.00     0.009 A 
ATOM     86  C   UNL     1     -16.000   6.449  -5.085  1.00  0.00     0.001 A 
ATOM     87  C   UNL     1     -15.871   6.924  -7.450  1.00  0.00     0.001 A 
ATOM     88  C   UNL     1     -16.616   6.832  -6.276  1.00  0.00     0.000 A 
ENDBRANCH  70  83
ENDBRANCH  44  45
ENDBRANCH  36  39
ENDBRANCH  34  35
ENDBRANCH  33  34
ENDBRANCH  32  33
ENDBRANCH  31  32
ENDBRANCH   1  31
TORSDOF 18
