REMARK SMILES CCOc1ccc(C(=O)NC(=S)Nc2cccc(C(=O)NCCCCCCNC(=O)c3ccc(-c4c5nc(c(-c6ccccc6)c6ccc([nH]6)c(-c6ccccc6)c6nc(c(-c7ccccc7)c7ccc4[nH]7)C=C6)C=C5)cc3)c2C)cc1Br
REMARK SMILES IDX 22 1 21 2 19 3 20 4 18 6 14 7 15 8 79 9 16 10 80 11 17 12
REMARK SMILES IDX 13 13 11 15 12 16 10 17 8 18 9 19 7 21 4 22 5 23 82 24 6 25
REMARK SMILES IDX 81 26 83 27 3 28 2 29 1 30 23 31 24 32 25 33 26 34 27 35
REMARK SMILES IDX 28 36 29 37 30 39 31 40 32 41 78 42 33 43 77 44 34 45 35 46
REMARK SMILES IDX 36 47 71 48 37 49 76 50 70 51 72 52 38 53 75 54 69 55 68 56
REMARK SMILES IDX 39 58 61 59 46 60 60 61 47 62 50 63 59 64 73 65 48 66 49 67
REMARK SMILES IDX 58 69 74 70 51 71 40 72 41 73 45 74 42 75 44 76 43 77 62 78
REMARK SMILES IDX 63 79 67 80 64 81 66 82 65 83 52 84 53 85 57 86 54 87 56 88
REMARK SMILES IDX 55 89
REMARK H PARENT 21 5 13 14 10 20 28 38 72 57 50 68
REMARK Flexibility Score: inf
ROOT
ATOM      1  C   UNL     1       1.061   2.024  -4.504  1.00  0.00     0.116 C 
ENDROOT
BRANCH   1   2
ATOM      2  N   UNL     1       1.332   2.605  -3.168  1.00  0.00    -0.352 N 
ATOM      3  C   UNL     1       2.220   2.420  -2.096  1.00  0.00     0.251 C 
ATOM      4  O   UNL     1       2.205   3.272  -1.208  1.00  0.00    -0.269 OA
ATOM      5  H   UNL     1       0.704   3.337  -2.975  1.00  0.00     0.163 HD
BRANCH   3   6
ATOM      6  C   UNL     1       3.111   1.226  -1.899  1.00  0.00     0.044 A 
ATOM      7  C   UNL     1       4.732  -0.971  -0.249  1.00  0.00     0.044 A 
ATOM      8  C   UNL     1       4.687  -2.201  -1.522  1.00  0.00     0.026 A 
ATOM      9  C   UNL     1       3.840   0.624  -0.371  1.00  0.00    -0.015 A 
ATOM     10  C   UNL     1       3.949  -1.739  -3.046  1.00  0.00     0.003 A 
ATOM     11  C   UNL     1       3.796   1.483   0.856  1.00  0.00     0.047 C 
ATOM     12  C   UNL     1       3.236   0.138  -3.279  1.00  0.00     0.014 A 
BRANCH   7  13
ATOM     13  N   UNL     1       6.121  -0.834   0.090  1.00  0.00    -0.332 N 
ATOM     14  H   UNL     1       6.310  -0.544   1.012  1.00  0.00     0.169 HD
BRANCH  13  15
ATOM     15  C   UNL     1       7.231  -1.057  -0.712  1.00  0.00     0.177 C 
ATOM     16  S   UNL     1       8.664  -1.429   0.081  1.00  0.00    -0.040 S 
BRANCH  15  17
ATOM     17  N   UNL     1       7.308  -0.929  -2.162  1.00  0.00    -0.299 N 
ATOM     18  C   UNL     1       6.773  -0.639  -3.557  1.00  0.00     0.257 C 
ATOM     19  O   UNL     1       7.524  -0.735  -4.524  1.00  0.00    -0.269 OA
ATOM     20  H   UNL     1       8.247  -1.165  -2.343  1.00  0.00     0.172 HD
BRANCH  18  21
ATOM     21  C   UNL     1       5.330  -0.295  -3.783  1.00  0.00     0.041 A 
ATOM     22  C   UNL     1       1.797  -1.370  -3.014  1.00  0.00     0.133 A 
ATOM     23  C   UNL     1       2.474  -1.344  -4.675  1.00  0.00     0.048 A 
ATOM     24  C   UNL     1       2.885  -0.901  -1.682  1.00  0.00     0.060 A 
ATOM     25  C   UNL     1       4.197  -0.862  -5.044  1.00  0.00     0.018 A 
ATOM     26  C   UNL     1       4.713  -0.200  -2.181  1.00  0.00     0.033 A 
ATOM     27  Br  UNL     1       2.252  -2.249  -0.087  1.00  0.00    -0.047 Br
BRANCH  22  28
ATOM     28  O   UNL     1       0.453  -1.465  -2.703  1.00  0.00    -0.493 OA
BRANCH  28  29
ATOM     29  C   UNL     1      -0.096  -0.344  -1.933  1.00  0.00     0.226 C 
ATOM     30  C   UNL     1      -0.005  -0.222  -0.410  1.00  0.00     0.049 C 
ENDBRANCH  28  29
ENDBRANCH  22  28
ENDBRANCH  18  21
ENDBRANCH  15  17
ENDBRANCH  13  15
ENDBRANCH   7  13
ENDBRANCH   3   6
ENDBRANCH   1   2
BRANCH   1  31
ATOM     31  C   UNL     1      -0.322   1.416  -4.793  1.00  0.00     0.021 C 
BRANCH  31  32
ATOM     32  C   UNL     1      -1.420   2.405  -5.139  1.00  0.00     0.002 C 
BRANCH  32  33
ATOM     33  C   UNL     1      -1.053   3.363  -6.271  1.00  0.00     0.002 C 
BRANCH  33  34
ATOM     34  C   UNL     1      -0.521   2.689  -7.535  1.00  0.00     0.021 C 
BRANCH  34  35
ATOM     35  C   UNL     1      -1.563   1.872  -8.268  1.00  0.00     0.116 C 
BRANCH  35  36
ATOM     36  N   UNL     1      -2.506   2.730  -8.959  1.00  0.00    -0.352 N 
ATOM     37  C   UNL     1      -3.109   2.559 -10.187  1.00  0.00     0.251 C 
ATOM     38  H   UNL     1      -2.751   3.555  -8.482  1.00  0.00     0.163 HD
ATOM     39  O   UNL     1      -3.493   3.548 -10.806  1.00  0.00    -0.269 OA
BRANCH  37  40
ATOM     40  C   UNL     1      -3.542   1.195 -10.618  1.00  0.00     0.039 A 
ATOM     41  C   UNL     1      -4.872   1.173 -11.071  1.00  0.00     0.014 A 
ATOM     42  C   UNL     1      -3.034   0.095  -9.948  1.00  0.00     0.014 A 
ATOM     43  C   UNL     1      -5.762   0.301 -10.475  1.00  0.00     0.010 A 
ATOM     44  C   UNL     1      -3.912  -0.616  -9.191  1.00  0.00     0.010 A 
ATOM     45  C   UNL     1      -5.278  -0.447  -9.416  1.00  0.00    -0.014 A 
BRANCH  45  46
ATOM     46  C   UNL     1      -6.055  -1.340  -8.601  1.00  0.00     0.031 A 
ATOM     47  C   UNL     1      -6.125  -2.687  -9.197  1.00  0.00     0.074 A 
ATOM     48  C   UNL     1      -6.266  -0.894  -7.337  1.00  0.00     0.049 A 
ATOM     49  N   UNL     1      -6.874  -3.630  -8.789  1.00  0.00    -0.248 NA
ATOM     50  C   UNL     1      -5.332  -3.100 -10.375  1.00  0.00     0.031 C 
ATOM     51  C   UNL     1      -6.619  -1.566  -6.091  1.00  0.00     0.029 A 
ATOM     52  N   UNL     1      -6.403   0.461  -6.997  1.00  0.00    -0.354 N 
ATOM     53  C   UNL     1      -6.331  -4.802  -9.276  1.00  0.00     0.074 A 
ATOM     54  C   UNL     1      -5.508  -4.425 -10.386  1.00  0.00     0.031 C 
ATOM     55  C   UNL     1      -7.299  -0.700  -5.306  1.00  0.00     0.029 A 
ATOM     56  C   UNL     1      -7.468   0.524  -6.074  1.00  0.00     0.049 A 
ATOM     57  H   UNL     1      -5.866   1.214  -7.333  1.00  0.00     0.167 HD
ATOM     58  C   UNL     1      -6.503  -5.915  -8.517  1.00  0.00     0.031 A 
ATOM     59  C   UNL     1      -8.665   1.011  -6.525  1.00  0.00     0.031 A 
ATOM     60  C   UNL     1      -7.368  -5.572  -7.384  1.00  0.00     0.049 A 
ATOM     61  C   UNL     1      -9.652  -0.133  -6.693  1.00  0.00     0.074 A 
ATOM     62  C   UNL     1      -7.095  -5.228  -6.072  1.00  0.00     0.029 A 
ATOM     63  N   UNL     1      -8.622  -5.047  -7.674  1.00  0.00    -0.354 N 
ATOM     64  N   UNL     1      -9.326  -1.374  -6.970  1.00  0.00    -0.248 NA
ATOM     65  C   UNL     1     -11.067   0.021  -6.385  1.00  0.00     0.031 C 
ATOM     66  C   UNL     1      -8.171  -4.399  -5.617  1.00  0.00     0.029 A 
ATOM     67  C   UNL     1      -9.083  -4.239  -6.650  1.00  0.00     0.049 A 
ATOM     68  H   UNL     1      -9.120  -5.227  -8.504  1.00  0.00     0.167 HD
ATOM     69  C   UNL     1     -10.409  -2.192  -6.752  1.00  0.00     0.074 A 
ATOM     70  C   UNL     1     -11.472  -1.259  -6.404  1.00  0.00     0.031 C 
ATOM     71  C   UNL     1     -10.375  -3.565  -6.804  1.00  0.00     0.031 A 
BRANCH  58  72
ATOM     72  C   UNL     1      -5.743  -7.211  -8.617  1.00  0.00    -0.014 A 
ATOM     73  C   UNL     1      -5.985  -8.188  -7.632  1.00  0.00     0.009 A 
ATOM     74  C   UNL     1      -4.763  -7.530  -9.575  1.00  0.00     0.009 A 
ATOM     75  C   UNL     1      -5.288  -9.401  -7.590  1.00  0.00     0.001 A 
ATOM     76  C   UNL     1      -4.066  -8.752  -9.544  1.00  0.00     0.001 A 
ATOM     77  C   UNL     1      -4.327  -9.685  -8.548  1.00  0.00     0.000 A 
ENDBRANCH  58  72
BRANCH  59  78
ATOM     78  C   UNL     1      -8.444   2.190  -7.435  1.00  0.00    -0.014 A 
ATOM     79  C   UNL     1      -7.701   3.272  -6.891  1.00  0.00     0.009 A 
ATOM     80  C   UNL     1      -8.463   2.045  -8.827  1.00  0.00     0.009 A 
ATOM     81  C   UNL     1      -6.794   3.990  -7.678  1.00  0.00     0.001 A 
ATOM     82  C   UNL     1      -7.607   2.828  -9.620  1.00  0.00     0.001 A 
ATOM     83  C   UNL     1      -6.716   3.733  -9.040  1.00  0.00     0.000 A 
ENDBRANCH  59  78
BRANCH  71  84
ATOM     84  C   UNL     1     -11.595  -4.459  -6.991  1.00  0.00    -0.014 A 
ATOM     85  C   UNL     1     -12.904  -4.002  -7.151  1.00  0.00     0.009 A 
ATOM     86  C   UNL     1     -11.419  -5.858  -7.142  1.00  0.00     0.009 A 
ATOM     87  C   UNL     1     -13.972  -4.878  -7.380  1.00  0.00     0.001 A 
ATOM     88  C   UNL     1     -12.461  -6.727  -7.464  1.00  0.00     0.001 A 
ATOM     89  C   UNL     1     -13.748  -6.237  -7.557  1.00  0.00     0.000 A 
ENDBRANCH  71  84
ENDBRANCH  45  46
ENDBRANCH  37  40
ENDBRANCH  35  36
ENDBRANCH  34  35
ENDBRANCH  33  34
ENDBRANCH  32  33
ENDBRANCH  31  32
ENDBRANCH   1  31
TORSDOF 19
