REMARK SMILES C#CCN(CC(=O)NCCCCCCNC(=O)c1ccc(-c2c3nc(c(-c4ccccc4)c4ccc([nH]4)c(-c4ccccc4)c4nc(c(-c5ccccc5)c5ccc2[nH]5)C=C4)C=C3)cc1)C(=O)C(C)(C)[NH2+]CC
REMARK SMILES IDX 10 1 9 2 8 3 6 4 7 5 5 7 4 8 3 9 2 10 1 11 66 12 67 13 68 14
REMARK SMILES IDX 69 15 70 16 71 17 72 20 73 21 11 22 12 23 13 24 14 25 15 26
REMARK SMILES IDX 16 27 17 29 18 30 19 31 65 32 20 33 64 34 21 35 22 36 23 37
REMARK SMILES IDX 58 38 24 39 63 40 57 41 59 42 25 43 62 44 56 45 55 46 26 48
REMARK SMILES IDX 48 49 33 50 47 51 34 52 37 53 46 54 60 55 35 56 36 57 45 59
REMARK SMILES IDX 61 60 38 61 27 62 28 63 32 64 29 65 31 66 30 67 49 68 50 69
REMARK SMILES IDX 54 70 51 71 53 72 52 73 39 74 40 75 44 76 41 77 43 78 42 79
REMARK H PARENT 8 6 71 18 71 19 15 28 59 47 37 58
REMARK Flexibility Score: inf
ROOT
ATOM      1  C   UNL     1      -5.127   0.453   1.372  1.00  0.00     0.021 C 
ENDROOT
BRANCH   1   2
ATOM      2  C   UNL     1      -5.210  -0.203  -0.005  1.00  0.00     0.116 C 
BRANCH   2   3
ATOM      3  N   UNL     1      -5.455   0.740  -1.073  1.00  0.00    -0.355 N 
ATOM      4  C   UNL     1      -4.609   1.239  -2.018  1.00  0.00     0.239 C 
ATOM      5  O   UNL     1      -5.119   1.828  -2.977  1.00  0.00    -0.273 OA
ATOM      6  H   UNL     1      -6.379   1.075  -1.127  1.00  0.00     0.163 HD
BRANCH   4   7
ATOM      7  C   UNL     1      -3.095   0.973  -1.993  1.00  0.00     0.220 C 
BRANCH   7   8
ATOM      8  N   UNL     1      -2.408   1.170  -0.715  1.00  0.00    -0.317 N 
BRANCH   8   9
ATOM      9  C   UNL     1      -1.854  -0.032  -0.090  1.00  0.00     0.210 C 
BRANCH   9  10
ATOM     10  C   UNL     1      -0.334  -0.032  -0.090  1.00  0.00    -0.085 C 
ATOM     11  C   UNL     1       0.970  -0.032  -0.090  1.00  0.00     0.006 C 
ENDBRANCH   9  10
ENDBRANCH   8   9
BRANCH   8  12
ATOM     12  C   UNL     1      -2.210   2.375  -0.036  1.00  0.00     0.284 C 
ATOM     13  O   UNL     1      -1.827   2.312   1.144  1.00  0.00    -0.268 OA
BRANCH  12  14
ATOM     14  C   UNL     1      -2.537   3.801  -0.663  1.00  0.00     0.170 C 
ATOM     15  C   UNL     1      -2.309   3.971  -2.166  1.00  0.00     0.090 C 
ATOM     16  C   UNL     1      -4.001   4.135  -0.320  1.00  0.00     0.090 C 
BRANCH  14  17
ATOM     17  N   UNL     1      -1.764   4.867   0.050  1.00  0.00    -0.334 N 
ATOM     18  H   UNL     1      -2.099   4.887   1.013  1.00  0.00     0.347 HD
ATOM     19  H   UNL     1      -1.932   5.706  -0.505  1.00  0.00     0.347 HD
BRANCH  17  20
ATOM     20  C   UNL     1      -0.309   4.763   0.104  1.00  0.00     0.257 C 
ATOM     21  C   UNL     1       0.417   5.271  -1.134  1.00  0.00     0.071 C 
ENDBRANCH  17  20
ENDBRANCH  14  17
ENDBRANCH  12  14
ENDBRANCH   8  12
ENDBRANCH   7   8
ENDBRANCH   4   7
ENDBRANCH   2   3
ENDBRANCH   1   2
BRANCH   1  22
ATOM     22  C   UNL     1      -6.459   0.972   1.925  1.00  0.00     0.002 C 
BRANCH  22  23
ATOM     23  C   UNL     1      -7.599  -0.051   1.982  1.00  0.00     0.002 C 
BRANCH  23  24
ATOM     24  C   UNL     1      -7.274  -1.371   2.689  1.00  0.00     0.021 C 
BRANCH  24  25
ATOM     25  C   UNL     1      -6.883  -1.244   4.159  1.00  0.00     0.116 C 
BRANCH  25  26
ATOM     26  N   UNL     1      -7.968  -0.722   4.973  1.00  0.00    -0.352 N 
ATOM     27  C   UNL     1      -8.567  -1.243   6.090  1.00  0.00     0.251 C 
ATOM     28  H   UNL     1      -8.331   0.143   4.675  1.00  0.00     0.163 HD
ATOM     29  O   UNL     1      -9.602  -0.727   6.518  1.00  0.00    -0.269 OA
BRANCH  27  30
ATOM     30  C   UNL     1      -8.007  -2.425   6.782  1.00  0.00     0.039 A 
ATOM     31  C   UNL     1      -8.892  -3.390   7.273  1.00  0.00     0.014 A 
ATOM     32  C   UNL     1      -6.633  -2.570   6.998  1.00  0.00     0.014 A 
ATOM     33  C   UNL     1      -8.400  -4.521   7.928  1.00  0.00     0.010 A 
ATOM     34  C   UNL     1      -6.138  -3.731   7.596  1.00  0.00     0.010 A 
ATOM     35  C   UNL     1      -7.016  -4.715   8.070  1.00  0.00    -0.014 A 
BRANCH  35  36
ATOM     36  C   UNL     1      -6.493  -5.961   8.685  1.00  0.00     0.031 A 
ATOM     37  C   UNL     1      -5.766  -5.932  10.000  1.00  0.00     0.074 A 
ATOM     38  C   UNL     1      -6.640  -7.128   8.030  1.00  0.00     0.049 A 
ATOM     39  N   UNL     1      -5.290  -6.933  10.700  1.00  0.00    -0.248 NA
ATOM     40  C   UNL     1      -5.518  -4.611  10.595  1.00  0.00     0.031 C 
ATOM     41  C   UNL     1      -7.262  -7.286   6.714  1.00  0.00     0.029 A 
ATOM     42  N   UNL     1      -6.277  -8.403   8.384  1.00  0.00    -0.354 N 
ATOM     43  C   UNL     1      -4.676  -6.362  11.807  1.00  0.00     0.074 A 
ATOM     44  C   UNL     1      -4.800  -4.927  11.663  1.00  0.00     0.031 C 
ATOM     45  C   UNL     1      -7.266  -8.587   6.386  1.00  0.00     0.029 A 
ATOM     46  C   UNL     1      -6.632  -9.350   7.455  1.00  0.00     0.049 A 
ATOM     47  H   UNL     1      -5.809  -8.618   9.223  1.00  0.00     0.167 HD
ATOM     48  C   UNL     1      -4.078  -6.974  12.858  1.00  0.00     0.031 A 
ATOM     49  C   UNL     1      -6.477 -10.687   7.466  1.00  0.00     0.031 A 
ATOM     50  C   UNL     1      -3.956  -8.401  13.007  1.00  0.00     0.049 A 
ATOM     51  C   UNL     1      -5.850 -11.349   8.657  1.00  0.00     0.074 A 
ATOM     52  C   UNL     1      -3.436  -9.118  14.072  1.00  0.00     0.029 A 
ATOM     53  N   UNL     1      -4.349  -9.329  12.056  1.00  0.00    -0.354 N 
ATOM     54  N   UNL     1      -5.365 -10.801   9.745  1.00  0.00    -0.248 NA
ATOM     55  C   UNL     1      -5.770 -12.816   8.630  1.00  0.00     0.031 C 
ATOM     56  C   UNL     1      -3.473 -10.479  13.744  1.00  0.00     0.029 A 
ATOM     57  C   UNL     1      -4.061 -10.611  12.496  1.00  0.00     0.049 A 
ATOM     58  H   UNL     1      -4.772  -9.110  11.194  1.00  0.00     0.167 HD
ATOM     59  C   UNL     1      -4.935 -11.855  10.539  1.00  0.00     0.074 A 
ATOM     60  C   UNL     1      -5.238 -13.075   9.816  1.00  0.00     0.031 C 
ATOM     61  C   UNL     1      -4.343 -11.816  11.758  1.00  0.00     0.031 A 
BRANCH  48  62
ATOM     62  C   UNL     1      -3.497  -6.089  13.926  1.00  0.00    -0.014 A 
ATOM     63  C   UNL     1      -4.322  -5.349  14.789  1.00  0.00     0.009 A 
ATOM     64  C   UNL     1      -2.104  -6.002  14.079  1.00  0.00     0.009 A 
ATOM     65  C   UNL     1      -3.764  -4.503  15.750  1.00  0.00     0.001 A 
ATOM     66  C   UNL     1      -1.550  -5.177  15.061  1.00  0.00     0.001 A 
ATOM     67  C   UNL     1      -2.379  -4.420  15.886  1.00  0.00     0.000 A 
ENDBRANCH  48  62
BRANCH  49  68
ATOM     68  C   UNL     1      -6.969 -11.486   6.316  1.00  0.00    -0.014 A 
ATOM     69  C   UNL     1      -8.151 -12.234   6.425  1.00  0.00     0.009 A 
ATOM     70  C   UNL     1      -6.280 -11.473   5.094  1.00  0.00     0.009 A 
ATOM     71  C   UNL     1      -8.626 -12.965   5.335  1.00  0.00     0.001 A 
ATOM     72  C   UNL     1      -6.771 -12.186   3.998  1.00  0.00     0.001 A 
ATOM     73  C   UNL     1      -7.940 -12.935   4.121  1.00  0.00     0.000 A 
ENDBRANCH  49  68
BRANCH  61  74
ATOM     74  C   UNL     1      -3.989 -13.135  12.383  1.00  0.00    -0.014 A 
ATOM     75  C   UNL     1      -2.923 -13.908  11.895  1.00  0.00     0.009 A 
ATOM     76  C   UNL     1      -4.724 -13.607  13.481  1.00  0.00     0.009 A 
ATOM     77  C   UNL     1      -2.627 -15.145  12.469  1.00  0.00     0.001 A 
ATOM     78  C   UNL     1      -4.408 -14.833  14.070  1.00  0.00     0.001 A 
ATOM     79  C   UNL     1      -3.368 -15.606  13.556  1.00  0.00     0.000 A 
ENDBRANCH  61  74
ENDBRANCH  35  36
ENDBRANCH  27  30
ENDBRANCH  25  26
ENDBRANCH  24  25
ENDBRANCH  23  24
ENDBRANCH  22  23
ENDBRANCH   1  22
TORSDOF 20
