REMARK SMILES O=C(NCCCCCCNC(=O)c1ccc(C[NH2+]CCOc2ccccc2)nc1)c1ccc(-c2c3nc(c(-c4ccccc4)c4ccc([nH]4)c(-c4ccccc4)c4nc(c(-c5ccccc5)c5ccc2[nH]5)C=C4)C=C3)cc1
REMARK SMILES IDX 8 1 7 2 6 3 5 4 4 5 3 6 1 7 2 8 30 10 31 11 77 12 32 13
REMARK SMILES IDX 76 14 33 15 34 16 35 17 70 18 36 19 75 20 69 21 71 22 37 23
REMARK SMILES IDX 74 24 68 25 67 26 38 28 60 29 45 30 59 31 46 32 49 33 58 34
REMARK SMILES IDX 72 35 47 36 48 37 57 39 73 40 50 41 39 42 40 43 44 44 41 45
REMARK SMILES IDX 43 46 42 47 61 48 62 49 66 50 63 51 65 52 64 53 51 54 52 55
REMARK SMILES IDX 56 56 53 57 55 58 54 59 9 60 10 61 11 62 12 64 13 65 14 66
REMARK SMILES IDX 29 67 15 68 28 69 16 70 17 71 18 72 19 75 20 76 21 77 22 78
REMARK SMILES IDX 23 79 27 80 24 81 26 82 25 83
REMARK H PARENT 3 9 71 27 49 38 10 63 18 73 18 74
REMARK Flexibility Score: inf
ROOT
ATOM      1  C   UNL     1       6.341  -3.007   3.191  1.00  0.00     0.021 C 
ENDROOT
BRANCH   1   2
ATOM      2  C   UNL     1       4.818  -2.891   3.292  1.00  0.00     0.002 C 
BRANCH   2   3
ATOM      3  C   UNL     1       4.279  -1.484   3.564  1.00  0.00     0.002 C 
BRANCH   3   4
ATOM      4  C   UNL     1       4.766  -0.394   2.606  1.00  0.00     0.021 C 
BRANCH   4   5
ATOM      5  C   UNL     1       4.519  -0.676   1.128  1.00  0.00     0.116 C 
BRANCH   5   6
ATOM      6  N   UNL     1       3.104  -0.784   0.819  1.00  0.00    -0.352 N 
ATOM      7  O   UNL     1       1.121  -0.162  -0.050  1.00  0.00    -0.269 OA
ATOM      8  C   UNL     1       2.343  -0.053  -0.056  1.00  0.00     0.251 C 
ATOM      9  H   UNL     1       2.620  -1.487   1.310  1.00  0.00     0.163 HD
BRANCH   8  10
ATOM     10  C   UNL     1       2.990   0.884  -0.998  1.00  0.00     0.039 A 
ATOM     11  C   UNL     1       4.110   0.502  -1.745  1.00  0.00     0.014 A 
ATOM     12  C   UNL     1       2.435   2.155  -1.165  1.00  0.00     0.014 A 
ATOM     13  C   UNL     1       4.735   1.424  -2.581  1.00  0.00     0.010 A 
ATOM     14  C   UNL     1       3.026   3.058  -2.050  1.00  0.00     0.010 A 
ATOM     15  C   UNL     1       4.192   2.706  -2.749  1.00  0.00    -0.014 A 
BRANCH  15  16
ATOM     16  C   UNL     1       4.805   3.665  -3.699  1.00  0.00     0.031 A 
ATOM     17  C   UNL     1       5.427   4.938  -3.207  1.00  0.00     0.074 A 
ATOM     18  C   UNL     1       4.750   3.405  -5.019  1.00  0.00     0.049 A 
ATOM     19  N   UNL     1       5.921   5.935  -3.897  1.00  0.00    -0.248 NA
ATOM     20  C   UNL     1       5.496   5.121  -1.749  1.00  0.00     0.031 C 
ATOM     21  C   UNL     1       4.170   2.202  -5.618  1.00  0.00     0.029 A 
ATOM     22  N   UNL     1       5.173   4.144  -6.093  1.00  0.00    -0.354 N 
ATOM     23  C   UNL     1       6.333   6.875  -2.962  1.00  0.00     0.074 A 
ATOM     24  C   UNL     1       6.016   6.337  -1.656  1.00  0.00     0.031 C 
ATOM     25  C   UNL     1       4.274   2.284  -6.952  1.00  0.00     0.029 A 
ATOM     26  C   UNL     1       4.874   3.568  -7.302  1.00  0.00     0.049 A 
ATOM     27  H   UNL     1       5.645   5.004  -6.006  1.00  0.00     0.167 HD
ATOM     28  C   UNL     1       6.919   8.078  -3.174  1.00  0.00     0.031 A 
ATOM     29  C   UNL     1       5.027   4.031  -8.556  1.00  0.00     0.031 A 
ATOM     30  C   UNL     1       7.221   8.613  -4.476  1.00  0.00     0.049 A 
ATOM     31  C   UNL     1       5.638   5.385  -8.769  1.00  0.00     0.074 A 
ATOM     32  C   UNL     1       7.853   9.803  -4.794  1.00  0.00     0.029 A 
ATOM     33  N   UNL     1       6.900   7.997  -5.676  1.00  0.00    -0.354 N 
ATOM     34  N   UNL     1       6.064   6.244  -7.876  1.00  0.00    -0.248 NA
ATOM     35  C   UNL     1       5.792   5.831 -10.160  1.00  0.00     0.031 C 
ATOM     36  C   UNL     1       7.863   9.932  -6.187  1.00  0.00     0.029 A 
ATOM     37  C   UNL     1       7.293   8.796  -6.737  1.00  0.00     0.049 A 
ATOM     38  H   UNL     1       6.458   7.121  -5.762  1.00  0.00     0.167 HD
ATOM     39  C   UNL     1       6.559   7.324  -8.594  1.00  0.00     0.074 A 
ATOM     40  C   UNL     1       6.385   7.007  -9.998  1.00  0.00     0.031 C 
ATOM     41  C   UNL     1       7.113   8.469  -8.129  1.00  0.00     0.031 A 
BRANCH  28  42
ATOM     42  C   UNL     1       7.230   8.917  -1.965  1.00  0.00    -0.014 A 
ATOM     43  C   UNL     1       8.251   8.563  -1.069  1.00  0.00     0.009 A 
ATOM     44  C   UNL     1       6.497  10.091  -1.729  1.00  0.00     0.009 A 
ATOM     45  C   UNL     1       8.500   9.344   0.063  1.00  0.00     0.001 A 
ATOM     46  C   UNL     1       6.767  10.884  -0.613  1.00  0.00     0.001 A 
ATOM     47  C   UNL     1       7.760  10.504   0.288  1.00  0.00     0.000 A 
ENDBRANCH  28  42
BRANCH  29  48
ATOM     48  C   UNL     1       4.568   3.199  -9.696  1.00  0.00    -0.014 A 
ATOM     49  C   UNL     1       5.493   2.542 -10.519  1.00  0.00     0.009 A 
ATOM     50  C   UNL     1       3.196   3.009  -9.926  1.00  0.00     0.009 A 
ATOM     51  C   UNL     1       5.052   1.715 -11.554  1.00  0.00     0.001 A 
ATOM     52  C   UNL     1       2.758   2.161 -10.944  1.00  0.00     0.001 A 
ATOM     53  C   UNL     1       3.687   1.518 -11.760  1.00  0.00     0.000 A 
ENDBRANCH  29  48
BRANCH  41  54
ATOM     54  C   UNL     1       7.613   9.456  -9.145  1.00  0.00    -0.014 A 
ATOM     55  C   UNL     1       6.729  10.265  -9.873  1.00  0.00     0.009 A 
ATOM     56  C   UNL     1       8.996   9.625  -9.321  1.00  0.00     0.009 A 
ATOM     57  C   UNL     1       7.221  11.213 -10.773  1.00  0.00     0.001 A 
ATOM     58  C   UNL     1       9.485  10.590 -10.202  1.00  0.00     0.001 A 
ATOM     59  C   UNL     1       8.598  11.380 -10.930  1.00  0.00     0.000 A 
ENDBRANCH  41  54
ENDBRANCH  15  16
ENDBRANCH   8  10
ENDBRANCH   5   6
ENDBRANCH   4   5
ENDBRANCH   3   4
ENDBRANCH   2   3
ENDBRANCH   1   2
BRANCH   1  60
ATOM     60  C   UNL     1       7.110  -2.471   4.396  1.00  0.00     0.116 C 
BRANCH  60  61
ATOM     61  N   UNL     1       6.855  -3.246   5.598  1.00  0.00    -0.352 N 
ATOM     62  C   UNL     1       7.745  -3.948   6.374  1.00  0.00     0.252 C 
ATOM     63  H   UNL     1       5.918  -3.271   5.897  1.00  0.00     0.163 HD
ATOM     64  O   UNL     1       7.353  -4.689   7.264  1.00  0.00    -0.269 OA
BRANCH  62  65
ATOM     65  C   UNL     1       9.185  -3.815   6.114  1.00  0.00     0.058 A 
ATOM     66  C   UNL     1       9.820  -2.575   6.098  1.00  0.00     0.017 A 
ATOM     67  C   UNL     1       9.937  -4.950   5.869  1.00  0.00     0.125 A 
ATOM     68  C   UNL     1      11.171  -2.513   5.766  1.00  0.00     0.030 A 
ATOM     69  N   UNL     1      11.251  -4.914   5.539  1.00  0.00    -0.255 NA
ATOM     70  C   UNL     1      11.852  -3.697   5.477  1.00  0.00     0.094 A 
BRANCH  70  71
ATOM     71  C   UNL     1      13.328  -3.652   5.106  1.00  0.00     0.318 C 
BRANCH  71  72
ATOM     72  N   UNL     1      14.174  -4.307   6.105  1.00  0.00    -0.338 N 
ATOM     73  H   UNL     1      14.314  -5.275   5.819  1.00  0.00     0.346 HD
ATOM     74  H   UNL     1      13.687  -4.221   6.998  1.00  0.00     0.346 HD
BRANCH  72  75
ATOM     75  C   UNL     1      15.489  -3.688   6.287  1.00  0.00     0.302 C 
BRANCH  75  76
ATOM     76  C   UNL     1      15.515  -2.273   6.905  1.00  0.00     0.290 C 
BRANCH  76  77
ATOM     77  O   UNL     1      15.268  -2.308   8.318  1.00  0.00    -0.488 OA
BRANCH  77  78
ATOM     78  C   UNL     1      13.965  -2.041   8.632  1.00  0.00     0.119 A 
ATOM     79  C   UNL     1      13.437  -0.754   8.535  1.00  0.00     0.046 A 
ATOM     80  C   UNL     1      13.192  -3.085   9.133  1.00  0.00     0.046 A 
ATOM     81  C   UNL     1      12.104  -0.530   8.886  1.00  0.00     0.004 A 
ATOM     82  C   UNL     1      11.855  -2.867   9.456  1.00  0.00     0.004 A 
ATOM     83  C   UNL     1      11.311  -1.589   9.332  1.00  0.00     0.000 A 
ENDBRANCH  77  78
ENDBRANCH  76  77
ENDBRANCH  75  76
ENDBRANCH  72  75
ENDBRANCH  71  72
ENDBRANCH  70  71
ENDBRANCH  62  65
ENDBRANCH  60  61
ENDBRANCH   1  60
TORSDOF 19
