REMARK SMILES COc1ccc(C(=O)NCCCCCCNC(=O)c2ccc(-c3c4nc(c(-c5ccccc5)c5ccc([nH]5)c(-c5ccccc5)c5nc(c(-c6ccccc6)c6ccc3[nH]6)C=C5)C=C4)cc2)cc1NC(=O)c1cc([N+](=O)[O-])ccc1Cl
REMARK SMILES IDX 12 1 11 2 10 3 9 4 7 5 8 6 6 8 3 9 4 10 68 11 5 12 67 13
REMARK SMILES IDX 2 14 1 15 69 16 70 17 71 19 72 20 73 21 80 22 74 23 79 24
REMARK SMILES IDX 81 25 78 26 75 27 76 28 77 29 13 30 14 31 15 32 16 33 17 34
REMARK SMILES IDX 18 36 19 37 20 38 66 39 21 40 65 41 22 42 23 43 24 44 59 45
REMARK SMILES IDX 25 46 64 47 58 48 60 49 26 50 63 51 57 52 56 53 27 55 49 56
REMARK SMILES IDX 34 57 48 58 35 59 38 60 47 61 61 62 36 63 37 64 46 66 62 67
REMARK SMILES IDX 39 68 28 69 29 70 33 71 30 72 32 73 31 74 50 75 51 76 55 77
REMARK SMILES IDX 52 78 54 79 53 80 40 81 41 82 45 83 42 84 44 85 43 86
REMARK H PARENT 9 7 69 18 16 35 60 54 38 65
REMARK Flexibility Score: inf
ROOT
ATOM      1  C   UNL     1       6.457   7.235   3.464  1.00  0.00     0.002 C 
ENDROOT
BRANCH   1   2
ATOM      2  C   UNL     1       5.537   6.293   2.657  1.00  0.00     0.021 C 
BRANCH   2   3
ATOM      3  C   UNL     1       4.271   5.754   3.346  1.00  0.00     0.116 C 
BRANCH   3   4
ATOM      4  N   UNL     1       3.061   6.406   2.871  1.00  0.00    -0.352 N 
ATOM      5  C   UNL     1       1.891   6.003   2.279  1.00  0.00     0.251 C 
ATOM      6  O   UNL     1       1.016   6.873   2.214  1.00  0.00    -0.269 OA
ATOM      7  H   UNL     1       3.088   7.380   3.010  1.00  0.00     0.163 HD
BRANCH   5   8
ATOM      8  C   UNL     1       1.568   4.650   1.710  1.00  0.00     0.042 A 
ATOM      9  C   UNL     1       0.674   2.322   0.365  1.00  0.00     0.142 A 
ATOM     10  C   UNL     1      -0.242   3.283   0.765  1.00  0.00     0.049 A 
ATOM     11  C   UNL     1       2.041   2.489   0.655  1.00  0.00     0.084 A 
ATOM     12  C   UNL     1       0.200   4.418   1.449  1.00  0.00     0.018 A 
ATOM     13  C   UNL     1       2.486   3.671   1.297  1.00  0.00     0.044 A 
BRANCH   9  14
ATOM     14  O   UNL     1       0.183   1.290  -0.398  1.00  0.00    -0.495 OA
ATOM     15  C   UNL     1       0.301  -0.008   0.190  1.00  0.00     0.278 C 
ENDBRANCH   9  14
BRANCH  11  16
ATOM     16  N   UNL     1       2.883   1.445   0.234  1.00  0.00    -0.319 N 
ATOM     17  C   UNL     1       4.027   0.910   0.752  1.00  0.00     0.257 C 
ATOM     18  H   UNL     1       2.590   1.014  -0.601  1.00  0.00     0.170 HD
ATOM     19  O   UNL     1       4.540  -0.085   0.244  1.00  0.00    -0.269 OA
BRANCH  17  20
ATOM     20  C   UNL     1       4.704   1.505   1.898  1.00  0.00     0.065 A 
ATOM     21  C   UNL     1       5.978   2.005   1.615  1.00  0.00     0.101 A 
ATOM     22  C   UNL     1       4.176   1.549   3.196  1.00  0.00     0.054 A 
ATOM     23  C   UNL     1       6.706   2.575   2.646  1.00  0.00     0.270 A 
ATOM     24  C   UNL     1       4.915   2.160   4.213  1.00  0.00     0.028 A 
ATOM     25  Cl  UNL     1       2.653   0.860   3.618  1.00  0.00    -0.083 Cl
ATOM     26  C   UNL     1       6.191   2.662   3.944  1.00  0.00     0.087 A 
BRANCH  23  27
ATOM     27  N   UNL     1       8.016   3.107   2.336  1.00  0.00     0.062 N 
ATOM     28  O   UNL     1       8.977   2.623   2.940  1.00  0.00    -0.258 OA
ATOM     29  O   UNL     1       8.066   4.027   1.509  1.00  0.00    -0.258 OA
ENDBRANCH  23  27
ENDBRANCH  17  20
ENDBRANCH  11  16
ENDBRANCH   5   8
ENDBRANCH   3   4
ENDBRANCH   2   3
ENDBRANCH   1   2
BRANCH   1  30
ATOM     30  C   UNL     1       7.043   6.778   4.811  1.00  0.00     0.002 C 
BRANCH  30  31
ATOM     31  C   UNL     1       8.208   5.780   4.847  1.00  0.00     0.021 C 
BRANCH  31  32
ATOM     32  C   UNL     1       9.401   5.968   3.911  1.00  0.00     0.116 C 
BRANCH  32  33
ATOM     33  N   UNL     1      10.442   6.817   4.458  1.00  0.00    -0.352 N 
ATOM     34  C   UNL     1      11.762   6.526   4.719  1.00  0.00     0.251 C 
ATOM     35  H   UNL     1      10.164   7.737   4.675  1.00  0.00     0.163 HD
ATOM     36  O   UNL     1      12.449   7.348   5.330  1.00  0.00    -0.269 OA
BRANCH  34  37
ATOM     37  C   UNL     1      12.382   5.236   4.311  1.00  0.00     0.039 A 
ATOM     38  C   UNL     1      13.251   4.601   5.206  1.00  0.00     0.014 A 
ATOM     39  C   UNL     1      12.176   4.670   3.048  1.00  0.00     0.014 A 
ATOM     40  C   UNL     1      13.869   3.393   4.859  1.00  0.00     0.010 A 
ATOM     41  C   UNL     1      12.746   3.432   2.724  1.00  0.00     0.010 A 
ATOM     42  C   UNL     1      13.607   2.782   3.622  1.00  0.00    -0.014 A 
BRANCH  42  43
ATOM     43  C   UNL     1      14.240   1.478   3.273  1.00  0.00     0.031 A 
ATOM     44  C   UNL     1      15.252   1.384   2.159  1.00  0.00     0.074 A 
ATOM     45  C   UNL     1      13.902   0.364   3.955  1.00  0.00     0.049 A 
ATOM     46  N   UNL     1      15.932   0.341   1.747  1.00  0.00    -0.248 NA
ATOM     47  C   UNL     1      15.529   2.615   1.402  1.00  0.00     0.031 C 
ATOM     48  C   UNL     1      12.911   0.299   5.030  1.00  0.00     0.029 A 
ATOM     49  N   UNL     1      14.358  -0.929   3.847  1.00  0.00    -0.354 N 
ATOM     50  C   UNL     1      16.707   0.788   0.682  1.00  0.00     0.074 A 
ATOM     51  C   UNL     1      16.384   2.184   0.484  1.00  0.00     0.031 C 
ATOM     52  C   UNL     1      12.854  -0.958   5.501  1.00  0.00     0.029 A 
ATOM     53  C   UNL     1      13.775  -1.796   4.740  1.00  0.00     0.049 A 
ATOM     54  H   UNL     1      15.038  -1.207   3.192  1.00  0.00     0.167 HD
ATOM     55  C   UNL     1      17.616   0.104  -0.054  1.00  0.00     0.031 A 
ATOM     56  C   UNL     1      13.955  -3.119   4.926  1.00  0.00     0.031 A 
ATOM     57  C   UNL     1      17.948  -1.283   0.141  1.00  0.00     0.049 A 
ATOM     58  C   UNL     1      14.959  -3.856   4.081  1.00  0.00     0.074 A 
ATOM     59  C   UNL     1      18.905  -2.039  -0.516  1.00  0.00     0.029 A 
ATOM     60  N   UNL     1      17.330  -2.124   1.050  1.00  0.00    -0.354 N 
ATOM     61  N   UNL     1      15.750  -3.393   3.143  1.00  0.00    -0.248 NA
ATOM     62  C   UNL     1      15.104  -5.298   4.330  1.00  0.00     0.031 C 
ATOM     63  C   UNL     1      18.822  -3.353  -0.048  1.00  0.00     0.029 A 
ATOM     64  C   UNL     1      17.859  -3.401   0.946  1.00  0.00     0.049 A 
ATOM     65  H   UNL     1      16.620  -1.856   1.678  1.00  0.00     0.167 HD
ATOM     66  C   UNL     1      16.500  -4.479   2.710  1.00  0.00     0.074 A 
ATOM     67  C   UNL     1      16.090  -5.618   3.503  1.00  0.00     0.031 C 
ATOM     68  C   UNL     1      17.444  -4.528   1.739  1.00  0.00     0.031 A 
BRANCH  55  69
ATOM     69  C   UNL     1      18.323   0.842  -1.158  1.00  0.00    -0.014 A 
ATOM     70  C   UNL     1      19.297   1.814  -0.878  1.00  0.00     0.009 A 
ATOM     71  C   UNL     1      18.068   0.504  -2.497  1.00  0.00     0.009 A 
ATOM     72  C   UNL     1      19.982   2.449  -1.917  1.00  0.00     0.001 A 
ATOM     73  C   UNL     1      18.773   1.121  -3.532  1.00  0.00     0.001 A 
ATOM     74  C   UNL     1      19.725   2.097  -3.242  1.00  0.00     0.000 A 
ENDBRANCH  55  69
BRANCH  56  75
ATOM     75  C   UNL     1      13.161  -3.849   5.952  1.00  0.00    -0.014 A 
ATOM     76  C   UNL     1      13.779  -4.390   7.091  1.00  0.00     0.009 A 
ATOM     77  C   UNL     1      11.782  -4.041   5.777  1.00  0.00     0.009 A 
ATOM     78  C   UNL     1      13.040  -5.140   8.010  1.00  0.00     0.001 A 
ATOM     79  C   UNL     1      11.039  -4.762   6.714  1.00  0.00     0.001 A 
ATOM     80  C   UNL     1      11.671  -5.322   7.823  1.00  0.00     0.000 A 
ENDBRANCH  56  75
BRANCH  68  81
ATOM     81  C   UNL     1      18.119  -5.850   1.497  1.00  0.00    -0.014 A 
ATOM     82  C   UNL     1      17.436  -6.919   0.897  1.00  0.00     0.009 A 
ATOM     83  C   UNL     1      19.470  -6.014   1.841  1.00  0.00     0.009 A 
ATOM     84  C   UNL     1      18.083  -8.138   0.679  1.00  0.00     0.001 A 
ATOM     85  C   UNL     1      20.123  -7.222   1.593  1.00  0.00     0.001 A 
ATOM     86  C   UNL     1      19.427  -8.286   1.022  1.00  0.00     0.000 A 
ENDBRANCH  68  81
ENDBRANCH  42  43
ENDBRANCH  34  37
ENDBRANCH  32  33
ENDBRANCH  31  32
ENDBRANCH  30  31
ENDBRANCH   1  30
TORSDOF 17
