REMARK SMILES O=C(NCCCCCCNC(=O)c1c(/C=C2/SC(=S)N=C2O)cnc2ccccc12)c1ccc(-c2c3nc(c(-c4ccccc4)c4ccc([nH]4)c(-c4ccccc4)c4nc(c(-c5ccccc5)c5ccc2[nH]5)C=C4)C=C3)cc1
REMARK SMILES IDX 6 1 5 2 4 3 3 4 1 5 2 6 31 8 32 9 78 10 33 11 77 12 34 13
REMARK SMILES IDX 35 14 36 15 71 16 37 17 76 18 70 19 72 20 38 21 75 22 69 23
REMARK SMILES IDX 68 24 39 26 61 27 46 28 60 29 47 30 50 31 59 32 73 33 48 34
REMARK SMILES IDX 49 35 58 37 74 38 51 39 40 40 41 41 45 42 42 43 44 44 43 45
REMARK SMILES IDX 62 46 63 47 67 48 64 49 66 50 65 51 52 52 53 53 57 54 54 55
REMARK SMILES IDX 56 56 55 57 7 58 8 59 9 60 10 61 11 62 12 64 13 65 14 66
REMARK SMILES IDX 30 67 23 68 25 69 29 70 24 71 26 72 28 73 27 74 15 75 16 76
REMARK SMILES IDX 17 77 21 78 18 79 20 80 19 81 22 82
REMARK H PARENT 3 7 72 25 50 36 10 63 22 83
REMARK Flexibility Score: inf
ROOT
ATOM      1  C   UNL     1       4.225  -3.764   0.789  1.00  0.00     0.002 C 
ENDROOT
BRANCH   1   2
ATOM      2  C   UNL     1       4.700  -2.357   1.147  1.00  0.00     0.021 C 
BRANCH   2   3
ATOM      3  C   UNL     1       4.426  -1.282   0.106  1.00  0.00     0.116 C 
BRANCH   3   4
ATOM      4  N   UNL     1       3.010  -1.043  -0.106  1.00  0.00    -0.352 N 
ATOM      5  O   UNL     1       1.091   0.140  -0.168  1.00  0.00    -0.269 OA
ATOM      6  C   UNL     1       2.316   0.142  -0.090  1.00  0.00     0.251 C 
ATOM      7  H   UNL     1       2.470  -1.846  -0.287  1.00  0.00     0.163 HD
BRANCH   6   8
ATOM      8  C   UNL     1       3.038   1.427   0.052  1.00  0.00     0.039 A 
ATOM      9  C   UNL     1       4.199   1.690  -0.680  1.00  0.00     0.014 A 
ATOM     10  C   UNL     1       2.529   2.394   0.924  1.00  0.00     0.014 A 
ATOM     11  C   UNL     1       4.917   2.859  -0.445  1.00  0.00     0.010 A 
ATOM     12  C   UNL     1       3.210   3.601   1.103  1.00  0.00     0.010 A 
ATOM     13  C   UNL     1       4.425   3.832   0.440  1.00  0.00    -0.014 A 
BRANCH  13  14
ATOM     14  C   UNL     1       5.163   5.108   0.607  1.00  0.00     0.031 A 
ATOM     15  C   UNL     1       5.815   5.468   1.912  1.00  0.00     0.074 A 
ATOM     16  C   UNL     1       5.260   5.941  -0.446  1.00  0.00     0.049 A 
ATOM     17  N   UNL     1       6.527   6.527   2.210  1.00  0.00    -0.248 NA
ATOM     18  C   UNL     1       5.647   4.524   3.027  1.00  0.00     0.031 C 
ATOM     19  C   UNL     1       4.663   5.708  -1.764  1.00  0.00     0.029 A 
ATOM     20  N   UNL     1       5.911   7.140  -0.583  1.00  0.00    -0.354 N 
ATOM     21  C   UNL     1       6.873   6.389   3.548  1.00  0.00     0.074 A 
ATOM     22  C   UNL     1       6.278   5.152   4.010  1.00  0.00     0.031 C 
ATOM     23  C   UNL     1       5.017   6.704  -2.588  1.00  0.00     0.029 A 
ATOM     24  C   UNL     1       5.816   7.672  -1.845  1.00  0.00     0.049 A 
ATOM     25  H   UNL     1       6.399   7.577   0.152  1.00  0.00     0.167 HD
ATOM     26  C   UNL     1       7.621   7.214   4.319  1.00  0.00     0.031 A 
ATOM     27  C   UNL     1       6.310   8.816  -2.352  1.00  0.00     0.031 A 
ATOM     28  C   UNL     1       8.212   8.444   3.861  1.00  0.00     0.049 A 
ATOM     29  C   UNL     1       7.110   9.725  -1.469  1.00  0.00     0.074 A 
ATOM     30  C   UNL     1       9.018   9.328   4.560  1.00  0.00     0.029 A 
ATOM     31  N   UNL     1       8.055   8.970   2.588  1.00  0.00    -0.354 N 
ATOM     32  N   UNL     1       7.459   9.559  -0.216  1.00  0.00    -0.248 NA
ATOM     33  C   UNL     1       7.581  10.979  -2.069  1.00  0.00     0.031 C 
ATOM     34  C   UNL     1       9.311  10.410   3.723  1.00  0.00     0.029 A 
ATOM     35  C   UNL     1       8.726  10.178   2.489  1.00  0.00     0.049 A 
ATOM     36  H   UNL     1       7.542   8.547   1.862  1.00  0.00     0.167 HD
ATOM     37  C   UNL     1       8.199  10.683   0.120  1.00  0.00     0.074 A 
ATOM     38  C   UNL     1       8.266  11.513  -1.066  1.00  0.00     0.031 C 
ATOM     39  C   UNL     1       8.771  10.999   1.307  1.00  0.00     0.031 A 
BRANCH  26  40
ATOM     40  C   UNL     1       7.820   6.824   5.757  1.00  0.00    -0.014 A 
ATOM     41  C   UNL     1       8.679   5.774   6.116  1.00  0.00     0.009 A 
ATOM     42  C   UNL     1       7.165   7.542   6.770  1.00  0.00     0.009 A 
ATOM     43  C   UNL     1       8.854   5.431   7.459  1.00  0.00     0.001 A 
ATOM     44  C   UNL     1       7.359   7.212   8.113  1.00  0.00     0.001 A 
ATOM     45  C   UNL     1       8.196   6.152   8.456  1.00  0.00     0.000 A 
ENDBRANCH  26  40
BRANCH  27  46
ATOM     46  C   UNL     1       6.053   9.157  -3.773  1.00  0.00    -0.014 A 
ATOM     47  C   UNL     1       7.083   9.071  -4.721  1.00  0.00     0.009 A 
ATOM     48  C   UNL     1       4.769   9.538  -4.192  1.00  0.00     0.009 A 
ATOM     49  C   UNL     1       6.832   9.370  -6.062  1.00  0.00     0.001 A 
ATOM     50  C   UNL     1       4.516   9.811  -5.537  1.00  0.00     0.001 A 
ATOM     51  C   UNL     1       5.549   9.733  -6.470  1.00  0.00     0.000 A 
ENDBRANCH  27  46
BRANCH  39  52
ATOM     52  C   UNL     1       9.528  12.293   1.371  1.00  0.00    -0.014 A 
ATOM     53  C   UNL     1       8.855  13.523   1.420  1.00  0.00     0.009 A 
ATOM     54  C   UNL     1      10.931  12.279   1.401  1.00  0.00     0.009 A 
ATOM     55  C   UNL     1       9.575  14.719   1.467  1.00  0.00     0.001 A 
ATOM     56  C   UNL     1      11.647  13.475   1.472  1.00  0.00     0.001 A 
ATOM     57  C   UNL     1      10.969  14.693   1.496  1.00  0.00     0.000 A 
ENDBRANCH  39  52
ENDBRANCH  13  14
ENDBRANCH   6   8
ENDBRANCH   3   4
ENDBRANCH   2   3
ENDBRANCH   1   2
BRANCH   1  58
ATOM     58  C   UNL     1       4.689  -4.322  -0.559  1.00  0.00     0.002 C 
BRANCH  58  59
ATOM     59  C   UNL     1       6.191  -4.283  -0.853  1.00  0.00     0.021 C 
BRANCH  59  60
ATOM     60  C   UNL     1       7.117  -4.785   0.248  1.00  0.00     0.116 C 
BRANCH  60  61
ATOM     61  N   UNL     1       6.766  -6.098   0.755  1.00  0.00    -0.352 N 
ATOM     62  C   UNL     1       7.627  -7.047   1.230  1.00  0.00     0.252 C 
ATOM     63  H   UNL     1       5.809  -6.329   0.757  1.00  0.00     0.163 HD
ATOM     64  O   UNL     1       7.254  -8.031   1.858  1.00  0.00    -0.269 OA
BRANCH  62  65
ATOM     65  C   UNL     1       9.048  -6.945   0.949  1.00  0.00     0.058 A 
ATOM     66  C   UNL     1       9.580  -7.635  -0.144  1.00  0.00     0.007 A 
ATOM     67  C   UNL     1       9.834  -6.150   1.835  1.00  0.00     0.014 A 
ATOM     68  C   UNL     1      10.961  -7.475  -0.273  1.00  0.00     0.120 A 
ATOM     69  C   UNL     1      11.200  -6.049   1.536  1.00  0.00     0.071 A 
ATOM     70  C   UNL     1       9.332  -5.443   2.961  1.00  0.00     0.011 A 
ATOM     71  N   UNL     1      11.755  -6.710   0.515  1.00  0.00    -0.256 NA
ATOM     72  C   UNL     1      12.004  -5.225   2.313  1.00  0.00     0.029 A 
ATOM     73  C   UNL     1      10.156  -4.624   3.730  1.00  0.00     0.001 A 
ATOM     74  C   UNL     1      11.496  -4.505   3.397  1.00  0.00     0.002 A 
BRANCH  66  75
ATOM     75  C   UNL     1       8.902  -8.328  -1.276  1.00  0.00     0.031 C 
ATOM     76  C   UNL     1       7.725  -8.869  -1.657  1.00  0.00     0.077 C 
ATOM     77  S   UNL     1       7.599  -9.282  -3.382  1.00  0.00    -0.053 SA
ATOM     78  C   UNL     1       6.363  -9.173  -1.153  1.00  0.00     0.227 C 
ATOM     79  C   UNL     1       5.837  -9.382  -3.274  1.00  0.00     0.168 C 
ATOM     80  N   UNL     1       5.393  -9.405  -1.979  1.00  0.00    -0.194 NA
ATOM     81  S   UNL     1       4.875  -9.435  -4.639  1.00  0.00    -0.050 S 
BRANCH  78  82
ATOM     82  O   UNL     1       6.097  -9.322   0.137  1.00  0.00    -0.492 OA
ATOM     83  H   UNL     1       6.766  -9.166   0.774  1.00  0.00     0.295 HD
ENDBRANCH  78  82
ENDBRANCH  66  75
ENDBRANCH  62  65
ENDBRANCH  60  61
ENDBRANCH  59  60
ENDBRANCH  58  59
ENDBRANCH   1  58
TORSDOF 15
