REMARK SMILES Cc1nc(-c2ccc(S(=O)(=O)N3CC[NH2+][C@H](C(=O)NCCCCCCNC(=O)c4ccc(-c5c6nc(c(-c7ccccc7)c7ccc([nH]7)c(-c7ccccc7)c7nc(c(-c8ccccc8)c8ccc5[nH]8)C=C7)C=C6)cc4)C3)s2)cs1
REMARK SMILES IDX 22 1 21 2 20 3 19 4 17 5 18 6 16 8 12 9 13 10 77 11 14 12
REMARK SMILES IDX 15 13 9 16 10 17 11 18 8 19 5 20 6 21 78 22 7 23 4 24 1 25
REMARK SMILES IDX 2 26 3 27 80 28 79 29 23 30 24 31 25 32 26 33 27 34 28 36
REMARK SMILES IDX 29 37 30 38 76 39 31 40 75 41 32 42 33 43 34 44 69 45 35 46
REMARK SMILES IDX 74 47 68 48 70 49 36 50 73 51 67 52 66 53 37 55 59 56 44 57
REMARK SMILES IDX 58 58 45 59 48 60 57 61 71 62 46 63 47 64 56 66 72 67 49 68
REMARK SMILES IDX 38 69 39 70 43 71 40 72 42 73 41 74 60 75 61 76 65 77 62 78
REMARK SMILES IDX 64 79 63 80 50 81 51 82 55 83 52 84 54 85 53 86
REMARK H PARENT 19 7 15 14 15 15 26 35 70 54 48 65
REMARK Flexibility Score: inf
ROOT
ATOM      1  C   UNL     1       8.809  -5.811  -5.056  1.00  0.00     0.002 C 
ENDROOT
BRANCH   1   2
ATOM      2  C   UNL     1       8.204  -5.932  -3.648  1.00  0.00     0.021 C 
BRANCH   2   3
ATOM      3  C   UNL     1       7.321  -4.731  -3.292  1.00  0.00     0.116 C 
BRANCH   3   4
ATOM      4  N   UNL     1       6.063  -4.848  -4.000  1.00  0.00    -0.351 N 
ATOM      5  C   UNL     1       5.027  -5.701  -3.762  1.00  0.00     0.279 C 
ATOM      6  O   UNL     1       4.451  -6.146  -4.762  1.00  0.00    -0.268 OA
ATOM      7  H   UNL     1       5.939  -4.228  -4.755  1.00  0.00     0.163 HD
BRANCH   5   8
ATOM      8  C   UNL     1       4.481  -5.963  -2.332  1.00  0.00     0.287 C 
ATOM      9  N   UNL     1       4.730  -6.557   0.039  1.00  0.00    -0.185 NA
ATOM     10  C   UNL     1       3.684  -7.592   0.023  1.00  0.00     0.164 C 
ATOM     11  C   UNL     1       5.438  -6.478  -1.264  1.00  0.00     0.178 C 
ATOM     12  C   UNL     1       2.781  -7.492  -1.222  1.00  0.00     0.278 C 
ATOM     13  N   UNL     1       3.285  -6.858  -2.451  1.00  0.00    -0.334 N 
ATOM     14  H   UNL     1       2.524  -6.301  -2.840  1.00  0.00     0.347 HD
ATOM     15  H   UNL     1       3.600  -7.635  -3.031  1.00  0.00     0.347 HD
BRANCH   9  16
ATOM     16  S   UNL     1       4.546  -5.157   0.982  1.00  0.00     0.253 S 
ATOM     17  O   UNL     1       5.776  -4.399   0.835  1.00  0.00    -0.206 OA
ATOM     18  O   UNL     1       4.069  -5.577   2.279  1.00  0.00    -0.206 OA
BRANCH  16  19
ATOM     19  C   UNL     1       3.264  -4.052   0.388  1.00  0.00     0.135 A 
ATOM     20  C   UNL     1       1.815  -2.039   0.281  1.00  0.00     0.055 A 
ATOM     21  C   UNL     1       1.403  -3.023  -0.584  1.00  0.00     0.023 A 
ATOM     22  S   UNL     1       3.241  -2.475   1.105  1.00  0.00    -0.121 S 
ATOM     23  C   UNL     1       2.236  -4.163  -0.526  1.00  0.00     0.034 A 
BRANCH  20  24
ATOM     24  C   UNL     1       1.007  -0.791   0.437  1.00  0.00     0.091 A 
ATOM     25  C   UNL     1      -2.331   0.609   0.030  1.00  0.00     0.079 C 
ATOM     26  C   UNL     1      -0.889   0.344   0.282  1.00  0.00     0.090 A 
ATOM     27  N   UNL     1      -0.297  -0.782  -0.035  1.00  0.00    -0.241 NA
ATOM     28  S   UNL     1       0.122   1.513   1.032  1.00  0.00    -0.127 S 
ATOM     29  C   UNL     1       1.418   0.380   1.034  1.00  0.00     0.096 A 
ENDBRANCH  20  24
ENDBRANCH  16  19
ENDBRANCH   9  16
ENDBRANCH   5   8
ENDBRANCH   3   4
ENDBRANCH   2   3
ENDBRANCH   1   2
BRANCH   1  30
ATOM     30  C   UNL     1       9.836  -4.682  -5.204  1.00  0.00     0.002 C 
BRANCH  30  31
ATOM     31  C   UNL     1      11.012  -4.760  -4.227  1.00  0.00     0.021 C 
BRANCH  31  32
ATOM     32  C   UNL     1      11.820  -6.049  -4.330  1.00  0.00     0.116 C 
BRANCH  32  33
ATOM     33  N   UNL     1      12.483  -6.161  -5.618  1.00  0.00    -0.352 N 
ATOM     34  C   UNL     1      13.806  -6.399  -5.885  1.00  0.00     0.251 C 
ATOM     35  H   UNL     1      11.904  -6.051  -6.406  1.00  0.00     0.163 HD
ATOM     36  O   UNL     1      14.252  -6.237  -7.016  1.00  0.00    -0.269 OA
BRANCH  34  37
ATOM     37  C   UNL     1      14.698  -6.849  -4.797  1.00  0.00     0.039 A 
ATOM     38  C   UNL     1      15.957  -6.258  -4.667  1.00  0.00     0.014 A 
ATOM     39  C   UNL     1      14.302  -7.871  -3.929  1.00  0.00     0.014 A 
ATOM     40  C   UNL     1      16.810  -6.672  -3.643  1.00  0.00     0.010 A 
ATOM     41  C   UNL     1      15.128  -8.240  -2.872  1.00  0.00     0.010 A 
ATOM     42  C   UNL     1      16.395  -7.656  -2.731  1.00  0.00    -0.014 A 
BRANCH  42  43
ATOM     43  C   UNL     1      17.293  -8.115  -1.645  1.00  0.00     0.031 A 
ATOM     44  C   UNL     1      17.831  -9.518  -1.658  1.00  0.00     0.074 A 
ATOM     45  C   UNL     1      17.585  -7.286  -0.624  1.00  0.00     0.049 A 
ATOM     46  N   UNL     1      18.596 -10.118  -0.781  1.00  0.00    -0.248 NA
ATOM     47  C   UNL     1      17.437 -10.368  -2.794  1.00  0.00     0.031 C 
ATOM     48  C   UNL     1      17.094  -5.915  -0.477  1.00  0.00     0.029 A 
ATOM     49  N   UNL     1      18.365  -7.483   0.486  1.00  0.00    -0.354 N 
ATOM     50  C   UNL     1      18.757 -11.416  -1.248  1.00  0.00     0.074 A 
ATOM     51  C   UNL     1      17.975 -11.532  -2.460  1.00  0.00     0.031 C 
ATOM     52  C   UNL     1      17.605  -5.385   0.646  1.00  0.00     0.029 A 
ATOM     53  C   UNL     1      18.433  -6.387   1.310  1.00  0.00     0.049 A 
ATOM     54  H   UNL     1      18.832  -8.329   0.674  1.00  0.00     0.167 HD
ATOM     55  C   UNL     1      19.503 -12.418  -0.727  1.00  0.00     0.031 A 
ATOM     56  C   UNL     1      19.092  -6.210   2.470  1.00  0.00     0.031 A 
ATOM     57  C   UNL     1      20.296 -12.299   0.467  1.00  0.00     0.049 A 
ATOM     58  C   UNL     1      19.923  -7.333   3.022  1.00  0.00     0.074 A 
ATOM     59  C   UNL     1      21.131 -13.238   1.046  1.00  0.00     0.029 A 
ATOM     60  N   UNL     1      20.352 -11.166   1.263  1.00  0.00    -0.354 N 
ATOM     61  N   UNL     1      20.115  -8.535   2.536  1.00  0.00    -0.248 NA
ATOM     62  C   UNL     1      20.640  -7.067   4.278  1.00  0.00     0.031 C 
ATOM     63  C   UNL     1      21.665 -12.685   2.215  1.00  0.00     0.029 A 
ATOM     64  C   UNL     1      21.196 -11.387   2.338  1.00  0.00     0.049 A 
ATOM     65  H   UNL     1      19.865 -10.329   1.090  1.00  0.00     0.167 HD
ATOM     66  C   UNL     1      20.993  -9.161   3.411  1.00  0.00     0.074 A 
ATOM     67  C   UNL     1      21.308  -8.200   4.449  1.00  0.00     0.031 C 
ATOM     68  C   UNL     1      21.495 -10.419   3.360  1.00  0.00     0.031 A 
BRANCH  55  69
ATOM     69  C   UNL     1      19.489 -13.735  -1.451  1.00  0.00    -0.014 A 
ATOM     70  C   UNL     1      20.131 -13.889  -2.691  1.00  0.00     0.009 A 
ATOM     71  C   UNL     1      18.845 -14.841  -0.877  1.00  0.00     0.009 A 
ATOM     72  C   UNL     1      20.093 -15.114  -3.359  1.00  0.00     0.001 A 
ATOM     73  C   UNL     1      18.832 -16.073  -1.536  1.00  0.00     0.001 A 
ATOM     74  C   UNL     1      19.447 -16.205  -2.780  1.00  0.00     0.000 A 
ENDBRANCH  55  69
BRANCH  56  75
ATOM     75  C   UNL     1      19.016  -4.905   3.175  1.00  0.00    -0.014 A 
ATOM     76  C   UNL     1      20.121  -4.040   3.186  1.00  0.00     0.009 A 
ATOM     77  C   UNL     1      17.843  -4.520   3.842  1.00  0.00     0.009 A 
ATOM     78  C   UNL     1      20.061  -2.826   3.873  1.00  0.00     0.001 A 
ATOM     79  C   UNL     1      17.778  -3.294   4.507  1.00  0.00     0.001 A 
ATOM     80  C   UNL     1      18.889  -2.452   4.529  1.00  0.00     0.000 A 
ENDBRANCH  56  75
BRANCH  68  81
ATOM     81  C   UNL     1      22.459 -10.812   4.442  1.00  0.00    -0.014 A 
ATOM     82  C   UNL     1      22.018 -11.077   5.747  1.00  0.00     0.009 A 
ATOM     83  C   UNL     1      23.823 -10.948   4.141  1.00  0.00     0.009 A 
ATOM     84  C   UNL     1      22.932 -11.439   6.739  1.00  0.00     0.001 A 
ATOM     85  C   UNL     1      24.730 -11.334   5.128  1.00  0.00     0.001 A 
ATOM     86  C   UNL     1      24.285 -11.570   6.428  1.00  0.00     0.000 A 
ENDBRANCH  68  81
ENDBRANCH  42  43
ENDBRANCH  34  37
ENDBRANCH  32  33
ENDBRANCH  31  32
ENDBRANCH  30  31
ENDBRANCH   1  30
TORSDOF 16
