REMARK SMILES O=C(NCCCCCCNC(=O)c1cc(-c2cncnc2)cc(S(=O)(=O)N2CCCC2)c1)c1ccc(-c2c3nc(c(-c4ccccc4)c4ccc([nH]4)c(-c4ccccc4)c4nc(c(-c5ccccc5)c5ccc2[nH]5)C=C4)C=C3)cc1
REMARK SMILES IDX 6 1 5 2 4 3 3 4 1 5 2 6 33 8 34 9 80 10 35 11 79 12 36 13
REMARK SMILES IDX 37 14 38 15 73 16 39 17 78 18 72 19 74 20 40 21 77 22 71 23
REMARK SMILES IDX 70 24 41 26 63 27 48 28 62 29 49 30 52 31 61 32 75 33 50 34
REMARK SMILES IDX 51 35 60 37 76 38 53 39 42 40 43 41 47 42 44 43 46 44 45 45
REMARK SMILES IDX 64 46 65 47 69 48 66 49 68 50 67 51 54 52 55 53 59 54 56 55
REMARK SMILES IDX 58 56 57 57 7 58 8 59 9 60 10 61 11 62 12 64 13 65 14 66
REMARK SMILES IDX 32 67 15 68 23 69 22 70 16 71 17 72 21 73 18 74 20 75 19 76
REMARK SMILES IDX 24 77 25 78 26 79 27 80 28 81 31 82 29 83 30 84
REMARK H PARENT 3 7 74 25 52 36 10 63
REMARK Flexibility Score: inf
ROOT
ATOM      1  C   UNL     1       4.135  -3.897   0.536  1.00  0.00     0.002 C 
ENDROOT
BRANCH   1   2
ATOM      2  C   UNL     1       4.649  -2.546   1.037  1.00  0.00     0.021 C 
BRANCH   2   3
ATOM      3  C   UNL     1       4.364  -1.349   0.138  1.00  0.00     0.116 C 
BRANCH   3   4
ATOM      4  N   UNL     1       2.949  -1.093  -0.051  1.00  0.00    -0.352 N 
ATOM      5  O   UNL     1       1.038   0.102  -0.071  1.00  0.00    -0.269 OA
ATOM      6  C   UNL     1       2.261   0.095   0.027  1.00  0.00     0.251 C 
ATOM      7  H   UNL     1       2.403  -1.883  -0.267  1.00  0.00     0.163 HD
BRANCH   6   8
ATOM      8  C   UNL     1       2.986   1.363   0.266  1.00  0.00     0.039 A 
ATOM      9  C   UNL     1       4.157   1.675  -0.429  1.00  0.00     0.014 A 
ATOM     10  C   UNL     1       2.466   2.268   1.198  1.00  0.00     0.014 A 
ATOM     11  C   UNL     1       4.873   2.824  -0.103  1.00  0.00     0.010 A 
ATOM     12  C   UNL     1       3.147   3.457   1.472  1.00  0.00     0.010 A 
ATOM     13  C   UNL     1       4.372   3.731   0.846  1.00  0.00    -0.014 A 
BRANCH  13  14
ATOM     14  C   UNL     1       5.115   4.984   1.126  1.00  0.00     0.031 A 
ATOM     15  C   UNL     1       5.748   5.232   2.466  1.00  0.00     0.074 A 
ATOM     16  C   UNL     1       5.234   5.901   0.146  1.00  0.00     0.049 A 
ATOM     17  N   UNL     1       6.460   6.259   2.862  1.00  0.00    -0.248 NA
ATOM     18  C   UNL     1       5.554   4.202   3.497  1.00  0.00     0.031 C 
ATOM     19  C   UNL     1       4.659   5.779  -1.196  1.00  0.00     0.029 A 
ATOM     20  N   UNL     1       5.891   7.103   0.120  1.00  0.00    -0.354 N 
ATOM     21  C   UNL     1       6.782   6.009   4.190  1.00  0.00     0.074 A 
ATOM     22  C   UNL     1       6.170   4.744   4.539  1.00  0.00     0.031 C 
ATOM     23  C   UNL     1       5.031   6.839  -1.929  1.00  0.00     0.029 A 
ATOM     24  C   UNL     1       5.823   7.737  -1.096  1.00  0.00     0.049 A 
ATOM     25  H   UNL     1       6.367   7.476   0.897  1.00  0.00     0.167 HD
ATOM     26  C   UNL     1       7.521   6.762   5.039  1.00  0.00     0.031 A 
ATOM     27  C   UNL     1       6.333   8.914  -1.499  1.00  0.00     0.031 A 
ATOM     28  C   UNL     1       8.128   8.021   4.694  1.00  0.00     0.049 A 
ATOM     29  C   UNL     1       7.124   9.742  -0.531  1.00  0.00     0.074 A 
ATOM     30  C   UNL     1       8.927   8.838   5.476  1.00  0.00     0.029 A 
ATOM     31  N   UNL     1       7.998   8.649   3.465  1.00  0.00    -0.354 N 
ATOM     32  N   UNL     1       7.448   9.472   0.710  1.00  0.00    -0.248 NA
ATOM     33  C   UNL     1       7.617  11.036  -1.020  1.00  0.00     0.031 C 
ATOM     34  C   UNL     1       9.241   9.983   4.735  1.00  0.00     0.029 A 
ATOM     35  C   UNL     1       8.679   9.856   3.476  1.00  0.00     0.049 A 
ATOM     36  H   UNL     1       7.496   8.291   2.698  1.00  0.00     0.167 HD
ATOM     37  C   UNL     1       8.195  10.557   1.148  1.00  0.00     0.074 A 
ATOM     38  C   UNL     1       8.290  11.479   0.034  1.00  0.00     0.031 C 
ATOM     39  C   UNL     1       8.752  10.769   2.365  1.00  0.00     0.031 A 
BRANCH  26  40
ATOM     40  C   UNL     1       7.689   6.253   6.444  1.00  0.00    -0.014 A 
ATOM     41  C   UNL     1       8.524   5.162   6.731  1.00  0.00     0.009 A 
ATOM     42  C   UNL     1       7.024   6.896   7.500  1.00  0.00     0.009 A 
ATOM     43  C   UNL     1       8.662   4.703   8.043  1.00  0.00     0.001 A 
ATOM     44  C   UNL     1       7.182   6.449   8.814  1.00  0.00     0.001 A 
ATOM     45  C   UNL     1       7.993   5.348   9.083  1.00  0.00     0.000 A 
ENDBRANCH  26  40
BRANCH  27  46
ATOM     46  C   UNL     1       6.110   9.370  -2.894  1.00  0.00    -0.014 A 
ATOM     47  C   UNL     1       7.159   9.349  -3.824  1.00  0.00     0.009 A 
ATOM     48  C   UNL     1       4.838   9.792  -3.310  1.00  0.00     0.009 A 
ATOM     49  C   UNL     1       6.941   9.752  -5.142  1.00  0.00     0.001 A 
ATOM     50  C   UNL     1       4.617  10.171  -4.635  1.00  0.00     0.001 A 
ATOM     51  C   UNL     1       5.669  10.156  -5.548  1.00  0.00     0.000 A 
ENDBRANCH  27  46
BRANCH  39  52
ATOM     52  C   UNL     1       9.528  12.041   2.543  1.00  0.00    -0.014 A 
ATOM     53  C   UNL     1       8.874  13.276   2.676  1.00  0.00     0.009 A 
ATOM     54  C   UNL     1      10.929  12.001   2.600  1.00  0.00     0.009 A 
ATOM     55  C   UNL     1       9.613  14.451   2.831  1.00  0.00     0.001 A 
ATOM     56  C   UNL     1      11.664  13.174   2.778  1.00  0.00     0.001 A 
ATOM     57  C   UNL     1      11.005  14.398   2.885  1.00  0.00     0.000 A 
ENDBRANCH  39  52
ENDBRANCH  13  14
ENDBRANCH   6   8
ENDBRANCH   3   4
ENDBRANCH   2   3
ENDBRANCH   1   2
BRANCH   1  58
ATOM     58  C   UNL     1       4.525  -4.282  -0.893  1.00  0.00     0.002 C 
BRANCH  58  59
ATOM     59  C   UNL     1       6.016  -4.195  -1.243  1.00  0.00     0.021 C 
BRANCH  59  60
ATOM     60  C   UNL     1       6.958  -4.995  -0.347  1.00  0.00     0.116 C 
BRANCH  60  61
ATOM     61  N   UNL     1       6.736  -6.423  -0.445  1.00  0.00    -0.352 N 
ATOM     62  C   UNL     1       7.635  -7.457  -0.478  1.00  0.00     0.251 C 
ATOM     63  H   UNL     1       5.790  -6.694  -0.497  1.00  0.00     0.163 HD
ATOM     64  O   UNL     1       7.237  -8.593  -0.726  1.00  0.00    -0.269 OA
BRANCH  62  65
ATOM     65  C   UNL     1       9.077  -7.247  -0.207  1.00  0.00     0.041 A 
ATOM     66  C   UNL     1      10.007  -8.004  -0.930  1.00  0.00     0.022 A 
ATOM     67  C   UNL     1       9.514  -6.423   0.829  1.00  0.00     0.035 A 
ATOM     68  C   UNL     1      11.382  -7.938  -0.643  1.00  0.00    -0.013 A 
ATOM     69  C   UNL     1      10.871  -6.337   1.127  1.00  0.00     0.084 A 
ATOM     70  C   UNL     1      11.802  -7.091   0.397  1.00  0.00     0.030 A 
BRANCH  68  71
ATOM     71  C   UNL     1      12.331  -8.765  -1.391  1.00  0.00     0.018 A 
ATOM     72  C   UNL     1      13.203  -9.653  -0.784  1.00  0.00     0.123 A 
ATOM     73  C   UNL     1      12.410  -8.762  -2.775  1.00  0.00     0.123 A 
ATOM     74  N   UNL     1      14.057 -10.463  -1.450  1.00  0.00    -0.244 NA
ATOM     75  N   UNL     1      13.240  -9.545  -3.497  1.00  0.00    -0.244 NA
ATOM     76  C   UNL     1      14.025 -10.367  -2.786  1.00  0.00     0.221 A 
ENDBRANCH  68  71
BRANCH  69  77
ATOM     77  S   UNL     1      11.483  -5.329   2.467  1.00  0.00     0.243 S 
ATOM     78  O   UNL     1      12.370  -6.184   3.231  1.00  0.00    -0.207 OA
ATOM     79  O   UNL     1      11.937  -4.098   1.864  1.00  0.00    -0.207 OA
BRANCH  77  80
ATOM     80  N   UNL     1      10.174  -4.971   3.450  1.00  0.00    -0.198 NA
ATOM     81  C   UNL     1       9.515  -6.002   4.264  1.00  0.00     0.102 C 
ATOM     82  C   UNL     1       9.251  -3.875   3.126  1.00  0.00     0.102 C 
ATOM     83  C   UNL     1       8.029  -5.728   4.083  1.00  0.00     0.018 C 
ATOM     84  C   UNL     1       7.955  -4.228   3.850  1.00  0.00     0.018 C 
ENDBRANCH  77  80
ENDBRANCH  69  77
ENDBRANCH  62  65
ENDBRANCH  60  61
ENDBRANCH  59  60
ENDBRANCH  58  59
ENDBRANCH   1  58
TORSDOF 16
