REMARK SMILES Cc1cnn(C2(C(=O)NCCCCCCNC(=O)c3ccc(-c4c5nc(c(-c6ccccc6)c6ccc([nH]6)c(-c6ccccc6)c6nc(c(-c7ccccc7)c7ccc4[nH]7)C=C6)C=C5)cc3)CCN(C(=O)c3cc4ccccc4[nH]3)CC2)c1
REMARK SMILES IDX 13 1 12 2 11 3 10 4 9 5 7 6 8 7 6 9 67 10 82 11 68 12 81 13
REMARK SMILES IDX 69 14 70 15 71 16 5 17 1 18 2 19 3 20 83 21 4 22 72 23 73 24
REMARK SMILES IDX 80 25 74 26 79 27 75 29 78 30 76 31 77 32 14 33 15 34 16 35
REMARK SMILES IDX 17 36 18 38 19 39 20 40 66 41 21 42 65 43 22 44 23 45 24 46
REMARK SMILES IDX 59 47 25 48 64 49 58 50 60 51 26 52 63 53 57 54 56 55 27 57
REMARK SMILES IDX 49 58 34 59 48 60 35 61 38 62 47 63 61 64 36 65 37 66 46 68
REMARK SMILES IDX 62 69 39 70 28 71 29 72 33 73 30 74 32 75 31 76 50 77 51 78
REMARK SMILES IDX 55 79 52 80 54 81 53 82 40 83 41 84 45 85 42 86 44 87 43 88
REMARK H PARENT 9 8 80 28 16 37 60 56 38 67
REMARK Flexibility Score: inf
ROOT
ATOM      1  C   UNL     1      -2.845  -0.022 -10.145  1.00  0.00     0.002 C 
ENDROOT
BRANCH   1   2
ATOM      2  C   UNL     1      -1.361   0.102  -9.764  1.00  0.00     0.002 C 
BRANCH   2   3
ATOM      3  C   UNL     1      -1.044   1.060  -8.611  1.00  0.00     0.021 C 
BRANCH   3   4
ATOM      4  C   UNL     1      -1.841   0.796  -7.333  1.00  0.00     0.116 C 
BRANCH   4   5
ATOM      5  N   UNL     1      -1.476  -0.482  -6.745  1.00  0.00    -0.354 N 
ATOM      6  C   UNL     1      -0.921  -0.843  -5.542  1.00  0.00     0.248 C 
ATOM      7  O   UNL     1      -0.630  -2.039  -5.492  1.00  0.00    -0.272 OA
ATOM      8  H   UNL     1      -1.668  -1.250  -7.332  1.00  0.00     0.163 HD
BRANCH   6   9
ATOM      9  C   UNL     1      -0.707   0.204  -4.394  1.00  0.00     0.144 C 
ATOM     10  C   UNL     1       0.321   1.246  -4.919  1.00  0.00     0.062 C 
ATOM     11  C   UNL     1      -2.112   0.766  -4.047  1.00  0.00     0.062 C 
ATOM     12  C   UNL     1       0.136   2.667  -4.407  1.00  0.00     0.123 C 
ATOM     13  C   UNL     1      -2.116   2.182  -3.493  1.00  0.00     0.123 C 
ATOM     14  N   UNL     1      -1.258   3.060  -4.282  1.00  0.00    -0.337 N 
ATOM     15  C   UNL     1      -1.683   4.255  -4.856  1.00  0.00     0.270 C 
ATOM     16  O   UNL     1      -1.047   4.798  -5.767  1.00  0.00    -0.267 OA
BRANCH   9  17
ATOM     17  N   UNL     1      -0.153  -0.373  -3.126  1.00  0.00    -0.257 N 
ATOM     18  C   UNL     1       1.089  -0.305   0.322  1.00  0.00     0.048 C 
ATOM     19  C   UNL     1       0.615  -0.581  -1.050  1.00  0.00    -0.013 A 
ATOM     20  C   UNL     1       0.481  -1.819  -1.701  1.00  0.00     0.138 A 
ATOM     21  C   UNL     1       0.199   0.329  -1.994  1.00  0.00     0.113 A 
ATOM     22  N   UNL     1      -0.013  -1.695  -2.932  1.00  0.00    -0.180 NA
ENDBRANCH   9  17
BRANCH  15  23
ATOM     23  C   UNL     1      -2.921   4.816  -4.380  1.00  0.00     0.105 A 
ATOM     24  C   UNL     1      -3.315   5.154  -3.094  1.00  0.00     0.042 A 
ATOM     25  N   UNL     1      -3.954   5.168  -5.214  1.00  0.00    -0.351 N 
ATOM     26  C   UNL     1      -4.649   5.639  -3.152  1.00  0.00     0.000 A 
ATOM     27  C   UNL     1      -5.043   5.588  -4.489  1.00  0.00     0.046 A 
ATOM     28  H   UNL     1      -3.918   5.126  -6.197  1.00  0.00     0.167 HD
ATOM     29  C   UNL     1      -5.564   6.110  -2.192  1.00  0.00     0.010 A 
ATOM     30  C   UNL     1      -6.329   5.940  -4.912  1.00  0.00     0.026 A 
ATOM     31  C   UNL     1      -6.849   6.486  -2.601  1.00  0.00     0.001 A 
ATOM     32  C   UNL     1      -7.227   6.388  -3.939  1.00  0.00     0.002 A 
ENDBRANCH  15  23
ENDBRANCH   6   9
ENDBRANCH   4   5
ENDBRANCH   3   4
ENDBRANCH   2   3
ENDBRANCH   1   2
BRANCH   1  33
ATOM     33  C   UNL     1      -3.595   1.291 -10.411  1.00  0.00     0.021 C 
BRANCH  33  34
ATOM     34  C   UNL     1      -3.051   2.084 -11.587  1.00  0.00     0.116 C 
BRANCH  34  35
ATOM     35  N   UNL     1      -3.258   1.414 -12.872  1.00  0.00    -0.352 N 
ATOM     36  C   UNL     1      -2.870   1.845 -14.129  1.00  0.00     0.251 C 
ATOM     37  H   UNL     1      -3.732   0.551 -12.838  1.00  0.00     0.163 HD
ATOM     38  O   UNL     1      -3.402   1.422 -15.143  1.00  0.00    -0.269 OA
BRANCH  36  39
ATOM     39  C   UNL     1      -1.772   2.822 -14.213  1.00  0.00     0.039 A 
ATOM     40  C   UNL     1      -1.787   3.896 -15.108  1.00  0.00     0.014 A 
ATOM     41  C   UNL     1      -0.723   2.655 -13.317  1.00  0.00     0.014 A 
ATOM     42  C   UNL     1      -0.762   4.838 -15.034  1.00  0.00     0.010 A 
ATOM     43  C   UNL     1       0.146   3.684 -13.100  1.00  0.00     0.010 A 
ATOM     44  C   UNL     1       0.195   4.727 -14.014  1.00  0.00    -0.014 A 
BRANCH  44  45
ATOM     45  C   UNL     1       1.217   5.741 -13.791  1.00  0.00     0.031 A 
ATOM     46  C   UNL     1       0.672   7.103 -13.562  1.00  0.00     0.074 A 
ATOM     47  C   UNL     1       2.508   5.413 -13.551  1.00  0.00     0.049 A 
ATOM     48  N   UNL     1       0.766   8.129 -14.340  1.00  0.00    -0.248 NA
ATOM     49  C   UNL     1      -0.222   7.311 -12.408  1.00  0.00     0.031 C 
ATOM     50  C   UNL     1       3.092   4.066 -13.429  1.00  0.00     0.029 A 
ATOM     51  N   UNL     1       3.559   6.211 -13.226  1.00  0.00    -0.354 N 
ATOM     52  C   UNL     1       0.151   9.176 -13.659  1.00  0.00     0.074 A 
ATOM     53  C   UNL     1      -0.616   8.571 -12.602  1.00  0.00     0.031 C 
ATOM     54  C   UNL     1       4.293   4.139 -12.816  1.00  0.00     0.029 A 
ATOM     55  C   UNL     1       4.650   5.537 -12.681  1.00  0.00     0.049 A 
ATOM     56  H   UNL     1       3.550   7.186 -13.364  1.00  0.00     0.167 HD
ATOM     57  C   UNL     1       0.587  10.457 -13.819  1.00  0.00     0.031 A 
ATOM     58  C   UNL     1       5.764   6.092 -12.145  1.00  0.00     0.031 A 
ATOM     59  C   UNL     1       1.455  10.568 -14.967  1.00  0.00     0.049 A 
ATOM     60  C   UNL     1       5.847   7.470 -12.667  1.00  0.00     0.074 A 
ATOM     61  C   UNL     1       1.334  10.395 -16.329  1.00  0.00     0.029 A 
ATOM     62  N   UNL     1       2.797  10.514 -14.682  1.00  0.00    -0.354 N 
ATOM     63  N   UNL     1       6.037   7.750 -13.924  1.00  0.00    -0.248 NA
ATOM     64  C   UNL     1       5.297   8.547 -11.862  1.00  0.00     0.031 C 
ATOM     65  C   UNL     1       2.587   9.853 -16.750  1.00  0.00     0.029 A 
ATOM     66  C   UNL     1       3.439   9.786 -15.644  1.00  0.00     0.049 A 
ATOM     67  H   UNL     1       3.230  10.934 -13.904  1.00  0.00     0.167 HD
ATOM     68  C   UNL     1       5.221   8.844 -14.164  1.00  0.00     0.074 A 
ATOM     69  C   UNL     1       4.914   9.377 -12.837  1.00  0.00     0.031 C 
ATOM     70  C   UNL     1       4.643   9.024 -15.389  1.00  0.00     0.031 A 
BRANCH  57  71
ATOM     71  C   UNL     1       0.691  11.450 -12.674  1.00  0.00    -0.014 A 
ATOM     72  C   UNL     1       1.267  12.709 -12.940  1.00  0.00     0.009 A 
ATOM     73  C   UNL     1       0.555  11.102 -11.316  1.00  0.00     0.009 A 
ATOM     74  C   UNL     1       1.778  13.513 -11.914  1.00  0.00     0.001 A 
ATOM     75  C   UNL     1       1.029  11.921 -10.286  1.00  0.00     0.001 A 
ATOM     76  C   UNL     1       1.672  13.111 -10.587  1.00  0.00     0.000 A 
ENDBRANCH  57  71
BRANCH  58  77
ATOM     77  C   UNL     1       6.598   5.633 -11.012  1.00  0.00    -0.014 A 
ATOM     78  C   UNL     1       7.892   6.145 -10.819  1.00  0.00     0.009 A 
ATOM     79  C   UNL     1       6.009   4.926  -9.948  1.00  0.00     0.009 A 
ATOM     80  C   UNL     1       8.551   5.998  -9.590  1.00  0.00     0.001 A 
ATOM     81  C   UNL     1       6.667   4.780  -8.721  1.00  0.00     0.001 A 
ATOM     82  C   UNL     1       7.931   5.332  -8.536  1.00  0.00     0.000 A 
ENDBRANCH  58  77
BRANCH  70  83
ATOM     83  C   UNL     1       5.173   8.200 -16.538  1.00  0.00    -0.014 A 
ATOM     84  C   UNL     1       5.058   6.800 -16.615  1.00  0.00     0.009 A 
ATOM     85  C   UNL     1       5.691   8.886 -17.645  1.00  0.00     0.009 A 
ATOM     86  C   UNL     1       5.473   6.111 -17.760  1.00  0.00     0.001 A 
ATOM     87  C   UNL     1       6.085   8.200 -18.795  1.00  0.00     0.001 A 
ATOM     88  C   UNL     1       5.981   6.813 -18.852  1.00  0.00     0.000 A 
ENDBRANCH  70  83
ENDBRANCH  44  45
ENDBRANCH  36  39
ENDBRANCH  34  35
ENDBRANCH  33  34
ENDBRANCH   1  33
TORSDOF 15
