REMARK SMILES Cc1nc2cc(C(=O)NCCCCCCNC(=O)c3ccc(-c4c5nc(c(-c6ccccc6)c6ccc([nH]6)c(-c6ccccc6)c6nc(c(-c7ccccc7)c7ccc4[nH]7)C=C6)C=C5)cc3)ccc2n1CCC[NH+]1CCOCC1
REMARK SMILES IDX 11 1 10 2 9 3 7 4 8 5 6 7 1 8 2 9 3 10 70 11 4 12 69 13 5 14
REMARK SMILES IDX 68 15 67 16 71 17 72 18 73 19 74 20 75 21 79 22 76 24 78 25
REMARK SMILES IDX 77 26 12 27 13 28 14 29 15 30 16 31 17 32 18 34 19 35 20 36
REMARK SMILES IDX 66 37 21 38 65 39 22 40 23 41 24 42 59 43 25 44 64 45 58 46
REMARK SMILES IDX 60 47 26 48 63 49 57 50 56 51 27 53 49 54 34 55 48 56 35 57
REMARK SMILES IDX 38 58 47 59 61 60 36 61 37 62 46 64 62 65 39 66 28 67 29 68
REMARK SMILES IDX 33 69 30 70 32 71 31 72 50 73 51 74 55 75 52 76 54 77 53 78
REMARK SMILES IDX 40 79 41 80 45 81 42 82 44 83 43 84
REMARK H PARENT 9 6 74 23 16 33 60 52 38 63
REMARK Flexibility Score: inf
ROOT
ATOM      1  C   UNL     1      -2.248   3.598   8.236  1.00  0.00     0.021 C 
ENDROOT
BRANCH   1   2
ATOM      2  C   UNL     1      -0.974   2.748   8.263  1.00  0.00     0.116 C 
BRANCH   2   3
ATOM      3  N   UNL     1      -1.319   1.351   8.108  1.00  0.00    -0.352 N 
ATOM      4  C   UNL     1      -1.358   0.518   7.025  1.00  0.00     0.251 C 
ATOM      5  O   UNL     1      -1.759  -0.635   7.224  1.00  0.00    -0.269 OA
ATOM      6  H   UNL     1      -1.577   0.913   8.951  1.00  0.00     0.163 HD
BRANCH   4   7
ATOM      7  C   UNL     1      -0.908   0.903   5.659  1.00  0.00     0.042 A 
ATOM      8  C   UNL     1       0.433  -0.456   0.017  1.00  0.00     0.088 C 
ATOM      9  C   UNL     1       0.344   0.046   1.410  1.00  0.00     0.106 A 
ATOM     10  N   UNL     1       0.102  -0.722   2.454  1.00  0.00    -0.233 NA
ATOM     11  N   UNL     1       0.446   1.365   1.795  1.00  0.00    -0.328 N 
ATOM     12  C   UNL     1      -0.159   0.131   3.490  1.00  0.00     0.090 A 
ATOM     13  C   UNL     1      -0.006   1.452   3.093  1.00  0.00     0.068 A 
ATOM     14  C   UNL     1      -0.573  -0.155   4.795  1.00  0.00     0.044 A 
ATOM     15  C   UNL     1      -0.323   2.527   3.921  1.00  0.00     0.029 A 
ATOM     16  C   UNL     1      -0.839   2.218   5.183  1.00  0.00     0.016 A 
BRANCH  11  17
ATOM     17  C   UNL     1       0.830   2.507   0.990  1.00  0.00     0.130 C 
BRANCH  17  18
ATOM     18  C   UNL     1       2.345   2.678   0.828  1.00  0.00     0.083 C 
BRANCH  18  19
ATOM     19  C   UNL     1       2.949   1.853  -0.315  1.00  0.00     0.264 C 
BRANCH  19  20
ATOM     20  N   UNL     1       2.158   1.930  -1.551  1.00  0.00    -0.331 N 
ATOM     21  C   UNL     1       2.657   1.001  -2.588  1.00  0.00     0.291 C 
ATOM     22  C   UNL     1       2.095   3.284  -2.142  1.00  0.00     0.291 C 
ATOM     23  H   UNL     1       1.217   1.665  -1.258  1.00  0.00     0.348 HD
ATOM     24  C   UNL     1       3.951   1.473  -3.268  1.00  0.00     0.221 C 
ATOM     25  C   UNL     1       3.413   3.724  -2.788  1.00  0.00     0.221 C 
ATOM     26  O   UNL     1       3.821   2.798  -3.801  1.00  0.00    -0.370 OA
ENDBRANCH  19  20
ENDBRANCH  18  19
ENDBRANCH  17  18
ENDBRANCH  11  17
ENDBRANCH   4   7
ENDBRANCH   2   3
ENDBRANCH   1   2
BRANCH   1  27
ATOM     27  C   UNL     1      -2.943   3.651   9.602  1.00  0.00     0.002 C 
BRANCH  27  28
ATOM     28  C   UNL     1      -2.127   4.353  10.694  1.00  0.00     0.002 C 
BRANCH  28  29
ATOM     29  C   UNL     1      -1.690   5.780  10.345  1.00  0.00     0.021 C 
BRANCH  29  30
ATOM     30  C   UNL     1      -2.859   6.726  10.072  1.00  0.00     0.116 C 
BRANCH  30  31
ATOM     31  N   UNL     1      -3.756   6.859  11.201  1.00  0.00    -0.352 N 
ATOM     32  C   UNL     1      -3.726   7.563  12.372  1.00  0.00     0.251 C 
ATOM     33  H   UNL     1      -4.574   6.320  11.103  1.00  0.00     0.163 HD
ATOM     34  O   UNL     1      -4.717   7.458  13.099  1.00  0.00    -0.269 OA
BRANCH  32  35
ATOM     35  C   UNL     1      -2.575   8.377  12.850  1.00  0.00     0.039 A 
ATOM     36  C   UNL     1      -1.428   8.673  12.117  1.00  0.00     0.014 A 
ATOM     37  C   UNL     1      -2.659   8.843  14.177  1.00  0.00     0.014 A 
ATOM     38  C   UNL     1      -0.349   9.302  12.723  1.00  0.00     0.010 A 
ATOM     39  C   UNL     1      -1.598   9.511  14.778  1.00  0.00     0.010 A 
ATOM     40  C   UNL     1      -0.422   9.694  14.064  1.00  0.00    -0.014 A 
BRANCH  40  41
ATOM     41  C   UNL     1       0.718  10.428  14.609  1.00  0.00     0.031 A 
ATOM     42  C   UNL     1       1.056  11.656  13.842  1.00  0.00     0.074 A 
ATOM     43  C   UNL     1       1.375  10.099  15.739  1.00  0.00     0.049 A 
ATOM     44  N   UNL     1       2.140  11.903  13.185  1.00  0.00    -0.248 NA
ATOM     45  C   UNL     1       0.003  12.672  13.668  1.00  0.00     0.031 C 
ATOM     46  C   UNL     1       0.986   9.095  16.734  1.00  0.00     0.029 A 
ATOM     47  N   UNL     1       2.489  10.666  16.294  1.00  0.00    -0.354 N 
ATOM     48  C   UNL     1       1.988  13.189  12.672  1.00  0.00     0.074 A 
ATOM     49  C   UNL     1       0.608  13.548  12.866  1.00  0.00     0.031 C 
ATOM     50  C   UNL     1       1.696   9.291  17.869  1.00  0.00     0.029 A 
ATOM     51  C   UNL     1       2.700  10.311  17.620  1.00  0.00     0.049 A 
ATOM     52  H   UNL     1       3.087  11.271  15.798  1.00  0.00     0.167 HD
ATOM     53  C   UNL     1       3.071  13.955  12.372  1.00  0.00     0.031 A 
ATOM     54  C   UNL     1       3.617  10.833  18.468  1.00  0.00     0.031 A 
ATOM     55  C   UNL     1       4.266  13.163  12.264  1.00  0.00     0.049 A 
ATOM     56  C   UNL     1       4.702  11.432  17.667  1.00  0.00     0.074 A 
ATOM     57  C   UNL     1       4.832  12.327  11.329  1.00  0.00     0.029 A 
ATOM     58  N   UNL     1       4.880  12.919  13.463  1.00  0.00    -0.354 N 
ATOM     59  N   UNL     1       5.516  10.733  16.931  1.00  0.00    -0.248 NA
ATOM     60  C   UNL     1       4.717  12.870  17.430  1.00  0.00     0.031 C 
ATOM     61  C   UNL     1       5.675  11.436  12.057  1.00  0.00     0.029 A 
ATOM     62  C   UNL     1       5.638  11.780  13.407  1.00  0.00     0.049 A 
ATOM     63  H   UNL     1       4.788  13.488  14.261  1.00  0.00     0.167 HD
ATOM     64  C   UNL     1       5.805  11.562  15.867  1.00  0.00     0.074 A 
ATOM     65  C   UNL     1       5.452  12.903  16.316  1.00  0.00     0.031 C 
ATOM     66  C   UNL     1       5.989  11.060  14.614  1.00  0.00     0.031 A 
BRANCH  53  67
ATOM     67  C   UNL     1       3.144  15.435  12.682  1.00  0.00    -0.014 A 
ATOM     68  C   UNL     1       2.213  16.102  13.503  1.00  0.00     0.009 A 
ATOM     69  C   UNL     1       4.335  16.130  12.397  1.00  0.00     0.009 A 
ATOM     70  C   UNL     1       2.454  17.377  14.023  1.00  0.00     0.001 A 
ATOM     71  C   UNL     1       4.595  17.395  12.944  1.00  0.00     0.001 A 
ATOM     72  C   UNL     1       3.656  18.015  13.761  1.00  0.00     0.000 A 
ENDBRANCH  53  67
BRANCH  54  73
ATOM     73  C   UNL     1       3.510  11.082  19.920  1.00  0.00    -0.014 A 
ATOM     74  C   UNL     1       2.279  11.494  20.460  1.00  0.00     0.009 A 
ATOM     75  C   UNL     1       4.659  11.227  20.713  1.00  0.00     0.009 A 
ATOM     76  C   UNL     1       2.207  12.085  21.727  1.00  0.00     0.001 A 
ATOM     77  C   UNL     1       4.585  11.815  21.983  1.00  0.00     0.001 A 
ATOM     78  C   UNL     1       3.363  12.262  22.480  1.00  0.00     0.000 A 
ENDBRANCH  54  73
BRANCH  66  79
ATOM     79  C   UNL     1       6.378   9.614  14.476  1.00  0.00    -0.014 A 
ATOM     80  C   UNL     1       7.568   9.325  13.791  1.00  0.00     0.009 A 
ATOM     81  C   UNL     1       5.571   8.543  14.894  1.00  0.00     0.009 A 
ATOM     82  C   UNL     1       7.934   8.009  13.507  1.00  0.00     0.001 A 
ATOM     83  C   UNL     1       5.952   7.222  14.634  1.00  0.00     0.001 A 
ATOM     84  C   UNL     1       7.127   6.957  13.931  1.00  0.00     0.000 A 
ENDBRANCH  66  79
ENDBRANCH  40  41
ENDBRANCH  32  35
ENDBRANCH  30  31
ENDBRANCH  29  30
ENDBRANCH  28  29
ENDBRANCH  27  28
ENDBRANCH   1  27
TORSDOF 17
