REMARK SMILES NS(=O)(=O)c1ccc(-n2nc(NC(=O)NCCCC(=O)NCCCCCCNC(=O)c3ccc(-c4c5nc(c(-c6ccccc6)c6ccc([nH]6)c(-c6ccccc6)c6nc(c(-c7ccccc7)c7ccc4[nH]7)C=C6)C=C5)cc3)cc2-c2ccccc2)cc1
REMARK SMILES IDX 22 1 21 2 19 3 20 4 18 6 17 7 16 8 15 9 12 10 13 11 14 13
REMARK SMILES IDX 11 15 9 16 10 17 80 18 79 19 8 20 5 21 6 22 88 23 7 24 87 25
REMARK SMILES IDX 2 26 3 27 4 28 1 29 81 32 82 33 86 34 83 35 85 36 84 37
REMARK SMILES IDX 23 38 24 39 25 40 26 41 27 42 28 43 29 44 30 46 31 47 32 48
REMARK SMILES IDX 78 49 33 50 77 51 34 52 35 53 36 54 71 55 37 56 76 57 70 58
REMARK SMILES IDX 72 59 38 60 75 61 69 62 68 63 39 65 61 66 46 67 60 68 47 69
REMARK SMILES IDX 50 70 59 71 73 72 48 73 49 74 58 76 74 77 51 78 40 79 41 80
REMARK SMILES IDX 45 81 42 82 44 83 43 84 62 85 63 86 67 87 64 88 66 89 65 90
REMARK SMILES IDX 52 91 53 92 57 93 54 94 56 95 55 96
REMARK H PARENT 21 5 12 12 15 14 1 30 1 31 28 45 72 64 50 75
REMARK Flexibility Score: inf
ROOT
ATOM      1  C   UNL     1       2.721   6.941  -1.604  1.00  0.00     0.116 C 
ENDROOT
BRANCH   1   2
ATOM      2  N   UNL     1       3.095   5.745  -0.868  1.00  0.00    -0.356 N 
ATOM      3  C   UNL     1       4.173   4.927  -1.022  1.00  0.00     0.220 C 
ATOM      4  O   UNL     1       4.183   3.848  -0.427  1.00  0.00    -0.275 OA
ATOM      5  H   UNL     1       2.474   5.486  -0.149  1.00  0.00     0.163 HD
BRANCH   3   6
ATOM      6  C   UNL     1       5.349   5.353  -1.882  1.00  0.00     0.102 C 
BRANCH   6   7
ATOM      7  C   UNL     1       5.390   4.687  -3.257  1.00  0.00     0.031 C 
BRANCH   7   8
ATOM      8  C   UNL     1       4.331   5.174  -4.239  1.00  0.00     0.118 C 
BRANCH   8   9
ATOM      9  N   UNL     1       4.431   6.578  -4.607  1.00  0.00    -0.338 N 
ATOM     10  N   UNL     1       3.009   6.761  -6.513  1.00  0.00    -0.291 N 
ATOM     11  C   UNL     1       3.852   7.290  -5.600  1.00  0.00     0.320 C 
ATOM     12  H   UNL     1       2.936   7.272  -7.351  1.00  0.00     0.173 HD
ATOM     13  O   UNL     1       4.218   8.461  -5.745  1.00  0.00    -0.248 OA
ATOM     14  H   UNL     1       5.029   7.104  -4.029  1.00  0.00     0.165 HD
BRANCH  10  15
ATOM     15  C   UNL     1       2.237   5.628  -6.463  1.00  0.00     0.157 A 
ATOM     16  N   UNL     1       1.417   3.857  -5.669  1.00  0.00    -0.231 N 
ATOM     17  N   UNL     1       1.684   5.138  -5.356  1.00  0.00    -0.149 NA
ATOM     18  C   UNL     1       1.381   3.670  -7.045  1.00  0.00     0.076 A 
ATOM     19  C   UNL     1       1.885   4.840  -7.583  1.00  0.00     0.078 A 
BRANCH  16  20
ATOM     20  C   UNL     1       1.328   2.871  -4.649  1.00  0.00     0.065 A 
ATOM     21  C   UNL     1       0.984   0.847  -2.777  1.00  0.00     0.082 A 
ATOM     22  C   UNL     1       1.820   0.628  -3.871  1.00  0.00     0.024 A 
ATOM     23  C   UNL     1       0.357   2.084  -2.586  1.00  0.00     0.024 A 
ATOM     24  C   UNL     1       1.997   1.647  -4.803  1.00  0.00     0.030 A 
ATOM     25  C   UNL     1       0.540   3.107  -3.519  1.00  0.00     0.030 A 
BRANCH  21  26
ATOM     26  S   UNL     1       0.660  -0.485  -1.661  1.00  0.00     0.238 S 
ATOM     27  O   UNL     1       1.453  -1.624  -2.027  1.00  0.00    -0.207 OA
ATOM     28  O   UNL     1      -0.776  -0.566  -1.460  1.00  0.00    -0.207 OA
BRANCH  26  29
ATOM     29  N   UNL     1       1.304   0.083  -0.224  1.00  0.00    -0.225 NA
ATOM     30  H   UNL     1       1.173  -0.616   0.507  1.00  0.00     0.137 HD
ATOM     31  H   UNL     1       0.832   0.947   0.043  1.00  0.00     0.137 HD
ENDBRANCH  26  29
ENDBRANCH  21  26
ENDBRANCH  16  20
BRANCH  18  32
ATOM     32  C   UNL     1       0.980   2.397  -7.628  1.00  0.00     0.000 A 
ATOM     33  C   UNL     1      -0.255   1.840  -7.260  1.00  0.00     0.010 A 
ATOM     34  C   UNL     1       1.920   1.613  -8.303  1.00  0.00     0.010 A 
ATOM     35  C   UNL     1      -0.510   0.489  -7.476  1.00  0.00     0.001 A 
ATOM     36  C   UNL     1       1.668   0.255  -8.501  1.00  0.00     0.001 A 
ATOM     37  C   UNL     1       0.463  -0.308  -8.073  1.00  0.00     0.000 A 
ENDBRANCH  18  32
ENDBRANCH  10  15
ENDBRANCH   8   9
ENDBRANCH   7   8
ENDBRANCH   6   7
ENDBRANCH   3   6
ENDBRANCH   1   2
BRANCH   1  38
ATOM     38  C   UNL     1       1.478   6.676  -2.452  1.00  0.00     0.021 C 
BRANCH  38  39
ATOM     39  C   UNL     1       0.146   6.841  -1.721  1.00  0.00     0.002 C 
BRANCH  39  40
ATOM     40  C   UNL     1      -0.165   8.267  -1.252  1.00  0.00     0.002 C 
BRANCH  40  41
ATOM     41  C   UNL     1      -0.118   9.357  -2.332  1.00  0.00     0.021 C 
BRANCH  41  42
ATOM     42  C   UNL     1      -1.187   9.210  -3.407  1.00  0.00     0.116 C 
BRANCH  42  43
ATOM     43  N   UNL     1      -2.532   9.395  -2.869  1.00  0.00    -0.352 N 
ATOM     44  C   UNL     1      -3.741   9.285  -3.518  1.00  0.00     0.251 C 
ATOM     45  H   UNL     1      -2.581   9.630  -1.915  1.00  0.00     0.163 HD
ATOM     46  O   UNL     1      -4.750   9.807  -3.055  1.00  0.00    -0.269 OA
BRANCH  44  47
ATOM     47  C   UNL     1      -3.813   8.534  -4.783  1.00  0.00     0.039 A 
ATOM     48  C   UNL     1      -4.594   9.004  -5.841  1.00  0.00     0.014 A 
ATOM     49  C   UNL     1      -3.093   7.345  -4.906  1.00  0.00     0.014 A 
ATOM     50  C   UNL     1      -4.577   8.310  -7.048  1.00  0.00     0.010 A 
ATOM     51  C   UNL     1      -2.984   6.726  -6.131  1.00  0.00     0.010 A 
ATOM     52  C   UNL     1      -3.751   7.181  -7.197  1.00  0.00    -0.014 A 
BRANCH  52  53
ATOM     53  C   UNL     1      -3.617   6.548  -8.505  1.00  0.00     0.031 A 
ATOM     54  C   UNL     1      -3.254   7.470  -9.616  1.00  0.00     0.074 A 
ATOM     55  C   UNL     1      -3.649   5.217  -8.728  1.00  0.00     0.049 A 
ATOM     56  N   UNL     1      -4.003   7.857 -10.594  1.00  0.00    -0.248 NA
ATOM     57  C   UNL     1      -1.935   8.118  -9.577  1.00  0.00     0.031 C 
ATOM     58  C   UNL     1      -3.676   4.111  -7.765  1.00  0.00     0.029 A 
ATOM     59  N   UNL     1      -3.593   4.569  -9.925  1.00  0.00    -0.354 N 
ATOM     60  C   UNL     1      -3.208   8.667 -11.400  1.00  0.00     0.074 A 
ATOM     61  C   UNL     1      -1.994   8.902 -10.656  1.00  0.00     0.031 C 
ATOM     62  C   UNL     1      -3.432   2.943  -8.408  1.00  0.00     0.029 A 
ATOM     63  C   UNL     1      -3.417   3.196  -9.835  1.00  0.00     0.049 A 
ATOM     64  H   UNL     1      -3.672   5.039 -10.786  1.00  0.00     0.167 HD
ATOM     65  C   UNL     1      -3.526   8.906 -12.703  1.00  0.00     0.031 A 
ATOM     66  C   UNL     1      -3.290   2.331 -10.870  1.00  0.00     0.031 A 
ATOM     67  C   UNL     1      -4.895   8.556 -12.991  1.00  0.00     0.049 A 
ATOM     68  C   UNL     1      -3.812   2.985 -12.083  1.00  0.00     0.074 A 
ATOM     69  C   UNL     1      -6.130   8.963 -12.521  1.00  0.00     0.029 A 
ATOM     70  N   UNL     1      -5.120   7.358 -13.624  1.00  0.00    -0.354 N 
ATOM     71  N   UNL     1      -5.074   3.223 -12.271  1.00  0.00    -0.248 NA
ATOM     72  C   UNL     1      -2.892   3.754 -12.903  1.00  0.00     0.031 C 
ATOM     73  C   UNL     1      -6.908   7.767 -12.451  1.00  0.00     0.029 A 
ATOM     74  C   UNL     1      -6.123   6.723 -12.940  1.00  0.00     0.049 A 
ATOM     75  H   UNL     1      -4.650   7.020 -14.420  1.00  0.00     0.167 HD
ATOM     76  C   UNL     1      -5.103   4.459 -12.893  1.00  0.00     0.074 A 
ATOM     77  C   UNL     1      -3.734   4.686 -13.355  1.00  0.00     0.031 C 
ATOM     78  C   UNL     1      -6.167   5.297 -12.726  1.00  0.00     0.031 A 
BRANCH  65  79
ATOM     79  C   UNL     1      -2.500   9.065 -13.803  1.00  0.00    -0.014 A 
ATOM     80  C   UNL     1      -2.952   9.258 -15.123  1.00  0.00     0.009 A 
ATOM     81  C   UNL     1      -1.138   8.749 -13.647  1.00  0.00     0.009 A 
ATOM     82  C   UNL     1      -2.111   9.049 -16.224  1.00  0.00     0.001 A 
ATOM     83  C   UNL     1      -0.284   8.581 -14.742  1.00  0.00     0.001 A 
ATOM     84  C   UNL     1      -0.780   8.698 -16.032  1.00  0.00     0.000 A 
ENDBRANCH  65  79
BRANCH  66  85
ATOM     85  C   UNL     1      -2.468   1.122 -11.002  1.00  0.00    -0.014 A 
ATOM     86  C   UNL     1      -2.933  -0.021 -11.662  1.00  0.00     0.009 A 
ATOM     87  C   UNL     1      -1.087   1.260 -10.799  1.00  0.00     0.009 A 
ATOM     88  C   UNL     1      -2.034  -1.002 -12.105  1.00  0.00     0.001 A 
ATOM     89  C   UNL     1      -0.192   0.301 -11.275  1.00  0.00     0.001 A 
ATOM     90  C   UNL     1      -0.663  -0.836 -11.920  1.00  0.00     0.000 A 
ENDBRANCH  66  85
BRANCH  78  91
ATOM     91  C   UNL     1      -7.382   4.743 -12.024  1.00  0.00    -0.014 A 
ATOM     92  C   UNL     1      -7.356   4.279 -10.695  1.00  0.00     0.009 A 
ATOM     93  C   UNL     1      -8.616   4.799 -12.684  1.00  0.00     0.009 A 
ATOM     94  C   UNL     1      -8.528   3.852 -10.061  1.00  0.00     0.001 A 
ATOM     95  C   UNL     1      -9.788   4.392 -12.045  1.00  0.00     0.001 A 
ATOM     96  C   UNL     1      -9.744   3.913 -10.737  1.00  0.00     0.000 A 
ENDBRANCH  78  91
ENDBRANCH  52  53
ENDBRANCH  44  47
ENDBRANCH  42  43
ENDBRANCH  41  42
ENDBRANCH  40  41
ENDBRANCH  39  40
ENDBRANCH  38  39
ENDBRANCH   1  38
TORSDOF 21
