REMARK SMILES C[NH2+][C@]1(C(=O)NCCCCCCNC(=O)c2ccc(-c3c4nc(c(-c5ccccc5)c5ccc([nH]5)c(-c5ccccc5)c5nc(c(-c6ccccc6)c6ccc3[nH]6)C=C5)C=C4)cc2)CCC[C@H]1CCOC1C[C@@H](C)C[C@H](C)C1
REMARK SMILES IDX 8 1 7 2 6 3 4 4 5 5 3 7 64 8 67 9 65 10 66 11 2 12 1 13
REMARK SMILES IDX 68 16 69 17 70 18 71 19 72 20 78 21 73 22 76 23 74 24 75 25
REMARK SMILES IDX 77 26 9 27 10 28 11 29 12 30 13 31 14 32 15 34 16 35 17 36
REMARK SMILES IDX 63 37 18 38 62 39 19 40 20 41 21 42 56 43 22 44 61 45 55 46
REMARK SMILES IDX 57 47 23 48 60 49 54 50 53 51 24 53 46 54 31 55 45 56 32 57
REMARK SMILES IDX 35 58 44 59 58 60 33 61 34 62 43 64 59 65 36 66 25 67 26 68
REMARK SMILES IDX 30 69 27 70 29 71 28 72 47 73 48 74 52 75 49 76 51 77 50 78
REMARK SMILES IDX 37 79 38 80 42 81 39 82 41 83 40 84
REMARK H PARENT 6 6 2 14 2 15 13 33 57 52 35 63
REMARK Flexibility Score: inf
ROOT
ATOM      1  C   UNL     1       1.346   4.653  -1.184  1.00  0.00     0.021 C 
ENDROOT
BRANCH   1   2
ATOM      2  C   UNL     1       0.626   3.344  -0.882  1.00  0.00     0.116 C 
BRANCH   2   3
ATOM      3  N   UNL     1       0.806   2.958   0.502  1.00  0.00    -0.351 N 
ATOM      4  C   UNL     1       0.125   2.219   1.410  1.00  0.00     0.281 C 
ATOM      5  O   UNL     1       0.713   2.132   2.505  1.00  0.00    -0.268 OA
ATOM      6  H   UNL     1       1.636   3.329   0.881  1.00  0.00     0.163 HD
BRANCH   4   7
ATOM      7  C   UNL     1      -1.282   1.450   1.219  1.00  0.00     0.178 C 
ATOM      8  C   UNL     1      -2.254   2.441   0.538  1.00  0.00     0.079 C 
ATOM      9  C   UNL     1      -1.709  -0.191   0.489  1.00  0.00     0.063 C 
ATOM     10  C   UNL     1      -3.586   1.782   0.422  1.00  0.00     0.008 C 
ATOM     11  C   UNL     1      -3.344   0.285   0.366  1.00  0.00     0.011 C 
BRANCH   7  12
ATOM     12  N   UNL     1      -1.726   1.252   2.688  1.00  0.00    -0.336 N 
ATOM     13  C   UNL     1      -2.244   2.416   3.401  1.00  0.00     0.331 C 
ATOM     14  H   UNL     1      -2.458   0.541   2.692  1.00  0.00     0.346 HD
ATOM     15  H   UNL     1      -0.871   1.003   3.185  1.00  0.00     0.346 HD
ENDBRANCH   7  12
BRANCH   9  16
ATOM     16  C   UNL     1      -0.691  -1.793  -0.450  1.00  0.00     0.039 C 
BRANCH  16  17
ATOM     17  C   UNL     1       0.542  -2.791   0.128  1.00  0.00     0.161 C 
BRANCH  17  18
ATOM     18  O   UNL     1       0.727  -2.523   1.479  1.00  0.00    -0.378 OA
BRANCH  18  19
ATOM     19  C   UNL     1      -0.207  -1.476   1.536  1.00  0.00     0.118 C 
ATOM     20  C   UNL     1       0.493  -0.251   0.186  1.00  0.00     0.035 C 
ATOM     21  C   UNL     1      -1.903  -2.407   1.222  1.00  0.00     0.035 C 
ATOM     22  C   UNL     1      -0.599   0.202  -1.348  1.00  0.00    -0.011 C 
ATOM     23  C   UNL     1      -2.894  -2.090  -0.382  1.00  0.00    -0.011 C 
ATOM     24  C   UNL     1       0.272   0.252  -2.624  1.00  0.00     0.008 C 
ATOM     25  C   UNL     1      -2.196  -0.833  -1.680  1.00  0.00     0.006 C 
ATOM     26  C   UNL     1      -4.418  -2.297  -0.215  1.00  0.00     0.008 C 
ENDBRANCH  18  19
ENDBRANCH  17  18
ENDBRANCH  16  17
ENDBRANCH   9  16
ENDBRANCH   4   7
ENDBRANCH   2   3
ENDBRANCH   1   2
BRANCH   1  27
ATOM     27  C   UNL     1       2.844   4.492  -1.468  1.00  0.00     0.002 C 
BRANCH  27  28
ATOM     28  C   UNL     1       3.198   3.681  -2.722  1.00  0.00     0.002 C 
BRANCH  28  29
ATOM     29  C   UNL     1       2.468   4.091  -4.003  1.00  0.00     0.021 C 
BRANCH  29  30
ATOM     30  C   UNL     1       2.536   5.576  -4.337  1.00  0.00     0.116 C 
BRANCH  30  31
ATOM     31  N   UNL     1       3.897   6.054  -4.496  1.00  0.00    -0.352 N 
ATOM     32  C   UNL     1       4.398   6.914  -5.441  1.00  0.00     0.251 C 
ATOM     33  H   UNL     1       4.548   5.717  -3.839  1.00  0.00     0.163 HD
ATOM     34  O   UNL     1       5.603   7.117  -5.526  1.00  0.00    -0.269 OA
BRANCH  32  35
ATOM     35  C   UNL     1       3.467   7.574  -6.379  1.00  0.00     0.039 A 
ATOM     36  C   UNL     1       3.762   7.551  -7.744  1.00  0.00     0.014 A 
ATOM     37  C   UNL     1       2.304   8.196  -5.915  1.00  0.00     0.014 A 
ATOM     38  C   UNL     1       2.864   8.112  -8.651  1.00  0.00     0.010 A 
ATOM     39  C   UNL     1       1.376   8.689  -6.825  1.00  0.00     0.010 A 
ATOM     40  C   UNL     1       1.651   8.660  -8.200  1.00  0.00    -0.014 A 
BRANCH  40  41
ATOM     41  C   UNL     1       0.665   9.220  -9.156  1.00  0.00     0.031 A 
ATOM     42  C   UNL     1       0.340  10.687  -9.129  1.00  0.00     0.074 A 
ATOM     43  C   UNL     1       0.028   8.399 -10.012  1.00  0.00     0.049 A 
ATOM     44  N   UNL     1      -0.520  11.355  -9.854  1.00  0.00    -0.248 NA
ATOM     45  C   UNL     1       1.058  11.508  -8.139  1.00  0.00     0.031 C 
ATOM     46  C   UNL     1       0.230   6.951 -10.109  1.00  0.00     0.029 A 
ATOM     47  N   UNL     1      -0.924   8.666 -10.963  1.00  0.00    -0.354 N 
ATOM     48  C   UNL     1      -0.458  12.666  -9.399  1.00  0.00     0.074 A 
ATOM     49  C   UNL     1       0.483  12.691  -8.302  1.00  0.00     0.031 C 
ATOM     50  C   UNL     1      -0.551   6.464 -11.087  1.00  0.00     0.029 A 
ATOM     51  C   UNL     1      -1.335   7.554 -11.657  1.00  0.00     0.049 A 
ATOM     52  H   UNL     1      -1.278   9.569 -11.133  1.00  0.00     0.167 HD
ATOM     53  C   UNL     1      -1.109  13.757  -9.867  1.00  0.00     0.031 A 
ATOM     54  C   UNL     1      -2.246   7.428 -12.640  1.00  0.00     0.031 A 
ATOM     55  C   UNL     1      -2.038  13.732 -10.965  1.00  0.00     0.049 A 
ATOM     56  C   UNL     1      -2.969   8.651 -13.130  1.00  0.00     0.074 A 
ATOM     57  C   UNL     1      -2.710  14.791 -11.551  1.00  0.00     0.029 A 
ATOM     58  N   UNL     1      -2.427  12.586 -11.642  1.00  0.00    -0.354 N 
ATOM     59  N   UNL     1      -2.848   9.896 -12.736  1.00  0.00    -0.248 NA
ATOM     60  C   UNL     1      -3.945   8.453 -14.211  1.00  0.00     0.031 C 
ATOM     61  C   UNL     1      -3.547  14.278 -12.547  1.00  0.00     0.029 A 
ATOM     62  C   UNL     1      -3.350  12.909 -12.622  1.00  0.00     0.049 A 
ATOM     63  H   UNL     1      -2.096  11.678 -11.453  1.00  0.00     0.167 HD
ATOM     64  C   UNL     1      -3.710  10.632 -13.537  1.00  0.00     0.074 A 
ATOM     65  C   UNL     1      -4.334   9.697 -14.451  1.00  0.00     0.031 C 
ATOM     66  C   UNL     1      -3.962  11.964 -13.521  1.00  0.00     0.031 A 
BRANCH  53  67
ATOM     67  C   UNL     1      -0.844  15.069  -9.182  1.00  0.00    -0.014 A 
ATOM     68  C   UNL     1       0.398  15.715  -9.300  1.00  0.00     0.009 A 
ATOM     69  C   UNL     1      -1.858  15.684  -8.433  1.00  0.00     0.009 A 
ATOM     70  C   UNL     1       0.630  16.928  -8.649  1.00  0.00     0.001 A 
ATOM     71  C   UNL     1      -1.634  16.913  -7.809  1.00  0.00     0.001 A 
ATOM     72  C   UNL     1      -0.387  17.529  -7.909  1.00  0.00     0.000 A 
ENDBRANCH  53  67
BRANCH  54  73
ATOM     73  C   UNL     1      -2.515   6.094 -13.240  1.00  0.00    -0.014 A 
ATOM     74  C   UNL     1      -2.115   5.811 -14.555  1.00  0.00     0.009 A 
ATOM     75  C   UNL     1      -3.179   5.101 -12.504  1.00  0.00     0.009 A 
ATOM     76  C   UNL     1      -2.399   4.569 -15.129  1.00  0.00     0.001 A 
ATOM     77  C   UNL     1      -3.435   3.850 -13.071  1.00  0.00     0.001 A 
ATOM     78  C   UNL     1      -3.054   3.589 -14.386  1.00  0.00     0.000 A 
ENDBRANCH  54  73
BRANCH  66  79
ATOM     79  C   UNL     1      -4.928  12.493 -14.543  1.00  0.00    -0.014 A 
ATOM     80  C   UNL     1      -6.304  12.239 -14.448  1.00  0.00     0.009 A 
ATOM     81  C   UNL     1      -4.454  13.292 -15.595  1.00  0.00     0.009 A 
ATOM     82  C   UNL     1      -7.183  12.748 -15.407  1.00  0.00     0.001 A 
ATOM     83  C   UNL     1      -5.338  13.825 -16.534  1.00  0.00     0.001 A 
ATOM     84  C   UNL     1      -6.700  13.544 -16.445  1.00  0.00     0.000 A 
ENDBRANCH  66  79
ENDBRANCH  40  41
ENDBRANCH  32  35
ENDBRANCH  30  31
ENDBRANCH  29  30
ENDBRANCH  28  29
ENDBRANCH  27  28
ENDBRANCH   1  27
TORSDOF 18
