REMARK SMILES C[C@]1(c2ccccc2C(=O)NCCCCCCNC(=O)c2ccc(-c3c4nc(c(-c5ccccc5)c5ccc([nH]5)c(-c5ccccc5)c5nc(c(-c6ccccc6)c6ccc3[nH]6)C=C5)C=C4)cc2)NN=C(c2ccccc2)S1
REMARK SMILES IDX 14 1 13 2 12 3 11 4 9 5 10 6 8 8 3 9 4 10 5 11 7 12 6 13
REMARK SMILES IDX 2 14 1 15 69 16 78 17 70 18 71 20 72 21 73 22 77 23 74 24
REMARK SMILES IDX 76 25 75 26 15 27 16 28 17 29 18 30 19 31 20 33 21 34 22 35
REMARK SMILES IDX 68 36 23 37 67 38 24 39 25 40 26 41 61 42 27 43 66 44 60 45
REMARK SMILES IDX 62 46 28 47 65 48 59 49 58 50 29 52 51 53 36 54 50 55 37 56
REMARK SMILES IDX 40 57 49 58 63 59 38 60 39 61 48 63 64 64 41 65 30 66 31 67
REMARK SMILES IDX 35 68 32 69 34 70 33 71 52 72 53 73 57 74 54 75 56 76 55 77
REMARK SMILES IDX 42 78 43 79 47 80 44 81 46 82 45 83
REMARK H PARENT 11 7 69 19 18 32 62 51 40 62
REMARK Flexibility Score: inf
ROOT
ATOM      1  C   UNL     1       1.851   3.671  -3.664  1.00  0.00     0.002 C 
ENDROOT
BRANCH   1   2
ATOM      2  C   UNL     1       1.120   2.409  -3.200  1.00  0.00     0.021 C 
BRANCH   2   3
ATOM      3  C   UNL     1       1.838   1.044  -3.236  1.00  0.00     0.116 C 
BRANCH   3   4
ATOM      4  N   UNL     1       2.970   0.842  -2.347  1.00  0.00    -0.352 N 
ATOM      5  C   UNL     1       3.221   0.069  -1.229  1.00  0.00     0.251 C 
ATOM      6  O   UNL     1       4.417  -0.137  -0.986  1.00  0.00    -0.269 OA
ATOM      7  H   UNL     1       3.747   1.389  -2.604  1.00  0.00     0.163 HD
BRANCH   5   8
ATOM      8  C   UNL     1       2.224  -0.542  -0.267  1.00  0.00     0.046 A 
ATOM      9  C   UNL     1       1.195   0.106   0.489  1.00  0.00     0.002 A 
ATOM     10  C   UNL     1       0.466  -0.674   1.428  1.00  0.00     0.008 A 
ATOM     11  C   UNL     1       0.795  -1.999   1.707  1.00  0.00     0.000 A 
ATOM     12  C   UNL     1       2.563  -1.872   0.081  1.00  0.00     0.014 A 
ATOM     13  C   UNL     1       1.867  -2.588   1.058  1.00  0.00     0.001 A 
BRANCH   9  14
ATOM     14  C   UNL     1       0.762   1.569   0.322  1.00  0.00     0.129 C 
ATOM     15  C   UNL     1      -0.448   1.502  -0.639  1.00  0.00     0.054 C 
ATOM     16  N   UNL     1       0.255   2.290   1.526  1.00  0.00    -0.288 NA
ATOM     17  S   UNL     1       2.209   2.602  -0.077  1.00  0.00    -0.070 SA
ATOM     18  N   UNL     1       0.627   3.631   1.665  1.00  0.00    -0.171 NA
ATOM     19  H   UNL     1      -0.315   1.842   2.192  1.00  0.00     0.185 HD
ATOM     20  C   UNL     1       1.672   3.873   0.941  1.00  0.00     0.126 C 
BRANCH  20  21
ATOM     21  C   UNL     1       2.537   5.059   0.873  1.00  0.00     0.009 A 
ATOM     22  C   UNL     1       3.659   5.069   1.709  1.00  0.00     0.011 A 
ATOM     23  C   UNL     1       2.495   5.900  -0.248  1.00  0.00     0.011 A 
ATOM     24  C   UNL     1       4.739   5.903   1.415  1.00  0.00     0.001 A 
ATOM     25  C   UNL     1       3.580   6.732  -0.539  1.00  0.00     0.001 A 
ATOM     26  C   UNL     1       4.704   6.725   0.288  1.00  0.00     0.000 A 
ENDBRANCH  20  21
ENDBRANCH   9  14
ENDBRANCH   5   8
ENDBRANCH   3   4
ENDBRANCH   2   3
ENDBRANCH   1   2
BRANCH   1  27
ATOM     27  C   UNL     1       1.080   4.410  -4.768  1.00  0.00     0.002 C 
BRANCH  27  28
ATOM     28  C   UNL     1      -0.324   4.925  -4.398  1.00  0.00     0.021 C 
BRANCH  28  29
ATOM     29  C   UNL     1      -0.376   6.044  -3.360  1.00  0.00     0.116 C 
BRANCH  29  30
ATOM     30  N   UNL     1       0.337   7.235  -3.796  1.00  0.00    -0.352 N 
ATOM     31  C   UNL     1      -0.158   8.434  -4.254  1.00  0.00     0.251 C 
ATOM     32  H   UNL     1       1.319   7.174  -3.757  1.00  0.00     0.163 HD
ATOM     33  O   UNL     1       0.572   9.227  -4.830  1.00  0.00    -0.269 OA
BRANCH  31  34
ATOM     34  C   UNL     1      -1.587   8.758  -4.057  1.00  0.00     0.039 A 
ATOM     35  C   UNL     1      -2.335   9.233  -5.136  1.00  0.00     0.014 A 
ATOM     36  C   UNL     1      -2.181   8.605  -2.801  1.00  0.00     0.014 A 
ATOM     37  C   UNL     1      -3.698   9.491  -4.971  1.00  0.00     0.010 A 
ATOM     38  C   UNL     1      -3.554   8.791  -2.657  1.00  0.00     0.010 A 
ATOM     39  C   UNL     1      -4.328   9.237  -3.739  1.00  0.00    -0.014 A 
BRANCH  39  40
ATOM     40  C   UNL     1      -5.795   9.419  -3.583  1.00  0.00     0.031 A 
ATOM     41  C   UNL     1      -6.345  10.449  -2.634  1.00  0.00     0.074 A 
ATOM     42  C   UNL     1      -6.637   8.622  -4.271  1.00  0.00     0.049 A 
ATOM     43  N   UNL     1      -7.593  10.760  -2.388  1.00  0.00    -0.248 NA
ATOM     44  C   UNL     1      -5.369  11.213  -1.841  1.00  0.00     0.031 C 
ATOM     45  C   UNL     1      -6.234   7.553  -5.188  1.00  0.00     0.029 A 
ATOM     46  N   UNL     1      -8.009   8.594  -4.314  1.00  0.00    -0.354 N 
ATOM     47  C   UNL     1      -7.552  11.742  -1.406  1.00  0.00     0.074 A 
ATOM     48  C   UNL     1      -6.160  11.936  -1.062  1.00  0.00     0.031 C 
ATOM     49  C   UNL     1      -7.330   7.009  -5.739  1.00  0.00     0.029 A 
ATOM     50  C   UNL     1      -8.514   7.659  -5.185  1.00  0.00     0.049 A 
ATOM     51  H   UNL     1      -8.578   9.187  -3.772  1.00  0.00     0.167 HD
ATOM     52  C   UNL     1      -8.576  12.435  -0.852  1.00  0.00     0.031 A 
ATOM     53  C   UNL     1      -9.786   7.360  -5.508  1.00  0.00     0.031 A 
ATOM     54  C   UNL     1      -9.961  12.242  -1.195  1.00  0.00     0.049 A 
ATOM     55  C   UNL     1     -10.905   8.132  -4.866  1.00  0.00     0.074 A 
ATOM     56  C   UNL     1     -11.067  12.940  -0.740  1.00  0.00     0.029 A 
ATOM     57  N   UNL     1     -10.431  11.273  -2.067  1.00  0.00    -0.354 N 
ATOM     58  N   UNL     1     -10.843   9.121  -4.008  1.00  0.00    -0.248 NA
ATOM     59  C   UNL     1     -12.271   7.751  -5.250  1.00  0.00     0.031 C 
ATOM     60  C   UNL     1     -12.211  12.347  -1.284  1.00  0.00     0.029 A 
ATOM     61  C   UNL     1     -11.814  11.328  -2.134  1.00  0.00     0.049 A 
ATOM     62  H   UNL     1      -9.866  10.639  -2.565  1.00  0.00     0.167 HD
ATOM     63  C   UNL     1     -12.159   9.500  -3.771  1.00  0.00     0.074 A 
ATOM     64  C   UNL     1     -12.993   8.649  -4.595  1.00  0.00     0.031 C 
ATOM     65  C   UNL     1     -12.634  10.466  -2.947  1.00  0.00     0.031 A 
BRANCH  52  66
ATOM     66  C   UNL     1      -8.235  13.456   0.201  1.00  0.00    -0.014 A 
ATOM     67  C   UNL     1      -7.537  14.633  -0.116  1.00  0.00     0.009 A 
ATOM     68  C   UNL     1      -8.644  13.251   1.528  1.00  0.00     0.009 A 
ATOM     69  C   UNL     1      -7.218  15.559   0.880  1.00  0.00     0.001 A 
ATOM     70  C   UNL     1      -8.354  14.194   2.515  1.00  0.00     0.001 A 
ATOM     71  C   UNL     1      -7.631  15.341   2.193  1.00  0.00     0.000 A 
ENDBRANCH  52  66
BRANCH  53  72
ATOM     72  C   UNL     1     -10.076   6.299  -6.510  1.00  0.00    -0.014 A 
ATOM     73  C   UNL     1     -10.619   6.631  -7.761  1.00  0.00     0.009 A 
ATOM     74  C   UNL     1      -9.826   4.949  -6.217  1.00  0.00     0.009 A 
ATOM     75  C   UNL     1     -10.934   5.632  -8.685  1.00  0.00     0.001 A 
ATOM     76  C   UNL     1     -10.111   3.955  -7.156  1.00  0.00     0.001 A 
ATOM     77  C   UNL     1     -10.675   4.296  -8.384  1.00  0.00     0.000 A 
ENDBRANCH  53  72
BRANCH  65  78
ATOM     78  C   UNL     1     -14.125  10.669  -2.920  1.00  0.00    -0.014 A 
ATOM     79  C   UNL     1     -14.986   9.710  -2.364  1.00  0.00     0.009 A 
ATOM     80  C   UNL     1     -14.674  11.849  -3.446  1.00  0.00     0.009 A 
ATOM     81  C   UNL     1     -16.369   9.906  -2.381  1.00  0.00     0.001 A 
ATOM     82  C   UNL     1     -16.053  12.060  -3.428  1.00  0.00     0.001 A 
ATOM     83  C   UNL     1     -16.900  11.082  -2.909  1.00  0.00     0.000 A 
ENDBRANCH  65  78
ENDBRANCH  39  40
ENDBRANCH  31  34
ENDBRANCH  29  30
ENDBRANCH  28  29
ENDBRANCH  27  28
ENDBRANCH   1  27
TORSDOF 15
