REMARK SMILES COc1ccc(Cl)cc1C(=O)Nc1ccc(C(=O)NCCCCCCNC(=O)c2ccc(-c3c4nc(c(-c5ccccc5)c5ccc([nH]5)c(-c5ccccc5)c5nc(c(-c6ccccc6)c6ccc3[nH]6)C=C5)C=C4)cc2)cc1C
REMARK SMILES IDX 22 1 21 2 20 3 19 4 17 5 18 6 16 8 13 9 14 10 78 11 15 12
REMARK SMILES IDX 77 13 79 14 12 15 10 16 11 17 9 19 3 20 4 21 5 22 8 23 6 24
REMARK SMILES IDX 7 25 2 26 1 27 23 28 24 29 25 30 26 31 27 32 28 34 29 35
REMARK SMILES IDX 30 36 76 37 31 38 75 39 32 40 33 41 34 42 69 43 35 44 74 45
REMARK SMILES IDX 68 46 70 47 36 48 73 49 67 50 66 51 37 53 59 54 44 55 58 56
REMARK SMILES IDX 45 57 48 58 57 59 71 60 46 61 47 62 56 64 72 65 49 66 38 67
REMARK SMILES IDX 39 68 43 69 40 70 42 71 41 72 60 73 61 74 65 75 62 76 64 77
REMARK SMILES IDX 63 78 50 79 51 80 55 81 52 82 54 83 53 84
REMARK H PARENT 19 7 12 18 26 33 70 52 48 63
REMARK Flexibility Score: inf
ROOT
ATOM      1  C   UNL     1       4.063   0.680   4.467  1.00  0.00     0.002 C 
ENDROOT
BRANCH   1   2
ATOM      2  C   UNL     1       2.852   0.904   3.550  1.00  0.00     0.021 C 
BRANCH   2   3
ATOM      3  C   UNL     1       2.865   0.048   2.283  1.00  0.00     0.116 C 
BRANCH   3   4
ATOM      4  N   UNL     1       2.368  -1.286   2.565  1.00  0.00    -0.352 N 
ATOM      5  C   UNL     1       1.241  -1.964   2.175  1.00  0.00     0.251 C 
ATOM      6  O   UNL     1       1.102  -3.122   2.569  1.00  0.00    -0.269 OA
ATOM      7  H   UNL     1       2.958  -1.809   3.154  1.00  0.00     0.163 HD
BRANCH   5   8
ATOM      8  C   UNL     1       0.258  -1.404   1.208  1.00  0.00     0.040 A 
ATOM      9  C   UNL     1      -1.216  -0.481  -0.989  1.00  0.00     0.044 A 
ATOM     10  C   UNL     1      -0.762   0.414  -0.015  1.00  0.00     0.027 A 
ATOM     11  C   UNL     1      -1.104  -1.866  -0.773  1.00  0.00    -0.027 A 
ATOM     12  C   UNL     1      -0.073  -0.054   1.109  1.00  0.00     0.016 A 
ATOM     13  C   UNL     1      -0.322  -2.308   0.307  1.00  0.00     0.019 A 
ATOM     14  C   UNL     1      -1.615  -2.907  -1.732  1.00  0.00     0.046 C 
BRANCH   9  15
ATOM     15  N   UNL     1      -1.790  -0.023  -2.178  1.00  0.00    -0.322 N 
ATOM     16  C   UNL     1      -1.470   1.014  -3.019  1.00  0.00     0.259 C 
ATOM     17  O   UNL     1      -2.317   1.316  -3.868  1.00  0.00    -0.269 OA
ATOM     18  H   UNL     1      -2.574  -0.544  -2.467  1.00  0.00     0.170 HD
BRANCH  16  19
ATOM     19  C   UNL     1      -0.160   1.740  -3.064  1.00  0.00     0.083 A 
ATOM     20  C   UNL     1       1.112   1.213  -2.761  1.00  0.00     0.131 A 
ATOM     21  C   UNL     1       2.259   1.996  -2.996  1.00  0.00     0.049 A 
ATOM     22  C   UNL     1       2.163   3.270  -3.556  1.00  0.00     0.024 A 
ATOM     23  C   UNL     1      -0.233   3.030  -3.636  1.00  0.00     0.038 A 
ATOM     24  C   UNL     1       0.916   3.776  -3.887  1.00  0.00     0.042 A 
ATOM     25  Cl  UNL     1       0.797   5.311  -4.653  1.00  0.00    -0.084 Cl
BRANCH  20  26
ATOM     26  O   UNL     1       1.226  -0.092  -2.360  1.00  0.00    -0.496 OA
ATOM     27  C   UNL     1       2.379  -0.418  -1.585  1.00  0.00     0.278 C 
ENDBRANCH  20  26
ENDBRANCH  16  19
ENDBRANCH   9  15
ENDBRANCH   5   8
ENDBRANCH   3   4
ENDBRANCH   2   3
ENDBRANCH   1   2
BRANCH   1  28
ATOM     28  C   UNL     1       5.446   0.939   3.841  1.00  0.00     0.002 C 
BRANCH  28  29
ATOM     29  C   UNL     1       5.583   2.224   3.019  1.00  0.00     0.021 C 
BRANCH  29  30
ATOM     30  C   UNL     1       5.477   3.504   3.839  1.00  0.00     0.116 C 
BRANCH  30  31
ATOM     31  N   UNL     1       6.767   4.089   4.182  1.00  0.00    -0.352 N 
ATOM     32  C   UNL     1       7.060   5.187   4.980  1.00  0.00     0.251 C 
ATOM     33  H   UNL     1       7.548   3.637   3.789  1.00  0.00     0.163 HD
ATOM     34  O   UNL     1       8.204   5.545   5.134  1.00  0.00    -0.269 OA
BRANCH  32  35
ATOM     35  C   UNL     1       5.964   5.821   5.760  1.00  0.00     0.039 A 
ATOM     36  C   UNL     1       6.194   6.030   7.125  1.00  0.00     0.014 A 
ATOM     37  C   UNL     1       4.688   5.987   5.230  1.00  0.00     0.014 A 
ATOM     38  C   UNL     1       5.109   6.126   7.989  1.00  0.00     0.010 A 
ATOM     39  C   UNL     1       3.607   5.999   6.089  1.00  0.00     0.010 A 
ATOM     40  C   UNL     1       3.824   5.973   7.469  1.00  0.00    -0.014 A 
BRANCH  40  41
ATOM     41  C   UNL     1       2.680   5.630   8.305  1.00  0.00     0.031 A 
ATOM     42  C   UNL     1       1.722   6.680   8.716  1.00  0.00     0.074 A 
ATOM     43  C   UNL     1       2.501   4.344   8.690  1.00  0.00     0.049 A 
ATOM     44  N   UNL     1       1.002   6.633   9.787  1.00  0.00    -0.248 NA
ATOM     45  C   UNL     1       1.548   7.917   7.960  1.00  0.00     0.031 C 
ATOM     46  C   UNL     1       1.333   3.789   9.374  1.00  0.00     0.029 A 
ATOM     47  N   UNL     1       3.409   3.281   8.713  1.00  0.00    -0.354 N 
ATOM     48  C   UNL     1       0.078   7.650   9.709  1.00  0.00     0.074 A 
ATOM     49  C   UNL     1       0.528   8.480   8.615  1.00  0.00     0.031 C 
ATOM     50  C   UNL     1       1.709   2.671  10.018  1.00  0.00     0.029 A 
ATOM     51  C   UNL     1       3.156   2.587   9.904  1.00  0.00     0.049 A 
ATOM     52  H   UNL     1       4.087   3.064   8.033  1.00  0.00     0.167 HD
ATOM     53  C   UNL     1      -1.049   7.596  10.477  1.00  0.00     0.031 A 
ATOM     54  C   UNL     1       4.012   2.521  10.969  1.00  0.00     0.031 A 
ATOM     55  C   UNL     1      -1.009   6.475  11.417  1.00  0.00     0.049 A 
ATOM     56  C   UNL     1       3.396   3.002  12.275  1.00  0.00     0.074 A 
ATOM     57  C   UNL     1      -1.583   5.214  11.407  1.00  0.00     0.029 A 
ATOM     58  N   UNL     1      -0.050   6.462  12.424  1.00  0.00    -0.354 N 
ATOM     59  N   UNL     1       2.327   3.748  12.342  1.00  0.00    -0.248 NA
ATOM     60  C   UNL     1       3.977   2.751  13.595  1.00  0.00     0.031 C 
ATOM     61  C   UNL     1      -0.892   4.411  12.354  1.00  0.00     0.029 A 
ATOM     62  C   UNL     1       0.073   5.195  12.962  1.00  0.00     0.049 A 
ATOM     63  H   UNL     1       0.470   7.247  12.712  1.00  0.00     0.167 HD
ATOM     64  C   UNL     1       2.086   4.094  13.645  1.00  0.00     0.074 A 
ATOM     65  C   UNL     1       3.134   3.427  14.397  1.00  0.00     0.031 C 
ATOM     66  C   UNL     1       1.064   4.928  13.995  1.00  0.00     0.031 A 
BRANCH  53  67
ATOM     67  C   UNL     1      -2.312   8.370  10.159  1.00  0.00    -0.014 A 
ATOM     68  C   UNL     1      -3.560   7.864  10.572  1.00  0.00     0.009 A 
ATOM     69  C   UNL     1      -2.358   9.549   9.396  1.00  0.00     0.009 A 
ATOM     70  C   UNL     1      -4.772   8.437  10.159  1.00  0.00     0.001 A 
ATOM     71  C   UNL     1      -3.564  10.108   8.948  1.00  0.00     0.001 A 
ATOM     72  C   UNL     1      -4.774   9.542   9.319  1.00  0.00     0.000 A 
ENDBRANCH  53  67
BRANCH  54  73
ATOM     73  C   UNL     1       5.453   2.694  10.643  1.00  0.00    -0.014 A 
ATOM     74  C   UNL     1       6.099   1.717   9.864  1.00  0.00     0.009 A 
ATOM     75  C   UNL     1       6.087   3.931  10.827  1.00  0.00     0.009 A 
ATOM     76  C   UNL     1       7.287   2.012   9.189  1.00  0.00     0.001 A 
ATOM     77  C   UNL     1       7.284   4.218  10.160  1.00  0.00     0.001 A 
ATOM     78  C   UNL     1       7.863   3.273   9.314  1.00  0.00     0.000 A 
ENDBRANCH  54  73
BRANCH  66  79
ATOM     79  C   UNL     1       0.869   5.541  15.358  1.00  0.00    -0.014 A 
ATOM     80  C   UNL     1       1.913   5.799  16.257  1.00  0.00     0.009 A 
ATOM     81  C   UNL     1      -0.410   6.021  15.713  1.00  0.00     0.009 A 
ATOM     82  C   UNL     1       1.681   6.457  17.473  1.00  0.00     0.001 A 
ATOM     83  C   UNL     1      -0.637   6.717  16.903  1.00  0.00     0.001 A 
ATOM     84  C   UNL     1       0.409   6.924  17.791  1.00  0.00     0.000 A 
ENDBRANCH  66  79
ENDBRANCH  40  41
ENDBRANCH  32  35
ENDBRANCH  30  31
ENDBRANCH  29  30
ENDBRANCH  28  29
ENDBRANCH   1  28
TORSDOF 16
