REMARK SMILES O=C(CCSc1ccccc1F)N[C@H](CO)C(=O)NCCCCCCNC(=O)c1ccc(-c2c3nc(c(-c4ccccc4)c4ccc([nH]4)c(-c4ccccc4)c4nc(c(-c5ccccc5)c5ccc2[nH]5)C=C4)C=C3)cc1
REMARK SMILES IDX 21 1 20 2 19 3 17 4 18 5 14 7 13 8 1 9 2 10 3 12 4 13 5 14
REMARK SMILES IDX 6 15 7 16 11 17 8 18 10 19 12 20 9 21 15 22 16 23 22 25
REMARK SMILES IDX 23 26 24 27 25 28 26 29 27 30 28 32 29 33 30 34 76 35 31 36
REMARK SMILES IDX 75 37 32 38 33 39 34 40 69 41 35 42 74 43 68 44 70 45 36 46
REMARK SMILES IDX 73 47 67 48 66 49 37 51 59 52 44 53 58 54 45 55 48 56 57 57
REMARK SMILES IDX 71 58 46 59 47 60 56 62 72 63 49 64 38 65 39 66 43 67 40 68
REMARK SMILES IDX 42 69 41 70 60 71 61 72 65 73 62 74 64 75 63 76 50 77 51 78
REMARK SMILES IDX 55 79 52 80 54 81 53 82
REMARK H PARENT 19 6 13 11 16 24 26 31 70 50 48 61
REMARK Flexibility Score: inf
ROOT
ATOM      1  C   UNL     1       6.274   2.785  -2.433  1.00  0.00     0.021 C 
ENDROOT
BRANCH   1   2
ATOM      2  C   UNL     1       5.484   3.799  -1.589  1.00  0.00     0.116 C 
BRANCH   2   3
ATOM      3  N   UNL     1       3.859   3.785  -1.867  1.00  0.00    -0.354 N 
ATOM      4  C   UNL     1       2.129   3.167  -1.173  1.00  0.00     0.244 C 
ATOM      5  O   UNL     1       0.957   3.473  -1.577  1.00  0.00    -0.273 OA
ATOM      6  H   UNL     1       3.691   4.275  -2.705  1.00  0.00     0.163 HD
BRANCH   4   7
ATOM      7  C   UNL     1       1.749   2.156   0.286  1.00  0.00     0.197 C 
BRANCH   7   8
ATOM      8  N   UNL     1       1.760   2.895   1.579  1.00  0.00    -0.342 N 
ATOM      9  O   UNL     1       3.334   1.695   2.738  1.00  0.00    -0.275 OA
ATOM     10  C   UNL     1       2.705   2.735   2.562  1.00  0.00     0.221 C 
ATOM     11  H   UNL     1       1.039   3.545   1.741  1.00  0.00     0.164 HD
BRANCH  10  12
ATOM     12  C   UNL     1       3.037   4.001   3.319  1.00  0.00     0.111 C 
BRANCH  12  13
ATOM     13  C   UNL     1       4.035   4.881   2.561  1.00  0.00     0.085 C 
BRANCH  13  14
ATOM     14  S   UNL     1       3.326   5.841   1.181  1.00  0.00    -0.123 SA
BRANCH  14  15
ATOM     15  C   UNL     1       3.248   4.660  -0.161  1.00  0.00     0.043 A 
ATOM     16  C   UNL     1       3.894   2.937  -0.078  1.00  0.00     0.018 A 
ATOM     17  C   UNL     1       2.459   5.243  -1.698  1.00  0.00     0.136 A 
ATOM     18  C   UNL     1       3.686   1.822  -1.535  1.00  0.00     0.001 A 
ATOM     19  C   UNL     1       2.268   4.148  -3.148  1.00  0.00     0.040 A 
ATOM     20  F   UNL     1       2.026   6.510  -1.788  1.00  0.00    -0.206 F 
ATOM     21  C   UNL     1       2.871   2.437  -3.043  1.00  0.00     0.003 A 
ENDBRANCH  14  15
ENDBRANCH  13  14
ENDBRANCH  12  13
ENDBRANCH  10  12
ENDBRANCH   7   8
BRANCH   7  22
ATOM     22  C   UNL     1       2.098   0.643   0.330  1.00  0.00     0.191 C 
BRANCH  22  23
ATOM     23  O   UNL     1       1.292  -0.066   1.273  1.00  0.00    -0.394 OA
ATOM     24  H   UNL     1       1.447   0.290   2.163  1.00  0.00     0.210 HD
ENDBRANCH  22  23
ENDBRANCH   7  22
ENDBRANCH   4   7
ENDBRANCH   2   3
ENDBRANCH   1   2
BRANCH   1  25
ATOM     25  C   UNL     1       7.014   3.406  -3.611  1.00  0.00     0.002 C 
BRANCH  25  26
ATOM     26  C   UNL     1       7.884   4.610  -3.251  1.00  0.00     0.002 C 
BRANCH  26  27
ATOM     27  C   UNL     1       8.790   4.394  -2.035  1.00  0.00     0.021 C 
BRANCH  27  28
ATOM     28  C   UNL     1       9.724   3.199  -2.180  1.00  0.00     0.116 C 
BRANCH  28  29
ATOM     29  N   UNL     1      10.533   3.326  -3.380  1.00  0.00    -0.352 N 
ATOM     30  C   UNL     1      11.872   3.588  -3.477  1.00  0.00     0.251 C 
ATOM     31  H   UNL     1      10.056   3.208  -4.233  1.00  0.00     0.163 HD
ATOM     32  O   UNL     1      12.343   4.051  -4.510  1.00  0.00    -0.269 OA
BRANCH  30  33
ATOM     33  C   UNL     1      12.739   3.292  -2.324  1.00  0.00     0.039 A 
ATOM     34  C   UNL     1      13.758   4.183  -1.992  1.00  0.00     0.014 A 
ATOM     35  C   UNL     1      12.551   2.117  -1.587  1.00  0.00     0.014 A 
ATOM     36  C   UNL     1      14.574   3.907  -0.897  1.00  0.00     0.010 A 
ATOM     37  C   UNL     1      13.302   1.892  -0.442  1.00  0.00     0.010 A 
ATOM     38  C   UNL     1      14.335   2.774  -0.099  1.00  0.00    -0.014 A 
BRANCH  38  39
ATOM     39  C   UNL     1      15.176   2.493   1.087  1.00  0.00     0.031 A 
ATOM     40  C   UNL     1      16.017   1.247   1.138  1.00  0.00     0.074 A 
ATOM     41  C   UNL     1      15.164   3.352   2.124  1.00  0.00     0.049 A 
ATOM     42  N   UNL     1      16.809   0.828   2.092  1.00  0.00    -0.248 NA
ATOM     43  C   UNL     1      15.948   0.343  -0.024  1.00  0.00     0.031 C 
ATOM     44  C   UNL     1      14.365   4.578   2.201  1.00  0.00     0.029 A 
ATOM     45  N   UNL     1      15.853   3.331   3.309  1.00  0.00    -0.354 N 
ATOM     46  C   UNL     1      17.335  -0.377   1.642  1.00  0.00     0.074 A 
ATOM     47  C   UNL     1      16.716  -0.662   0.368  1.00  0.00     0.031 C 
ATOM     48  C   UNL     1      14.644   5.213   3.351  1.00  0.00     0.029 A 
ATOM     49  C   UNL     1      15.597   4.415   4.114  1.00  0.00     0.049 A 
ATOM     50  H   UNL     1      16.472   2.608   3.560  1.00  0.00     0.167 HD
ATOM     51  C   UNL     1      18.274  -1.161   2.222  1.00  0.00     0.031 A 
ATOM     52  C   UNL     1      16.072   4.724   5.334  1.00  0.00     0.031 A 
ATOM     53  C   UNL     1      18.880  -0.881   3.496  1.00  0.00     0.049 A 
ATOM     54  C   UNL     1      17.060   3.793   5.985  1.00  0.00     0.074 A 
ATOM     55  C   UNL     1      19.851  -1.605   4.166  1.00  0.00     0.029 A 
ATOM     56  N   UNL     1      18.570   0.209   4.294  1.00  0.00    -0.354 N 
ATOM     57  N   UNL     1      17.591   2.689   5.519  1.00  0.00    -0.248 NA
ATOM     58  C   UNL     1      17.523   4.163   7.329  1.00  0.00     0.031 C 
ATOM     59  C   UNL     1      20.084  -0.985   5.397  1.00  0.00     0.029 A 
ATOM     60  C   UNL     1      19.316   0.166   5.460  1.00  0.00     0.049 A 
ATOM     61  H   UNL     1      17.918   0.910   4.066  1.00  0.00     0.167 HD
ATOM     62  C   UNL     1      18.480   2.256   6.495  1.00  0.00     0.074 A 
ATOM     63  C   UNL     1      18.434   3.231   7.564  1.00  0.00     0.031 C 
ATOM     64  C   UNL     1      19.264   1.151   6.509  1.00  0.00     0.031 A 
BRANCH  51  65
ATOM     65  C   UNL     1      18.709  -2.393   1.477  1.00  0.00    -0.014 A 
ATOM     66  C   UNL     1      19.444  -2.294   0.283  1.00  0.00     0.009 A 
ATOM     67  C   UNL     1      18.430  -3.666   1.996  1.00  0.00     0.009 A 
ATOM     68  C   UNL     1      19.862  -3.443  -0.390  1.00  0.00     0.001 A 
ATOM     69  C   UNL     1      18.879  -4.814   1.339  1.00  0.00     0.001 A 
ATOM     70  C   UNL     1      19.586  -4.701   0.142  1.00  0.00     0.000 A 
ENDBRANCH  51  65
BRANCH  52  71
ATOM     71  C   UNL     1      15.623   5.958   6.034  1.00  0.00    -0.014 A 
ATOM     72  C   UNL     1      16.535   6.982   6.340  1.00  0.00     0.009 A 
ATOM     73  C   UNL     1      14.291   6.093   6.457  1.00  0.00     0.009 A 
ATOM     74  C   UNL     1      16.137   8.082   7.102  1.00  0.00     0.001 A 
ATOM     75  C   UNL     1      13.886   7.215   7.182  1.00  0.00     0.001 A 
ATOM     76  C   UNL     1      14.813   8.198   7.521  1.00  0.00     0.000 A 
ENDBRANCH  52  71
BRANCH  64  77
ATOM     77  C   UNL     1      20.177   0.970   7.692  1.00  0.00    -0.014 A 
ATOM     78  C   UNL     1      19.677   0.690   8.973  1.00  0.00     0.009 A 
ATOM     79  C   UNL     1      21.567   1.056   7.510  1.00  0.00     0.009 A 
ATOM     80  C   UNL     1      20.547   0.549  10.056  1.00  0.00     0.001 A 
ATOM     81  C   UNL     1      22.436   0.874   8.586  1.00  0.00     0.001 A 
ATOM     82  C   UNL     1      21.925   0.636   9.860  1.00  0.00     0.000 A 
ENDBRANCH  64  77
ENDBRANCH  38  39
ENDBRANCH  30  33
ENDBRANCH  28  29
ENDBRANCH  27  28
ENDBRANCH  26  27
ENDBRANCH  25  26
ENDBRANCH   1  25
TORSDOF 20
