REMARK SMILES Cc1ncccc1C(=O)Nc1cnccc1C(=O)NCCCCCCNC(=O)c1ccc(-c2c3nc(c(-c4ccccc4)c4ccc([nH]4)c(-c4ccccc4)c4nc(c(-c5ccccc5)c5ccc2[nH]5)C=C4)C=C3)cc1
REMARK SMILES IDX 22 1 21 2 20 3 19 4 17 5 18 6 16 8 11 9 12 10 13 11 15 12
REMARK SMILES IDX 14 13 10 14 8 15 9 16 7 18 1 19 2 20 3 21 4 22 6 23 5 24
REMARK SMILES IDX 23 25 24 26 25 27 26 28 27 29 28 31 29 32 30 33 76 34 31 35
REMARK SMILES IDX 75 36 32 37 33 38 34 39 69 40 35 41 74 42 68 43 70 44 36 45
REMARK SMILES IDX 73 46 67 47 66 48 37 50 59 51 44 52 58 53 45 54 48 55 57 56
REMARK SMILES IDX 71 57 46 58 47 59 56 61 72 62 49 63 38 64 39 65 43 66 40 67
REMARK SMILES IDX 42 68 41 69 60 70 61 71 65 72 62 73 64 74 63 75 50 76 51 77
REMARK SMILES IDX 55 78 52 79 54 80 53 81
REMARK H PARENT 19 7 10 17 26 30 70 49 48 60
REMARK Flexibility Score: inf
ROOT
ATOM      1  C   UNL     1      -0.280  -4.422   3.276  1.00  0.00     0.002 C 
ENDROOT
BRANCH   1   2
ATOM      2  C   UNL     1       1.197  -4.224   2.918  1.00  0.00     0.021 C 
BRANCH   2   3
ATOM      3  C   UNL     1       1.499  -3.152   1.879  1.00  0.00     0.116 C 
BRANCH   3   4
ATOM      4  N   UNL     1       1.312  -1.796   2.344  1.00  0.00    -0.352 N 
ATOM      5  C   UNL     1       1.948  -0.633   1.984  1.00  0.00     0.253 C 
ATOM      6  O   UNL     1       1.592   0.409   2.536  1.00  0.00    -0.269 OA
ATOM      7  H   UNL     1       0.614  -1.689   3.030  1.00  0.00     0.163 HD
BRANCH   5   8
ATOM      8  C   UNL     1       3.114  -0.586   1.056  1.00  0.00     0.066 A 
ATOM      9  C   UNL     1       3.329  -1.338  -0.103  1.00  0.00     0.072 A 
ATOM     10  C   UNL     1       4.618  -1.293  -0.650  1.00  0.00     0.137 A 
ATOM     11  N   UNL     1       5.608  -0.466  -0.251  1.00  0.00    -0.263 NA
ATOM     12  C   UNL     1       4.123   0.313   1.459  1.00  0.00     0.036 A 
ATOM     13  C   UNL     1       5.321   0.357   0.770  1.00  0.00     0.112 A 
BRANCH   9  14
ATOM     14  N   UNL     1       2.409  -2.087  -0.860  1.00  0.00    -0.320 N 
ATOM     15  C   UNL     1       1.070  -1.957  -1.128  1.00  0.00     0.257 C 
ATOM     16  O   UNL     1       0.527  -2.893  -1.721  1.00  0.00    -0.269 OA
ATOM     17  H   UNL     1       2.814  -2.876  -1.289  1.00  0.00     0.170 HD
BRANCH  15  18
ATOM     18  C   UNL     1       0.246  -0.783  -0.777  1.00  0.00     0.061 A 
ATOM     19  C   UNL     1       1.846   1.030  -1.632  1.00  0.00     0.067 C 
ATOM     20  C   UNL     1       0.579   0.555  -0.992  1.00  0.00     0.050 A 
ATOM     21  N   UNL     1      -0.274   1.568  -0.667  1.00  0.00    -0.261 NA
ATOM     22  C   UNL     1      -1.493   1.252  -0.179  1.00  0.00     0.111 A 
ATOM     23  C   UNL     1      -1.051  -1.071  -0.320  1.00  0.00     0.017 A 
ATOM     24  C   UNL     1      -1.934  -0.044  -0.011  1.00  0.00     0.021 A 
ENDBRANCH  15  18
ENDBRANCH   9  14
ENDBRANCH   5   8
ENDBRANCH   3   4
ENDBRANCH   2   3
ENDBRANCH   1   2
BRANCH   1  25
ATOM     25  C   UNL     1      -1.260  -4.640   2.117  1.00  0.00     0.002 C 
BRANCH  25  26
ATOM     26  C   UNL     1      -0.888  -5.710   1.088  1.00  0.00     0.021 C 
BRANCH  26  27
ATOM     27  C   UNL     1      -0.550  -7.087   1.649  1.00  0.00     0.116 C 
BRANCH  27  28
ATOM     28  N   UNL     1      -1.605  -7.639   2.481  1.00  0.00    -0.352 N 
ATOM     29  C   UNL     1      -2.233  -8.860   2.413  1.00  0.00     0.251 C 
ATOM     30  H   UNL     1      -1.918  -7.049   3.205  1.00  0.00     0.163 HD
ATOM     31  O   UNL     1      -3.196  -9.101   3.126  1.00  0.00    -0.269 OA
BRANCH  29  32
ATOM     32  C   UNL     1      -1.759  -9.874   1.447  1.00  0.00     0.039 A 
ATOM     33  C   UNL     1      -2.697 -10.514   0.633  1.00  0.00     0.014 A 
ATOM     34  C   UNL     1      -0.400 -10.174   1.330  1.00  0.00     0.014 A 
ATOM     35  C   UNL     1      -2.263 -11.390  -0.364  1.00  0.00     0.010 A 
ATOM     36  C   UNL     1       0.036 -10.993   0.293  1.00  0.00     0.010 A 
ATOM     37  C   UNL     1      -0.890 -11.594  -0.574  1.00  0.00    -0.014 A 
BRANCH  37  38
ATOM     38  C   UNL     1      -0.395 -12.385  -1.727  1.00  0.00     0.031 A 
ATOM     39  C   UNL     1       0.368 -13.658  -1.507  1.00  0.00     0.074 A 
ATOM     40  C   UNL     1      -0.557 -11.901  -2.974  1.00  0.00     0.049 A 
ATOM     41  N   UNL     1       0.951 -14.434  -2.385  1.00  0.00    -0.248 NA
ATOM     42  C   UNL     1       0.514 -14.106  -0.114  1.00  0.00     0.031 C 
ATOM     43  C   UNL     1      -1.262 -10.665  -3.318  1.00  0.00     0.029 A 
ATOM     44  N   UNL     1      -0.131 -12.389  -4.183  1.00  0.00    -0.354 N 
ATOM     45  C   UNL     1       1.542 -15.454  -1.652  1.00  0.00     0.074 A 
ATOM     46  C   UNL     1       1.291 -15.169  -0.255  1.00  0.00     0.031 C 
ATOM     47  C   UNL     1      -1.250 -10.509  -4.650  1.00  0.00     0.029 A 
ATOM     48  C   UNL     1      -0.489 -11.601  -5.250  1.00  0.00     0.049 A 
ATOM     49  H   UNL     1       0.383 -13.223  -4.278  1.00  0.00     0.167 HD
ATOM     50  C   UNL     1       2.221 -16.537  -2.102  1.00  0.00     0.031 A 
ATOM     51  C   UNL     1      -0.224 -11.733  -6.562  1.00  0.00     0.031 A 
ATOM     52  C   UNL     1       2.485 -16.805  -3.491  1.00  0.00     0.049 A 
ATOM     53  C   UNL     1       0.601 -12.898  -7.030  1.00  0.00     0.074 A 
ATOM     54  C   UNL     1       3.120 -17.898  -4.054  1.00  0.00     0.029 A 
ATOM     55  N   UNL     1       2.144 -15.959  -4.537  1.00  0.00    -0.354 N 
ATOM     56  N   UNL     1       1.095 -13.892  -6.333  1.00  0.00    -0.248 NA
ATOM     57  C   UNL     1       0.908 -12.955  -8.466  1.00  0.00     0.031 C 
ATOM     58  C   UNL     1       3.227 -17.679  -5.432  1.00  0.00     0.029 A 
ATOM     59  C   UNL     1       2.598 -16.482  -5.737  1.00  0.00     0.049 A 
ATOM     60  H   UNL     1       1.651 -15.112  -4.440  1.00  0.00     0.167 HD
ATOM     61  C   UNL     1       1.753 -14.705  -7.247  1.00  0.00     0.074 A 
ATOM     62  C   UNL     1       1.581 -14.094  -8.550  1.00  0.00     0.031 C 
ATOM     63  C   UNL     1       2.436 -15.855  -7.025  1.00  0.00     0.031 A 
BRANCH  50  64
ATOM     64  C   UNL     1       2.752 -17.491  -1.065  1.00  0.00    -0.014 A 
ATOM     65  C   UNL     1       1.889 -18.263  -0.270  1.00  0.00     0.009 A 
ATOM     66  C   UNL     1       4.137 -17.618  -0.879  1.00  0.00     0.009 A 
ATOM     67  C   UNL     1       2.400 -19.096   0.729  1.00  0.00     0.001 A 
ATOM     68  C   UNL     1       4.647 -18.478   0.096  1.00  0.00     0.001 A 
ATOM     69  C   UNL     1       3.778 -19.204   0.909  1.00  0.00     0.000 A 
ENDBRANCH  50  64
BRANCH  51  70
ATOM     70  C   UNL     1      -0.761 -10.740  -7.529  1.00  0.00    -0.014 A 
ATOM     71  C   UNL     1      -1.790 -11.103  -8.412  1.00  0.00     0.009 A 
ATOM     72  C   UNL     1      -0.272  -9.424  -7.560  1.00  0.00     0.009 A 
ATOM     73  C   UNL     1      -2.309 -10.172  -9.315  1.00  0.00     0.001 A 
ATOM     74  C   UNL     1      -0.813  -8.489  -8.445  1.00  0.00     0.001 A 
ATOM     75  C   UNL     1      -1.825  -8.865  -9.326  1.00  0.00     0.000 A 
ENDBRANCH  51  70
BRANCH  63  76
ATOM     76  C   UNL     1       3.041 -16.537  -8.219  1.00  0.00    -0.014 A 
ATOM     77  C   UNL     1       4.169 -16.008  -8.865  1.00  0.00     0.009 A 
ATOM     78  C   UNL     1       2.509 -17.756  -8.671  1.00  0.00     0.009 A 
ATOM     79  C   UNL     1       4.737 -16.673  -9.953  1.00  0.00     0.001 A 
ATOM     80  C   UNL     1       3.097 -18.434  -9.739  1.00  0.00     0.001 A 
ATOM     81  C   UNL     1       4.206 -17.889 -10.384  1.00  0.00     0.000 A 
ENDBRANCH  63  76
ENDBRANCH  37  38
ENDBRANCH  29  32
ENDBRANCH  27  28
ENDBRANCH  26  27
ENDBRANCH  25  26
ENDBRANCH   1  25
TORSDOF 15
