REMARK SMILES CC(C)c1ccc(-c2cnc([C@@H]3[NH2+][C@H](C(=O)NCCCCCCNC(=O)c4ccc(-c5c6nc(c(-c7ccccc7)c7ccc([nH]7)c(-c7ccccc7)c7nc(c(-c8ccccc8)c8ccc5[nH]8)C=C7)C=C6)cc4)C(C)(C)S3)s2)cc1
REMARK SMILES IDX 20 1 19 2 18 3 17 4 15 5 16 6 14 8 12 9 13 10 78 11 75 14
REMARK SMILES IDX 76 15 77 16 11 17 8 18 9 19 79 20 10 21 7 22 4 23 5 24 81 25
REMARK SMILES IDX 6 26 80 27 2 28 1 29 3 30 21 31 22 32 23 33 24 34 25 35
REMARK SMILES IDX 26 37 27 38 28 39 74 40 29 41 73 42 30 43 31 44 32 45 67 46
REMARK SMILES IDX 33 47 72 48 66 49 68 50 34 51 71 52 65 53 64 54 35 56 57 57
REMARK SMILES IDX 42 58 56 59 43 60 46 61 55 62 69 63 44 64 45 65 54 67 70 68
REMARK SMILES IDX 47 69 36 70 37 71 41 72 38 73 40 74 39 75 58 76 59 77 63 78
REMARK SMILES IDX 60 79 62 80 61 81 48 82 49 83 53 84 50 85 52 86 51 87
REMARK H PARENT 17 7 13 12 13 13 24 36 68 55 46 66
REMARK Flexibility Score: inf
ROOT
ATOM      1  C   UNL     1     -15.938  -1.414  -2.592  1.00  0.00     0.002 C 
ENDROOT
BRANCH   1   2
ATOM      2  C   UNL     1     -15.290  -2.130  -1.397  1.00  0.00     0.021 C 
BRANCH   2   3
ATOM      3  C   UNL     1     -14.077  -3.006  -1.740  1.00  0.00     0.116 C 
BRANCH   3   4
ATOM      4  N   UNL     1     -13.066  -2.241  -2.437  1.00  0.00    -0.351 N 
ATOM      5  C   UNL     1     -12.244  -1.346  -1.798  1.00  0.00     0.279 C 
ATOM      6  O   UNL     1     -12.320  -0.177  -2.159  1.00  0.00    -0.268 OA
ATOM      7  H   UNL     1     -12.963  -2.367  -3.408  1.00  0.00     0.163 HD
BRANCH   5   8
ATOM      8  C   UNL     1     -11.305  -1.900  -0.701  1.00  0.00     0.289 C 
ATOM      9  C   UNL     1      -9.134  -0.864  -1.000  1.00  0.00     0.304 C 
ATOM     10  N   UNL     1      -9.920  -2.097  -1.236  1.00  0.00    -0.318 N 
ATOM     11  S   UNL     1      -9.798  -0.029   0.475  1.00  0.00    -0.079 SA
ATOM     12  H   UNL     1      -9.476  -2.882  -0.760  1.00  0.00     0.348 HD
ATOM     13  H   UNL     1      -9.961  -2.293  -2.236  1.00  0.00     0.348 HD
ATOM     14  C   UNL     1     -11.246  -1.122   0.629  1.00  0.00     0.078 C 
ATOM     15  C   UNL     1     -10.954  -2.087   1.796  1.00  0.00     0.030 C 
ATOM     16  C   UNL     1     -12.500  -0.314   0.965  1.00  0.00     0.030 C 
BRANCH   9  17
ATOM     17  C   UNL     1      -9.042   0.060  -2.198  1.00  0.00     0.162 A 
ATOM     18  C   UNL     1      -8.329   1.307  -4.175  1.00  0.00     0.055 A 
ATOM     19  C   UNL     1      -9.596   1.581  -3.701  1.00  0.00     0.132 A 
ATOM     20  S   UNL     1      -7.629   0.078  -3.199  1.00  0.00    -0.112 S 
ATOM     21  N   UNL     1      -9.964   0.926  -2.557  1.00  0.00    -0.242 NA
BRANCH  18  22
ATOM     22  C   UNL     1      -7.636   1.951  -5.293  1.00  0.00    -0.007 A 
ATOM     23  C   UNL     1      -6.482   3.275  -7.535  1.00  0.00    -0.045 A 
ATOM     24  C   UNL     1      -6.265   1.907  -7.303  1.00  0.00     0.004 A 
ATOM     25  C   UNL     1      -7.246   3.976  -6.591  1.00  0.00     0.004 A 
ATOM     26  C   UNL     1      -6.833   1.253  -6.198  1.00  0.00     0.010 A 
ATOM     27  C   UNL     1      -7.821   3.324  -5.498  1.00  0.00     0.010 A 
BRANCH  23  28
ATOM     28  C   UNL     1      -5.906   4.028  -8.731  1.00  0.00     0.013 C 
ATOM     29  C   UNL     1      -5.176   3.153  -9.758  1.00  0.00     0.012 C 
ATOM     30  C   UNL     1      -6.984   4.839  -9.471  1.00  0.00     0.012 C 
ENDBRANCH  23  28
ENDBRANCH  18  22
ENDBRANCH   9  17
ENDBRANCH   5   8
ENDBRANCH   3   4
ENDBRANCH   2   3
ENDBRANCH   1   2
BRANCH   1  31
ATOM     31  C   UNL     1     -16.352  -2.316  -3.757  1.00  0.00     0.002 C 
BRANCH  31  32
ATOM     32  C   UNL     1     -17.253  -3.492  -3.379  1.00  0.00     0.021 C 
BRANCH  32  33
ATOM     33  C   UNL     1     -18.548  -3.107  -2.675  1.00  0.00     0.116 C 
BRANCH  33  34
ATOM     34  N   UNL     1     -19.454  -2.367  -3.538  1.00  0.00    -0.352 N 
ATOM     35  C   UNL     1     -20.791  -2.575  -3.760  1.00  0.00     0.251 C 
ATOM     36  H   UNL     1     -19.053  -1.615  -4.029  1.00  0.00     0.163 HD
ATOM     37  O   UNL     1     -21.378  -1.948  -4.643  1.00  0.00    -0.269 OA
BRANCH  35  38
ATOM     38  C   UNL     1     -21.530  -3.573  -2.958  1.00  0.00     0.039 A 
ATOM     39  C   UNL     1     -22.394  -4.456  -3.610  1.00  0.00     0.014 A 
ATOM     40  C   UNL     1     -21.381  -3.635  -1.569  1.00  0.00     0.014 A 
ATOM     41  C   UNL     1     -23.070  -5.434  -2.877  1.00  0.00     0.010 A 
ATOM     42  C   UNL     1     -22.003  -4.651  -0.849  1.00  0.00     0.010 A 
ATOM     43  C   UNL     1     -22.861  -5.554  -1.494  1.00  0.00    -0.014 A 
BRANCH  43  44
ATOM     44  C   UNL     1     -23.552  -6.603  -0.702  1.00  0.00     0.031 A 
ATOM     45  C   UNL     1     -24.564  -6.217   0.340  1.00  0.00     0.074 A 
ATOM     46  C   UNL     1     -23.232  -7.899  -0.881  1.00  0.00     0.049 A 
ATOM     47  N   UNL     1     -25.234  -6.982   1.165  1.00  0.00    -0.248 NA
ATOM     48  C   UNL     1     -24.841  -4.780   0.494  1.00  0.00     0.031 C 
ATOM     49  C   UNL     1     -22.241  -8.406  -1.833  1.00  0.00     0.029 A 
ATOM     50  N   UNL     1     -23.708  -9.028  -0.262  1.00  0.00    -0.354 N 
ATOM     51  C   UNL     1     -25.993  -6.120   1.946  1.00  0.00     0.074 A 
ATOM     52  C   UNL     1     -25.668  -4.774   1.528  1.00  0.00     0.031 C 
ATOM     53  C   UNL     1     -22.203  -9.747  -1.753  1.00  0.00     0.029 A 
ATOM     54  C   UNL     1     -23.141 -10.190  -0.725  1.00  0.00     0.049 A 
ATOM     55  H   UNL     1     -24.391  -9.006   0.447  1.00  0.00     0.167 HD
ATOM     56  C   UNL     1     -26.893  -6.420   2.913  1.00  0.00     0.031 A 
ATOM     57  C   UNL     1     -23.354 -11.469  -0.365  1.00  0.00     0.031 A 
ATOM     58  C   UNL     1     -27.235  -7.756   3.318  1.00  0.00     0.049 A 
ATOM     59  C   UNL     1     -24.366 -11.777   0.702  1.00  0.00     0.074 A 
ATOM     60  C   UNL     1     -28.173  -8.162   4.251  1.00  0.00     0.029 A 
ATOM     61  N   UNL     1     -26.651  -8.906   2.809  1.00  0.00    -0.354 N 
ATOM     62  N   UNL     1     -25.115 -10.953   1.393  1.00  0.00    -0.248 NA
ATOM     63  C   UNL     1     -24.570 -13.196   1.028  1.00  0.00     0.031 C 
ATOM     64  C   UNL     1     -28.132  -9.559   4.332  1.00  0.00     0.029 A 
ATOM     65  C   UNL     1     -27.200 -10.022   3.418  1.00  0.00     0.049 A 
ATOM     66  H   UNL     1     -25.951  -8.926   2.118  1.00  0.00     0.167 HD
ATOM     67  C   UNL     1     -25.899 -11.753   2.213  1.00  0.00     0.074 A 
ATOM     68  C   UNL     1     -25.542 -13.127   1.927  1.00  0.00     0.031 C 
ATOM     69  C   UNL     1     -26.835 -11.382   3.120  1.00  0.00     0.031 A 
BRANCH  56  70
ATOM     70  C   UNL     1     -27.569  -5.268   3.602  1.00  0.00    -0.014 A 
ATOM     71  C   UNL     1     -28.528  -4.486   2.937  1.00  0.00     0.009 A 
ATOM     72  C   UNL     1     -27.256  -4.971   4.937  1.00  0.00     0.009 A 
ATOM     73  C   UNL     1     -29.130  -3.405   3.584  1.00  0.00     0.001 A 
ATOM     74  C   UNL     1     -27.880  -3.906   5.590  1.00  0.00     0.001 A 
ATOM     75  C   UNL     1     -28.808  -3.118   4.910  1.00  0.00     0.000 A 
ENDBRANCH  56  70
BRANCH  57  76
ATOM     76  C   UNL     1     -22.614 -12.563  -1.044  1.00  0.00    -0.014 A 
ATOM     77  C   UNL     1     -23.271 -13.397  -1.961  1.00  0.00     0.009 A 
ATOM     78  C   UNL     1     -21.254 -12.780  -0.779  1.00  0.00     0.009 A 
ATOM     79  C   UNL     1     -22.585 -14.443  -2.583  1.00  0.00     0.001 A 
ATOM     80  C   UNL     1     -20.565 -13.812  -1.421  1.00  0.00     0.001 A 
ATOM     81  C   UNL     1     -21.232 -14.646  -2.316  1.00  0.00     0.000 A 
ENDBRANCH  57  76
BRANCH  69  82
ATOM     82  C   UNL     1     -27.565 -12.479   3.840  1.00  0.00    -0.014 A 
ATOM     83  C   UNL     1     -26.944 -13.224   4.854  1.00  0.00     0.009 A 
ATOM     84  C   UNL     1     -28.905 -12.747   3.519  1.00  0.00     0.009 A 
ATOM     85  C   UNL     1     -27.643 -14.238   5.512  1.00  0.00     0.001 A 
ATOM     86  C   UNL     1     -29.608 -13.744   4.196  1.00  0.00     0.001 A 
ATOM     87  C   UNL     1     -28.975 -14.494   5.185  1.00  0.00     0.000 A 
ENDBRANCH  69  82
ENDBRANCH  43  44
ENDBRANCH  35  38
ENDBRANCH  33  34
ENDBRANCH  32  33
ENDBRANCH  31  32
ENDBRANCH   1  31
TORSDOF 16
