REMARK SMILES O=C(NCCCCCCNC(=O)c1ccc([C@H]2CCC[N@@H+](CCN3CCCC3=O)C2)cc1)c1ccc(-c2c3nc(c(-c4ccccc4)c4ccc([nH]4)c(-c4ccccc4)c4nc(c(-c5ccccc5)c5ccc2[nH]5)C=C4)C=C3)cc1
REMARK SMILES IDX 7 1 6 2 5 3 4 4 3 5 1 6 2 7 33 9 34 10 80 11 35 12 79 13
REMARK SMILES IDX 36 14 37 15 38 16 73 17 39 18 78 19 72 20 74 21 40 22 77 23
REMARK SMILES IDX 71 24 70 25 41 27 63 28 48 29 62 30 49 31 52 32 61 33 75 34
REMARK SMILES IDX 50 35 51 36 60 38 76 39 53 40 42 41 43 42 47 43 44 44 46 45
REMARK SMILES IDX 45 46 64 47 65 48 69 49 66 50 68 51 67 52 54 53 55 54 59 55
REMARK SMILES IDX 56 56 58 57 57 58 8 59 9 60 10 61 11 62 12 64 13 65 14 66
REMARK SMILES IDX 32 67 15 68 31 69 16 70 17 71 18 72 30 73 19 74 21 75 20 76
REMARK SMILES IDX 22 78 23 79 24 80 25 81 28 82 26 83 27 84 29 85
REMARK H PARENT 3 8 74 26 52 37 10 63 21 77
REMARK Flexibility Score: inf
ROOT
ATOM      1  C   UNL     1      20.386  -6.945   6.876  1.00  0.00     0.002 C 
ENDROOT
BRANCH   1   2
ATOM      2  C   UNL     1      20.762  -7.520   5.507  1.00  0.00     0.002 C 
BRANCH   2   3
ATOM      3  C   UNL     1      21.399  -6.525   4.536  1.00  0.00     0.021 C 
BRANCH   3   4
ATOM      4  C   UNL     1      22.648  -5.828   5.064  1.00  0.00     0.116 C 
BRANCH   4   5
ATOM      5  N   UNL     1      23.737  -6.759   5.311  1.00  0.00    -0.352 N 
ATOM      6  O   UNL     1      25.735  -7.747   4.958  1.00  0.00    -0.269 OA
ATOM      7  C   UNL     1      25.002  -6.779   4.779  1.00  0.00     0.251 C 
ATOM      8  H   UNL     1      23.538  -7.480   5.951  1.00  0.00     0.163 HD
BRANCH   7   9
ATOM      9  C   UNL     1      25.478  -5.637   3.972  1.00  0.00     0.039 A 
ATOM     10  C   UNL     1      25.285  -4.323   4.408  1.00  0.00     0.014 A 
ATOM     11  C   UNL     1      26.152  -5.890   2.775  1.00  0.00     0.014 A 
ATOM     12  C   UNL     1      25.660  -3.260   3.592  1.00  0.00     0.010 A 
ATOM     13  C   UNL     1      26.595  -4.822   1.993  1.00  0.00     0.010 A 
ATOM     14  C   UNL     1      26.334  -3.499   2.385  1.00  0.00    -0.014 A 
BRANCH  14  15
ATOM     15  C   UNL     1      26.827  -2.365   1.568  1.00  0.00     0.031 A 
ATOM     16  C   UNL     1      26.297  -2.122   0.186  1.00  0.00     0.074 A 
ATOM     17  C   UNL     1      27.796  -1.575   2.070  1.00  0.00     0.049 A 
ATOM     18  N   UNL     1      26.671  -1.228  -0.695  1.00  0.00    -0.248 NA
ATOM     19  C   UNL     1      25.212  -3.002  -0.272  1.00  0.00     0.031 C 
ATOM     20  C   UNL     1      28.393  -1.715   3.399  1.00  0.00     0.029 A 
ATOM     21  N   UNL     1      28.458  -0.510   1.516  1.00  0.00    -0.354 N 
ATOM     22  C   UNL     1      25.890  -1.455  -1.820  1.00  0.00     0.074 A 
ATOM     23  C   UNL     1      25.036  -2.585  -1.518  1.00  0.00     0.031 C 
ATOM     24  C   UNL     1      29.328  -0.769   3.561  1.00  0.00     0.029 A 
ATOM     25  C   UNL     1      29.443  -0.002   2.326  1.00  0.00     0.049 A 
ATOM     26  H   UNL     1      28.249  -0.146   0.625  1.00  0.00     0.167 HD
ATOM     27  C   UNL     1      25.889  -0.785  -2.998  1.00  0.00     0.031 A 
ATOM     28  C   UNL     1      30.368   0.947   2.093  1.00  0.00     0.031 A 
ATOM     29  C   UNL     1      26.758   0.324  -3.297  1.00  0.00     0.049 A 
ATOM     30  C   UNL     1      30.386   1.641   0.763  1.00  0.00     0.074 A 
ATOM     31  C   UNL     1      26.805   1.098  -4.443  1.00  0.00     0.029 A 
ATOM     32  N   UNL     1      27.748   0.803  -2.451  1.00  0.00    -0.354 N 
ATOM     33  N   UNL     1      29.605   1.454  -0.272  1.00  0.00    -0.248 NA
ATOM     34  C   UNL     1      31.407   2.679   0.571  1.00  0.00     0.031 C 
ATOM     35  C   UNL     1      27.868   1.998  -4.320  1.00  0.00     0.029 A 
ATOM     36  C   UNL     1      28.436   1.837  -3.065  1.00  0.00     0.049 A 
ATOM     37  H   UNL     1      27.934   0.460  -1.547  1.00  0.00     0.167 HD
ATOM     38  C   UNL     1      30.021   2.366  -1.232  1.00  0.00     0.074 A 
ATOM     39  C   UNL     1      31.120   3.112  -0.651  1.00  0.00     0.031 C 
ATOM     40  C   UNL     1      29.529   2.570  -2.478  1.00  0.00     0.031 A 
BRANCH  27  41
ATOM     41  C   UNL     1      24.951  -1.273  -4.071  1.00  0.00    -0.014 A 
ATOM     42  C   UNL     1      23.558  -1.154  -3.943  1.00  0.00     0.009 A 
ATOM     43  C   UNL     1      25.476  -1.853  -5.237  1.00  0.00     0.009 A 
ATOM     44  C   UNL     1      22.710  -1.655  -4.936  1.00  0.00     0.001 A 
ATOM     45  C   UNL     1      24.628  -2.321  -6.243  1.00  0.00     0.001 A 
ATOM     46  C   UNL     1      23.246  -2.235  -6.084  1.00  0.00     0.000 A 
ENDBRANCH  27  41
BRANCH  28  47
ATOM     47  C   UNL     1      31.365   1.260   3.149  1.00  0.00    -0.014 A 
ATOM     48  C   UNL     1      31.299   2.463   3.864  1.00  0.00     0.009 A 
ATOM     49  C   UNL     1      32.353   0.320   3.488  1.00  0.00     0.009 A 
ATOM     50  C   UNL     1      32.209   2.723   4.892  1.00  0.00     0.001 A 
ATOM     51  C   UNL     1      33.240   0.569   4.535  1.00  0.00     0.001 A 
ATOM     52  C   UNL     1      33.171   1.772   5.233  1.00  0.00     0.000 A 
ENDBRANCH  28  47
BRANCH  40  53
ATOM     53  C   UNL     1      30.143   3.673  -3.295  1.00  0.00    -0.014 A 
ATOM     54  C   UNL     1      31.417   3.541  -3.867  1.00  0.00     0.009 A 
ATOM     55  C   UNL     1      29.395   4.832  -3.558  1.00  0.00     0.009 A 
ATOM     56  C   UNL     1      31.936   4.556  -4.674  1.00  0.00     0.001 A 
ATOM     57  C   UNL     1      29.904   5.831  -4.388  1.00  0.00     0.001 A 
ATOM     58  C   UNL     1      31.175   5.695  -4.942  1.00  0.00     0.000 A 
ENDBRANCH  40  53
ENDBRANCH  14  15
ENDBRANCH   7   9
ENDBRANCH   4   5
ENDBRANCH   3   4
ENDBRANCH   2   3
ENDBRANCH   1   2
BRANCH   1  59
ATOM     59  C   UNL     1      19.425  -5.749   6.844  1.00  0.00     0.021 C 
BRANCH  59  60
ATOM     60  C   UNL     1      18.066  -6.035   6.202  1.00  0.00     0.116 C 
BRANCH  60  61
ATOM     61  N   UNL     1      17.332  -7.048   6.943  1.00  0.00    -0.352 N 
ATOM     62  C   UNL     1      16.121  -6.948   7.584  1.00  0.00     0.251 C 
ATOM     63  H   UNL     1      17.764  -7.931   6.993  1.00  0.00     0.163 HD
ATOM     64  O   UNL     1      15.759  -7.812   8.375  1.00  0.00    -0.269 OA
BRANCH  62  65
ATOM     65  C   UNL     1      15.249  -5.794   7.303  1.00  0.00     0.039 A 
ATOM     66  C   UNL     1      14.780  -4.997   8.347  1.00  0.00     0.014 A 
ATOM     67  C   UNL     1      14.857  -5.530   5.995  1.00  0.00     0.014 A 
ATOM     68  C   UNL     1      14.018  -3.857   8.063  1.00  0.00     0.005 A 
ATOM     69  C   UNL     1      14.081  -4.405   5.724  1.00  0.00     0.005 A 
ATOM     70  C   UNL     1      13.713  -3.499   6.738  1.00  0.00    -0.039 A 
BRANCH  70  71
ATOM     71  C   UNL     1      13.023  -2.160   6.406  1.00  0.00     0.074 C 
ATOM     72  C   UNL     1      13.582  -1.004   7.265  1.00  0.00     0.020 C 
ATOM     73  C   UNL     1      13.196  -1.796   4.908  1.00  0.00     0.270 C 
ATOM     74  C   UNL     1      13.084   0.357   6.789  1.00  0.00     0.062 C 
ATOM     75  N   UNL     1      12.818  -0.447   4.491  1.00  0.00    -0.333 N 
ATOM     76  C   UNL     1      13.425   0.589   5.319  1.00  0.00     0.262 C 
ATOM     77  H   UNL     1      11.814  -0.354   4.641  1.00  0.00     0.348 HD
BRANCH  75  78
ATOM     78  C   UNL     1      13.053  -0.246   3.041  1.00  0.00     0.284 C 
BRANCH  78  79
ATOM     79  C   UNL     1      14.503  -0.192   2.475  1.00  0.00     0.180 C 
BRANCH  79  80
ATOM     80  N   UNL     1      15.303  -1.409   2.581  1.00  0.00    -0.337 N 
ATOM     81  C   UNL     1      16.561  -1.449   3.284  1.00  0.00     0.120 C 
ATOM     82  C   UNL     1      14.951  -2.632   2.035  1.00  0.00     0.222 C 
ATOM     83  C   UNL     1      17.171  -2.786   2.902  1.00  0.00     0.031 C 
ATOM     84  C   UNL     1      16.004  -3.638   2.426  1.00  0.00     0.102 C 
ATOM     85  O   UNL     1      13.940  -2.888   1.407  1.00  0.00    -0.275 OA
ENDBRANCH  79  80
ENDBRANCH  78  79
ENDBRANCH  75  78
ENDBRANCH  70  71
ENDBRANCH  62  65
ENDBRANCH  60  61
ENDBRANCH  59  60
ENDBRANCH   1  59
TORSDOF 17
