REMARK SMILES Cc1ccccc1/[NH+]=C1\S[C@@H](CC(=O)Nc2ccc(C(=O)NCCCCCCNC(=O)c3ccc(-c4c5nc(c(-c6ccccc6)c6ccc([nH]6)c(-c6ccccc6)c6nc(c(-c7ccccc7)c7ccc4[nH]7)C=C6)C=C5)cc3)cc2)C(=O)N1C
REMARK SMILES IDX 24 1 23 2 22 3 20 4 21 5 19 7 16 8 17 9 81 10 18 11 80 12
REMARK SMILES IDX 15 13 13 14 14 15 12 17 11 18 8 19 9 20 10 22 84 23 82 24
REMARK SMILES IDX 85 25 83 26 7 27 1 28 2 29 3 30 4 31 6 32 5 33 25 34 26 35
REMARK SMILES IDX 27 36 28 37 29 38 30 39 31 41 32 42 33 43 79 44 34 45 78 46
REMARK SMILES IDX 35 47 36 48 37 49 72 50 38 51 77 52 71 53 73 54 39 55 76 56
REMARK SMILES IDX 70 57 69 58 40 60 62 61 47 62 61 63 48 64 51 65 60 66 74 67
REMARK SMILES IDX 49 68 50 69 59 71 75 72 52 73 41 74 42 75 46 76 43 77 45 78
REMARK SMILES IDX 44 79 63 80 64 81 68 82 65 83 67 84 66 85 53 86 54 87 58 88
REMARK SMILES IDX 55 89 57 90 56 91
REMARK H PARENT 22 6 15 16 8 21 29 40 73 59 51 70
REMARK Flexibility Score: inf
ROOT
ATOM      1  C   UNL     1       2.062   6.274  -2.260  1.00  0.00     0.021 C 
ENDROOT
BRANCH   1   2
ATOM      2  C   UNL     1       3.115   5.370  -2.909  1.00  0.00     0.116 C 
BRANCH   2   3
ATOM      3  N   UNL     1       4.196   6.140  -3.509  1.00  0.00    -0.352 N 
ATOM      4  C   UNL     1       5.542   6.215  -3.233  1.00  0.00     0.251 C 
ATOM      5  O   UNL     1       6.272   6.812  -4.023  1.00  0.00    -0.269 OA
ATOM      6  H   UNL     1       3.909   6.717  -4.253  1.00  0.00     0.163 HD
BRANCH   4   7
ATOM      7  C   UNL     1       6.153   5.576  -2.040  1.00  0.00     0.039 A 
ATOM      8  C   UNL     1       7.321   4.200   0.101  1.00  0.00     0.041 A 
ATOM      9  C   UNL     1       6.083   4.824   0.243  1.00  0.00     0.027 A 
ATOM     10  C   UNL     1       8.066   4.412  -1.051  1.00  0.00     0.027 A 
ATOM     11  C   UNL     1       5.497   5.512  -0.816  1.00  0.00     0.016 A 
ATOM     12  C   UNL     1       7.471   5.087  -2.128  1.00  0.00     0.016 A 
BRANCH   8  13
ATOM     13  N   UNL     1       7.786   3.340   1.104  1.00  0.00    -0.326 N 
ATOM     14  C   UNL     1       7.115   2.229   1.575  1.00  0.00     0.226 C 
ATOM     15  O   UNL     1       7.447   1.686   2.628  1.00  0.00    -0.275 OA
ATOM     16  H   UNL     1       8.661   3.544   1.505  1.00  0.00     0.169 HD
BRANCH  14  17
ATOM     17  C   UNL     1       6.105   1.576   0.641  1.00  0.00     0.128 C 
BRANCH  17  18
ATOM     18  C   UNL     1       4.672   1.538   1.123  1.00  0.00     0.183 C 
ATOM     19  N   UNL     1       1.021   1.866   0.590  1.00  0.00    -0.234 N 
ATOM     20  C   UNL     1       2.284   2.078   0.516  1.00  0.00     0.319 C 
ATOM     21  H   UNL     1       0.506   2.567   1.052  1.00  0.00     0.313 HD
ATOM     22  S   UNL     1       3.548   1.218  -0.295  1.00  0.00    -0.022 SA
ATOM     23  N   UNL     1       2.854   3.096   1.219  1.00  0.00    -0.193 N 
ATOM     24  C   UNL     1       4.098   2.802   1.737  1.00  0.00     0.324 C 
ATOM     25  C   UNL     1       2.137   4.284   1.634  1.00  0.00     0.301 C 
ATOM     26  O   UNL     1       4.616   3.410   2.666  1.00  0.00    -0.245 OA
BRANCH  19  27
ATOM     27  C   UNL     1       0.264   0.786   0.113  1.00  0.00     0.128 A 
ATOM     28  C   UNL     1       1.838  -1.177   0.739  1.00  0.00     0.049 C 
ATOM     29  C   UNL     1       0.550  -0.592   0.232  1.00  0.00    -0.004 A 
ATOM     30  C   UNL     1      -0.436  -1.538  -0.125  1.00  0.00     0.008 A 
ATOM     31  C   UNL     1      -1.716  -1.146  -0.502  1.00  0.00     0.001 A 
ATOM     32  C   UNL     1      -1.036   1.149  -0.287  1.00  0.00     0.052 A 
ATOM     33  C   UNL     1      -2.022   0.203  -0.575  1.00  0.00     0.004 A 
ENDBRANCH  19  27
ENDBRANCH  17  18
ENDBRANCH  14  17
ENDBRANCH   8  13
ENDBRANCH   4   7
ENDBRANCH   2   3
ENDBRANCH   1   2
BRANCH   1  34
ATOM     34  C   UNL     1       1.097   6.966  -3.239  1.00  0.00     0.002 C 
BRANCH  34  35
ATOM     35  C   UNL     1       0.277   6.052  -4.166  1.00  0.00     0.002 C 
BRANCH  35  36
ATOM     36  C   UNL     1      -0.513   4.938  -3.477  1.00  0.00     0.021 C 
BRANCH  36  37
ATOM     37  C   UNL     1      -1.754   5.418  -2.734  1.00  0.00     0.116 C 
BRANCH  37  38
ATOM     38  N   UNL     1      -2.949   5.508  -3.567  1.00  0.00    -0.352 N 
ATOM     39  C   UNL     1      -4.232   5.947  -3.264  1.00  0.00     0.251 C 
ATOM     40  H   UNL     1      -2.826   5.208  -4.496  1.00  0.00     0.163 HD
ATOM     41  O   UNL     1      -5.108   5.881  -4.101  1.00  0.00    -0.269 OA
BRANCH  39  42
ATOM     42  C   UNL     1      -4.494   6.638  -1.972  1.00  0.00     0.039 A 
ATOM     43  C   UNL     1      -5.320   7.772  -1.996  1.00  0.00     0.014 A 
ATOM     44  C   UNL     1      -3.780   6.327  -0.823  1.00  0.00     0.014 A 
ATOM     45  C   UNL     1      -5.202   8.727  -0.989  1.00  0.00     0.010 A 
ATOM     46  C   UNL     1      -3.568   7.317   0.108  1.00  0.00     0.010 A 
ATOM     47  C   UNL     1      -4.223   8.544  -0.018  1.00  0.00    -0.014 A 
BRANCH  47  48
ATOM     48  C   UNL     1      -3.733   9.592   0.862  1.00  0.00     0.031 A 
ATOM     49  C   UNL     1      -4.081   9.563   2.299  1.00  0.00     0.074 A 
ATOM     50  C   UNL     1      -2.831  10.488   0.397  1.00  0.00     0.049 A 
ATOM     51  N   UNL     1      -3.997  10.588   3.077  1.00  0.00    -0.248 NA
ATOM     52  C   UNL     1      -4.612   8.380   2.972  1.00  0.00     0.031 C 
ATOM     53  C   UNL     1      -1.972  11.355   1.202  1.00  0.00     0.029 A 
ATOM     54  N   UNL     1      -2.617  10.944  -0.907  1.00  0.00    -0.354 N 
ATOM     55  C   UNL     1      -4.114  10.132   4.369  1.00  0.00     0.074 A 
ATOM     56  C   UNL     1      -4.634   8.791   4.244  1.00  0.00     0.031 C 
ATOM     57  C   UNL     1      -1.583  12.396   0.448  1.00  0.00     0.029 A 
ATOM     58  C   UNL     1      -2.337  12.317  -0.789  1.00  0.00     0.049 A 
ATOM     59  H   UNL     1      -2.654  10.414  -1.736  1.00  0.00     0.167 HD
ATOM     60  C   UNL     1      -3.608  10.888   5.383  1.00  0.00     0.031 A 
ATOM     61  C   UNL     1      -3.139  13.314  -1.273  1.00  0.00     0.031 A 
ATOM     62  C   UNL     1      -3.097  12.172   4.899  1.00  0.00     0.049 A 
ATOM     63  C   UNL     1      -3.560  14.335  -0.226  1.00  0.00     0.074 A 
ATOM     64  C   UNL     1      -1.824  12.688   4.716  1.00  0.00     0.029 A 
ATOM     65  N   UNL     1      -3.965  13.050   4.268  1.00  0.00    -0.354 N 
ATOM     66  N   UNL     1      -3.429  14.159   1.059  1.00  0.00    -0.248 NA
ATOM     67  C   UNL     1      -4.245  15.588  -0.535  1.00  0.00     0.031 C 
ATOM     68  C   UNL     1      -1.940  13.902   3.986  1.00  0.00     0.029 A 
ATOM     69  C   UNL     1      -3.282  14.129   3.745  1.00  0.00     0.049 A 
ATOM     70  H   UNL     1      -4.939  12.921   4.201  1.00  0.00     0.167 HD
ATOM     71  C   UNL     1      -4.001  15.202   1.744  1.00  0.00     0.074 A 
ATOM     72  C   UNL     1      -4.506  16.070   0.695  1.00  0.00     0.031 C 
ATOM     73  C   UNL     1      -4.030  15.211   3.113  1.00  0.00     0.031 A 
BRANCH  60  74
ATOM     74  C   UNL     1      -3.341  10.396   6.791  1.00  0.00    -0.014 A 
ATOM     75  C   UNL     1      -2.524  11.165   7.643  1.00  0.00     0.009 A 
ATOM     76  C   UNL     1      -3.799   9.182   7.328  1.00  0.00     0.009 A 
ATOM     77  C   UNL     1      -2.128  10.716   8.911  1.00  0.00     0.001 A 
ATOM     78  C   UNL     1      -3.402   8.719   8.591  1.00  0.00     0.001 A 
ATOM     79  C   UNL     1      -2.554   9.482   9.379  1.00  0.00     0.000 A 
ENDBRANCH  60  74
BRANCH  61  80
ATOM     80  C   UNL     1      -3.996  12.908  -2.419  1.00  0.00    -0.014 A 
ATOM     81  C   UNL     1      -3.385  12.647  -3.659  1.00  0.00     0.009 A 
ATOM     82  C   UNL     1      -5.293  12.422  -2.192  1.00  0.00     0.009 A 
ATOM     83  C   UNL     1      -4.004  11.815  -4.597  1.00  0.00     0.001 A 
ATOM     84  C   UNL     1      -5.912  11.597  -3.139  1.00  0.00     0.001 A 
ATOM     85  C   UNL     1      -5.253  11.263  -4.321  1.00  0.00     0.000 A 
ENDBRANCH  61  80
BRANCH  73  86
ATOM     86  C   UNL     1      -4.754  16.179   4.035  1.00  0.00    -0.014 A 
ATOM     87  C   UNL     1      -5.290  17.415   3.665  1.00  0.00     0.009 A 
ATOM     88  C   UNL     1      -4.904  15.832   5.403  1.00  0.00     0.009 A 
ATOM     89  C   UNL     1      -5.985  18.221   4.586  1.00  0.00     0.001 A 
ATOM     90  C   UNL     1      -5.593  16.625   6.324  1.00  0.00     0.001 A 
ATOM     91  C   UNL     1      -6.146  17.822   5.909  1.00  0.00     0.000 A 
ENDBRANCH  73  86
ENDBRANCH  47  48
ENDBRANCH  39  42
ENDBRANCH  37  38
ENDBRANCH  36  37
ENDBRANCH  35  36
ENDBRANCH  34  35
ENDBRANCH   1  34
TORSDOF 17
