REMARK SMILES C[C@H](C(=O)NCCCCCCNC(=O)c1ccc(-c2c3nc(c(-c4ccccc4)c4ccc([nH]4)c(-c4ccccc4)c4nc(c(-c5ccccc5)c5ccc2[nH]5)C=C4)C=C3)cc1)[C@@H](C)Nc1ccccc1Oc1ccccc1
REMARK SMILES IDX 7 1 6 2 5 3 3 4 4 5 2 7 1 8 63 9 64 10 65 11 66 13 67 14
REMARK SMILES IDX 71 15 68 16 70 17 69 18 72 19 73 20 74 21 78 22 75 23 77 24
REMARK SMILES IDX 76 25 8 26 9 27 10 28 11 29 12 30 13 31 14 33 15 34 16 35
REMARK SMILES IDX 62 36 17 37 61 38 18 39 19 40 20 41 55 42 21 43 60 44 54 45
REMARK SMILES IDX 56 46 22 47 59 48 53 49 52 50 23 52 45 53 30 54 44 55 31 56
REMARK SMILES IDX 34 57 43 58 57 59 32 60 33 61 42 63 58 64 35 65 24 66 25 67
REMARK SMILES IDX 29 68 26 69 28 70 27 71 46 72 47 73 51 74 48 75 50 76 49 77
REMARK SMILES IDX 36 78 37 79 41 80 38 81 40 82 39 83
REMARK H PARENT 5 6 65 12 12 32 56 51 34 62
REMARK Flexibility Score: inf
ROOT
ATOM      1  C   UNL     1      -0.816  -2.738  -0.379  1.00  0.00     0.021 C 
ENDROOT
BRANCH   1   2
ATOM      2  C   UNL     1       0.461  -2.042   0.120  1.00  0.00     0.116 C 
BRANCH   2   3
ATOM      3  N   UNL     1       0.803  -0.957  -0.790  1.00  0.00    -0.356 N 
ATOM      4  C   UNL     1       0.838   0.399  -0.678  1.00  0.00     0.224 C 
ATOM      5  O   UNL     1       0.952   1.016  -1.742  1.00  0.00    -0.275 OA
ATOM      6  H   UNL     1       1.067  -1.274  -1.684  1.00  0.00     0.163 HD
BRANCH   4   7
ATOM      7  C   UNL     1       0.826   1.129   0.674  1.00  0.00     0.097 C 
ATOM      8  C   UNL     1       1.694   2.391   0.506  1.00  0.00     0.020 C 
BRANCH   7   9
ATOM      9  C   UNL     1      -0.620   1.443   1.180  1.00  0.00     0.088 C 
ATOM     10  C   UNL     1      -0.887   0.636   2.463  1.00  0.00     0.031 C 
BRANCH   9  11
ATOM     11  N   UNL     1      -0.800   2.853   1.553  1.00  0.00    -0.379 N 
ATOM     12  H   UNL     1       0.006   3.275   1.931  1.00  0.00     0.160 HD
BRANCH  11  13
ATOM     13  C   UNL     1      -1.896   3.700   1.470  1.00  0.00     0.078 A 
ATOM     14  C   UNL     1      -1.744   4.944   2.130  1.00  0.00     0.029 A 
ATOM     15  C   UNL     1      -3.103   3.533   0.765  1.00  0.00     0.150 A 
ATOM     16  C   UNL     1      -2.716   5.952   2.104  1.00  0.00     0.002 A 
ATOM     17  C   UNL     1      -4.084   4.549   0.735  1.00  0.00     0.049 A 
ATOM     18  C   UNL     1      -3.895   5.752   1.407  1.00  0.00     0.004 A 
BRANCH  15  19
ATOM     19  O   UNL     1      -3.368   2.489  -0.090  1.00  0.00    -0.455 OA
BRANCH  19  20
ATOM     20  C   UNL     1      -3.789   1.285   0.422  1.00  0.00     0.127 A 
ATOM     21  C   UNL     1      -3.681   0.224  -0.481  1.00  0.00     0.047 A 
ATOM     22  C   UNL     1      -4.193   1.044   1.734  1.00  0.00     0.047 A 
ATOM     23  C   UNL     1      -3.873  -1.084  -0.051  1.00  0.00     0.004 A 
ATOM     24  C   UNL     1      -4.367  -0.274   2.169  1.00  0.00     0.004 A 
ATOM     25  C   UNL     1      -4.181  -1.336   1.284  1.00  0.00     0.000 A 
ENDBRANCH  19  20
ENDBRANCH  15  19
ENDBRANCH  11  13
ENDBRANCH   9  11
ENDBRANCH   7   9
ENDBRANCH   4   7
ENDBRANCH   2   3
ENDBRANCH   1   2
BRANCH   1  26
ATOM     26  C   UNL     1      -0.662  -4.194  -0.843  1.00  0.00     0.002 C 
BRANCH  26  27
ATOM     27  C   UNL     1      -0.811  -5.275   0.236  1.00  0.00     0.002 C 
BRANCH  27  28
ATOM     28  C   UNL     1      -2.063  -5.213   1.124  1.00  0.00     0.021 C 
BRANCH  28  29
ATOM     29  C   UNL     1      -3.410  -5.068   0.414  1.00  0.00     0.116 C 
BRANCH  29  30
ATOM     30  N   UNL     1      -3.749  -6.196  -0.432  1.00  0.00    -0.352 N 
ATOM     31  C   UNL     1      -4.700  -7.174  -0.305  1.00  0.00     0.251 C 
ATOM     32  H   UNL     1      -3.198  -6.272  -1.244  1.00  0.00     0.163 HD
ATOM     33  O   UNL     1      -4.718  -8.094  -1.128  1.00  0.00    -0.269 OA
BRANCH  31  34
ATOM     34  C   UNL     1      -5.688  -7.191   0.800  1.00  0.00     0.039 A 
ATOM     35  C   UNL     1      -5.954  -8.421   1.417  1.00  0.00     0.014 A 
ATOM     36  C   UNL     1      -6.419  -6.063   1.184  1.00  0.00     0.014 A 
ATOM     37  C   UNL     1      -6.898  -8.509   2.444  1.00  0.00     0.010 A 
ATOM     38  C   UNL     1      -7.329  -6.141   2.247  1.00  0.00     0.010 A 
ATOM     39  C   UNL     1      -7.576  -7.365   2.891  1.00  0.00    -0.014 A 
BRANCH  39  40
ATOM     40  C   UNL     1      -8.516  -7.447   4.042  1.00  0.00     0.031 A 
ATOM     41  C   UNL     1      -9.996  -7.252   3.855  1.00  0.00     0.074 A 
ATOM     42  C   UNL     1      -8.030  -7.679   5.278  1.00  0.00     0.049 A 
ATOM     43  N   UNL     1     -10.952  -7.284   4.752  1.00  0.00    -0.248 NA
ATOM     44  C   UNL     1     -10.464  -6.975   2.489  1.00  0.00     0.031 C 
ATOM     45  C   UNL     1      -6.617  -7.867   5.611  1.00  0.00     0.029 A 
ATOM     46  N   UNL     1      -8.674  -7.798   6.486  1.00  0.00    -0.354 N 
ATOM     47  C   UNL     1     -12.130  -7.024   4.062  1.00  0.00     0.074 A 
ATOM     48  C   UNL     1     -11.765  -6.802   2.679  1.00  0.00     0.031 C 
ATOM     49  C   UNL     1      -6.502  -8.097   6.928  1.00  0.00     0.029 A 
ATOM     50  C   UNL     1      -7.827  -8.042   7.540  1.00  0.00     0.049 A 
ATOM     51  H   UNL     1      -9.650  -7.716   6.587  1.00  0.00     0.167 HD
ATOM     52  C   UNL     1     -13.401  -6.987   4.532  1.00  0.00     0.031 A 
ATOM     53  C   UNL     1      -8.081  -8.200   8.852  1.00  0.00     0.031 A 
ATOM     54  C   UNL     1     -13.777  -7.210   5.904  1.00  0.00     0.049 A 
ATOM     55  C   UNL     1      -9.497  -8.133   9.350  1.00  0.00     0.074 A 
ATOM     56  C   UNL     1     -15.046  -7.234   6.458  1.00  0.00     0.029 A 
ATOM     57  N   UNL     1     -12.887  -7.446   6.939  1.00  0.00    -0.354 N 
ATOM     58  N   UNL     1     -10.602  -7.941   8.672  1.00  0.00    -0.248 NA
ATOM     59  C   UNL     1      -9.700  -8.315  10.795  1.00  0.00     0.031 C 
ATOM     60  C   UNL     1     -14.921  -7.442   7.836  1.00  0.00     0.029 A 
ATOM     61  C   UNL     1     -13.577  -7.594   8.131  1.00  0.00     0.049 A 
ATOM     62  H   UNL     1     -11.909  -7.501   6.842  1.00  0.00     0.167 HD
ATOM     63  C   UNL     1     -11.631  -8.002   9.603  1.00  0.00     0.074 A 
ATOM     64  C   UNL     1     -11.021  -8.265  10.889  1.00  0.00     0.031 C 
ATOM     65  C   UNL     1     -12.963  -7.852   9.407  1.00  0.00     0.031 A 
BRANCH  52  66
ATOM     66  C   UNL     1     -14.496  -6.683   3.547  1.00  0.00    -0.014 A 
ATOM     67  C   UNL     1     -14.906  -7.639   2.604  1.00  0.00     0.009 A 
ATOM     68  C   UNL     1     -15.164  -5.450   3.600  1.00  0.00     0.009 A 
ATOM     69  C   UNL     1     -15.944  -7.353   1.714  1.00  0.00     0.001 A 
ATOM     70  C   UNL     1     -16.217  -5.177   2.725  1.00  0.00     0.001 A 
ATOM     71  C   UNL     1     -16.602  -6.125   1.779  1.00  0.00     0.000 A 
ENDBRANCH  52  66
BRANCH  53  72
ATOM     72  C   UNL     1      -6.965  -8.445   9.802  1.00  0.00    -0.014 A 
ATOM     73  C   UNL     1      -6.795  -9.707  10.391  1.00  0.00     0.009 A 
ATOM     74  C   UNL     1      -6.075  -7.412  10.136  1.00  0.00     0.009 A 
ATOM     75  C   UNL     1      -5.772  -9.922  11.317  1.00  0.00     0.001 A 
ATOM     76  C   UNL     1      -5.038  -7.638  11.042  1.00  0.00     0.001 A 
ATOM     77  C   UNL     1      -4.893  -8.890  11.639  1.00  0.00     0.000 A 
ENDBRANCH  53  72
BRANCH  65  78
ATOM     78  C   UNL     1     -13.852  -7.995  10.609  1.00  0.00    -0.014 A 
ATOM     79  C   UNL     1     -13.916  -6.992  11.588  1.00  0.00     0.009 A 
ATOM     80  C   UNL     1     -14.652  -9.139  10.752  1.00  0.00     0.009 A 
ATOM     81  C   UNL     1     -14.741  -7.147  12.705  1.00  0.00     0.001 A 
ATOM     82  C   UNL     1     -15.494  -9.280  11.856  1.00  0.00     0.001 A 
ATOM     83  C   UNL     1     -15.531  -8.289  12.836  1.00  0.00     0.000 A 
ENDBRANCH  65  78
ENDBRANCH  39  40
ENDBRANCH  31  34
ENDBRANCH  29  30
ENDBRANCH  28  29
ENDBRANCH  27  28
ENDBRANCH  26  27
ENDBRANCH   1  26
TORSDOF 18
