REMARK SMILES O=C(CC1(NC(=O)C2(c3ccccc3)CC2)CCC1)NCCCCCCNC(=O)c1ccc(-c2c3nc(c(-c4ccccc4)c4ccc([nH]4)c(-c4ccccc4)c4nc(c(-c5ccccc5)c5ccc2[nH]5)C=C4)C=C3)cc1
REMARK SMILES IDX 22 1 21 2 20 3 1 4 2 5 3 7 4 8 17 9 19 10 18 11 5 12 6 13
REMARK SMILES IDX 7 15 8 16 15 17 16 18 9 19 10 20 14 21 11 22 13 23 12 24
REMARK SMILES IDX 23 25 24 26 25 27 26 28 27 29 28 30 29 32 30 33 31 34 77 35
REMARK SMILES IDX 32 36 76 37 33 38 34 39 35 40 70 41 36 42 75 43 69 44 71 45
REMARK SMILES IDX 37 46 74 47 68 48 67 49 38 51 60 52 45 53 59 54 46 55 49 56
REMARK SMILES IDX 58 57 72 58 47 59 48 60 57 62 73 63 50 64 39 65 40 66 44 67
REMARK SMILES IDX 41 68 43 69 42 70 61 71 62 72 66 73 63 74 65 75 64 76 51 77
REMARK SMILES IDX 52 78 56 79 53 80 55 81 54 82
REMARK H PARENT 20 6 5 14 27 31 71 50 49 61
REMARK Flexibility Score: inf
ROOT
ATOM      1  C   UNL     1       1.704  -2.777   1.717  1.00  0.00     0.021 C 
ENDROOT
BRANCH   1   2
ATOM      2  C   UNL     1       1.146  -1.386   1.276  1.00  0.00     0.116 C 
BRANCH   2   3
ATOM      3  N   UNL     1       1.675  -0.807   0.028  1.00  0.00    -0.356 N 
ATOM      4  O   UNL     1       0.347   1.049  -0.015  1.00  0.00    -0.275 OA
ATOM      5  C   UNL     1       1.296   0.431  -0.500  1.00  0.00     0.222 C 
ATOM      6  H   UNL     1       2.343  -1.330  -0.471  1.00  0.00     0.163 HD
BRANCH   5   7
ATOM      7  C   UNL     1       2.086   1.032  -1.713  1.00  0.00     0.128 C 
BRANCH   7   8
ATOM      8  C   UNL     1       3.338   1.991  -1.577  1.00  0.00     0.049 C 
ATOM      9  C   UNL     1       3.020   3.410  -2.248  1.00  0.00     0.029 C 
ATOM     10  C   UNL     1       3.742   2.902  -0.334  1.00  0.00     0.029 C 
ATOM     11  C   UNL     1       4.040   4.055  -1.296  1.00  0.00     0.005 C 
BRANCH   8  12
ATOM     12  N   UNL     1       4.582   1.453  -2.267  1.00  0.00    -0.349 N 
ATOM     13  C   UNL     1       5.412   0.416  -1.929  1.00  0.00     0.231 C 
ATOM     14  H   UNL     1       4.834   1.929  -3.092  1.00  0.00     0.164 HD
ATOM     15  O   UNL     1       6.535   0.305  -2.430  1.00  0.00    -0.274 OA
BRANCH  13  16
ATOM     16  C   UNL     1       4.864  -0.663  -1.046  1.00  0.00     0.074 C 
ATOM     17  C   UNL     1       3.973  -1.596  -1.913  1.00  0.00     0.023 C 
ATOM     18  C   UNL     1       5.199  -2.153  -1.326  1.00  0.00     0.023 C 
BRANCH  16  19
ATOM     19  C   UNL     1       4.954  -0.319   0.475  1.00  0.00    -0.032 A 
ATOM     20  C   UNL     1       4.014   0.432   1.201  1.00  0.00     0.005 A 
ATOM     21  C   UNL     1       6.136  -0.553   1.193  1.00  0.00     0.005 A 
ATOM     22  C   UNL     1       4.188   0.945   2.491  1.00  0.00     0.000 A 
ATOM     23  C   UNL     1       6.343  -0.052   2.497  1.00  0.00     0.000 A 
ATOM     24  C   UNL     1       5.371   0.704   3.146  1.00  0.00     0.000 A 
ENDBRANCH  16  19
ENDBRANCH  13  16
ENDBRANCH   8  12
ENDBRANCH   7   8
ENDBRANCH   5   7
ENDBRANCH   2   3
ENDBRANCH   1   2
BRANCH   1  25
ATOM     25  C   UNL     1       3.174  -2.963   2.162  1.00  0.00     0.002 C 
BRANCH  25  26
ATOM     26  C   UNL     1       3.666  -2.269   3.440  1.00  0.00     0.002 C 
BRANCH  26  27
ATOM     27  C   UNL     1       3.291  -2.835   4.808  1.00  0.00     0.021 C 
BRANCH  27  28
ATOM     28  C   UNL     1       3.821  -4.220   5.169  1.00  0.00     0.116 C 
BRANCH  28  29
ATOM     29  N   UNL     1       5.248  -4.292   5.466  1.00  0.00    -0.352 N 
ATOM     30  C   UNL     1       5.903  -4.944   6.496  1.00  0.00     0.251 C 
ATOM     31  H   UNL     1       5.832  -3.806   4.840  1.00  0.00     0.163 HD
ATOM     32  O   UNL     1       7.125  -4.866   6.593  1.00  0.00    -0.269 OA
BRANCH  30  33
ATOM     33  C   UNL     1       5.141  -5.702   7.524  1.00  0.00     0.039 A 
ATOM     34  C   UNL     1       5.510  -5.591   8.870  1.00  0.00     0.014 A 
ATOM     35  C   UNL     1       4.052  -6.503   7.179  1.00  0.00     0.014 A 
ATOM     36  C   UNL     1       4.730  -6.195   9.865  1.00  0.00     0.010 A 
ATOM     37  C   UNL     1       3.220  -7.016   8.172  1.00  0.00     0.010 A 
ATOM     38  C   UNL     1       3.546  -6.871   9.528  1.00  0.00    -0.014 A 
BRANCH  38  39
ATOM     39  C   UNL     1       2.646  -7.449  10.565  1.00  0.00     0.031 A 
ATOM     40  C   UNL     1       2.365  -8.930  10.582  1.00  0.00     0.074 A 
ATOM     41  C   UNL     1       2.020  -6.643  11.447  1.00  0.00     0.049 A 
ATOM     42  N   UNL     1       1.548  -9.610  11.346  1.00  0.00    -0.248 NA
ATOM     43  C   UNL     1       3.076  -9.751   9.587  1.00  0.00     0.031 C 
ATOM     44  C   UNL     1       2.158  -5.186  11.518  1.00  0.00     0.029 A 
ATOM     45  N   UNL     1       1.132  -6.938  12.454  1.00  0.00    -0.354 N 
ATOM     46  C   UNL     1       1.638 -10.929  10.917  1.00  0.00     0.074 A 
ATOM     47  C   UNL     1       2.535 -10.944   9.783  1.00  0.00     0.031 C 
ATOM     48  C   UNL     1       1.404  -4.721  12.528  1.00  0.00     0.029 A 
ATOM     49  C   UNL     1       0.700  -5.835  13.152  1.00  0.00     0.049 A 
ATOM     50  H   UNL     1       0.832  -7.854  12.655  1.00  0.00     0.167 HD
ATOM     51  C   UNL     1       1.055 -12.037  11.434  1.00  0.00     0.031 A 
ATOM     52  C   UNL     1      -0.169  -5.732  14.177  1.00  0.00     0.031 A 
ATOM     53  C   UNL     1       0.170 -12.034  12.567  1.00  0.00     0.049 A 
ATOM     54  C   UNL     1      -0.810  -6.977  14.729  1.00  0.00     0.074 A 
ATOM     55  C   UNL     1      -0.448 -13.109  13.183  1.00  0.00     0.029 A 
ATOM     56  N   UNL     1      -0.215 -10.899  13.262  1.00  0.00    -0.354 N 
ATOM     57  N   UNL     1      -0.669  -8.222  14.342  1.00  0.00    -0.248 NA
ATOM     58  C   UNL     1      -1.716  -6.801  15.874  1.00  0.00     0.031 C 
ATOM     59  C   UNL     1      -1.238 -12.620  14.228  1.00  0.00     0.029 A 
ATOM     60  C   UNL     1      -1.067 -11.247  14.297  1.00  0.00     0.049 A 
ATOM     61  H   UNL     1       0.073  -9.982  13.051  1.00  0.00     0.167 HD
ATOM     62  C   UNL     1      -1.437  -8.979  15.219  1.00  0.00     0.074 A 
ATOM     63  C   UNL     1      -2.026  -8.056  16.166  1.00  0.00     0.031 C 
ATOM     64  C   UNL     1      -1.635 -10.319  15.239  1.00  0.00     0.031 A 
BRANCH  51  65
ATOM     65  C   UNL     1       1.374 -13.353  10.778  1.00  0.00    -0.014 A 
ATOM     66  C   UNL     1       2.655 -13.920  10.884  1.00  0.00     0.009 A 
ATOM     67  C   UNL     1       0.381 -14.050  10.073  1.00  0.00     0.009 A 
ATOM     68  C   UNL     1       2.946 -15.137  10.266  1.00  0.00     0.001 A 
ATOM     69  C   UNL     1       0.666 -15.283   9.482  1.00  0.00     0.001 A 
ATOM     70  C   UNL     1       1.950 -15.820   9.570  1.00  0.00     0.000 A 
ENDBRANCH  51  65
BRANCH  52  71
ATOM     71  C   UNL     1      -0.480  -4.403  14.771  1.00  0.00    -0.014 A 
ATOM     72  C   UNL     1      -0.055  -4.084  16.070  1.00  0.00     0.009 A 
ATOM     73  C   UNL     1      -1.236  -3.460  14.056  1.00  0.00     0.009 A 
ATOM     74  C   UNL     1      -0.415  -2.868  16.657  1.00  0.00     0.001 A 
ATOM     75  C   UNL     1      -1.566  -2.232  14.633  1.00  0.00     0.001 A 
ATOM     76  C   UNL     1      -1.168  -1.942  15.937  1.00  0.00     0.000 A 
ENDBRANCH  52  71
BRANCH  64  77
ATOM     77  C   UNL     1      -2.477 -10.874  16.354  1.00  0.00    -0.014 A 
ATOM     78  C   UNL     1      -3.865 -10.667  16.400  1.00  0.00     0.009 A 
ATOM     79  C   UNL     1      -1.870 -11.641  17.361  1.00  0.00     0.009 A 
ATOM     80  C   UNL     1      -4.620 -11.183  17.456  1.00  0.00     0.001 A 
ATOM     81  C   UNL     1      -2.632 -12.181  18.398  1.00  0.00     0.001 A 
ATOM     82  C   UNL     1      -4.004 -11.941  18.451  1.00  0.00     0.000 A 
ENDBRANCH  64  77
ENDBRANCH  38  39
ENDBRANCH  30  33
ENDBRANCH  28  29
ENDBRANCH  27  28
ENDBRANCH  26  27
ENDBRANCH  25  26
ENDBRANCH   1  25
TORSDOF 17
