REMARK SMILES CC1=C(C(=O)NCCCCCCNC(=O)c2ccc(-c3c4nc(c(-c5ccccc5)c5ccc([nH]5)c(-c5ccccc5)c5nc(c(-c6ccccc6)c6ccc3[nH]6)C=C5)C=C4)cc2)N2C(=O)[C@@H](NC(=O)c3ccn(C)n3)[C@H]2SC1
REMARK SMILES IDX 9 1 8 2 7 3 6 4 4 5 5 6 3 8 1 9 2 10 79 11 64 12 78 13 65 14
REMARK SMILES IDX 77 15 66 16 67 17 68 18 69 19 70 21 71 22 72 23 76 24 73 25
REMARK SMILES IDX 74 26 75 27 10 28 11 29 12 30 13 31 14 32 15 34 16 35 17 36
REMARK SMILES IDX 63 37 18 38 62 39 19 40 20 41 21 42 56 43 22 44 61 45 55 46
REMARK SMILES IDX 57 47 23 48 60 49 54 50 53 51 24 53 46 54 31 55 45 56 32 57
REMARK SMILES IDX 35 58 44 59 58 60 33 61 34 62 43 64 59 65 36 66 25 67 26 68
REMARK SMILES IDX 30 69 27 70 29 71 28 72 47 73 48 74 52 75 49 76 51 77 50 78
REMARK SMILES IDX 37 79 38 80 42 81 39 82 41 83 40 84
REMARK H PARENT 6 7 68 20 13 33 57 52 35 63
REMARK Flexibility Score: inf
ROOT
ATOM      1  C   UNL     1       3.276  -5.511   1.985  1.00  0.00     0.002 C 
ENDROOT
BRANCH   1   2
ATOM      2  C   UNL     1       2.993  -4.045   2.328  1.00  0.00     0.021 C 
BRANCH   2   3
ATOM      3  C   UNL     1       2.636  -3.130   1.165  1.00  0.00     0.116 C 
BRANCH   3   4
ATOM      4  N   UNL     1       1.421  -3.454   0.455  1.00  0.00    -0.351 N 
ATOM      5  C   UNL     1       0.615  -2.643  -0.296  1.00  0.00     0.268 C 
ATOM      6  O   UNL     1      -0.259  -3.159  -0.994  1.00  0.00    -0.268 OA
ATOM      7  H   UNL     1       1.131  -4.393   0.521  1.00  0.00     0.163 HD
BRANCH   5   8
ATOM      8  C   UNL     1       0.746  -1.136  -0.252  1.00  0.00     0.110 C 
ATOM      9  C   UNL     1       3.178  -0.964  -0.939  1.00  0.00     0.043 C 
ATOM     10  C   UNL     1       1.880  -0.408  -0.416  1.00  0.00    -0.034 C 
ATOM     11  C   UNL     1       1.971   1.099  -0.153  1.00  0.00     0.104 C 
ATOM     12  N   UNL     1      -0.428  -0.449  -0.231  1.00  0.00    -0.290 N 
ATOM     13  S   UNL     1       0.403   1.931   0.280  1.00  0.00    -0.129 SA
ATOM     14  C   UNL     1      -1.733  -0.622   0.055  1.00  0.00     0.253 C 
ATOM     15  C   UNL     1      -0.540   0.863  -0.826  1.00  0.00     0.181 C 
ATOM     16  O   UNL     1      -2.357  -1.482   0.632  1.00  0.00    -0.272 OA
ATOM     17  C   UNL     1      -2.065   0.712  -0.675  1.00  0.00     0.206 C 
BRANCH  17  18
ATOM     18  N   UNL     1      -2.804   1.775   0.039  1.00  0.00    -0.336 N 
ATOM     19  C   UNL     1      -3.807   2.574  -0.481  1.00  0.00     0.272 C 
ATOM     20  H   UNL     1      -2.558   1.929   0.980  1.00  0.00     0.164 HD
ATOM     21  O   UNL     1      -4.195   3.543   0.169  1.00  0.00    -0.267 OA
BRANCH  19  22
ATOM     22  C   UNL     1      -4.347   2.225  -1.807  1.00  0.00     0.150 A 
ATOM     23  C   UNL     1      -4.872   0.969  -2.228  1.00  0.00     0.056 A 
ATOM     24  N   UNL     1      -4.354   3.103  -2.829  1.00  0.00    -0.168 NA
ATOM     25  C   UNL     1      -5.159   1.117  -3.563  1.00  0.00     0.109 A 
ATOM     26  N   UNL     1      -4.879   2.417  -3.859  1.00  0.00    -0.275 N 
ATOM     27  C   UNL     1      -5.072   3.059  -5.138  1.00  0.00     0.173 C 
ENDBRANCH  19  22
ENDBRANCH  17  18
ENDBRANCH   5   8
ENDBRANCH   3   4
ENDBRANCH   2   3
ENDBRANCH   1   2
BRANCH   1  28
ATOM     28  C   UNL     1       4.267  -5.788   0.850  1.00  0.00     0.002 C 
BRANCH  28  29
ATOM     29  C   UNL     1       5.636  -5.111   0.943  1.00  0.00     0.021 C 
BRANCH  29  30
ATOM     30  C   UNL     1       6.387  -5.296   2.256  1.00  0.00     0.116 C 
BRANCH  30  31
ATOM     31  N   UNL     1       6.635  -6.689   2.581  1.00  0.00    -0.352 N 
ATOM     32  C   UNL     1       7.804  -7.312   2.942  1.00  0.00     0.251 C 
ATOM     33  H   UNL     1       5.846  -7.276   2.534  1.00  0.00     0.163 HD
ATOM     34  O   UNL     1       7.841  -8.534   3.049  1.00  0.00    -0.269 OA
BRANCH  32  35
ATOM     35  C   UNL     1       9.032  -6.519   3.176  1.00  0.00     0.039 A 
ATOM     36  C   UNL     1      10.240  -6.986   2.652  1.00  0.00     0.014 A 
ATOM     37  C   UNL     1       9.001  -5.331   3.910  1.00  0.00     0.014 A 
ATOM     38  C   UNL     1      11.404  -6.229   2.810  1.00  0.00     0.010 A 
ATOM     39  C   UNL     1      10.143  -4.538   3.997  1.00  0.00     0.010 A 
ATOM     40  C   UNL     1      11.358  -4.980   3.450  1.00  0.00    -0.014 A 
BRANCH  40  41
ATOM     41  C   UNL     1      12.568  -4.124   3.550  1.00  0.00     0.031 A 
ATOM     42  C   UNL     1      13.145  -3.773   4.894  1.00  0.00     0.074 A 
ATOM     43  C   UNL     1      13.120  -3.617   2.429  1.00  0.00     0.049 A 
ATOM     44  N   UNL     1      14.168  -3.007   5.179  1.00  0.00    -0.248 NA
ATOM     45  C   UNL     1      12.470  -4.337   6.074  1.00  0.00     0.031 C 
ATOM     46  C   UNL     1      12.639  -3.853   1.066  1.00  0.00     0.029 A 
ATOM     47  N   UNL     1      14.206  -2.795   2.259  1.00  0.00    -0.354 N 
ATOM     48  C   UNL     1      14.252  -2.989   6.566  1.00  0.00     0.074 A 
ATOM     49  C   UNL     1      13.142  -3.771   7.066  1.00  0.00     0.031 C 
ATOM     50  C   UNL     1      13.444  -3.219   0.200  1.00  0.00     0.029 A 
ATOM     51  C   UNL     1      14.467  -2.492   0.945  1.00  0.00     0.049 A 
ATOM     52  H   UNL     1      14.746  -2.455   3.009  1.00  0.00     0.167 HD
ATOM     53  C   UNL     1      15.179  -2.393   7.354  1.00  0.00     0.031 A 
ATOM     54  C   UNL     1      15.416  -1.709   0.398  1.00  0.00     0.031 A 
ATOM     55  C   UNL     1      16.279  -1.609   6.856  1.00  0.00     0.049 A 
ATOM     56  C   UNL     1      16.409  -1.024   1.296  1.00  0.00     0.074 A 
ATOM     57  C   UNL     1      17.297  -1.002   7.571  1.00  0.00     0.029 A 
ATOM     58  N   UNL     1      16.500  -1.316   5.519  1.00  0.00    -0.354 N 
ATOM     59  N   UNL     1      16.515  -1.073   2.602  1.00  0.00    -0.248 NA
ATOM     60  C   UNL     1      17.422  -0.184   0.641  1.00  0.00     0.031 C 
ATOM     61  C   UNL     1      18.093  -0.285   6.673  1.00  0.00     0.029 A 
ATOM     62  C   UNL     1      17.618  -0.509   5.391  1.00  0.00     0.049 A 
ATOM     63  H   UNL     1      15.944  -1.635   4.771  1.00  0.00     0.167 HD
ATOM     64  C   UNL     1      17.622  -0.297   2.922  1.00  0.00     0.074 A 
ATOM     65  C   UNL     1      18.164   0.195   1.672  1.00  0.00     0.031 C 
ATOM     66  C   UNL     1      18.145  -0.020   4.142  1.00  0.00     0.031 A 
BRANCH  53  67
ATOM     67  C   UNL     1      15.028  -2.552   8.843  1.00  0.00    -0.014 A 
ATOM     68  C   UNL     1      15.204  -3.798   9.467  1.00  0.00     0.009 A 
ATOM     69  C   UNL     1      14.736  -1.433   9.639  1.00  0.00     0.009 A 
ATOM     70  C   UNL     1      15.045  -3.928  10.849  1.00  0.00     0.001 A 
ATOM     71  C   UNL     1      14.614  -1.559  11.025  1.00  0.00     0.001 A 
ATOM     72  C   UNL     1      14.756  -2.808  11.627  1.00  0.00     0.000 A 
ENDBRANCH  53  67
BRANCH  54  73
ATOM     73  C   UNL     1      15.478  -1.533  -1.078  1.00  0.00    -0.014 A 
ATOM     74  C   UNL     1      16.549  -2.059  -1.817  1.00  0.00     0.009 A 
ATOM     75  C   UNL     1      14.469  -0.831  -1.756  1.00  0.00     0.009 A 
ATOM     76  C   UNL     1      16.622  -1.861  -3.198  1.00  0.00     0.001 A 
ATOM     77  C   UNL     1      14.527  -0.664  -3.141  1.00  0.00     0.001 A 
ATOM     78  C   UNL     1      15.609  -1.169  -3.859  1.00  0.00     0.000 A 
ENDBRANCH  54  73
BRANCH  66  79
ATOM     79  C   UNL     1      19.390   0.824   4.184  1.00  0.00    -0.014 A 
ATOM     80  C   UNL     1      19.365   2.189   3.858  1.00  0.00     0.009 A 
ATOM     81  C   UNL     1      20.602   0.247   4.597  1.00  0.00     0.009 A 
ATOM     82  C   UNL     1      20.535   2.949   3.909  1.00  0.00     0.001 A 
ATOM     83  C   UNL     1      21.763   1.018   4.682  1.00  0.00     0.001 A 
ATOM     84  C   UNL     1      21.731   2.365   4.327  1.00  0.00     0.000 A 
ENDBRANCH  66  79
ENDBRANCH  40  41
ENDBRANCH  32  35
ENDBRANCH  30  31
ENDBRANCH  29  30
ENDBRANCH  28  29
ENDBRANCH   1  28
TORSDOF 15
