REMARK SMILES O=C(NCCCCCCNC(=O)C1(NC(=O)c2nc(C3CC3)n[nH]2)CCCCC1)c1ccc(-c2c3nc(c(-c4ccccc4)c4ccc([nH]4)c(-c4ccccc4)c4nc(c(-c5ccccc5)c5ccc2[nH]5)C=C4)C=C3)cc1
REMARK SMILES IDX 7 1 6 2 5 3 4 4 3 5 1 6 2 7 30 9 31 10 77 11 32 12 76 13
REMARK SMILES IDX 33 14 34 15 35 16 70 17 36 18 75 19 69 20 71 21 37 22 74 23
REMARK SMILES IDX 68 24 67 25 38 27 60 28 45 29 59 30 46 31 49 32 58 33 72 34
REMARK SMILES IDX 47 35 48 36 57 38 73 39 50 40 39 41 40 42 44 43 41 44 43 45
REMARK SMILES IDX 42 46 61 47 62 48 66 49 63 50 65 51 64 52 51 53 52 54 56 55
REMARK SMILES IDX 53 56 55 57 54 58 8 59 9 60 10 61 11 62 12 64 13 65 25 66
REMARK SMILES IDX 29 67 26 68 28 69 27 70 14 71 15 72 16 74 17 75 18 76 24 77
REMARK SMILES IDX 19 78 23 79 20 81 21 82 22 83
REMARK H PARENT 3 8 71 26 49 37 10 63 14 73 24 80
REMARK Flexibility Score: inf
ROOT
ATOM      1  C   UNL     1       4.717   4.226  -0.696  1.00  0.00     0.002 C 
ENDROOT
BRANCH   1   2
ATOM      2  C   UNL     1       4.010   3.358  -1.744  1.00  0.00     0.002 C 
BRANCH   2   3
ATOM      3  C   UNL     1       4.475   1.902  -1.779  1.00  0.00     0.021 C 
BRANCH   3   4
ATOM      4  C   UNL     1       4.351   1.186  -0.443  1.00  0.00     0.116 C 
BRANCH   4   5
ATOM      5  N   UNL     1       2.964   1.030  -0.043  1.00  0.00    -0.352 N 
ATOM      6  O   UNL     1       1.062  -0.125   0.349  1.00  0.00    -0.269 OA
ATOM      7  C   UNL     1       2.282  -0.126   0.238  1.00  0.00     0.251 C 
ATOM      8  H   UNL     1       2.445   1.863   0.037  1.00  0.00     0.163 HD
BRANCH   7   9
ATOM      9  C   UNL     1       3.042  -1.382   0.397  1.00  0.00     0.039 A 
ATOM     10  C   UNL     1       4.207  -1.404   1.168  1.00  0.00     0.014 A 
ATOM     11  C   UNL     1       2.584  -2.543  -0.229  1.00  0.00     0.014 A 
ATOM     12  C   UNL     1       4.978  -2.557   1.217  1.00  0.00     0.010 A 
ATOM     13  C   UNL     1       3.313  -3.727  -0.102  1.00  0.00     0.010 A 
ATOM     14  C   UNL     1       4.523  -3.738   0.611  1.00  0.00    -0.014 A 
BRANCH  14  15
ATOM     15  C   UNL     1       5.279  -4.994   0.828  1.00  0.00     0.031 A 
ATOM     16  C   UNL     1       5.943  -5.717  -0.307  1.00  0.00     0.074 A 
ATOM     17  C   UNL     1       5.373  -5.466   2.087  1.00  0.00     0.049 A 
ATOM     18  N   UNL     1       6.656  -6.815  -0.272  1.00  0.00    -0.248 NA
ATOM     19  C   UNL     1       5.785  -5.144  -1.652  1.00  0.00     0.031 C 
ATOM     20  C   UNL     1       4.760  -4.848   3.267  1.00  0.00     0.029 A 
ATOM     21  N   UNL     1       6.032  -6.557   2.590  1.00  0.00    -0.354 N 
ATOM     22  C   UNL     1       7.017  -7.075  -1.588  1.00  0.00     0.074 A 
ATOM     23  C   UNL     1       6.426  -6.034  -2.401  1.00  0.00     0.031 C 
ATOM     24  C   UNL     1       5.115  -5.538   4.359  1.00  0.00     0.029 A 
ATOM     25  C   UNL     1       5.916  -6.684   3.952  1.00  0.00     0.049 A 
ATOM     26  H   UNL     1       6.538  -7.188   2.029  1.00  0.00     0.167 HD
ATOM     27  C   UNL     1       7.775  -8.090  -2.070  1.00  0.00     0.031 A 
ATOM     28  C   UNL     1       6.385  -7.630   4.785  1.00  0.00     0.031 A 
ATOM     29  C   UNL     1       8.352  -9.128  -1.254  1.00  0.00     0.049 A 
ATOM     30  C   UNL     1       7.183  -8.763   4.215  1.00  0.00     0.074 A 
ATOM     31  C   UNL     1       9.158 -10.184  -1.644  1.00  0.00     0.029 A 
ATOM     32  N   UNL     1       8.176  -9.247   0.117  1.00  0.00    -0.354 N 
ATOM     33  N   UNL     1       7.548  -8.972   2.973  1.00  0.00    -0.248 NA
ATOM     34  C   UNL     1       7.633  -9.791   5.161  1.00  0.00     0.031 C 
ATOM     35  C   UNL     1       9.423 -10.972  -0.520  1.00  0.00     0.029 A 
ATOM     36  C   UNL     1       8.834 -10.374   0.583  1.00  0.00     0.049 A 
ATOM     37  H   UNL     1       7.660  -8.623   0.676  1.00  0.00     0.167 HD
ATOM     38  C   UNL     1       8.286 -10.147   2.991  1.00  0.00     0.074 A 
ATOM     39  C   UNL     1       8.337 -10.588   4.370  1.00  0.00     0.031 C 
ATOM     40  C   UNL     1       8.866 -10.803   1.957  1.00  0.00     0.031 A 
BRANCH  27  41
ATOM     41  C   UNL     1       8.002  -8.148  -3.556  1.00  0.00    -0.014 A 
ATOM     42  C   UNL     1       8.839  -7.226  -4.204  1.00  0.00     0.009 A 
ATOM     43  C   UNL     1       7.411  -9.174  -4.311  1.00  0.00     0.009 A 
ATOM     44  C   UNL     1       9.056  -7.315  -5.582  1.00  0.00     0.001 A 
ATOM     45  C   UNL     1       7.651  -9.276  -5.682  1.00  0.00     0.001 A 
ATOM     46  C   UNL     1       8.467  -8.342  -6.318  1.00  0.00     0.000 A 
ENDBRANCH  27  41
BRANCH  28  47
ATOM     47  C   UNL     1       6.088  -7.551   6.238  1.00  0.00    -0.014 A 
ATOM     48  C   UNL     1       7.108  -7.293   7.165  1.00  0.00     0.009 A 
ATOM     49  C   UNL     1       4.774  -7.723   6.704  1.00  0.00     0.009 A 
ATOM     50  C   UNL     1       6.823  -7.234   8.531  1.00  0.00     0.001 A 
ATOM     51  C   UNL     1       4.486  -7.630   8.066  1.00  0.00     0.001 A 
ATOM     52  C   UNL     1       5.512  -7.396   8.979  1.00  0.00     0.000 A 
ENDBRANCH  28  47
BRANCH  40  53
ATOM     53  C   UNL     1       9.630 -12.053   2.292  1.00  0.00    -0.014 A 
ATOM     54  C   UNL     1       8.969 -13.230   2.676  1.00  0.00     0.009 A 
ATOM     55  C   UNL     1      11.030 -12.055   2.204  1.00  0.00     0.009 A 
ATOM     56  C   UNL     1       9.699 -14.374   3.002  1.00  0.00     0.001 A 
ATOM     57  C   UNL     1      11.756 -13.209   2.500  1.00  0.00     0.001 A 
ATOM     58  C   UNL     1      11.091 -14.364   2.910  1.00  0.00     0.000 A 
ENDBRANCH  40  53
ENDBRANCH  14  15
ENDBRANCH   7   9
ENDBRANCH   4   5
ENDBRANCH   3   4
ENDBRANCH   2   3
ENDBRANCH   1   2
BRANCH   1  59
ATOM     59  C   UNL     1       6.247   4.119  -0.704  1.00  0.00     0.021 C 
BRANCH  59  60
ATOM     60  C   UNL     1       6.867   4.505  -2.047  1.00  0.00     0.116 C 
BRANCH  60  61
ATOM     61  N   UNL     1       6.846   5.941  -2.185  1.00  0.00    -0.354 N 
ATOM     62  C   UNL     1       7.766   6.851  -1.749  1.00  0.00     0.245 C 
ATOM     63  H   UNL     1       6.066   6.313  -2.656  1.00  0.00     0.163 HD
ATOM     64  O   UNL     1       7.339   7.731  -0.996  1.00  0.00    -0.272 OA
BRANCH  62  65
ATOM     65  C   UNL     1       9.268   6.791  -2.204  1.00  0.00     0.119 C 
ATOM     66  C   UNL     1       9.986   7.982  -1.503  1.00  0.00     0.038 C 
ATOM     67  C   UNL     1       9.892   5.443  -1.751  1.00  0.00     0.038 C 
ATOM     68  C   UNL     1      11.506   7.871  -1.412  1.00  0.00     0.003 C 
ATOM     69  C   UNL     1      11.410   5.404  -1.603  1.00  0.00     0.003 C 
ATOM     70  C   UNL     1      11.917   6.559  -0.765  1.00  0.00     0.000 C 
BRANCH  65  71
ATOM     71  N   UNL     1       9.498   6.901  -3.678  1.00  0.00    -0.335 N 
ATOM     72  C   UNL     1       8.693   7.083  -4.777  1.00  0.00     0.289 C 
ATOM     73  H   UNL     1      10.450   6.825  -3.917  1.00  0.00     0.165 HD
ATOM     74  O   UNL     1       9.208   6.832  -5.871  1.00  0.00    -0.266 OA
BRANCH  72  75
ATOM     75  C   UNL     1       7.306   7.449  -4.681  1.00  0.00     0.214 A 
ATOM     76  N   UNL     1       6.751   8.383  -3.932  1.00  0.00    -0.207 NA
ATOM     77  N   UNL     1       6.325   6.844  -5.413  1.00  0.00    -0.255 N 
ATOM     78  C   UNL     1       5.404   8.190  -4.133  1.00  0.00     0.154 A 
ATOM     79  N   UNL     1       5.103   7.223  -5.008  1.00  0.00    -0.158 NA
ATOM     80  H   UNL     1       6.494   6.209  -6.146  1.00  0.00     0.192 HD
BRANCH  78  81
ATOM     81  C   UNL     1       4.317   8.916  -3.356  1.00  0.00     0.060 C 
ATOM     82  C   UNL     1       4.676   9.540  -2.021  1.00  0.00     0.012 C 
ATOM     83  C   UNL     1       4.391  10.418  -3.191  1.00  0.00     0.012 C 
ENDBRANCH  78  81
ENDBRANCH  72  75
ENDBRANCH  65  71
ENDBRANCH  62  65
ENDBRANCH  60  61
ENDBRANCH  59  60
ENDBRANCH   1  59
TORSDOF 16
