REMARK SMILES CC(C)(C)OC(=O)N1CCN(C(=O)c2ccc3c(c2)OCO3)[C@H](C(=O)NCCCCCCNC(=O)c2ccc(-c3c4nc(c(-c5ccccc5)c5ccc([nH]5)c(-c5ccccc5)c5nc(c(-c6ccccc6)c6ccc3[nH]6)C=C5)C=C4)cc2)C1
REMARK SMILES IDX 29 1 28 2 27 3 26 4 24 5 25 6 23 8 8 9 9 10 84 11 10 12
REMARK SMILES IDX 11 13 6 14 7 15 5 16 2 17 1 18 3 19 4 20 12 21 13 22 14 23
REMARK SMILES IDX 15 24 19 25 16 26 18 27 17 28 20 29 22 30 21 31 30 32 31 33
REMARK SMILES IDX 32 34 33 35 34 36 35 38 36 39 37 40 83 41 38 42 82 43 39 44
REMARK SMILES IDX 40 45 41 46 76 47 42 48 81 49 75 50 77 51 43 52 80 53 74 54
REMARK SMILES IDX 73 55 44 57 66 58 51 59 65 60 52 61 55 62 64 63 78 64 53 65
REMARK SMILES IDX 54 66 63 68 79 69 56 70 45 71 46 72 50 73 47 74 49 75 48 76
REMARK SMILES IDX 67 77 68 78 72 79 69 80 71 81 70 82 57 83 58 84 62 85 59 86
REMARK SMILES IDX 61 87 60 88
REMARK H PARENT 26 7 33 37 77 56 55 67
REMARK Flexibility Score: inf
ROOT
ATOM      1  C   UNL     1       5.487   5.562  -3.888  1.00  0.00     0.002 C 
ENDROOT
BRANCH   1   2
ATOM      2  C   UNL     1       4.088   4.953  -3.721  1.00  0.00     0.021 C 
BRANCH   2   3
ATOM      3  C   UNL     1       3.498   4.456  -5.037  1.00  0.00     0.116 C 
BRANCH   3   4
ATOM      4  N   UNL     1       4.292   3.340  -5.513  1.00  0.00    -0.354 N 
ATOM      5  C   UNL     1       3.961   2.020  -5.596  1.00  0.00     0.244 C 
ATOM      6  O   UNL     1       4.867   1.196  -5.729  1.00  0.00    -0.273 OA
ATOM      7  H   UNL     1       5.200   3.568  -5.819  1.00  0.00     0.163 HD
BRANCH   5   8
ATOM      8  C   UNL     1       2.478   1.642  -5.650  1.00  0.00     0.194 C 
ATOM      9  N   UNL     1       1.000  -0.240  -4.947  1.00  0.00    -0.304 N 
ATOM     10  C   UNL     1       0.289  -0.226  -6.220  1.00  0.00     0.144 C 
ATOM     11  C   UNL     1       2.380   0.242  -4.995  1.00  0.00     0.158 C 
ATOM     12  C   UNL     1       0.377   1.159  -6.868  1.00  0.00     0.142 C 
ATOM     13  N   UNL     1       1.766   1.637  -6.974  1.00  0.00    -0.323 N 
BRANCH   9  14
ATOM     14  C   UNL     1       0.411  -0.791  -3.833  1.00  0.00     0.410 C 
ATOM     15  O   UNL     1      -0.583  -1.505  -3.892  1.00  0.00    -0.224 OA
BRANCH  14  16
ATOM     16  O   UNL     1       1.018  -0.401  -2.684  1.00  0.00    -0.444 OA
BRANCH  16  17
ATOM     17  C   UNL     1       0.539  -0.861  -1.391  1.00  0.00     0.106 C 
ATOM     18  C   UNL     1       1.216   0.055  -0.359  1.00  0.00     0.056 C 
ATOM     19  C   UNL     1       1.008  -2.301  -1.170  1.00  0.00     0.056 C 
ATOM     20  C   UNL     1      -0.980  -0.720  -1.209  1.00  0.00     0.056 C 
ENDBRANCH  16  17
ENDBRANCH  14  16
ENDBRANCH   9  14
BRANCH  13  21
ATOM     21  C   UNL     1       2.048   2.412  -8.105  1.00  0.00     0.254 C 
ATOM     22  O   UNL     1       1.181   2.755  -8.909  1.00  0.00    -0.269 OA
BRANCH  21  23
ATOM     23  C   UNL     1       3.427   2.820  -8.439  1.00  0.00     0.044 A 
ATOM     24  C   UNL     1       4.461   1.868  -8.555  1.00  0.00     0.018 A 
ATOM     25  C   UNL     1       3.676   4.178  -8.683  1.00  0.00     0.064 A 
ATOM     26  C   UNL     1       5.777   2.283  -8.794  1.00  0.00     0.051 A 
ATOM     27  C   UNL     1       4.981   4.551  -8.918  1.00  0.00     0.166 A 
ATOM     28  C   UNL     1       6.005   3.633  -8.956  1.00  0.00     0.165 A 
ATOM     29  O   UNL     1       5.421   5.825  -9.101  1.00  0.00    -0.454 OA
ATOM     30  O   UNL     1       7.217   4.217  -9.152  1.00  0.00    -0.454 OA
ATOM     31  C   UNL     1       6.841   5.606  -9.247  1.00  0.00     0.468 C 
ENDBRANCH  21  23
ENDBRANCH  13  21
ENDBRANCH   5   8
ENDBRANCH   3   4
ENDBRANCH   2   3
ENDBRANCH   1   2
BRANCH   1  32
ATOM     32  C   UNL     1       5.542   6.766  -4.835  1.00  0.00     0.002 C 
BRANCH  32  33
ATOM     33  C   UNL     1       4.595   7.904  -4.454  1.00  0.00     0.021 C 
BRANCH  33  34
ATOM     34  C   UNL     1       4.821   8.441  -3.047  1.00  0.00     0.116 C 
BRANCH  34  35
ATOM     35  N   UNL     1       6.127   9.067  -2.908  1.00  0.00    -0.352 N 
ATOM     36  C   UNL     1       6.421  10.305  -2.391  1.00  0.00     0.251 C 
ATOM     37  H   UNL     1       6.895   8.538  -3.223  1.00  0.00     0.163 HD
ATOM     38  O   UNL     1       7.538  10.793  -2.510  1.00  0.00    -0.269 OA
BRANCH  36  39
ATOM     39  C   UNL     1       5.348  11.047  -1.704  1.00  0.00     0.039 A 
ATOM     40  C   UNL     1       5.071  12.362  -2.081  1.00  0.00     0.014 A 
ATOM     41  C   UNL     1       4.577  10.403  -0.733  1.00  0.00     0.014 A 
ATOM     42  C   UNL     1       3.970  13.016  -1.526  1.00  0.00     0.010 A 
ATOM     43  C   UNL     1       3.438  11.025  -0.244  1.00  0.00     0.010 A 
ATOM     44  C   UNL     1       3.126  12.339  -0.631  1.00  0.00    -0.014 A 
BRANCH  44  45
ATOM     45  C   UNL     1       1.915  12.971  -0.053  1.00  0.00     0.031 A 
ATOM     46  C   UNL     1       1.825  13.158   1.436  1.00  0.00     0.074 A 
ATOM     47  C   UNL     1       0.865  13.269  -0.840  1.00  0.00     0.049 A 
ATOM     48  N   UNL     1       0.802  13.525   2.163  1.00  0.00    -0.248 NA
ATOM     49  C   UNL     1       3.040  12.858   2.211  1.00  0.00     0.031 C 
ATOM     50  C   UNL     1       0.823  13.126  -2.297  1.00  0.00     0.029 A 
ATOM     51  N   UNL     1      -0.384  13.739  -0.516  1.00  0.00    -0.354 N 
ATOM     52  C   UNL     1       1.238  13.463   3.480  1.00  0.00     0.074 A 
ATOM     53  C   UNL     1       2.602  12.982   3.454  1.00  0.00     0.031 C 
ATOM     54  C   UNL     1      -0.382  13.520  -2.741  1.00  0.00     0.029 A 
ATOM     55  C   UNL     1      -1.215  13.886  -1.600  1.00  0.00     0.049 A 
ATOM     56  H   UNL     1      -0.658  13.950   0.405  1.00  0.00     0.167 HD
ATOM     57  C   UNL     1       0.567  13.786   4.610  1.00  0.00     0.031 A 
ATOM     58  C   UNL     1      -2.509  14.255  -1.665  1.00  0.00     0.031 A 
ATOM     59  C   UNL     1      -0.785  14.276   4.628  1.00  0.00     0.049 A 
ATOM     60  C   UNL     1      -3.248  14.570  -0.392  1.00  0.00     0.074 A 
ATOM     61  C   UNL     1      -1.535  14.690   5.714  1.00  0.00     0.029 A 
ATOM     62  N   UNL     1      -1.589  14.412   3.507  1.00  0.00    -0.354 N 
ATOM     63  N   UNL     1      -2.809  14.556   0.844  1.00  0.00    -0.248 NA
ATOM     64  C   UNL     1      -4.660  14.956  -0.523  1.00  0.00     0.031 C 
ATOM     65  C   UNL     1      -2.816  15.012   5.259  1.00  0.00     0.029 A 
ATOM     66  C   UNL     1      -2.839  14.874   3.880  1.00  0.00     0.049 A 
ATOM     67  H   UNL     1      -1.313  14.211   2.584  1.00  0.00     0.167 HD
ATOM     68  C   UNL     1      -3.875  14.976   1.630  1.00  0.00     0.074 A 
ATOM     69  C   UNL     1      -4.982  15.234   0.733  1.00  0.00     0.031 C 
ATOM     70  C   UNL     1      -3.926  15.143   2.974  1.00  0.00     0.031 A 
BRANCH  57  71
ATOM     71  C   UNL     1       1.278  13.589   5.921  1.00  0.00    -0.014 A 
ATOM     72  C   UNL     1       2.384  14.374   6.283  1.00  0.00     0.009 A 
ATOM     73  C   UNL     1       0.816  12.614   6.819  1.00  0.00     0.009 A 
ATOM     74  C   UNL     1       3.042  14.153   7.496  1.00  0.00     0.001 A 
ATOM     75  C   UNL     1       1.452  12.421   8.046  1.00  0.00     0.001 A 
ATOM     76  C   UNL     1       2.572  13.181   8.377  1.00  0.00     0.000 A 
ENDBRANCH  57  71
BRANCH  58  77
ATOM     77  C   UNL     1      -3.190  14.363  -2.982  1.00  0.00    -0.014 A 
ATOM     78  C   UNL     1      -3.559  15.620  -3.485  1.00  0.00     0.009 A 
ATOM     79  C   UNL     1      -3.481  13.219  -3.741  1.00  0.00     0.009 A 
ATOM     80  C   UNL     1      -4.227  15.728  -4.707  1.00  0.00     0.001 A 
ATOM     81  C   UNL     1      -4.121  13.332  -4.978  1.00  0.00     0.001 A 
ATOM     82  C   UNL     1      -4.503  14.585  -5.455  1.00  0.00     0.000 A 
ENDBRANCH  58  77
BRANCH  70  83
ATOM     83  C   UNL     1      -5.195  15.694   3.562  1.00  0.00    -0.014 A 
ATOM     84  C   UNL     1      -6.364  14.925   3.652  1.00  0.00     0.009 A 
ATOM     85  C   UNL     1      -5.188  16.987   4.113  1.00  0.00     0.009 A 
ATOM     86  C   UNL     1      -7.506  15.447   4.263  1.00  0.00     0.001 A 
ATOM     87  C   UNL     1      -6.320  17.494   4.751  1.00  0.00     0.001 A 
ATOM     88  C   UNL     1      -7.480  16.726   4.820  1.00  0.00     0.000 A 
ENDBRANCH  70  83
ENDBRANCH  44  45
ENDBRANCH  36  39
ENDBRANCH  34  35
ENDBRANCH  33  34
ENDBRANCH  32  33
ENDBRANCH   1  32
TORSDOF 18
