REMARK SMILES CC(C)(C)C[N@H+]1[C@@H](C(=O)NCCCCCCNC(=O)c2ccc(-c3c4nc(c(-c5ccccc5)c5ccc([nH]5)c(-c5ccccc5)c5nc(c(-c6ccccc6)c6ccc3[nH]6)C=C5)C=C4)cc2)CC[C@H]2CCCC[C@@H]21
REMARK SMILES IDX 13 1 12 2 11 3 10 4 8 5 9 6 7 8 6 9 75 10 68 12 70 13 74 14
REMARK SMILES IDX 69 15 71 16 73 17 72 18 5 19 2 20 1 21 3 22 4 23 14 24 15 25
REMARK SMILES IDX 16 26 17 27 18 28 19 30 20 31 21 32 67 33 22 34 66 35 23 36
REMARK SMILES IDX 24 37 25 38 60 39 26 40 65 41 59 42 61 43 27 44 64 45 58 46
REMARK SMILES IDX 57 47 28 49 50 50 35 51 49 52 36 53 39 54 48 55 62 56 37 57
REMARK SMILES IDX 38 58 47 60 63 61 40 62 29 63 30 64 34 65 31 66 33 67 32 68
REMARK SMILES IDX 51 69 52 70 56 71 53 72 55 73 54 74 41 75 42 76 46 77 43 78
REMARK SMILES IDX 45 79 44 80
REMARK H PARENT 10 7 6 11 17 29 61 48 39 59
REMARK Flexibility Score: inf
ROOT
ATOM      1  C   UNL     1      -2.162   2.069  -0.046  1.00  0.00     0.002 C 
ENDROOT
BRANCH   1   2
ATOM      2  C   UNL     1      -1.755   0.757   0.633  1.00  0.00     0.021 C 
BRANCH   2   3
ATOM      3  C   UNL     1      -1.710  -0.545  -0.179  1.00  0.00     0.116 C 
BRANCH   3   4
ATOM      4  N   UNL     1      -0.478  -0.664  -0.943  1.00  0.00    -0.351 N 
ATOM      5  C   UNL     1       0.654  -1.413  -0.782  1.00  0.00     0.278 C 
ATOM      6  O   UNL     1       1.556  -1.153  -1.593  1.00  0.00    -0.268 OA
ATOM      7  H   UNL     1      -0.455  -0.086  -1.739  1.00  0.00     0.163 HD
BRANCH   5   8
ATOM      8  C   UNL     1       0.809  -2.598   0.216  1.00  0.00     0.274 C 
ATOM      9  N   UNL     1       0.677  -2.298   1.683  1.00  0.00    -0.322 N 
ATOM     10  C   UNL     1       0.627  -3.610   2.431  1.00  0.00     0.187 C 
ATOM     11  H   UNL     1      -0.174  -1.746   1.793  1.00  0.00     0.349 HD
ATOM     12  C   UNL     1       2.138  -3.360  -0.092  1.00  0.00     0.076 C 
ATOM     13  C   UNL     1       1.288  -4.818   1.714  1.00  0.00     0.048 C 
ATOM     14  C   UNL     1      -0.797  -4.054   2.815  1.00  0.00     0.065 C 
ATOM     15  C   UNL     1       2.541  -4.374   0.986  1.00  0.00     0.016 C 
ATOM     16  C   UNL     1       1.515  -5.939   2.730  1.00  0.00     0.010 C 
ATOM     17  C   UNL     1      -0.726  -5.261   3.774  1.00  0.00     0.006 C 
ATOM     18  C   UNL     1       0.165  -6.409   3.280  1.00  0.00     0.001 C 
BRANCH   9  19
ATOM     19  C   UNL     1       1.799  -1.470   2.252  1.00  0.00     0.269 C 
BRANCH  19  20
ATOM     20  C   UNL     1       1.472   0.011   2.616  1.00  0.00     0.011 C 
ATOM     21  C   UNL     1       1.722   0.924   1.404  1.00  0.00     0.017 C 
ATOM     22  C   UNL     1       2.438   0.525   3.710  1.00  0.00     0.017 C 
ATOM     23  C   UNL     1       0.061   0.125   3.220  1.00  0.00     0.017 C 
ENDBRANCH  19  20
ENDBRANCH   9  19
ENDBRANCH   5   8
ENDBRANCH   3   4
ENDBRANCH   2   3
ENDBRANCH   1   2
BRANCH   1  24
ATOM     24  C   UNL     1      -3.599   2.550   0.208  1.00  0.00     0.002 C 
BRANCH  24  25
ATOM     25  C   UNL     1      -4.145   2.451   1.643  1.00  0.00     0.021 C 
BRANCH  25  26
ATOM     26  C   UNL     1      -3.298   3.095   2.744  1.00  0.00     0.116 C 
BRANCH  26  27
ATOM     27  N   UNL     1      -3.386   4.545   2.736  1.00  0.00    -0.352 N 
ATOM     28  C   UNL     1      -4.143   5.396   3.506  1.00  0.00     0.251 C 
ATOM     29  H   UNL     1      -2.811   4.990   2.071  1.00  0.00     0.163 HD
ATOM     30  O   UNL     1      -4.229   6.580   3.196  1.00  0.00    -0.269 OA
BRANCH  28  31
ATOM     31  C   UNL     1      -4.872   4.912   4.702  1.00  0.00     0.039 A 
ATOM     32  C   UNL     1      -6.198   5.320   4.888  1.00  0.00     0.014 A 
ATOM     33  C   UNL     1      -4.242   4.148   5.688  1.00  0.00     0.014 A 
ATOM     34  C   UNL     1      -6.904   4.924   6.029  1.00  0.00     0.010 A 
ATOM     35  C   UNL     1      -4.961   3.714   6.807  1.00  0.00     0.010 A 
ATOM     36  C   UNL     1      -6.299   4.100   6.992  1.00  0.00    -0.014 A 
BRANCH  36  37
ATOM     37  C   UNL     1      -7.054   3.638   8.188  1.00  0.00     0.031 A 
ATOM     38  C   UNL     1      -6.683   4.116   9.566  1.00  0.00     0.074 A 
ATOM     39  C   UNL     1      -8.056   2.747   8.043  1.00  0.00     0.049 A 
ATOM     40  N   UNL     1      -7.203   3.787  10.723  1.00  0.00    -0.248 NA
ATOM     41  C   UNL     1      -5.573   5.077   9.657  1.00  0.00     0.031 C 
ATOM     42  C   UNL     1      -8.508   2.181   6.771  1.00  0.00     0.029 A 
ATOM     43  N   UNL     1      -8.870   2.157   8.978  1.00  0.00    -0.354 N 
ATOM     44  C   UNL     1      -6.475   4.486  11.679  1.00  0.00     0.074 A 
ATOM     45  C   UNL     1      -5.455   5.229  10.969  1.00  0.00     0.031 C 
ATOM     46  C   UNL     1      -9.529   1.340   7.004  1.00  0.00     0.029 A 
ATOM     47  C   UNL     1      -9.781   1.280   8.441  1.00  0.00     0.049 A 
ATOM     48  H   UNL     1      -8.807   2.344   9.943  1.00  0.00     0.167 HD
ATOM     49  C   UNL     1      -6.646   4.519  13.023  1.00  0.00     0.031 A 
ATOM     50  C   UNL     1     -10.711   0.508   9.034  1.00  0.00     0.031 A 
ATOM     51  C   UNL     1      -7.662   3.791  13.736  1.00  0.00     0.049 A 
ATOM     52  C   UNL     1     -10.870   0.549  10.528  1.00  0.00     0.074 A 
ATOM     53  C   UNL     1      -7.942   3.805  15.093  1.00  0.00     0.029 A 
ATOM     54  N   UNL     1      -8.564   2.916  13.153  1.00  0.00    -0.354 N 
ATOM     55  N   UNL     1     -10.211   1.260  11.409  1.00  0.00    -0.248 NA
ATOM     56  C   UNL     1     -11.911  -0.314  11.106  1.00  0.00     0.031 C 
ATOM     57  C   UNL     1      -8.984   2.904  15.336  1.00  0.00     0.029 A 
ATOM     58  C   UNL     1      -9.385   2.366  14.124  1.00  0.00     0.049 A 
ATOM     59  H   UNL     1      -8.613   2.714  12.191  1.00  0.00     0.167 HD
ATOM     60  C   UNL     1     -10.772   0.951  12.641  1.00  0.00     0.074 A 
ATOM     61  C   UNL     1     -11.835  -0.001  12.393  1.00  0.00     0.031 C 
ATOM     62  C   UNL     1     -10.438   1.418  13.868  1.00  0.00     0.031 A 
BRANCH  49  63
ATOM     63  C   UNL     1      -5.697   5.371  13.820  1.00  0.00    -0.014 A 
ATOM     64  C   UNL     1      -5.771   6.772  13.782  1.00  0.00     0.009 A 
ATOM     65  C   UNL     1      -4.743   4.763  14.652  1.00  0.00     0.009 A 
ATOM     66  C   UNL     1      -4.885   7.548  14.533  1.00  0.00     0.001 A 
ATOM     67  C   UNL     1      -3.876   5.541  15.422  1.00  0.00     0.001 A 
ATOM     68  C   UNL     1      -3.941   6.932  15.355  1.00  0.00     0.000 A 
ENDBRANCH  49  63
BRANCH  50  69
ATOM     69  C   UNL     1     -11.582  -0.368   8.209  1.00  0.00    -0.014 A 
ATOM     70  C   UNL     1     -12.938  -0.055   8.028  1.00  0.00     0.009 A 
ATOM     71  C   UNL     1     -11.064  -1.523   7.603  1.00  0.00     0.009 A 
ATOM     72  C   UNL     1     -13.763  -0.894   7.276  1.00  0.00     0.001 A 
ATOM     73  C   UNL     1     -11.886  -2.346   6.830  1.00  0.00     0.001 A 
ATOM     74  C   UNL     1     -13.236  -2.035   6.674  1.00  0.00     0.000 A 
ENDBRANCH  50  69
BRANCH  62  75
ATOM     75  C   UNL     1     -11.249   0.930  15.034  1.00  0.00    -0.014 A 
ATOM     76  C   UNL     1     -11.099  -0.374  15.531  1.00  0.00     0.009 A 
ATOM     77  C   UNL     1     -12.151   1.800  15.666  1.00  0.00     0.009 A 
ATOM     78  C   UNL     1     -11.859  -0.806  16.620  1.00  0.00     0.001 A 
ATOM     79  C   UNL     1     -12.892   1.373  16.770  1.00  0.00     0.001 A 
ATOM     80  C   UNL     1     -12.751   0.068  17.240  1.00  0.00     0.000 A 
ENDBRANCH  62  75
ENDBRANCH  36  37
ENDBRANCH  28  31
ENDBRANCH  26  27
ENDBRANCH  25  26
ENDBRANCH  24  25
ENDBRANCH   1  24
TORSDOF 15
