REMARK SMILES CC1(C)Cc2c(-c3ccccc3)c(-c3ccc(Cl)cc3)c(CC(=O)NCCCCCCNC(=O)c3ccc(-c4c5nc(c(-c6ccccc6)c6ccc([nH]6)c(-c6ccccc6)c6nc(c(-c7ccccc7)c7ccc4[nH]7)C=C6)C=C5)cc3)n2C1
REMARK SMILES IDX 28 1 27 2 26 3 25 4 23 5 24 6 22 8 21 9 1 10 2 11 3 12 4 13
REMARK SMILES IDX 84 14 5 15 83 16 6 17 13 18 7 19 8 20 12 21 9 22 11 23 10 24
REMARK SMILES IDX 14 25 15 26 20 27 16 28 19 29 17 30 18 31 29 32 30 33 31 34
REMARK SMILES IDX 32 35 33 36 34 38 35 39 36 40 82 41 37 42 81 43 38 44 39 45
REMARK SMILES IDX 40 46 75 47 41 48 80 49 74 50 76 51 42 52 79 53 73 54 72 55
REMARK SMILES IDX 43 57 65 58 50 59 64 60 51 61 54 62 63 63 77 64 52 65 53 66
REMARK SMILES IDX 62 68 78 69 55 70 44 71 45 72 49 73 46 74 48 75 47 76 66 77
REMARK SMILES IDX 67 78 71 79 68 80 70 81 69 82 56 83 57 84 61 85 58 86 60 87
REMARK SMILES IDX 59 88
REMARK H PARENT 25 7 32 37 76 56 54 67
REMARK Flexibility Score: inf
ROOT
ATOM      1  C   UNL     1      -2.721  -4.285  -4.945  1.00  0.00     0.002 C 
ENDROOT
BRANCH   1   2
ATOM      2  C   UNL     1      -2.158  -3.781  -3.614  1.00  0.00     0.021 C 
BRANCH   2   3
ATOM      3  C   UNL     1      -3.194  -3.136  -2.697  1.00  0.00     0.116 C 
BRANCH   3   4
ATOM      4  N   UNL     1      -4.102  -4.095  -2.117  1.00  0.00    -0.356 N 
ATOM      5  C   UNL     1      -4.240  -4.460  -0.808  1.00  0.00     0.225 C 
ATOM      6  O   UNL     1      -5.155  -5.238  -0.526  1.00  0.00    -0.275 OA
ATOM      7  H   UNL     1      -4.705  -4.548  -2.751  1.00  0.00     0.163 HD
BRANCH   5   8
ATOM      8  C   UNL     1      -3.346  -3.860   0.269  1.00  0.00     0.154 C 
BRANCH   8   9
ATOM      9  C   UNL     1      -1.885  -4.146   0.073  1.00  0.00     0.036 A 
ATOM     10  C   UNL     1       1.000  -0.070   0.156  1.00  0.00     0.013 C 
ATOM     11  C   UNL     1       0.452  -1.334  -0.508  1.00  0.00    -0.012 C 
ATOM     12  C   UNL     1       0.396  -1.108  -2.032  1.00  0.00     0.013 C 
ATOM     13  C   UNL     1       1.332  -2.589  -0.196  1.00  0.00     0.063 C 
ATOM     14  C   UNL     1      -0.950  -1.704   0.058  1.00  0.00     0.129 C 
ATOM     15  C   UNL     1       0.319  -3.668  -0.124  1.00  0.00     0.027 A 
ATOM     16  N   UNL     1      -0.941  -3.162   0.016  1.00  0.00    -0.346 N 
ATOM     17  C   UNL     1       0.223  -5.032  -0.159  1.00  0.00     0.011 A 
ATOM     18  C   UNL     1      -1.176  -5.347  -0.018  1.00  0.00     0.011 A 
BRANCH  17  19
ATOM     19  C   UNL     1       1.331  -5.953  -0.273  1.00  0.00    -0.016 A 
ATOM     20  C   UNL     1       2.267  -6.058   0.759  1.00  0.00     0.009 A 
ATOM     21  C   UNL     1       1.369  -6.852  -1.346  1.00  0.00     0.009 A 
ATOM     22  C   UNL     1       3.205  -7.089   0.739  1.00  0.00     0.001 A 
ATOM     23  C   UNL     1       2.320  -7.869  -1.374  1.00  0.00     0.001 A 
ATOM     24  C   UNL     1       3.224  -7.998  -0.322  1.00  0.00     0.000 A 
ENDBRANCH  17  19
BRANCH  18  25
ATOM     25  C   UNL     1      -1.742  -6.687   0.069  1.00  0.00    -0.016 A 
ATOM     26  C   UNL     1      -1.368  -7.524   1.131  1.00  0.00     0.010 A 
ATOM     27  C   UNL     1      -2.528  -7.208  -0.963  1.00  0.00     0.010 A 
ATOM     28  C   UNL     1      -1.779  -8.859   1.161  1.00  0.00     0.021 A 
ATOM     29  C   UNL     1      -2.960  -8.537  -0.923  1.00  0.00     0.021 A 
ATOM     30  C   UNL     1      -2.578  -9.358   0.135  1.00  0.00     0.041 A 
ATOM     31  Cl  UNL     1      -3.071 -11.006   0.160  1.00  0.00    -0.084 Cl
ENDBRANCH  18  25
ENDBRANCH   8   9
ENDBRANCH   5   8
ENDBRANCH   3   4
ENDBRANCH   2   3
ENDBRANCH   1   2
BRANCH   1  32
ATOM     32  C   UNL     1      -3.587  -3.283  -5.726  1.00  0.00     0.002 C 
BRANCH  32  33
ATOM     33  C   UNL     1      -2.998  -1.881  -5.954  1.00  0.00     0.021 C 
BRANCH  33  34
ATOM     34  C   UNL     1      -1.777  -1.871  -6.854  1.00  0.00     0.116 C 
BRANCH  34  35
ATOM     35  N   UNL     1      -2.078  -2.255  -8.239  1.00  0.00    -0.352 N 
ATOM     36  C   UNL     1      -1.204  -2.360  -9.307  1.00  0.00     0.251 C 
ATOM     37  H   UNL     1      -3.021  -2.464  -8.432  1.00  0.00     0.163 HD
ATOM     38  O   UNL     1      -1.605  -2.349 -10.469  1.00  0.00    -0.269 OA
BRANCH  36  39
ATOM     39  C   UNL     1       0.229  -2.506  -9.015  1.00  0.00     0.039 A 
ATOM     40  C   UNL     1       1.240  -1.885  -9.755  1.00  0.00     0.014 A 
ATOM     41  C   UNL     1       0.536  -3.263  -7.895  1.00  0.00     0.014 A 
ATOM     42  C   UNL     1       2.554  -2.003  -9.304  1.00  0.00     0.010 A 
ATOM     43  C   UNL     1       1.748  -3.108  -7.301  1.00  0.00     0.010 A 
ATOM     44  C   UNL     1       2.791  -2.620  -8.066  1.00  0.00    -0.014 A 
BRANCH  44  45
ATOM     45  C   UNL     1       4.114  -2.775  -7.485  1.00  0.00     0.031 A 
ATOM     46  C   UNL     1       4.836  -1.505  -7.256  1.00  0.00     0.074 A 
ATOM     47  C   UNL     1       4.526  -3.952  -6.958  1.00  0.00     0.049 A 
ATOM     48  N   UNL     1       5.872  -1.066  -7.885  1.00  0.00    -0.248 NA
ATOM     49  C   UNL     1       4.253  -0.541  -6.308  1.00  0.00     0.031 C 
ATOM     50  C   UNL     1       3.769  -5.210  -6.807  1.00  0.00     0.029 A 
ATOM     51  N   UNL     1       5.696  -4.244  -6.334  1.00  0.00    -0.354 N 
ATOM     52  C   UNL     1       6.207   0.135  -7.269  1.00  0.00     0.074 A 
ATOM     53  C   UNL     1       5.076   0.499  -6.453  1.00  0.00     0.031 C 
ATOM     54  C   UNL     1       4.408  -6.032  -5.945  1.00  0.00     0.029 A 
ATOM     55  C   UNL     1       5.704  -5.457  -5.654  1.00  0.00     0.049 A 
ATOM     56  H   UNL     1       6.476  -3.644  -6.359  1.00  0.00     0.167 HD
ATOM     57  C   UNL     1       7.493   0.581  -7.255  1.00  0.00     0.031 A 
ATOM     58  C   UNL     1       6.717  -5.960  -4.911  1.00  0.00     0.031 A 
ATOM     59  C   UNL     1       8.314  -0.157  -8.183  1.00  0.00     0.049 A 
ATOM     60  C   UNL     1       7.944  -5.245  -5.303  1.00  0.00     0.074 A 
ATOM     61  C   UNL     1       8.368  -0.317  -9.551  1.00  0.00     0.029 A 
ATOM     62  N   UNL     1       9.009  -1.211  -7.641  1.00  0.00    -0.354 N 
ATOM     63  N   UNL     1       8.484  -5.359  -6.480  1.00  0.00    -0.248 NA
ATOM     64  C   UNL     1       8.345  -4.076  -4.538  1.00  0.00     0.031 C 
ATOM     65  C   UNL     1       8.741  -1.682  -9.754  1.00  0.00     0.029 A 
ATOM     66  C   UNL     1       8.953  -2.271  -8.507  1.00  0.00     0.049 A 
ATOM     67  H   UNL     1       9.472  -1.206  -6.772  1.00  0.00     0.167 HD
ATOM     68  C   UNL     1       8.925  -4.083  -6.783  1.00  0.00     0.074 A 
ATOM     69  C   UNL     1       8.947  -3.377  -5.504  1.00  0.00     0.031 C 
ATOM     70  C   UNL     1       8.948  -3.652  -8.078  1.00  0.00     0.031 A 
BRANCH  57  71
ATOM     71  C   UNL     1       8.104   1.327  -6.091  1.00  0.00    -0.014 A 
ATOM     72  C   UNL     1       9.441   1.752  -6.195  1.00  0.00     0.009 A 
ATOM     73  C   UNL     1       7.529   1.370  -4.806  1.00  0.00     0.009 A 
ATOM     74  C   UNL     1      10.178   2.127  -5.065  1.00  0.00     0.001 A 
ATOM     75  C   UNL     1       8.250   1.782  -3.682  1.00  0.00     0.001 A 
ATOM     76  C   UNL     1       9.585   2.134  -3.808  1.00  0.00     0.000 A 
ENDBRANCH  57  71
BRANCH  58  77
ATOM     77  C   UNL     1       6.638  -6.664  -3.620  1.00  0.00    -0.014 A 
ATOM     78  C   UNL     1       7.648  -7.549  -3.211  1.00  0.00     0.009 A 
ATOM     79  C   UNL     1       5.762  -6.157  -2.648  1.00  0.00     0.009 A 
ATOM     80  C   UNL     1       7.795  -7.889  -1.859  1.00  0.00     0.001 A 
ATOM     81  C   UNL     1       5.949  -6.455  -1.299  1.00  0.00     0.001 A 
ATOM     82  C   UNL     1       6.958  -7.325  -0.900  1.00  0.00     0.000 A 
ENDBRANCH  58  77
BRANCH  70  83
ATOM     83  C   UNL     1       8.723  -4.700  -9.143  1.00  0.00    -0.014 A 
ATOM     84  C   UNL     1       7.492  -5.355  -9.334  1.00  0.00     0.009 A 
ATOM     85  C   UNL     1       9.760  -4.961 -10.047  1.00  0.00     0.009 A 
ATOM     86  C   UNL     1       7.315  -6.264 -10.383  1.00  0.00     0.001 A 
ATOM     87  C   UNL     1       9.579  -5.855 -11.104  1.00  0.00     0.001 A 
ATOM     88  C   UNL     1       8.359  -6.510 -11.271  1.00  0.00     0.000 A 
ENDBRANCH  70  83
ENDBRANCH  44  45
ENDBRANCH  36  39
ENDBRANCH  34  35
ENDBRANCH  33  34
ENDBRANCH  32  33
ENDBRANCH   1  32
TORSDOF 16
