REMARK SMILES Cc1coc2cc3c(cc12)[C@@H](C)[C@H](CCC(=O)N[C@@H](Cc1c[nH]c2ccccc12)C(=O)NCCCCCCNC(=O)c1ccc(-c2c4nc(c(-c5ccccc5)c5ccc([nH]5)c(-c5ccccc5)c5nc(c(-c6ccccc6)c6ccc2[nH]6)C=C5)C=C4)cc1)C(=O)O3
REMARK SMILES IDX 34 1 33 2 32 3 30 4 31 5 19 7 18 8 16 9 17 10 15 12 14 13
REMARK SMILES IDX 13 14 1 15 2 16 3 17 10 18 4 19 5 20 9 21 6 22 8 23 7 24
REMARK SMILES IDX 11 25 92 26 12 27 90 28 91 29 20 30 21 31 22 32 29 33 23 34
REMARK SMILES IDX 24 35 28 36 25 38 27 39 26 40 35 41 36 42 37 43 38 44 39 45
REMARK SMILES IDX 40 46 41 48 42 49 43 50 89 51 44 52 88 53 45 54 46 55 47 56
REMARK SMILES IDX 82 57 48 58 87 59 81 60 83 61 49 62 86 63 80 64 79 65 50 67
REMARK SMILES IDX 72 68 57 69 71 70 58 71 61 72 70 73 84 74 59 75 60 76 69 78
REMARK SMILES IDX 85 79 62 80 51 81 52 82 56 83 53 84 55 85 54 86 73 87 74 88
REMARK SMILES IDX 78 89 75 90 77 91 76 92 63 93 64 94 68 95 65 96 67 97 66 98
REMARK H PARENT 32 6 18 11 23 37 39 47 83 66 61 77
REMARK Flexibility Score: inf
ROOT
ATOM      1  C   UNL     1       6.638 -11.952   2.882  1.00  0.00     0.021 C 
ENDROOT
BRANCH   1   2
ATOM      2  C   UNL     1       6.308 -10.478   2.872  1.00  0.00     0.116 C 
BRANCH   2   3
ATOM      3  N   UNL     1       7.393  -9.552   2.782  1.00  0.00    -0.354 N 
ATOM      4  C   UNL     1       7.282  -8.265   2.333  1.00  0.00     0.242 C 
ATOM      5  O   UNL     1       8.207  -7.488   2.593  1.00  0.00    -0.273 OA
ATOM      6  H   UNL     1       8.283  -9.863   3.064  1.00  0.00     0.163 HD
BRANCH   4   7
ATOM      7  C   UNL     1       6.015  -7.755   1.578  1.00  0.00     0.175 C 
BRANCH   7   8
ATOM      8  N   UNL     1       5.723  -8.487   0.328  1.00  0.00    -0.344 N 
ATOM      9  C   UNL     1       5.813  -8.205  -0.999  1.00  0.00     0.220 C 
ATOM     10  O   UNL     1       5.611  -9.133  -1.788  1.00  0.00    -0.275 OA
ATOM     11  H   UNL     1       5.381  -9.395   0.496  1.00  0.00     0.164 HD
BRANCH   9  12
ATOM     12  C   UNL     1       6.117  -6.814  -1.526  1.00  0.00     0.101 C 
BRANCH  12  13
ATOM     13  C   UNL     1       4.890  -5.888  -1.699  1.00  0.00     0.026 C 
BRANCH  13  14
ATOM     14  C   UNL     1       4.154  -5.652  -0.371  1.00  0.00     0.107 C 
ATOM     15  C   UNL     1       0.855   0.650  -0.050  1.00  0.00     0.048 C 
ATOM     16  C   UNL     1       0.247  -0.690  -0.203  1.00  0.00    -0.005 A 
ATOM     17  C   UNL     1      -1.089  -0.985  -0.389  1.00  0.00     0.199 A 
ATOM     18  C   UNL     1       0.917  -1.944  -0.186  1.00  0.00     0.024 A 
ATOM     19  O   UNL     1      -1.290  -2.325  -0.454  1.00  0.00    -0.464 OA
ATOM     20  C   UNL     1      -0.072  -2.909  -0.323  1.00  0.00     0.137 A 
ATOM     21  C   UNL     1       2.254  -2.359  -0.063  1.00  0.00     0.020 A 
ATOM     22  C   UNL     1       0.167  -4.272  -0.317  1.00  0.00     0.095 A 
ATOM     23  C   UNL     1       2.548  -3.731  -0.087  1.00  0.00    -0.001 A 
ATOM     24  C   UNL     1       1.504  -4.643  -0.190  1.00  0.00     0.138 A 
ATOM     25  C   UNL     1       3.966  -4.187   0.051  1.00  0.00     0.034 C 
ATOM     26  O   UNL     1       1.710  -6.020  -0.144  1.00  0.00    -0.426 OA
ATOM     27  C   UNL     1       4.442  -3.942   1.502  1.00  0.00     0.014 C 
ATOM     28  C   UNL     1       2.951  -6.581  -0.282  1.00  0.00     0.314 C 
ATOM     29  O   UNL     1       3.054  -7.795  -0.361  1.00  0.00    -0.251 OA
ENDBRANCH  13  14
ENDBRANCH  12  13
ENDBRANCH   9  12
ENDBRANCH   7   8
BRANCH   7  30
ATOM     30  C   UNL     1       4.799  -7.441   2.525  1.00  0.00     0.072 C 
BRANCH  30  31
ATOM     31  C   UNL     1       3.700  -8.430   2.857  1.00  0.00    -0.020 A 
ATOM     32  C   UNL     1       3.443  -9.691   2.357  1.00  0.00     0.087 A 
ATOM     33  C   UNL     1       2.540  -8.173   3.691  1.00  0.00     0.003 A 
ATOM     34  N   UNL     1       2.630 -10.337   3.247  1.00  0.00    -0.361 N 
ATOM     35  C   UNL     1       2.002  -9.414   4.035  1.00  0.00     0.046 A 
ATOM     36  C   UNL     1       1.880  -7.025   4.182  1.00  0.00     0.010 A 
ATOM     37  H   UNL     1       2.514 -11.313   3.310  1.00  0.00     0.166 HD
ATOM     38  C   UNL     1       0.970  -9.591   4.959  1.00  0.00     0.026 A 
ATOM     39  C   UNL     1       0.734  -7.181   4.982  1.00  0.00     0.001 A 
ATOM     40  C   UNL     1       0.317  -8.443   5.402  1.00  0.00     0.002 A 
ENDBRANCH  30  31
ENDBRANCH   7  30
ENDBRANCH   4   7
ENDBRANCH   2   3
ENDBRANCH   1   2
BRANCH   1  41
ATOM     41  C   UNL     1       7.135 -12.470   4.221  1.00  0.00     0.002 C 
BRANCH  41  42
ATOM     42  C   UNL     1       6.165 -12.309   5.398  1.00  0.00     0.002 C 
BRANCH  42  43
ATOM     43  C   UNL     1       4.760 -12.906   5.234  1.00  0.00     0.021 C 
BRANCH  43  44
ATOM     44  C   UNL     1       4.692 -14.321   4.658  1.00  0.00     0.116 C 
BRANCH  44  45
ATOM     45  N   UNL     1       5.563 -15.267   5.317  1.00  0.00    -0.352 N 
ATOM     46  C   UNL     1       5.470 -16.076   6.410  1.00  0.00     0.251 C 
ATOM     47  H   UNL     1       6.435 -15.347   4.867  1.00  0.00     0.163 HD
ATOM     48  O   UNL     1       6.427 -16.830   6.606  1.00  0.00    -0.269 OA
BRANCH  46  49
ATOM     49  C   UNL     1       4.358 -16.066   7.396  1.00  0.00     0.039 A 
ATOM     50  C   UNL     1       3.219 -15.266   7.332  1.00  0.00     0.014 A 
ATOM     51  C   UNL     1       4.539 -16.890   8.524  1.00  0.00     0.014 A 
ATOM     52  C   UNL     1       2.361 -15.189   8.422  1.00  0.00     0.010 A 
ATOM     53  C   UNL     1       3.670 -16.838   9.606  1.00  0.00     0.010 A 
ATOM     54  C   UNL     1       2.615 -15.938   9.578  1.00  0.00    -0.014 A 
BRANCH  54  55
ATOM     55  C   UNL     1       1.694 -15.786  10.697  1.00  0.00     0.031 A 
ATOM     56  C   UNL     1       0.269 -16.058  10.370  1.00  0.00     0.074 A 
ATOM     57  C   UNL     1       2.057 -15.446  11.949  1.00  0.00     0.049 A 
ATOM     58  N   UNL     1      -0.706 -15.210  10.348  1.00  0.00    -0.248 NA
ATOM     59  C   UNL     1      -0.089 -17.401   9.894  1.00  0.00     0.031 C 
ATOM     60  C   UNL     1       3.395 -15.363  12.538  1.00  0.00     0.029 A 
ATOM     61  N   UNL     1       1.243 -15.162  13.003  1.00  0.00    -0.354 N 
ATOM     62  C   UNL     1      -1.840 -15.928   9.985  1.00  0.00     0.074 A 
ATOM     63  C   UNL     1      -1.384 -17.246   9.616  1.00  0.00     0.031 C 
ATOM     64  C   UNL     1       3.286 -15.274  13.886  1.00  0.00     0.029 A 
ATOM     65  C   UNL     1       1.883 -15.126  14.233  1.00  0.00     0.049 A 
ATOM     66  H   UNL     1       0.278 -14.995  12.900  1.00  0.00     0.167 HD
ATOM     67  C   UNL     1      -3.095 -15.431  10.162  1.00  0.00     0.031 A 
ATOM     68  C   UNL     1       1.285 -15.014  15.445  1.00  0.00     0.031 A 
ATOM     69  C   UNL     1      -3.087 -14.004  10.346  1.00  0.00     0.049 A 
ATOM     70  C   UNL     1      -0.044 -14.397  15.230  1.00  0.00     0.074 A 
ATOM     71  C   UNL     1      -2.714 -12.935   9.555  1.00  0.00     0.029 A 
ATOM     72  N   UNL     1      -3.146 -13.518  11.629  1.00  0.00    -0.354 N 
ATOM     73  N   UNL     1      -0.208 -13.166  14.841  1.00  0.00    -0.248 NA
ATOM     74  C   UNL     1      -1.182 -15.278  15.028  1.00  0.00     0.031 C 
ATOM     75  C   UNL     1      -2.082 -12.024  10.450  1.00  0.00     0.029 A 
ATOM     76  C   UNL     1      -2.174 -12.555  11.738  1.00  0.00     0.049 A 
ATOM     77  H   UNL     1      -3.767 -13.805  12.336  1.00  0.00     0.167 HD
ATOM     78  C   UNL     1      -1.272 -13.219  13.955  1.00  0.00     0.074 A 
ATOM     79  C   UNL     1      -1.889 -14.526  14.181  1.00  0.00     0.031 C 
ATOM     80  C   UNL     1      -1.389 -12.323  12.932  1.00  0.00     0.031 A 
BRANCH  67  81
ATOM     81  C   UNL     1      -4.295 -16.283  10.478  1.00  0.00    -0.014 A 
ATOM     82  C   UNL     1      -4.193 -17.619  10.911  1.00  0.00     0.009 A 
ATOM     83  C   UNL     1      -5.557 -15.675  10.600  1.00  0.00     0.009 A 
ATOM     84  C   UNL     1      -5.282 -18.311  11.447  1.00  0.00     0.001 A 
ATOM     85  C   UNL     1      -6.641 -16.352  11.173  1.00  0.00     0.001 A 
ATOM     86  C   UNL     1      -6.501 -17.669  11.600  1.00  0.00     0.000 A 
ENDBRANCH  67  81
BRANCH  68  87
ATOM     87  C   UNL     1       1.584 -15.777  16.678  1.00  0.00    -0.014 A 
ATOM     88  C   UNL     1       2.156 -17.059  16.591  1.00  0.00     0.009 A 
ATOM     89  C   UNL     1       1.007 -15.398  17.902  1.00  0.00     0.009 A 
ATOM     90  C   UNL     1       2.097 -17.952  17.666  1.00  0.00     0.001 A 
ATOM     91  C   UNL     1       0.947 -16.294  18.978  1.00  0.00     0.001 A 
ATOM     92  C   UNL     1       1.474 -17.577  18.852  1.00  0.00     0.000 A 
ENDBRANCH  68  87
BRANCH  80  93
ATOM     93  C   UNL     1      -0.440 -11.144  12.892  1.00  0.00    -0.014 A 
ATOM     94  C   UNL     1      -0.979  -9.863  12.697  1.00  0.00     0.009 A 
ATOM     95  C   UNL     1       0.960 -11.284  12.854  1.00  0.00     0.009 A 
ATOM     96  C   UNL     1      -0.153  -8.761  12.457  1.00  0.00     0.001 A 
ATOM     97  C   UNL     1       1.789 -10.176  12.642  1.00  0.00     0.001 A 
ATOM     98  C   UNL     1       1.231  -8.918  12.431  1.00  0.00     0.000 A 
ENDBRANCH  80  93
ENDBRANCH  54  55
ENDBRANCH  46  49
ENDBRANCH  44  45
ENDBRANCH  43  44
ENDBRANCH  42  43
ENDBRANCH  41  42
ENDBRANCH   1  41
TORSDOF 19
