REMARK SMILES CC(=O)Nc1nc(C[N@@H+]2CCO[C@@H](CC(=O)NCCCCCCNC(=O)c3ccc(-c4c5nc(c(-c6ccccc6)c6ccc([nH]6)c(-c6ccccc6)c6nc(c(-c7ccccc7)c7ccc4[nH]7)C=C6)C=C5)cc3)C2)cs1
REMARK SMILES IDX 19 1 18 2 17 3 15 4 16 5 14 7 13 8 9 9 10 10 75 11 11 13
REMARK SMILES IDX 12 14 8 15 7 16 5 17 6 18 77 19 76 20 4 21 1 22 2 23 3 24
REMARK SMILES IDX 20 26 21 27 22 28 23 29 24 30 25 31 26 33 27 34 28 35 74 36
REMARK SMILES IDX 29 37 73 38 30 39 31 40 32 41 67 42 33 43 72 44 66 45 68 46
REMARK SMILES IDX 34 47 71 48 65 49 64 50 35 52 57 53 42 54 56 55 43 56 46 57
REMARK SMILES IDX 55 58 69 59 44 60 45 61 54 63 70 64 47 65 36 66 37 67 41 68
REMARK SMILES IDX 38 69 40 70 39 71 58 72 59 73 63 74 60 75 62 76 61 77 48 78
REMARK SMILES IDX 49 79 53 80 50 81 52 82 51 83
REMARK H PARENT 17 6 9 12 4 25 24 32 68 51 46 62
REMARK Flexibility Score: inf
ROOT
ATOM      1  C   UNL     1       8.152   1.155   0.919  1.00  0.00     0.021 C 
ENDROOT
BRANCH   1   2
ATOM      2  C   UNL     1       9.030   2.267   0.334  1.00  0.00     0.116 C 
BRANCH   2   3
ATOM      3  N   UNL     1       8.477   2.739  -0.925  1.00  0.00    -0.356 N 
ATOM      4  C   UNL     1       7.795   3.881  -1.223  1.00  0.00     0.222 C 
ATOM      5  O   UNL     1       7.288   3.982  -2.341  1.00  0.00    -0.275 OA
ATOM      6  H   UNL     1       8.619   2.133  -1.688  1.00  0.00     0.163 HD
BRANCH   4   7
ATOM      7  C   UNL     1       7.675   4.998  -0.213  1.00  0.00     0.138 C 
BRANCH   7   8
ATOM      8  C   UNL     1       6.334   5.026   0.528  1.00  0.00     0.182 C 
ATOM      9  N   UNL     1       5.239   3.906   2.563  1.00  0.00    -0.326 N 
ATOM     10  C   UNL     1       5.145   5.228   3.155  1.00  0.00     0.291 C 
ATOM     11  C   UNL     1       6.155   3.787   1.439  1.00  0.00     0.295 C 
ATOM     12  H   UNL     1       5.745   3.429   3.310  1.00  0.00     0.348 HD
ATOM     13  C   UNL     1       5.150   6.339   2.100  1.00  0.00     0.222 C 
ATOM     14  O   UNL     1       6.327   6.250   1.293  1.00  0.00    -0.366 OA
BRANCH   9  15
ATOM     15  C   UNL     1       4.145   2.959   2.689  1.00  0.00     0.320 C 
BRANCH  15  16
ATOM     16  C   UNL     1       2.958   3.293   1.834  1.00  0.00     0.108 A 
ATOM     17  C   UNL     1       1.482   2.850   0.252  1.00  0.00     0.189 A 
ATOM     18  N   UNL     1       2.511   2.362   0.897  1.00  0.00    -0.219 NA
ATOM     19  S   UNL     1       0.984   4.420   0.684  1.00  0.00    -0.105 S 
ATOM     20  C   UNL     1       2.163   4.424   1.923  1.00  0.00     0.098 A 
BRANCH  17  21
ATOM     21  N   UNL     1       0.722   2.285  -0.726  1.00  0.00    -0.302 N 
ATOM     22  C   UNL     1       1.421  -0.048  -0.234  1.00  0.00     0.114 C 
ATOM     23  C   UNL     1       0.702   0.972  -1.076  1.00  0.00     0.223 C 
ATOM     24  O   UNL     1       0.040   0.628  -2.058  1.00  0.00    -0.275 OA
ATOM     25  H   UNL     1       0.127   2.888  -1.228  1.00  0.00     0.172 HD
ENDBRANCH  17  21
ENDBRANCH  15  16
ENDBRANCH   9  15
ENDBRANCH   7   8
ENDBRANCH   4   7
ENDBRANCH   2   3
ENDBRANCH   1   2
BRANCH   1  26
ATOM     26  C   UNL     1       8.613  -0.259   0.569  1.00  0.00     0.002 C 
BRANCH  26  27
ATOM     27  C   UNL     1       9.884  -0.716   1.288  1.00  0.00     0.002 C 
BRANCH  27  28
ATOM     28  C   UNL     1       9.849  -0.631   2.818  1.00  0.00     0.021 C 
BRANCH  28  29
ATOM     29  C   UNL     1       8.659  -1.318   3.485  1.00  0.00     0.116 C 
BRANCH  29  30
ATOM     30  N   UNL     1       8.620  -2.744   3.204  1.00  0.00    -0.352 N 
ATOM     31  C   UNL     1       8.709  -3.812   4.061  1.00  0.00     0.251 C 
ATOM     32  H   UNL     1       8.513  -2.979   2.255  1.00  0.00     0.163 HD
ATOM     33  O   UNL     1       8.861  -4.945   3.618  1.00  0.00    -0.269 OA
BRANCH  31  34
ATOM     34  C   UNL     1       8.636  -3.603   5.523  1.00  0.00     0.039 A 
ATOM     35  C   UNL     1       9.545  -4.275   6.345  1.00  0.00     0.014 A 
ATOM     36  C   UNL     1       7.655  -2.781   6.087  1.00  0.00     0.014 A 
ATOM     37  C   UNL     1       9.503  -4.084   7.728  1.00  0.00     0.010 A 
ATOM     38  C   UNL     1       7.655  -2.542   7.460  1.00  0.00     0.010 A 
ATOM     39  C   UNL     1       8.573  -3.196   8.294  1.00  0.00    -0.014 A 
BRANCH  39  40
ATOM     40  C   UNL     1       8.547  -2.950   9.758  1.00  0.00     0.031 A 
ATOM     41  C   UNL     1       7.360  -3.374  10.578  1.00  0.00     0.074 A 
ATOM     42  C   UNL     1       9.570  -2.297  10.342  1.00  0.00     0.049 A 
ATOM     43  N   UNL     1       7.142  -3.212  11.860  1.00  0.00    -0.248 NA
ATOM     44  C   UNL     1       6.264  -4.046   9.863  1.00  0.00     0.031 C 
ATOM     45  C   UNL     1      10.762  -1.797   9.653  1.00  0.00     0.029 A 
ATOM     46  N   UNL     1       9.769  -1.939  11.652  1.00  0.00    -0.354 N 
ATOM     47  C   UNL     1       5.882  -3.747  12.098  1.00  0.00     0.074 A 
ATOM     48  C   UNL     1       5.365  -4.195  10.824  1.00  0.00     0.031 C 
ATOM     49  C   UNL     1      11.579  -1.223  10.550  1.00  0.00     0.029 A 
ATOM     50  C   UNL     1      10.956  -1.284  11.869  1.00  0.00     0.049 A 
ATOM     51  H   UNL     1       9.122  -2.134  12.368  1.00  0.00     0.167 HD
ATOM     52  C   UNL     1       5.222  -3.871  13.274  1.00  0.00     0.031 A 
ATOM     53  C   UNL     1      11.486  -0.788  13.003  1.00  0.00     0.031 A 
ATOM     54  C   UNL     1       5.740  -3.440  14.545  1.00  0.00     0.049 A 
ATOM     55  C   UNL     1      10.735  -0.941  14.295  1.00  0.00     0.074 A 
ATOM     56  C   UNL     1       5.169  -3.573  15.800  1.00  0.00     0.029 A 
ATOM     57  N   UNL     1       6.952  -2.793  14.723  1.00  0.00    -0.354 N 
ATOM     58  N   UNL     1       9.573  -1.506  14.513  1.00  0.00    -0.248 NA
ATOM     59  C   UNL     1      11.378  -0.399  15.501  1.00  0.00     0.031 C 
ATOM     60  C   UNL     1       6.019  -2.968  16.732  1.00  0.00     0.029 A 
ATOM     61  C   UNL     1       7.140  -2.503  16.064  1.00  0.00     0.049 A 
ATOM     62  H   UNL     1       7.586  -2.572  14.003  1.00  0.00     0.167 HD
ATOM     63  C   UNL     1       9.358  -1.414  15.882  1.00  0.00     0.074 A 
ATOM     64  C   UNL     1      10.516  -0.750  16.445  1.00  0.00     0.031 C 
ATOM     65  C   UNL     1       8.297  -1.842  16.608  1.00  0.00     0.031 A 
BRANCH  52  66
ATOM     66  C   UNL     1       3.856  -4.499  13.236  1.00  0.00    -0.014 A 
ATOM     67  C   UNL     1       3.694  -5.871  12.983  1.00  0.00     0.009 A 
ATOM     68  C   UNL     1       2.719  -3.716  13.485  1.00  0.00     0.009 A 
ATOM     69  C   UNL     1       2.419  -6.437  12.943  1.00  0.00     0.001 A 
ATOM     70  C   UNL     1       1.446  -4.290  13.473  1.00  0.00     0.001 A 
ATOM     71  C   UNL     1       1.297  -5.648  13.192  1.00  0.00     0.000 A 
ENDBRANCH  52  66
BRANCH  53  72
ATOM     72  C   UNL     1      12.813  -0.122  12.973  1.00  0.00    -0.014 A 
ATOM     73  C   UNL     1      13.937  -0.754  13.527  1.00  0.00     0.009 A 
ATOM     74  C   UNL     1      12.964   1.148  12.395  1.00  0.00     0.009 A 
ATOM     75  C   UNL     1      15.180  -0.118  13.526  1.00  0.00     0.001 A 
ATOM     76  C   UNL     1      14.214   1.770  12.371  1.00  0.00     0.001 A 
ATOM     77  C   UNL     1      15.318   1.142  12.944  1.00  0.00     0.000 A 
ENDBRANCH  53  72
BRANCH  65  78
ATOM     78  C   UNL     1       8.357  -1.637  18.095  1.00  0.00    -0.014 A 
ATOM     79  C   UNL     1       8.194  -0.363  18.662  1.00  0.00     0.009 A 
ATOM     80  C   UNL     1       8.546  -2.741  18.941  1.00  0.00     0.009 A 
ATOM     81  C   UNL     1       8.252  -0.196  20.047  1.00  0.00     0.001 A 
ATOM     82  C   UNL     1       8.576  -2.574  20.326  1.00  0.00     0.001 A 
ATOM     83  C   UNL     1       8.438  -1.301  20.877  1.00  0.00     0.000 A 
ENDBRANCH  65  78
ENDBRANCH  39  40
ENDBRANCH  31  34
ENDBRANCH  29  30
ENDBRANCH  28  29
ENDBRANCH  27  28
ENDBRANCH  26  27
ENDBRANCH   1  26
TORSDOF 17
