REMARK SMILES CCc1cc(OC(F)(F)F)cc2c1O[C@H](C(F)(F)F)C(C(=O)NCCCCCCNC(=O)c1ccc(-c3c4nc(c(-c5ccccc5)c5ccc([nH]5)c(-c5ccccc5)c5nc(c(-c6ccccc6)c6ccc3[nH]6)C=C5)C=C4)cc1)=C2
REMARK SMILES IDX 26 1 25 2 24 3 23 4 21 5 22 6 20 8 3 9 4 10 13 11 5 12 12 13
REMARK SMILES IDX 14 14 11 15 81 16 15 17 2 18 1 19 6 20 7 21 8 22 9 23 10 24
REMARK SMILES IDX 16 25 17 26 18 27 19 28 27 29 28 30 29 31 30 32 31 33 32 35
REMARK SMILES IDX 33 36 34 37 80 38 35 39 79 40 36 41 37 42 38 43 73 44 39 45
REMARK SMILES IDX 78 46 72 47 74 48 40 49 77 50 71 51 70 52 41 54 63 55 48 56
REMARK SMILES IDX 62 57 49 58 52 59 61 60 75 61 50 62 51 63 60 65 76 66 53 67
REMARK SMILES IDX 42 68 43 69 47 70 44 71 46 72 45 73 64 74 65 75 69 76 66 77
REMARK SMILES IDX 68 78 67 79 54 80 55 81 59 82 56 83 58 84 57 85
REMARK H PARENT 23 7 30 34 74 53 52 64
REMARK Flexibility Score: inf
ROOT
ATOM      1  C   UNL     1       4.021   0.778   9.419  1.00  0.00     0.002 C 
ENDROOT
BRANCH   1   2
ATOM      2  C   UNL     1       3.489  -0.013   8.215  1.00  0.00     0.021 C 
BRANCH   2   3
ATOM      3  C   UNL     1       2.245   0.624   7.592  1.00  0.00     0.116 C 
BRANCH   3   4
ATOM      4  N   UNL     1       2.636   1.716   6.727  1.00  0.00    -0.352 N 
ATOM      5  C   UNL     1       2.866   1.802   5.395  1.00  0.00     0.251 C 
ATOM      6  O   UNL     1       3.235   2.891   4.956  1.00  0.00    -0.270 OA
ATOM      7  H   UNL     1       2.760   2.569   7.202  1.00  0.00     0.163 HD
BRANCH   5   8
ATOM      8  C   UNL     1       2.575   0.696   4.440  1.00  0.00     0.067 C 
ATOM      9  C   UNL     1       0.972  -1.842   1.489  1.00  0.00    -0.002 A 
ATOM     10  C   UNL     1       0.913  -3.227   1.763  1.00  0.00     0.054 A 
ATOM     11  C   UNL     1       1.511  -0.996   2.469  1.00  0.00     0.131 A 
ATOM     12  C   UNL     1       1.396  -3.756   2.962  1.00  0.00     0.130 A 
ATOM     13  C   UNL     1       2.024  -1.518   3.666  1.00  0.00     0.021 A 
ATOM     14  O   UNL     1       1.443   0.356   2.271  1.00  0.00    -0.475 OA
ATOM     15  C   UNL     1       1.962  -2.895   3.903  1.00  0.00     0.058 A 
ATOM     16  C   UNL     1       2.510  -0.616   4.710  1.00  0.00     0.025 C 
ATOM     17  C   UNL     1       2.385   1.172   3.012  1.00  0.00     0.314 C 
BRANCH   9  18
ATOM     18  C   UNL     1       0.378  -1.381   0.170  1.00  0.00     0.036 C 
ATOM     19  C   UNL     1       0.856  -0.062  -0.423  1.00  0.00     0.009 C 
ENDBRANCH   9  18
BRANCH  12  20
ATOM     20  O   UNL     1       1.360  -5.065   3.348  1.00  0.00    -0.406 OA
BRANCH  20  21
ATOM     21  C   UNL     1       0.799  -6.009   2.450  1.00  0.00     0.573 C 
ATOM     22  F   UNL     1      -0.492  -5.721   2.182  1.00  0.00    -0.132 F 
ATOM     23  F   UNL     1       1.501  -6.058   1.299  1.00  0.00    -0.132 F 
ATOM     24  F   UNL     1       0.845  -7.231   3.025  1.00  0.00    -0.132 F 
ENDBRANCH  20  21
ENDBRANCH  12  20
BRANCH  17  25
ATOM     25  C   UNL     1       3.722   1.282   2.249  1.00  0.00     0.429 C 
ATOM     26  F   UNL     1       4.392   0.103   2.221  1.00  0.00    -0.167 F 
ATOM     27  F   UNL     1       3.516   1.649   0.959  1.00  0.00    -0.167 F 
ATOM     28  F   UNL     1       4.563   2.196   2.780  1.00  0.00    -0.167 F 
ENDBRANCH  17  25
ENDBRANCH   5   8
ENDBRANCH   3   4
ENDBRANCH   2   3
ENDBRANCH   1   2
BRANCH   1  29
ATOM     29  C   UNL     1       3.056   0.851  10.610  1.00  0.00     0.002 C 
BRANCH  29  30
ATOM     30  C   UNL     1       2.563  -0.506  11.118  1.00  0.00     0.021 C 
BRANCH  30  31
ATOM     31  C   UNL     1       3.675  -1.420  11.621  1.00  0.00     0.116 C 
BRANCH  31  32
ATOM     32  N   UNL     1       4.322  -0.869  12.802  1.00  0.00    -0.352 N 
ATOM     33  C   UNL     1       4.455  -1.419  14.051  1.00  0.00     0.251 C 
ATOM     34  H   UNL     1       4.720   0.024  12.688  1.00  0.00     0.163 HD
ATOM     35  O   UNL     1       4.802  -0.726  15.000  1.00  0.00    -0.269 OA
BRANCH  33  36
ATOM     36  C   UNL     1       4.173  -2.856  14.248  1.00  0.00     0.039 A 
ATOM     37  C   UNL     1       3.431  -3.254  15.363  1.00  0.00     0.014 A 
ATOM     38  C   UNL     1       4.661  -3.806  13.347  1.00  0.00     0.014 A 
ATOM     39  C   UNL     1       3.141  -4.607  15.549  1.00  0.00     0.010 A 
ATOM     40  C   UNL     1       4.312  -5.144  13.496  1.00  0.00     0.010 A 
ATOM     41  C   UNL     1       3.560  -5.559  14.605  1.00  0.00    -0.014 A 
BRANCH  41  42
ATOM     42  C   UNL     1       3.239  -6.997  14.770  1.00  0.00     0.031 A 
ATOM     43  C   UNL     1       4.344  -7.994  14.985  1.00  0.00     0.074 A 
ATOM     44  C   UNL     1       1.962  -7.412  14.668  1.00  0.00     0.049 A 
ATOM     45  N   UNL     1       4.270  -9.297  15.094  1.00  0.00    -0.248 NA
ATOM     46  C   UNL     1       5.714  -7.461  15.062  1.00  0.00     0.031 C 
ATOM     47  C   UNL     1       0.805  -6.547  14.425  1.00  0.00     0.029 A 
ATOM     48  N   UNL     1       1.425  -8.671  14.751  1.00  0.00    -0.354 N 
ATOM     49  C   UNL     1       5.580  -9.737  15.233  1.00  0.00     0.074 A 
ATOM     50  C   UNL     1       6.432  -8.571  15.145  1.00  0.00     0.031 C 
ATOM     51  C   UNL     1      -0.307  -7.299  14.405  1.00  0.00     0.029 A 
ATOM     52  C   UNL     1       0.060  -8.698  14.594  1.00  0.00     0.049 A 
ATOM     53  H   UNL     1       1.965  -9.479  14.908  1.00  0.00     0.167 HD
ATOM     54  C   UNL     1       6.034 -10.997  15.435  1.00  0.00     0.031 A 
ATOM     55  C   UNL     1      -0.798  -9.735  14.597  1.00  0.00     0.031 A 
ATOM     56  C   UNL     1       5.187 -12.154  15.536  1.00  0.00     0.049 A 
ATOM     57  C   UNL     1      -0.268 -11.125  14.813  1.00  0.00     0.074 A 
ATOM     58  C   UNL     1       5.545 -13.466  15.795  1.00  0.00     0.029 A 
ATOM     59  N   UNL     1       3.810 -12.138  15.379  1.00  0.00    -0.354 N 
ATOM     60  N   UNL     1       0.968 -11.517  15.009  1.00  0.00    -0.248 NA
ATOM     61  C   UNL     1      -1.255 -12.214  14.821  1.00  0.00     0.031 C 
ATOM     62  C   UNL     1       4.388 -14.251  15.747  1.00  0.00     0.029 A 
ATOM     63  C   UNL     1       3.305 -13.420  15.514  1.00  0.00     0.049 A 
ATOM     64  H   UNL     1       3.271 -11.334  15.199  1.00  0.00     0.167 HD
ATOM     65  C   UNL     1       0.904 -12.893  15.191  1.00  0.00     0.074 A 
ATOM     66  C   UNL     1      -0.494 -13.263  15.098  1.00  0.00     0.031 C 
ATOM     67  C   UNL     1       1.911 -13.770  15.417  1.00  0.00     0.031 A 
BRANCH  54  68
ATOM     68  C   UNL     1       7.521 -11.185  15.555  1.00  0.00    -0.014 A 
ATOM     69  C   UNL     1       8.227 -10.718  16.676  1.00  0.00     0.009 A 
ATOM     70  C   UNL     1       8.223 -11.864  14.547  1.00  0.00     0.009 A 
ATOM     71  C   UNL     1       9.609 -10.893  16.766  1.00  0.00     0.001 A 
ATOM     72  C   UNL     1       9.601 -12.063  14.653  1.00  0.00     0.001 A 
ATOM     73  C   UNL     1      10.294 -11.569  15.757  1.00  0.00     0.000 A 
ENDBRANCH  54  68
BRANCH  55  74
ATOM     74  C   UNL     1      -2.252  -9.498  14.408  1.00  0.00    -0.014 A 
ATOM     75  C   UNL     1      -3.145  -9.666  15.477  1.00  0.00     0.009 A 
ATOM     76  C   UNL     1      -2.756  -9.109  13.157  1.00  0.00     0.009 A 
ATOM     77  C   UNL     1      -4.516  -9.476  15.291  1.00  0.00     0.001 A 
ATOM     78  C   UNL     1      -4.125  -8.892  12.981  1.00  0.00     0.001 A 
ATOM     79  C   UNL     1      -5.004  -9.085  14.045  1.00  0.00     0.000 A 
ENDBRANCH  55  74
BRANCH  67  80
ATOM     80  C   UNL     1       1.535 -15.211  15.615  1.00  0.00    -0.014 A 
ATOM     81  C   UNL     1       1.105 -16.007  14.543  1.00  0.00     0.009 A 
ATOM     82  C   UNL     1       1.652 -15.789  16.889  1.00  0.00     0.009 A 
ATOM     83  C   UNL     1       0.768 -17.346  14.750  1.00  0.00     0.001 A 
ATOM     84  C   UNL     1       1.342 -17.135  17.087  1.00  0.00     0.001 A 
ATOM     85  C   UNL     1       0.892 -17.910  16.020  1.00  0.00     0.000 A 
ENDBRANCH  67  80
ENDBRANCH  41  42
ENDBRANCH  33  36
ENDBRANCH  31  32
ENDBRANCH  30  31
ENDBRANCH  29  30
ENDBRANCH   1  29
TORSDOF 17
