REMARK SMILES Cc1ccccc1[C@@H]1[NH2+][C@@H](C(=O)NCCCCCCNC(=O)c2ccc(-c3c4nc(c(-c5ccccc5)c5ccc([nH]5)c(-c5ccccc5)c5nc(c(-c6ccccc6)c6ccc3[nH]6)C=C5)C=C4)cc2)CC2=c3ccccc3=N[C@@H]21
REMARK SMILES IDX 17 1 16 2 15 3 14 4 13 5 11 6 12 7 10 9 8 10 9 11 80 12
REMARK SMILES IDX 72 15 79 16 71 17 73 18 78 19 74 20 77 21 75 22 76 23 7 24
REMARK SMILES IDX 1 25 2 26 3 27 4 28 6 29 5 30 18 31 19 32 20 33 21 34 22 36
REMARK SMILES IDX 23 37 24 38 70 39 25 40 69 41 26 42 27 43 28 44 63 45 29 46
REMARK SMILES IDX 68 47 62 48 64 49 30 50 67 51 61 52 60 53 31 55 53 56 38 57
REMARK SMILES IDX 52 58 39 59 42 60 51 61 65 62 40 63 41 64 50 66 66 67 43 68
REMARK SMILES IDX 32 69 33 70 37 71 34 72 36 73 35 74 54 75 55 76 59 77 56 78
REMARK SMILES IDX 58 79 57 80 44 81 45 82 49 83 46 84 48 85 47 86
REMARK H PARENT 13 8 9 13 9 14 20 35 64 54 42 65
REMARK Flexibility Score: inf
ROOT
ATOM      1  C   UNL     1       4.025   4.676  -4.285  1.00  0.00     0.002 C 
ENDROOT
BRANCH   1   2
ATOM      2  C   UNL     1       3.079   4.141  -3.204  1.00  0.00     0.002 C 
BRANCH   2   3
ATOM      3  C   UNL     1       3.315   4.636  -1.769  1.00  0.00     0.021 C 
BRANCH   3   4
ATOM      4  C   UNL     1       2.953   6.103  -1.435  1.00  0.00     0.116 C 
BRANCH   4   5
ATOM      5  N   UNL     1       1.573   6.490  -1.076  1.00  0.00    -0.351 N 
ATOM      6  C   UNL     1       0.995   6.476   0.219  1.00  0.00     0.278 C 
ATOM      7  O   UNL     1       0.177   7.319   0.568  1.00  0.00    -0.268 OA
ATOM      8  H   UNL     1       0.994   6.790  -1.813  1.00  0.00     0.163 HD
BRANCH   6   9
ATOM      9  C   UNL     1       1.290   5.173   0.967  1.00  0.00     0.277 C 
ATOM     10  C   UNL     1       0.386   2.828   0.629  1.00  0.00     0.243 C 
ATOM     11  N   UNL     1       0.499   4.226   0.193  1.00  0.00    -0.327 N 
ATOM     12  C   UNL     1       1.588   2.369   1.565  1.00  0.00     0.196 C 
ATOM     13  H   UNL     1      -0.450   4.598   0.153  1.00  0.00     0.347 HD
ATOM     14  H   UNL     1       1.014   4.154  -0.685  1.00  0.00     0.347 HD
ATOM     15  C   UNL     1       2.075   3.551   2.446  1.00  0.00    -0.024 C 
ATOM     16  N   UNL     1       2.815   1.964   0.818  1.00  0.00    -0.270 NA
ATOM     17  C   UNL     1       1.210   4.824   2.449  1.00  0.00     0.109 C 
ATOM     18  C   UNL     1       3.415   3.653   2.413  1.00  0.00     0.002 A 
ATOM     19  C   UNL     1       3.760   2.690   1.340  1.00  0.00     0.066 A 
ATOM     20  C   UNL     1       4.271   4.787   2.668  1.00  0.00     0.010 A 
ATOM     21  C   UNL     1       5.147   2.772   0.814  1.00  0.00     0.028 A 
ATOM     22  C   UNL     1       5.441   4.891   2.017  1.00  0.00     0.001 A 
ATOM     23  C   UNL     1       5.901   3.841   1.128  1.00  0.00     0.002 A 
BRANCH  10  24
ATOM     24  C   UNL     1      -0.183   2.054  -0.604  1.00  0.00     0.015 A 
ATOM     25  C   UNL     1      -1.697   0.540   0.792  1.00  0.00     0.045 C 
ATOM     26  C   UNL     1      -1.238   1.127  -0.510  1.00  0.00    -0.042 A 
ATOM     27  C   UNL     1      -2.008   0.817  -1.662  1.00  0.00     0.004 A 
ATOM     28  C   UNL     1      -1.763   1.404  -2.902  1.00  0.00     0.000 A 
ATOM     29  C   UNL     1       0.099   2.525  -1.918  1.00  0.00     0.010 A 
ATOM     30  C   UNL     1      -0.693   2.259  -3.033  1.00  0.00     0.001 A 
ENDBRANCH  10  24
ENDBRANCH   6   9
ENDBRANCH   4   5
ENDBRANCH   3   4
ENDBRANCH   2   3
ENDBRANCH   1   2
BRANCH   1  31
ATOM     31  C   UNL     1       5.519   4.636  -3.959  1.00  0.00     0.021 C 
BRANCH  31  32
ATOM     32  C   UNL     1       6.106   3.236  -3.823  1.00  0.00     0.116 C 
BRANCH  32  33
ATOM     33  N   UNL     1       6.526   2.682  -5.097  1.00  0.00    -0.352 N 
ATOM     34  C   UNL     1       7.248   1.545  -5.413  1.00  0.00     0.251 C 
ATOM     35  H   UNL     1       6.246   3.211  -5.879  1.00  0.00     0.163 HD
ATOM     36  O   UNL     1       7.659   1.414  -6.548  1.00  0.00    -0.269 OA
BRANCH  34  37
ATOM     37  C   UNL     1       7.364   0.414  -4.448  1.00  0.00     0.039 A 
ATOM     38  C   UNL     1       7.418  -0.873  -5.009  1.00  0.00     0.014 A 
ATOM     39  C   UNL     1       7.178   0.556  -3.078  1.00  0.00     0.014 A 
ATOM     40  C   UNL     1       7.013  -1.973  -4.260  1.00  0.00     0.010 A 
ATOM     41  C   UNL     1       6.701  -0.513  -2.352  1.00  0.00     0.010 A 
ATOM     42  C   UNL     1       6.546  -1.753  -2.970  1.00  0.00    -0.014 A 
BRANCH  42  43
ATOM     43  C   UNL     1       5.814  -2.739  -2.200  1.00  0.00     0.031 A 
ATOM     44  C   UNL     1       6.519  -3.553  -1.205  1.00  0.00     0.074 A 
ATOM     45  C   UNL     1       4.475  -2.825  -2.341  1.00  0.00     0.049 A 
ATOM     46  N   UNL     1       6.100  -4.695  -0.785  1.00  0.00    -0.248 NA
ATOM     47  C   UNL     1       7.801  -3.156  -0.637  1.00  0.00     0.031 C 
ATOM     48  C   UNL     1       3.528  -3.530  -1.486  1.00  0.00     0.029 A 
ATOM     49  N   UNL     1       3.724  -2.441  -3.452  1.00  0.00    -0.354 N 
ATOM     50  C   UNL     1       6.860  -5.027   0.308  1.00  0.00     0.074 A 
ATOM     51  C   UNL     1       7.969  -4.101   0.292  1.00  0.00     0.031 C 
ATOM     52  C   UNL     1       2.406  -3.762  -2.188  1.00  0.00     0.029 A 
ATOM     53  C   UNL     1       2.660  -3.357  -3.561  1.00  0.00     0.049 A 
ATOM     54  H   UNL     1       3.904  -1.676  -4.045  1.00  0.00     0.167 HD
ATOM     55  C   UNL     1       6.383  -5.953   1.185  1.00  0.00     0.031 A 
ATOM     56  C   UNL     1       2.582  -4.183  -4.648  1.00  0.00     0.031 A 
ATOM     57  C   UNL     1       5.119  -6.537   0.730  1.00  0.00     0.049 A 
ATOM     58  C   UNL     1       2.750  -5.657  -4.326  1.00  0.00     0.074 A 
ATOM     59  C   UNL     1       3.791  -6.379   1.093  1.00  0.00     0.029 A 
ATOM     60  N   UNL     1       5.102  -7.210  -0.481  1.00  0.00    -0.354 N 
ATOM     61  N   UNL     1       3.017  -6.128  -3.139  1.00  0.00    -0.248 NA
ATOM     62  C   UNL     1       2.719  -6.712  -5.340  1.00  0.00     0.031 C 
ATOM     63  C   UNL     1       2.979  -6.972   0.081  1.00  0.00     0.029 A 
ATOM     64  C   UNL     1       3.815  -7.505  -0.882  1.00  0.00     0.049 A 
ATOM     65  H   UNL     1       5.908  -7.448  -0.993  1.00  0.00     0.167 HD
ATOM     66  C   UNL     1       3.241  -7.476  -3.215  1.00  0.00     0.074 A 
ATOM     67  C   UNL     1       3.036  -7.800  -4.615  1.00  0.00     0.031 C 
ATOM     68  C   UNL     1       3.623  -8.218  -2.135  1.00  0.00     0.031 A 
BRANCH  55  69
ATOM     69  C   UNL     1       6.939  -6.147   2.574  1.00  0.00    -0.014 A 
ATOM     70  C   UNL     1       6.114  -6.680   3.581  1.00  0.00     0.009 A 
ATOM     71  C   UNL     1       8.239  -5.790   2.972  1.00  0.00     0.009 A 
ATOM     72  C   UNL     1       6.529  -6.760   4.917  1.00  0.00     0.001 A 
ATOM     73  C   UNL     1       8.649  -5.830   4.311  1.00  0.00     0.001 A 
ATOM     74  C   UNL     1       7.788  -6.306   5.288  1.00  0.00     0.000 A 
ENDBRANCH  55  69
BRANCH  56  75
ATOM     75  C   UNL     1       3.045  -3.516  -5.902  1.00  0.00    -0.014 A 
ATOM     76  C   UNL     1       2.276  -2.443  -6.400  1.00  0.00     0.009 A 
ATOM     77  C   UNL     1       4.372  -3.645  -6.333  1.00  0.00     0.009 A 
ATOM     78  C   UNL     1       2.860  -1.454  -7.197  1.00  0.00     0.001 A 
ATOM     79  C   UNL     1       4.948  -2.657  -7.143  1.00  0.00     0.001 A 
ATOM     80  C   UNL     1       4.206  -1.544  -7.539  1.00  0.00     0.000 A 
ENDBRANCH  56  75
BRANCH  68  81
ATOM     81  C   UNL     1       3.889  -9.698  -2.170  1.00  0.00    -0.014 A 
ATOM     82  C   UNL     1       3.096 -10.598  -2.893  1.00  0.00     0.009 A 
ATOM     83  C   UNL     1       4.895 -10.252  -1.348  1.00  0.00     0.009 A 
ATOM     84  C   UNL     1       3.337 -11.978  -2.840  1.00  0.00     0.001 A 
ATOM     85  C   UNL     1       5.123 -11.627  -1.273  1.00  0.00     0.001 A 
ATOM     86  C   UNL     1       4.349 -12.491  -2.031  1.00  0.00     0.000 A 
ENDBRANCH  68  81
ENDBRANCH  42  43
ENDBRANCH  34  37
ENDBRANCH  32  33
ENDBRANCH  31  32
ENDBRANCH   1  31
TORSDOF 14
