REMARK SMILES O=C(NCCCCCCNC(=O)c1ccc(O[C@@H]2CCCCNC2=O)cn1)c1ccc(-c2c3nc(c(-c4ccccc4)c4ccc([nH]4)c(-c4ccccc4)c4nc(c(-c5ccccc5)c5ccc2[nH]5)C=C4)C=C3)cc1
REMARK SMILES IDX 8 1 7 2 6 3 5 4 4 5 3 6 1 7 2 8 28 10 29 11 75 12 30 13
REMARK SMILES IDX 74 14 31 15 32 16 33 17 68 18 34 19 73 20 67 21 69 22 35 23
REMARK SMILES IDX 72 24 66 25 65 26 36 28 58 29 43 30 57 31 44 32 47 33 56 34
REMARK SMILES IDX 70 35 45 36 46 37 55 39 71 40 48 41 37 42 38 43 42 44 39 45
REMARK SMILES IDX 41 46 40 47 59 48 60 49 64 50 61 51 63 52 62 53 49 54 50 55
REMARK SMILES IDX 54 56 51 57 53 58 52 59 9 60 10 61 11 62 12 64 13 65 14 66
REMARK SMILES IDX 27 67 15 68 26 69 16 70 17 71 18 72 19 73 20 74 21 75 24 77
REMARK SMILES IDX 23 78 25 79 22 81
REMARK H PARENT 3 9 69 27 47 38 10 63 23 80
REMARK Flexibility Score: 90.00
ROOT
ATOM      1  C   UNL     1      18.335  -2.770   7.941  1.00  0.00     0.021 C 
ENDROOT
BRANCH   1   2
ATOM      2  C   UNL     1      19.026  -1.808   8.915  1.00  0.00     0.002 C 
BRANCH   2   3
ATOM      3  C   UNL     1      18.119  -0.728   9.510  1.00  0.00     0.002 C 
BRANCH   3   4
ATOM      4  C   UNL     1      16.918  -1.254  10.295  1.00  0.00     0.021 C 
BRANCH   4   5
ATOM      5  C   UNL     1      17.265  -2.235  11.408  1.00  0.00     0.116 C 
BRANCH   5   6
ATOM      6  N   UNL     1      18.075  -1.632  12.455  1.00  0.00    -0.352 N 
ATOM      7  O   UNL     1      18.562  -0.910  14.540  1.00  0.00    -0.269 OA
ATOM      8  C   UNL     1      17.855  -1.600  13.810  1.00  0.00     0.251 C 
ATOM      9  H   UNL     1      18.896  -1.183  12.149  1.00  0.00     0.163 HD
BRANCH   8  10
ATOM     10  C   UNL     1      16.742  -2.383  14.387  1.00  0.00     0.039 A 
ATOM     11  C   UNL     1      16.522  -3.702  13.984  1.00  0.00     0.014 A 
ATOM     12  C   UNL     1      15.908  -1.789  15.337  1.00  0.00     0.014 A 
ATOM     13  C   UNL     1      15.386  -4.375  14.418  1.00  0.00     0.010 A 
ATOM     14  C   UNL     1      14.818  -2.501  15.844  1.00  0.00     0.010 A 
ATOM     15  C   UNL     1      14.532  -3.790  15.368  1.00  0.00    -0.014 A 
BRANCH  15  16
ATOM     16  C   UNL     1      13.393  -4.579  15.901  1.00  0.00     0.031 A 
ATOM     17  C   UNL     1      11.970  -4.154  15.674  1.00  0.00     0.074 A 
ATOM     18  C   UNL     1      13.660  -5.711  16.581  1.00  0.00     0.049 A 
ATOM     19  N   UNL     1      10.865  -4.746  16.054  1.00  0.00    -0.248 NA
ATOM     20  C   UNL     1      11.754  -2.903  14.930  1.00  0.00     0.031 C 
ATOM     21  C   UNL     1      15.003  -6.226  16.868  1.00  0.00     0.029 A 
ATOM     22  N   UNL     1      12.823  -6.642  17.138  1.00  0.00    -0.354 N 
ATOM     23  C   UNL     1       9.826  -3.936  15.615  1.00  0.00     0.074 A 
ATOM     24  C   UNL     1      10.432  -2.795  14.960  1.00  0.00     0.031 C 
ATOM     25  C   UNL     1      14.897  -7.401  17.502  1.00  0.00     0.029 A 
ATOM     26  C   UNL     1      13.486  -7.689  17.730  1.00  0.00     0.049 A 
ATOM     27  H   UNL     1      11.841  -6.568  17.115  1.00  0.00     0.167 HD
ATOM     28  C   UNL     1       8.491  -4.128  15.742  1.00  0.00     0.031 A 
ATOM     29  C   UNL     1      13.017  -8.753  18.405  1.00  0.00     0.031 A 
ATOM     30  C   UNL     1       7.893  -5.259  16.405  1.00  0.00     0.049 A 
ATOM     31  C   UNL     1      11.536  -8.912  18.575  1.00  0.00     0.074 A 
ATOM     32  C   UNL     1       6.550  -5.557  16.559  1.00  0.00     0.029 A 
ATOM     33  N   UNL     1       8.600  -6.273  17.034  1.00  0.00    -0.354 N 
ATOM     34  N   UNL     1      10.567  -8.158  18.116  1.00  0.00    -0.248 NA
ATOM     35  C   UNL     1      11.084 -10.070  19.356  1.00  0.00     0.031 C 
ATOM     36  C   UNL     1       6.444  -6.717  17.334  1.00  0.00     0.029 A 
ATOM     37  C   UNL     1       7.721  -7.180  17.604  1.00  0.00     0.049 A 
ATOM     38  H   UNL     1       9.582  -6.339  17.069  1.00  0.00     0.167 HD
ATOM     39  C   UNL     1       9.389  -8.761  18.535  1.00  0.00     0.074 A 
ATOM     40  C   UNL     1       9.766  -9.955  19.263  1.00  0.00     0.031 C 
ATOM     41  C   UNL     1       8.110  -8.360  18.334  1.00  0.00     0.031 A 
BRANCH  28  42
ATOM     42  C   UNL     1       7.576  -3.072  15.181  1.00  0.00    -0.014 A 
ATOM     43  C   UNL     1       7.424  -2.894  13.797  1.00  0.00     0.009 A 
ATOM     44  C   UNL     1       6.816  -2.275  16.053  1.00  0.00     0.009 A 
ATOM     45  C   UNL     1       6.555  -1.920  13.299  1.00  0.00     0.001 A 
ATOM     46  C   UNL     1       5.926  -1.322  15.552  1.00  0.00     0.001 A 
ATOM     47  C   UNL     1       5.803  -1.139  14.176  1.00  0.00     0.000 A 
ENDBRANCH  28  42
BRANCH  29  48
ATOM     48  C   UNL     1      13.967  -9.737  18.986  1.00  0.00    -0.014 A 
ATOM     49  C   UNL     1      14.045 -11.043  18.481  1.00  0.00     0.009 A 
ATOM     50  C   UNL     1      14.807  -9.369  20.049  1.00  0.00     0.009 A 
ATOM     51  C   UNL     1      14.928 -11.967  19.044  1.00  0.00     0.001 A 
ATOM     52  C   UNL     1      15.713 -10.284  20.588  1.00  0.00     0.001 A 
ATOM     53  C   UNL     1      15.765 -11.585  20.092  1.00  0.00     0.000 A 
ENDBRANCH  29  48
BRANCH  41  54
ATOM     54  C   UNL     1       7.025  -9.242  18.886  1.00  0.00    -0.014 A 
ATOM     55  C   UNL     1       6.792  -9.337  20.267  1.00  0.00     0.009 A 
ATOM     56  C   UNL     1       6.209  -9.970  18.007  1.00  0.00     0.009 A 
ATOM     57  C   UNL     1       5.788 -10.175  20.757  1.00  0.00     0.001 A 
ATOM     58  C   UNL     1       5.185 -10.781  18.498  1.00  0.00     0.001 A 
ATOM     59  C   UNL     1       4.983 -10.891  19.872  1.00  0.00     0.000 A 
ENDBRANCH  41  54
ENDBRANCH  15  16
ENDBRANCH   8  10
ENDBRANCH   5   6
ENDBRANCH   4   5
ENDBRANCH   3   4
ENDBRANCH   2   3
ENDBRANCH   1   2
BRANCH   1  60
ATOM     60  C   UNL     1      17.836  -2.102   6.663  1.00  0.00     0.116 C 
BRANCH  60  61
ATOM     61  N   UNL     1      18.949  -1.592   5.878  1.00  0.00    -0.351 N 
ATOM     62  C   UNL     1      19.326  -1.967   4.607  1.00  0.00     0.269 C 
ATOM     63  H   UNL     1      19.499  -0.897   6.307  1.00  0.00     0.163 HD
ATOM     64  O   UNL     1      20.395  -1.594   4.136  1.00  0.00    -0.268 OA
BRANCH  62  65
ATOM     65  C   UNL     1      18.337  -2.707   3.789  1.00  0.00     0.128 A 
ATOM     66  C   UNL     1      17.210  -2.006   3.397  1.00  0.00     0.038 A 
ATOM     67  N   UNL     1      18.538  -4.024   3.545  1.00  0.00    -0.247 NA
ATOM     68  C   UNL     1      16.213  -2.707   2.739  1.00  0.00     0.050 A 
ATOM     69  C   UNL     1      17.524  -4.669   2.908  1.00  0.00     0.158 A 
ATOM     70  C   UNL     1      16.314  -4.074   2.560  1.00  0.00     0.138 A 
BRANCH  70  71
ATOM     71  O   UNL     1      15.365  -4.786   1.908  1.00  0.00    -0.479 OA
BRANCH  71  72
ATOM     72  C   UNL     1      14.044  -4.887   2.442  1.00  0.00     0.262 C 
BRANCH  72  73
ATOM     73  C   UNL     1      13.027  -3.822   1.981  1.00  0.00     0.055 C 
BRANCH  73  74
ATOM     74  C   UNL     1      12.867  -2.467   2.675  1.00  0.00     0.006 C 
BRANCH  74  75
ATOM     75  C   UNL     1      12.898  -2.343   4.197  1.00  0.00     0.021 CG0
ATOM     76  G   UNL     1      13.757  -3.288   5.013  1.00  0.00     0.000 G0
ENDBRANCH  74  75
ENDBRANCH  73  74
ENDBRANCH  72  73
BRANCH  72  77
ATOM     77  C   UNL     1      13.709  -5.487   3.827  1.00  0.00     0.261 C 
ATOM     78  N   UNL     1      13.418  -4.674   4.877  1.00  0.00    -0.353 N 
ATOM     79  O   UNL     1      13.634  -6.705   4.006  1.00  0.00    -0.271 OA
ATOM     80  H   UNL     1      12.922  -5.080   5.624  1.00  0.00     0.163 HD
BRANCH  78  81
ATOM     81  C   UNL     1      13.757  -3.288   5.013  1.00  0.00     0.116 CG0
ATOM     82  G   UNL     1      12.898  -2.343   4.197  1.00  0.00     0.000 G0
ENDBRANCH  78  81
ENDBRANCH  72  77
ENDBRANCH  71  72
ENDBRANCH  70  71
ENDBRANCH  62  65
ENDBRANCH  60  61
ENDBRANCH   1  60
TORSDOF 15
