REMARK SMILES Cc1ccc(NC(=O)c2ccccc2NC(=O)[C@H]2CCCC[C@H]2C(=O)NCCCCCCNC(=O)c2ccc(-c3c4nc(c(-c5ccccc5)c5ccc([nH]5)c(-c5ccccc5)c5nc(c(-c6ccccc6)c6ccc3[nH]6)C=C5)C=C4)cc2)cc1
REMARK SMILES IDX 28 1 27 2 26 3 24 4 25 5 23 7 18 8 19 9 20 10 22 11 21 12
REMARK SMILES IDX 16 13 15 14 17 16 14 17 9 18 10 19 11 20 13 21 12 22 7 23
REMARK SMILES IDX 6 24 8 26 5 27 1 28 2 29 3 30 85 31 4 32 84 33 29 34 30 35
REMARK SMILES IDX 31 36 32 37 33 38 34 39 35 41 36 42 37 43 83 44 38 45 82 46
REMARK SMILES IDX 39 47 40 48 41 49 76 50 42 51 81 52 75 53 77 54 43 55 80 56
REMARK SMILES IDX 74 57 73 58 44 60 66 61 51 62 65 63 52 64 55 65 64 66 78 67
REMARK SMILES IDX 53 68 54 69 63 71 79 72 56 73 45 74 46 75 50 76 47 77 49 78
REMARK SMILES IDX 48 79 67 80 68 81 72 82 69 83 71 84 70 85 57 86 58 87 62 88
REMARK SMILES IDX 59 89 61 90 60 91
REMARK H PARENT 26 6 15 15 6 25 33 40 77 59 55 70
REMARK Flexibility Score: inf
ROOT
ATOM      1  C   UNL     1       1.707   0.043   6.677  1.00  0.00     0.021 C 
ENDROOT
BRANCH   1   2
ATOM      2  C   UNL     1       0.487  -0.780   7.113  1.00  0.00     0.116 C 
BRANCH   2   3
ATOM      3  N   UNL     1      -0.748  -0.256   6.559  1.00  0.00    -0.356 N 
ATOM      4  C   UNL     1      -1.676  -0.746   5.703  1.00  0.00     0.223 C 
ATOM      5  O   UNL     1      -2.620   0.013   5.445  1.00  0.00    -0.275 OA
ATOM      6  H   UNL     1      -0.957   0.652   6.875  1.00  0.00     0.163 HD
BRANCH   4   7
ATOM      7  C   UNL     1      -1.617  -2.101   4.991  1.00  0.00     0.091 C 
ATOM      8  C   UNL     1      -0.810  -2.041   3.678  1.00  0.00     0.091 C 
ATOM      9  C   UNL     1      -0.900  -3.364   2.895  1.00  0.00     0.014 C 
ATOM     10  C   UNL     1      -0.682  -4.610   3.761  1.00  0.00     0.001 C 
ATOM     11  C   UNL     1      -1.396  -3.354   5.839  1.00  0.00     0.014 C 
ATOM     12  C   UNL     1      -1.577  -4.618   4.997  1.00  0.00     0.001 C 
BRANCH   8  13
ATOM     13  C   UNL     1       0.643  -1.714   3.921  1.00  0.00     0.228 C 
ATOM     14  N   UNL     1       1.291  -0.658   3.379  1.00  0.00    -0.325 N 
ATOM     15  H   UNL     1       2.128  -0.479   3.866  1.00  0.00     0.169 HD
ATOM     16  O   UNL     1       1.313  -2.417   4.688  1.00  0.00    -0.274 OA
BRANCH  14  17
ATOM     17  C   UNL     1       1.125   0.261   2.327  1.00  0.00     0.054 A 
ATOM     18  C   UNL     1       2.096   1.281   2.147  1.00  0.00     0.063 A 
ATOM     19  C   UNL     1       1.907   2.269   1.161  1.00  0.00     0.016 A 
ATOM     20  C   UNL     1       0.800   2.236   0.321  1.00  0.00     0.001 A 
ATOM     21  C   UNL     1       0.064   0.205   1.417  1.00  0.00     0.027 A 
ATOM     22  C   UNL     1      -0.110   1.194   0.439  1.00  0.00     0.002 A 
BRANCH  18  23
ATOM     23  C   UNL     1       3.272   1.528   3.026  1.00  0.00     0.257 C 
ATOM     24  N   UNL     1       4.152   0.569   3.472  1.00  0.00    -0.322 N 
ATOM     25  H   UNL     1       4.809   0.923   4.115  1.00  0.00     0.170 HD
ATOM     26  O   UNL     1       3.421   2.676   3.455  1.00  0.00    -0.269 OA
BRANCH  24  27
ATOM     27  C   UNL     1       4.324  -0.798   3.217  1.00  0.00     0.041 A 
ATOM     28  C   UNL     1       3.982  -5.082   3.157  1.00  0.00     0.044 C 
ATOM     29  C   UNL     1       4.223  -3.601   3.137  1.00  0.00    -0.051 A 
ATOM     30  C   UNL     1       3.870  -2.841   2.014  1.00  0.00     0.005 A 
ATOM     31  C   UNL     1       4.723  -2.950   4.267  1.00  0.00     0.005 A 
ATOM     32  C   UNL     1       3.928  -1.442   2.049  1.00  0.00     0.026 A 
ATOM     33  C   UNL     1       4.791  -1.558   4.297  1.00  0.00     0.026 A 
ENDBRANCH  24  27
ENDBRANCH  18  23
ENDBRANCH  14  17
ENDBRANCH   8  13
ENDBRANCH   4   7
ENDBRANCH   2   3
ENDBRANCH   1   2
BRANCH   1  34
ATOM     34  C   UNL     1       2.199   1.100   7.672  1.00  0.00     0.002 C 
BRANCH  34  35
ATOM     35  C   UNL     1       2.515   0.619   9.096  1.00  0.00     0.002 C 
BRANCH  35  36
ATOM     36  C   UNL     1       3.332  -0.669   9.206  1.00  0.00     0.021 C 
BRANCH  36  37
ATOM     37  C   UNL     1       4.797  -0.522   8.810  1.00  0.00     0.116 C 
BRANCH  37  38
ATOM     38  N   UNL     1       5.668  -0.189   9.929  1.00  0.00    -0.352 N 
ATOM     39  C   UNL     1       7.026   0.103   9.942  1.00  0.00     0.251 C 
ATOM     40  H   UNL     1       5.228  -0.168  10.810  1.00  0.00     0.163 HD
ATOM     41  O   UNL     1       7.589   0.369  10.979  1.00  0.00    -0.269 OA
BRANCH  39  42
ATOM     42  C   UNL     1       7.749   0.201   8.649  1.00  0.00     0.039 A 
ATOM     43  C   UNL     1       8.535   1.337   8.430  1.00  0.00     0.014 A 
ATOM     44  C   UNL     1       7.526  -0.710   7.620  1.00  0.00     0.014 A 
ATOM     45  C   UNL     1       8.882   1.684   7.127  1.00  0.00     0.010 A 
ATOM     46  C   UNL     1       7.813  -0.335   6.322  1.00  0.00     0.010 A 
ATOM     47  C   UNL     1       8.416   0.900   6.072  1.00  0.00    -0.014 A 
BRANCH  47  48
ATOM     48  C   UNL     1       8.382   1.375   4.695  1.00  0.00     0.031 A 
ATOM     49  C   UNL     1       9.356   0.895   3.698  1.00  0.00     0.074 A 
ATOM     50  C   UNL     1       7.435   2.264   4.322  1.00  0.00     0.049 A 
ATOM     51  N   UNL     1       9.771   1.604   2.702  1.00  0.00    -0.248 NA
ATOM     52  C   UNL     1       9.970  -0.426   3.772  1.00  0.00     0.031 C 
ATOM     53  C   UNL     1       7.111   2.698   2.966  1.00  0.00     0.029 A 
ATOM     54  N   UNL     1       6.727   3.138   5.147  1.00  0.00    -0.354 N 
ATOM     55  C   UNL     1      10.463   0.762   1.867  1.00  0.00     0.074 A 
ATOM     56  C   UNL     1      10.629  -0.468   2.609  1.00  0.00     0.031 C 
ATOM     57  C   UNL     1       6.500   3.891   3.031  1.00  0.00     0.029 A 
ATOM     58  C   UNL     1       6.530   4.324   4.418  1.00  0.00     0.049 A 
ATOM     59  H   UNL     1       6.423   2.958   6.066  1.00  0.00     0.167 HD
ATOM     60  C   UNL     1      10.698   1.115   0.574  1.00  0.00     0.031 A 
ATOM     61  C   UNL     1       7.021   5.517   4.857  1.00  0.00     0.031 A 
ATOM     62  C   UNL     1      10.159   2.428   0.247  1.00  0.00     0.049 A 
ATOM     63  C   UNL     1       7.996   6.157   3.898  1.00  0.00     0.074 A 
ATOM     64  C   UNL     1       8.987   2.831  -0.373  1.00  0.00     0.029 A 
ATOM     65  N   UNL     1      10.701   3.560   0.843  1.00  0.00    -0.354 N 
ATOM     66  N   UNL     1       8.606   5.511   2.943  1.00  0.00    -0.248 NA
ATOM     67  C   UNL     1       8.392   7.562   3.960  1.00  0.00     0.031 C 
ATOM     68  C   UNL     1       8.790   4.206  -0.088  1.00  0.00     0.029 A 
ATOM     69  C   UNL     1       9.858   4.642   0.676  1.00  0.00     0.049 A 
ATOM     70  H   UNL     1      11.563   3.588   1.317  1.00  0.00     0.167 HD
ATOM     71  C   UNL     1       9.442   6.364   2.274  1.00  0.00     0.074 A 
ATOM     72  C   UNL     1       9.271   7.640   2.944  1.00  0.00     0.031 C 
ATOM     73  C   UNL     1      10.206   5.944   1.224  1.00  0.00     0.031 A 
BRANCH  60  74
ATOM     74  C   UNL     1      11.133   0.098  -0.444  1.00  0.00    -0.014 A 
ATOM     75  C   UNL     1      10.567   0.105  -1.730  1.00  0.00     0.009 A 
ATOM     76  C   UNL     1      12.055  -0.925  -0.166  1.00  0.00     0.009 A 
ATOM     77  C   UNL     1      10.825  -0.914  -2.654  1.00  0.00     0.001 A 
ATOM     78  C   UNL     1      12.286  -1.970  -1.070  1.00  0.00     0.001 A 
ATOM     79  C   UNL     1      11.660  -1.971  -2.311  1.00  0.00     0.000 A 
ENDBRANCH  60  74
BRANCH  61  80
ATOM     80  C   UNL     1       7.082   5.635   6.340  1.00  0.00    -0.014 A 
ATOM     81  C   UNL     1       5.869   5.668   7.057  1.00  0.00     0.009 A 
ATOM     82  C   UNL     1       8.264   5.356   7.038  1.00  0.00     0.009 A 
ATOM     83  C   UNL     1       5.825   5.320   8.410  1.00  0.00     0.001 A 
ATOM     84  C   UNL     1       8.217   5.018   8.397  1.00  0.00     0.001 A 
ATOM     85  C   UNL     1       6.997   4.967   9.072  1.00  0.00     0.000 A 
ENDBRANCH  61  80
BRANCH  73  86
ATOM     86  C   UNL     1      11.298   6.732   0.547  1.00  0.00    -0.014 A 
ATOM     87  C   UNL     1      12.010   7.776   1.151  1.00  0.00     0.009 A 
ATOM     88  C   UNL     1      11.740   6.320  -0.732  1.00  0.00     0.009 A 
ATOM     89  C   UNL     1      13.078   8.404   0.494  1.00  0.00     0.001 A 
ATOM     90  C   UNL     1      12.830   6.914  -1.371  1.00  0.00     0.001 A 
ATOM     91  C   UNL     1      13.493   7.967  -0.760  1.00  0.00     0.000 A 
ENDBRANCH  73  86
ENDBRANCH  47  48
ENDBRANCH  39  42
ENDBRANCH  37  38
ENDBRANCH  36  37
ENDBRANCH  35  36
ENDBRANCH  34  35
ENDBRANCH   1  34
TORSDOF 17
