REMARK SMILES CCCOC(=O)c1c(NC(=O)[C@@H]2CC=CC[C@H]2C(=O)NCCCCCCNC(=O)c2ccc(-c3c4nc(c(-c5ccccc5)c5ccc([nH]5)c(-c5ccccc5)c5nc(c(-c6ccccc6)c6ccc3[nH]6)C=C5)C=C4)cc2)sc2c1CCCC2
REMARK SMILES IDX 21 1 20 2 18 3 19 4 17 6 12 7 13 8 14 9 16 10 15 11 10 12
REMARK SMILES IDX 9 13 11 15 8 16 7 17 80 18 78 19 79 20 81 21 84 22 82 23
REMARK SMILES IDX 83 24 5 25 6 26 4 27 3 28 2 29 1 30 22 31 23 32 24 33 25 34
REMARK SMILES IDX 26 35 27 36 28 37 29 39 30 40 31 41 77 42 32 43 76 44 33 45
REMARK SMILES IDX 34 46 35 47 70 48 36 49 75 50 69 51 71 52 37 53 74 54 68 55
REMARK SMILES IDX 67 56 38 58 60 59 45 60 59 61 46 62 49 63 58 64 72 65 47 66
REMARK SMILES IDX 48 67 57 69 73 70 50 71 39 72 40 73 44 74 41 75 43 76 42 77
REMARK SMILES IDX 61 78 62 79 66 80 63 81 65 82 64 83 51 84 52 85 56 86 53 87
REMARK SMILES IDX 55 88 54 89
REMARK H PARENT 20 5 9 14 27 38 71 57 49 68
REMARK Flexibility Score: inf
ROOT
ATOM      1  C   UNL     1       0.646  -4.549  -0.369  1.00  0.00     0.116 C 
ENDROOT
BRANCH   1   2
ATOM      2  N   UNL     1       1.614  -3.221  -0.862  1.00  0.00    -0.356 N 
ATOM      3  C   UNL     1       1.855  -1.803  -1.032  1.00  0.00     0.224 C 
ATOM      4  O   UNL     1       3.000  -1.630  -1.509  1.00  0.00    -0.275 OA
ATOM      5  H   UNL     1       2.432  -3.643  -1.212  1.00  0.00     0.163 HD
BRANCH   3   6
ATOM      6  C   UNL     1       0.952  -0.249  -0.782  1.00  0.00     0.095 C 
ATOM      7  C   UNL     1       0.371   0.500  -2.006  1.00  0.00     0.095 C 
ATOM      8  C   UNL     1       0.188   2.040  -1.793  1.00  0.00     0.041 C 
ATOM      9  C   UNL     1      -0.444   2.442  -0.506  1.00  0.00    -0.030 C 
ATOM     10  C   UNL     1      -0.111   0.153   0.352  1.00  0.00     0.041 C 
ATOM     11  C   UNL     1      -0.570   1.569   0.487  1.00  0.00    -0.030 C 
BRANCH   7  12
ATOM     12  C   UNL     1       1.150   0.371  -3.270  1.00  0.00     0.229 C 
ATOM     13  N   UNL     1       0.668  -0.508  -4.173  1.00  0.00    -0.317 N 
ATOM     14  H   UNL     1       0.673  -0.204  -5.110  1.00  0.00     0.170 HD
ATOM     15  O   UNL     1       2.044   1.153  -3.592  1.00  0.00    -0.274 OA
BRANCH  13  16
ATOM     16  C   UNL     1       0.175  -1.767  -3.961  1.00  0.00     0.110 A 
ATOM     17  C   UNL     1       0.059  -2.674  -2.900  1.00  0.00     0.098 A 
ATOM     18  C   UNL     1       0.618  -3.963  -3.581  1.00  0.00    -0.017 A 
ATOM     19  S   UNL     1      -0.136  -2.447  -5.492  1.00  0.00    -0.122 S 
ATOM     20  C   UNL     1       0.340  -3.958  -4.946  1.00  0.00     0.011 A 
ATOM     21  C   UNL     1       1.499  -5.130  -3.144  1.00  0.00     0.038 C 
ATOM     22  C   UNL     1       0.562  -5.086  -5.912  1.00  0.00     0.047 C 
ATOM     23  C   UNL     1       1.565  -6.380  -4.050  1.00  0.00     0.005 C 
ATOM     24  C   UNL     1       0.528  -6.408  -5.160  1.00  0.00     0.006 C 
BRANCH  17  25
ATOM     25  C   UNL     1      -0.751  -2.295  -1.512  1.00  0.00     0.341 C 
ATOM     26  O   UNL     1      -1.921  -1.942  -1.699  1.00  0.00    -0.246 OA
BRANCH  25  27
ATOM     27  O   UNL     1      -0.372  -2.289  -0.084  1.00  0.00    -0.462 OA
BRANCH  27  28
ATOM     28  C   UNL     1       0.486  -2.306   1.411  1.00  0.00     0.233 C 
BRANCH  28  29
ATOM     29  C   UNL     1       2.018  -1.887   1.754  1.00  0.00     0.038 C 
ATOM     30  C   UNL     1       2.601  -0.451   1.833  1.00  0.00     0.007 C 
ENDBRANCH  28  29
ENDBRANCH  27  28
ENDBRANCH  25  27
ENDBRANCH  17  25
ENDBRANCH  13  16
ENDBRANCH   7  12
ENDBRANCH   3   6
ENDBRANCH   1   2
BRANCH   1  31
ATOM     31  C   UNL     1      -0.843  -4.967  -0.902  1.00  0.00     0.021 C 
BRANCH  31  32
ATOM     32  C   UNL     1      -1.087  -6.332  -1.594  1.00  0.00     0.002 C 
BRANCH  32  33
ATOM     33  C   UNL     1      -2.243  -7.176  -1.041  1.00  0.00     0.002 C 
BRANCH  33  34
ATOM     34  C   UNL     1      -3.662  -6.597  -1.109  1.00  0.00     0.021 C 
BRANCH  34  35
ATOM     35  C   UNL     1      -4.185  -6.211  -2.493  1.00  0.00     0.116 C 
BRANCH  35  36
ATOM     36  N   UNL     1      -4.090  -7.296  -3.462  1.00  0.00    -0.352 N 
ATOM     37  C   UNL     1      -5.089  -8.050  -4.047  1.00  0.00     0.251 C 
ATOM     38  H   UNL     1      -3.175  -7.526  -3.743  1.00  0.00     0.163 HD
ATOM     39  O   UNL     1      -4.837  -9.030  -4.710  1.00  0.00    -0.269 OA
BRANCH  37  40
ATOM     40  C   UNL     1      -6.489  -7.630  -3.833  1.00  0.00     0.039 A 
ATOM     41  C   UNL     1      -7.395  -8.521  -3.254  1.00  0.00     0.014 A 
ATOM     42  C   UNL     1      -6.871  -6.328  -4.160  1.00  0.00     0.014 A 
ATOM     43  C   UNL     1      -8.675  -8.072  -2.925  1.00  0.00     0.010 A 
ATOM     44  C   UNL     1      -8.118  -5.864  -3.763  1.00  0.00     0.010 A 
ATOM     45  C   UNL     1      -9.031  -6.731  -3.143  1.00  0.00    -0.014 A 
BRANCH  45  46
ATOM     46  C   UNL     1     -10.364  -6.212  -2.748  1.00  0.00     0.031 A 
ATOM     47  C   UNL     1     -11.307  -5.709  -3.805  1.00  0.00     0.074 A 
ATOM     48  C   UNL     1     -10.692  -6.127  -1.444  1.00  0.00     0.049 A 
ATOM     49  N   UNL     1     -12.486  -5.160  -3.668  1.00  0.00    -0.248 NA
ATOM     50  C   UNL     1     -10.849  -5.806  -5.202  1.00  0.00     0.031 C 
ATOM     51  C   UNL     1      -9.838  -6.530  -0.323  1.00  0.00     0.029 A 
ATOM     52  N   UNL     1     -11.834  -5.667  -0.839  1.00  0.00    -0.354 N 
ATOM     53  C   UNL     1     -12.896  -4.828  -4.953  1.00  0.00     0.074 A 
ATOM     54  C   UNL     1     -11.818  -5.180  -5.849  1.00  0.00     0.031 C 
ATOM     55  C   UNL     1     -10.499  -6.330   0.829  1.00  0.00     0.029 A 
ATOM     56  C   UNL     1     -11.806  -5.753   0.533  1.00  0.00     0.049 A 
ATOM     57  H   UNL     1     -12.601  -5.308  -1.340  1.00  0.00     0.167 HD
ATOM     58  C   UNL     1     -14.077  -4.304  -5.356  1.00  0.00     0.031 A 
ATOM     59  C   UNL     1     -12.734  -5.408   1.445  1.00  0.00     0.031 A 
ATOM     60  C   UNL     1     -15.155  -3.978  -4.464  1.00  0.00     0.049 A 
ATOM     61  C   UNL     1     -14.043  -4.838   0.970  1.00  0.00     0.074 A 
ATOM     62  C   UNL     1     -16.415  -3.499  -4.772  1.00  0.00     0.029 A 
ATOM     63  N   UNL     1     -15.097  -4.106  -3.085  1.00  0.00    -0.354 N 
ATOM     64  N   UNL     1     -14.445  -4.602  -0.255  1.00  0.00    -0.248 NA
ATOM     65  C   UNL     1     -15.031  -4.501   2.005  1.00  0.00     0.031 C 
ATOM     66  C   UNL     1     -17.107  -3.297  -3.573  1.00  0.00     0.029 A 
ATOM     67  C   UNL     1     -16.294  -3.701  -2.525  1.00  0.00     0.049 A 
ATOM     68  H   UNL     1     -14.319  -4.436  -2.580  1.00  0.00     0.167 HD
ATOM     69  C   UNL     1     -15.742  -4.118  -0.141  1.00  0.00     0.074 A 
ATOM     70  C   UNL     1     -16.064  -4.112   1.271  1.00  0.00     0.031 C 
ATOM     71  C   UNL     1     -16.591  -3.712  -1.117  1.00  0.00     0.031 A 
BRANCH  58  72
ATOM     72  C   UNL     1     -14.258  -4.063  -6.829  1.00  0.00    -0.014 A 
ATOM     73  C   UNL     1     -14.375  -5.134  -7.731  1.00  0.00     0.009 A 
ATOM     74  C   UNL     1     -14.334  -2.751  -7.321  1.00  0.00     0.009 A 
ATOM     75  C   UNL     1     -14.523  -4.896  -9.098  1.00  0.00     0.001 A 
ATOM     76  C   UNL     1     -14.514  -2.516  -8.686  1.00  0.00     0.001 A 
ATOM     77  C   UNL     1     -14.597  -3.587  -9.574  1.00  0.00     0.000 A 
ENDBRANCH  58  72
BRANCH  59  78
ATOM     78  C   UNL     1     -12.479  -5.614   2.896  1.00  0.00    -0.014 A 
ATOM     79  C   UNL     1     -13.186  -6.593   3.611  1.00  0.00     0.009 A 
ATOM     80  C   UNL     1     -11.544  -4.821   3.580  1.00  0.00     0.009 A 
ATOM     81  C   UNL     1     -12.988  -6.751   4.986  1.00  0.00     0.001 A 
ATOM     82  C   UNL     1     -11.326  -5.001   4.949  1.00  0.00     0.001 A 
ATOM     83  C   UNL     1     -12.057  -5.957   5.652  1.00  0.00     0.000 A 
ENDBRANCH  59  78
BRANCH  71  84
ATOM     84  C   UNL     1     -17.961  -3.267  -0.691  1.00  0.00    -0.014 A 
ATOM     85  C   UNL     1     -18.158  -2.041  -0.037  1.00  0.00     0.009 A 
ATOM     86  C   UNL     1     -19.074  -4.067  -0.993  1.00  0.00     0.009 A 
ATOM     87  C   UNL     1     -19.442  -1.641   0.335  1.00  0.00     0.001 A 
ATOM     88  C   UNL     1     -20.359  -3.650  -0.646  1.00  0.00     0.001 A 
ATOM     89  C   UNL     1     -20.541  -2.442   0.025  1.00  0.00     0.000 A 
ENDBRANCH  71  84
ENDBRANCH  45  46
ENDBRANCH  37  40
ENDBRANCH  35  36
ENDBRANCH  34  35
ENDBRANCH  33  34
ENDBRANCH  32  33
ENDBRANCH  31  32
ENDBRANCH   1  31
TORSDOF 19
