REMARK SMILES O=C(NCCCCCCNC(=O)c1ccc(-c2c3nc(c(-c4ccccc4)c4ccc([nH]4)c(-c4ccccc4)c4nc(c(-c5ccccc5)c5ccc2[nH]5)C=C4)C=C3)cc1)C1=Cc2cc(OC(F)(F)F)ccc2O[C@@H]1C(F)(F)F
REMARK SMILES IDX 6 1 5 2 4 3 3 4 1 5 2 6 61 8 62 9 75 10 63 11 74 12 64 13
REMARK SMILES IDX 73 14 65 15 72 16 71 17 76 18 77 19 78 20 79 21 66 22 67 23
REMARK SMILES IDX 68 24 69 25 70 26 7 27 8 28 9 29 10 30 11 31 12 33 13 34
REMARK SMILES IDX 14 35 60 36 15 37 59 38 16 39 17 40 18 41 53 42 19 43 58 44
REMARK SMILES IDX 52 45 54 46 20 47 57 48 51 49 50 50 21 52 43 53 28 54 42 55
REMARK SMILES IDX 29 56 32 57 41 58 55 59 30 60 31 61 40 63 56 64 33 65 22 66
REMARK SMILES IDX 23 67 27 68 24 69 26 70 25 71 44 72 45 73 49 74 46 75 48 76
REMARK SMILES IDX 47 77 34 78 35 79 39 80 36 81 38 82 37 83
REMARK H PARENT 3 7 10 32 54 51 32 62
REMARK Flexibility Score: inf
ROOT
ATOM      1  C   UNL     1       3.875   0.606  -4.438  1.00  0.00     0.002 C 
ENDROOT
BRANCH   1   2
ATOM      2  C   UNL     1       4.231  -0.423  -3.368  1.00  0.00     0.021 C 
BRANCH   2   3
ATOM      3  C   UNL     1       3.916  -0.028  -1.931  1.00  0.00     0.116 C 
BRANCH   3   4
ATOM      4  N   UNL     1       2.647  -0.507  -1.412  1.00  0.00    -0.352 N 
ATOM      5  O   UNL     1       1.101  -1.010   0.135  1.00  0.00    -0.270 OA
ATOM      6  C   UNL     1       2.284  -0.795  -0.125  1.00  0.00     0.251 C 
ATOM      7  H   UNL     1       1.944  -0.645  -2.087  1.00  0.00     0.163 HD
BRANCH   6   8
ATOM      8  C   UNL     1       3.256  -0.763   1.009  1.00  0.00     0.067 C 
ATOM      9  C   UNL     1       4.458  -1.368   0.946  1.00  0.00     0.025 C 
ATOM     10  C   UNL     1       3.100   0.468   1.872  1.00  0.00     0.314 C 
ATOM     11  C   UNL     1       5.555  -0.369   0.828  1.00  0.00     0.021 A 
ATOM     12  O   UNL     1       4.103   1.469   1.538  1.00  0.00    -0.475 OA
ATOM     13  C   UNL     1       6.769  -0.766   0.248  1.00  0.00     0.058 A 
ATOM     14  C   UNL     1       5.278   0.996   1.009  1.00  0.00     0.128 A 
ATOM     15  C   UNL     1       7.646   0.195  -0.261  1.00  0.00     0.130 A 
ATOM     16  C   UNL     1       6.169   1.950   0.527  1.00  0.00     0.051 A 
ATOM     17  C   UNL     1       7.342   1.552  -0.124  1.00  0.00     0.050 A 
BRANCH  10  18
ATOM     18  C   UNL     1       3.099   0.139   3.374  1.00  0.00     0.429 C 
ATOM     19  F   UNL     1       2.789   1.229   4.116  1.00  0.00    -0.167 F 
ATOM     20  F   UNL     1       2.185  -0.815   3.676  1.00  0.00    -0.167 F 
ATOM     21  F   UNL     1       4.300  -0.312   3.807  1.00  0.00    -0.167 F 
ENDBRANCH  10  18
BRANCH  15  22
ATOM     22  O   UNL     1       8.814  -0.263  -0.801  1.00  0.00    -0.406 OA
BRANCH  22  23
ATOM     23  C   UNL     1       9.085   0.173  -2.128  1.00  0.00     0.573 C 
ATOM     24  F   UNL     1       8.129  -0.261  -2.980  1.00  0.00    -0.132 F 
ATOM     25  F   UNL     1       9.180   1.516  -2.220  1.00  0.00    -0.132 F 
ATOM     26  F   UNL     1      10.264  -0.355  -2.526  1.00  0.00    -0.132 F 
ENDBRANCH  22  23
ENDBRANCH  15  22
ENDBRANCH   6   8
ENDBRANCH   3   4
ENDBRANCH   2   3
ENDBRANCH   1   2
BRANCH   1  27
ATOM     27  C   UNL     1       4.498   2.000  -4.285  1.00  0.00     0.002 C 
BRANCH  27  28
ATOM     28  C   UNL     1       6.016   2.062  -4.088  1.00  0.00     0.021 C 
BRANCH  28  29
ATOM     29  C   UNL     1       6.864   1.392  -5.165  1.00  0.00     0.116 C 
BRANCH  29  30
ATOM     30  N   UNL     1       6.675   1.963  -6.486  1.00  0.00    -0.352 N 
ATOM     31  C   UNL     1       7.603   2.385  -7.405  1.00  0.00     0.251 C 
ATOM     32  H   UNL     1       5.736   2.064  -6.766  1.00  0.00     0.163 HD
ATOM     33  O   UNL     1       7.227   2.950  -8.432  1.00  0.00    -0.269 OA
BRANCH  31  34
ATOM     34  C   UNL     1       9.053   2.201  -7.167  1.00  0.00     0.039 A 
ATOM     35  C   UNL     1       9.920   3.248  -7.498  1.00  0.00     0.014 A 
ATOM     36  C   UNL     1       9.573   1.008  -6.657  1.00  0.00     0.014 A 
ATOM     37  C   UNL     1      11.292   3.119  -7.268  1.00  0.00     0.010 A 
ATOM     38  C   UNL     1      10.934   0.909  -6.358  1.00  0.00     0.010 A 
ATOM     39  C   UNL     1      11.810   1.961  -6.667  1.00  0.00    -0.014 A 
BRANCH  39  40
ATOM     40  C   UNL     1      13.263   1.841  -6.372  1.00  0.00     0.031 A 
ATOM     41  C   UNL     1      14.099   0.793  -7.058  1.00  0.00     0.074 A 
ATOM     42  C   UNL     1      13.833   2.660  -5.466  1.00  0.00     0.049 A 
ATOM     43  N   UNL     1      15.375   0.531  -6.916  1.00  0.00    -0.248 NA
ATOM     44  C   UNL     1      13.410  -0.087  -8.015  1.00  0.00     0.031 C 
ATOM     45  C   UNL     1      13.135   3.699  -4.705  1.00  0.00     0.029 A 
ATOM     46  N   UNL     1      15.133   2.749  -5.031  1.00  0.00    -0.354 N 
ATOM     47  C   UNL     1      15.638  -0.540  -7.761  1.00  0.00     0.074 A 
ATOM     48  C   UNL     1      14.379  -0.919  -8.365  1.00  0.00     0.031 C 
ATOM     49  C   UNL     1      14.017   4.336  -3.919  1.00  0.00     0.029 A 
ATOM     50  C   UNL     1      15.333   3.726  -4.086  1.00  0.00     0.049 A 
ATOM     51  H   UNL     1      15.853   2.167  -5.365  1.00  0.00     0.167 HD
ATOM     52  C   UNL     1      16.822  -1.141  -8.031  1.00  0.00     0.031 A 
ATOM     53  C   UNL     1      16.446   4.087  -3.419  1.00  0.00     0.031 A 
ATOM     54  C   UNL     1      18.076  -0.773  -7.428  1.00  0.00     0.049 A 
ATOM     55  C   UNL     1      17.741   3.378  -3.707  1.00  0.00     0.074 A 
ATOM     56  C   UNL     1      19.333  -1.304  -7.662  1.00  0.00     0.029 A 
ATOM     57  N   UNL     1      18.232   0.216  -6.470  1.00  0.00    -0.354 N 
ATOM     58  N   UNL     1      17.982   2.407  -4.555  1.00  0.00    -0.248 NA
ATOM     59  C   UNL     1      18.922   3.825  -2.954  1.00  0.00     0.031 C 
ATOM     60  C   UNL     1      20.240  -0.675  -6.804  1.00  0.00     0.029 A 
ATOM     61  C   UNL     1      19.560   0.294  -6.085  1.00  0.00     0.049 A 
ATOM     62  H   UNL     1      17.506   0.779  -6.116  1.00  0.00     0.167 HD
ATOM     63  C   UNL     1      19.343   2.148  -4.458  1.00  0.00     0.074 A 
ATOM     64  C   UNL     1      19.879   3.078  -3.486  1.00  0.00     0.031 C 
ATOM     65  C   UNL     1      20.083   1.222  -5.116  1.00  0.00     0.031 A 
BRANCH  52  66
ATOM     66  C   UNL     1      16.814  -2.271  -9.026  1.00  0.00    -0.014 A 
ATOM     67  C   UNL     1      16.573  -2.035 -10.389  1.00  0.00     0.009 A 
ATOM     68  C   UNL     1      17.095  -3.580  -8.604  1.00  0.00     0.009 A 
ATOM     69  C   UNL     1      16.574  -3.091 -11.302  1.00  0.00     0.001 A 
ATOM     70  C   UNL     1      17.128  -4.629  -9.525  1.00  0.00     0.001 A 
ATOM     71  C   UNL     1      16.858  -4.386 -10.871  1.00  0.00     0.000 A 
ENDBRANCH  52  66
BRANCH  53  72
ATOM     72  C   UNL     1      16.389   5.173  -2.403  1.00  0.00    -0.014 A 
ATOM     73  C   UNL     1      17.042   6.397  -2.619  1.00  0.00     0.009 A 
ATOM     74  C   UNL     1      15.695   4.981  -1.198  1.00  0.00     0.009 A 
ATOM     75  C   UNL     1      17.030   7.389  -1.636  1.00  0.00     0.001 A 
ATOM     76  C   UNL     1      15.656   5.988  -0.231  1.00  0.00     0.001 A 
ATOM     77  C   UNL     1      16.334   7.186  -0.446  1.00  0.00     0.000 A 
ENDBRANCH  53  72
BRANCH  65  78
ATOM     78  C   UNL     1      21.561   1.193  -4.836  1.00  0.00    -0.014 A 
ATOM     79  C   UNL     1      22.066   0.741  -3.607  1.00  0.00     0.009 A 
ATOM     80  C   UNL     1      22.463   1.587  -5.837  1.00  0.00     0.009 A 
ATOM     81  C   UNL     1      23.443   0.720  -3.374  1.00  0.00     0.001 A 
ATOM     82  C   UNL     1      23.840   1.534  -5.614  1.00  0.00     0.001 A 
ATOM     83  C   UNL     1      24.328   1.111  -4.379  1.00  0.00     0.000 A 
ENDBRANCH  65  78
ENDBRANCH  39  40
ENDBRANCH  31  34
ENDBRANCH  29  30
ENDBRANCH  28  29
ENDBRANCH  27  28
ENDBRANCH   1  27
TORSDOF 16
