REMARK SMILES C[C@](Nc1ccc(C(N)=O)nn1)(C(=O)NCCCCCCNC(=O)c1ccc(-c2c3nc(c(-c4ccccc4)c4ccc([nH]4)c(-c4ccccc4)c4nc(c(-c5ccccc5)c5ccc2[nH]5)C=C4)C=C3)cc1)c1ccccc1
REMARK SMILES IDX 18 1 17 2 16 3 15 4 13 5 14 6 2 8 1 9 73 10 74 11 78 12
REMARK SMILES IDX 75 13 77 14 76 15 3 16 4 18 5 19 12 20 6 21 11 22 7 23 8 24
REMARK SMILES IDX 9 25 10 26 19 29 20 30 21 31 22 32 23 33 24 35 25 36 26 37
REMARK SMILES IDX 72 38 27 39 71 40 28 41 29 42 30 43 65 44 31 45 70 46 64 47
REMARK SMILES IDX 66 48 32 49 69 50 63 51 62 52 33 54 55 55 40 56 54 57 41 58
REMARK SMILES IDX 44 59 53 60 67 61 42 62 43 63 52 65 68 66 45 67 34 68 35 69
REMARK SMILES IDX 39 70 36 71 38 72 37 73 56 74 57 75 61 76 58 77 60 78 59 79
REMARK SMILES IDX 46 80 47 81 51 82 48 83 50 84 49 85
REMARK H PARENT 15 7 3 17 9 27 9 28 22 34 66 53 44 64
REMARK Flexibility Score: inf
ROOT
ATOM      1  C   UNL     1      -2.884  -1.349  -2.512  1.00  0.00     0.002 C 
ENDROOT
BRANCH   1   2
ATOM      2  C   UNL     1      -1.363  -1.323  -2.271  1.00  0.00     0.021 C 
BRANCH   2   3
ATOM      3  C   UNL     1      -0.755   0.074  -2.113  1.00  0.00     0.116 C 
BRANCH   3   4
ATOM      4  N   UNL     1      -1.411   0.771  -1.031  1.00  0.00    -0.354 N 
ATOM      5  C   UNL     1      -1.004   1.356   0.122  1.00  0.00     0.250 C 
ATOM      6  O   UNL     1      -1.952   1.639   0.870  1.00  0.00    -0.272 OA
ATOM      7  H   UNL     1      -2.385   0.836  -1.161  1.00  0.00     0.163 HD
BRANCH   5   8
ATOM      8  C   UNL     1       0.496   1.763   0.454  1.00  0.00     0.140 C 
ATOM      9  C   UNL     1       0.959   2.672  -0.710  1.00  0.00     0.051 C 
BRANCH   8  10
ATOM     10  C   UNL     1       0.466   2.475   1.827  1.00  0.00    -0.013 A 
ATOM     11  C   UNL     1       0.133   1.726   2.982  1.00  0.00     0.007 A 
ATOM     12  C   UNL     1       0.818   3.824   1.998  1.00  0.00     0.007 A 
ATOM     13  C   UNL     1       0.254   2.276   4.258  1.00  0.00     0.000 A 
ATOM     14  C   UNL     1       0.926   4.375   3.277  1.00  0.00     0.000 A 
ATOM     15  C   UNL     1       0.669   3.596   4.404  1.00  0.00     0.000 A 
ENDBRANCH   8  10
BRANCH   8  16
ATOM     16  N   UNL     1       1.423   0.580   0.513  1.00  0.00    -0.351 N 
ATOM     17  H   UNL     1       1.069  -0.321   0.334  1.00  0.00     0.163 HD
BRANCH  16  18
ATOM     18  C   UNL     1       2.778   0.738   0.819  1.00  0.00     0.149 A 
ATOM     19  C   UNL     1       3.235   1.294   2.006  1.00  0.00     0.051 A 
ATOM     20  N   UNL     1       3.701   0.332  -0.082  1.00  0.00    -0.132 NA
ATOM     21  C   UNL     1       4.587   1.515   2.243  1.00  0.00     0.040 A 
ATOM     22  N   UNL     1       5.071   0.533   0.137  1.00  0.00    -0.143 NA
ATOM     23  C   UNL     1       5.484   1.130   1.278  1.00  0.00     0.150 A 
BRANCH  23  24
ATOM     24  C   UNL     1       6.934   1.381   1.492  1.00  0.00     0.269 C 
ATOM     25  N   UNL     1       7.795   0.950   0.523  1.00  0.00    -0.364 N 
ATOM     26  O   UNL     1       7.351   1.955   2.493  1.00  0.00    -0.268 OA
ATOM     27  H   UNL     1       7.447   0.491  -0.275  1.00  0.00     0.160 HD
ATOM     28  H   UNL     1       8.763   1.099   0.623  1.00  0.00     0.160 HD
ENDBRANCH  23  24
ENDBRANCH  16  18
ENDBRANCH   8  16
ENDBRANCH   5   8
ENDBRANCH   3   4
ENDBRANCH   2   3
ENDBRANCH   1   2
BRANCH   1  29
ATOM     29  C   UNL     1      -3.377  -0.525  -3.705  1.00  0.00     0.002 C 
BRANCH  29  30
ATOM     30  C   UNL     1      -2.731  -0.882  -5.043  1.00  0.00     0.021 C 
BRANCH  30  31
ATOM     31  C   UNL     1      -2.841  -2.352  -5.431  1.00  0.00     0.116 C 
BRANCH  31  32
ATOM     32  N   UNL     1      -4.218  -2.777  -5.627  1.00  0.00    -0.352 N 
ATOM     33  C   UNL     1      -4.760  -3.476  -6.677  1.00  0.00     0.251 C 
ATOM     34  H   UNL     1      -4.846  -2.530  -4.910  1.00  0.00     0.163 HD
ATOM     35  O   UNL     1      -5.974  -3.625  -6.769  1.00  0.00    -0.269 OA
BRANCH  33  36
ATOM     36  C   UNL     1      -3.866  -4.022  -7.719  1.00  0.00     0.039 A 
ATOM     37  C   UNL     1      -4.172  -3.789  -9.062  1.00  0.00     0.014 A 
ATOM     38  C   UNL     1      -2.716  -4.734  -7.369  1.00  0.00     0.014 A 
ATOM     39  C   UNL     1      -3.285  -4.209 -10.053  1.00  0.00     0.010 A 
ATOM     40  C   UNL     1      -1.798  -5.088  -8.352  1.00  0.00     0.010 A 
ATOM     41  C   UNL     1      -2.072  -4.827  -9.704  1.00  0.00    -0.014 A 
BRANCH  41  42
ATOM     42  C   UNL     1      -1.071  -5.193 -10.735  1.00  0.00     0.031 A 
ATOM     43  C   UNL     1      -0.708  -6.634 -10.960  1.00  0.00     0.074 A 
ATOM     44  C   UNL     1      -0.433  -4.222 -11.418  1.00  0.00     0.049 A 
ATOM     45  N   UNL     1       0.190  -7.143 -11.766  1.00  0.00    -0.248 NA
ATOM     46  C   UNL     1      -1.430  -7.632 -10.155  1.00  0.00     0.031 C 
ATOM     47  C   UNL     1      -0.661  -2.784 -11.260  1.00  0.00     0.029 A 
ATOM     48  N   UNL     1       0.549  -4.300 -12.373  1.00  0.00    -0.354 N 
ATOM     49  C   UNL     1       0.151  -8.515 -11.553  1.00  0.00     0.074 A 
ATOM     50  C   UNL     1      -0.820  -8.754 -10.508  1.00  0.00     0.031 C 
ATOM     51  C   UNL     1       0.143  -2.117 -12.103  1.00  0.00     0.029 A 
ATOM     52  C   UNL     1       0.972  -3.075 -12.829  1.00  0.00     0.049 A 
ATOM     53  H   UNL     1       0.916  -5.152 -12.701  1.00  0.00     0.167 HD
ATOM     54  C   UNL     1       0.848  -9.490 -12.184  1.00  0.00     0.031 A 
ATOM     55  C   UNL     1       1.927  -2.755 -13.721  1.00  0.00     0.031 A 
ATOM     56  C   UNL     1       1.812  -9.252 -13.224  1.00  0.00     0.049 A 
ATOM     57  C   UNL     1       2.700  -3.853 -14.396  1.00  0.00     0.074 A 
ATOM     58  C   UNL     1       2.526 -10.176 -13.966  1.00  0.00     0.029 A 
ATOM     59  N   UNL     1       2.204  -7.997 -13.665  1.00  0.00    -0.354 N 
ATOM     60  N   UNL     1       2.597  -5.151 -14.239  1.00  0.00    -0.248 NA
ATOM     61  C   UNL     1       3.715  -3.442 -15.376  1.00  0.00     0.031 C 
ATOM     62  C   UNL     1       3.391  -9.479 -14.816  1.00  0.00     0.029 A 
ATOM     63  C   UNL     1       3.172  -8.122 -14.646  1.00  0.00     0.049 A 
ATOM     64  H   UNL     1       1.846  -7.143 -13.329  1.00  0.00     0.167 HD
ATOM     65  C   UNL     1       3.515  -5.712 -15.117  1.00  0.00     0.074 A 
ATOM     66  C   UNL     1       4.153  -4.614 -15.815  1.00  0.00     0.031 C 
ATOM     67  C   UNL     1       3.804  -7.020 -15.326  1.00  0.00     0.031 A 
BRANCH  54  68
ATOM     68  C   UNL     1       0.598 -10.908 -11.748  1.00  0.00    -0.014 A 
ATOM     69  C   UNL     1      -0.624 -11.547 -12.015  1.00  0.00     0.009 A 
ATOM     70  C   UNL     1       1.605 -11.623 -11.082  1.00  0.00     0.009 A 
ATOM     71  C   UNL     1      -0.847 -12.857 -11.585  1.00  0.00     0.001 A 
ATOM     72  C   UNL     1       1.391 -12.943 -10.682  1.00  0.00     0.001 A 
ATOM     73  C   UNL     1       0.162 -13.555 -10.923  1.00  0.00     0.000 A 
ENDBRANCH  54  68
BRANCH  55  74
ATOM     74  C   UNL     1       2.204  -1.328 -14.031  1.00  0.00    -0.014 A 
ATOM     75  C   UNL     1       1.848  -0.784 -15.275  1.00  0.00     0.009 A 
ATOM     76  C   UNL     1       2.820  -0.499 -13.080  1.00  0.00     0.009 A 
ATOM     77  C   UNL     1       2.125   0.553 -15.568  1.00  0.00     0.001 A 
ATOM     78  C   UNL     1       3.069   0.845 -13.365  1.00  0.00     0.001 A 
ATOM     79  C   UNL     1       2.730   1.367 -14.611  1.00  0.00     0.000 A 
ENDBRANCH  55  74
BRANCH  67  80
ATOM     80  C   UNL     1       4.839  -7.337 -16.368  1.00  0.00    -0.014 A 
ATOM     81  C   UNL     1       6.201  -7.088 -16.143  1.00  0.00     0.009 A 
ATOM     82  C   UNL     1       4.447  -7.937 -17.576  1.00  0.00     0.009 A 
ATOM     83  C   UNL     1       7.148  -7.405 -17.119  1.00  0.00     0.001 A 
ATOM     84  C   UNL     1       5.399  -8.280 -18.537  1.00  0.00     0.001 A 
ATOM     85  C   UNL     1       6.747  -8.006 -18.312  1.00  0.00     0.000 A 
ENDBRANCH  67  80
ENDBRANCH  41  42
ENDBRANCH  33  36
ENDBRANCH  31  32
ENDBRANCH  30  31
ENDBRANCH  29  30
ENDBRANCH   1  29
TORSDOF 17
