REMARK SMILES [NH3+][C@H](Cc1cc(F)c(F)c(F)c1)C(=O)NCCCCCCNC(=O)c1ccc(-c2c3nc(c(-c4ccccc4)c4ccc([nH]4)c(-c4ccccc4)c4nc(c(-c5ccccc5)c5ccc2[nH]5)C=C4)C=C3)cc1
REMARK SMILES IDX 18 1 17 2 16 3 15 4 13 5 14 6 2 8 1 9 3 13 4 14 5 15 12 16
REMARK SMILES IDX 6 17 10 18 7 19 8 20 11 21 9 22 19 23 20 24 21 25 22 26
REMARK SMILES IDX 23 27 24 29 25 30 26 31 72 32 27 33 71 34 28 35 29 36 30 37
REMARK SMILES IDX 65 38 31 39 70 40 64 41 66 42 32 43 69 44 63 45 62 46 33 48
REMARK SMILES IDX 55 49 40 50 54 51 41 52 44 53 53 54 67 55 42 56 43 57 52 59
REMARK SMILES IDX 68 60 45 61 34 62 35 63 39 64 36 65 38 66 37 67 56 68 57 69
REMARK SMILES IDX 61 70 58 71 60 72 59 73 46 74 47 75 51 76 48 77 50 78 49 79
REMARK H PARENT 15 7 1 10 1 11 1 12 22 28 66 47 44 58
REMARK Flexibility Score: inf
ROOT
ATOM      1  C   UNL     1      -2.989   2.999  -1.249  1.00  0.00     0.002 C 
ENDROOT
BRANCH   1   2
ATOM      2  C   UNL     1      -1.464   2.949  -1.124  1.00  0.00     0.021 C 
BRANCH   2   3
ATOM      3  C   UNL     1      -0.906   2.988   0.297  1.00  0.00     0.116 C 
BRANCH   3   4
ATOM      4  N   UNL     1      -1.452   1.940   1.135  1.00  0.00    -0.351 N 
ATOM      5  C   UNL     1      -0.940   0.781   1.626  1.00  0.00     0.278 C 
ATOM      6  O   UNL     1      -1.727   0.050   2.240  1.00  0.00    -0.268 OA
ATOM      7  H   UNL     1      -2.385   2.100   1.404  1.00  0.00     0.163 HD
BRANCH   5   8
ATOM      8  C   UNL     1       0.528   0.349   1.443  1.00  0.00     0.275 C 
BRANCH   8   9
ATOM      9  N   UNL     1       1.436   1.325   2.098  1.00  0.00    -0.347 N 
ATOM     10  H   UNL     1       1.057   1.585   3.008  1.00  0.00     0.345 HD
ATOM     11  H   UNL     1       1.519   2.157   1.513  1.00  0.00     0.345 HD
ATOM     12  H   UNL     1       2.357   0.903   2.221  1.00  0.00     0.345 HD
ENDBRANCH   8   9
BRANCH   8  13
ATOM     13  C   UNL     1       1.024  -0.108   0.048  1.00  0.00     0.111 C 
BRANCH  13  14
ATOM     14  C   UNL     1       0.096  -0.252  -1.137  1.00  0.00    -0.036 A 
ATOM     15  C   UNL     1      -1.210  -0.756  -1.046  1.00  0.00     0.046 A 
ATOM     16  C   UNL     1       0.574   0.122  -2.410  1.00  0.00     0.046 A 
ATOM     17  C   UNL     1      -2.045  -0.755  -2.169  1.00  0.00     0.162 A 
ATOM     18  C   UNL     1      -0.267   0.098  -3.523  1.00  0.00     0.162 A 
ATOM     19  F   UNL     1      -3.319  -1.148  -2.034  1.00  0.00    -0.204 F 
ATOM     20  C   UNL     1      -1.583  -0.315  -3.401  1.00  0.00     0.194 A 
ATOM     21  F   UNL     1       0.201   0.528  -4.703  1.00  0.00    -0.204 F 
ATOM     22  F   UNL     1      -2.407  -0.266  -4.457  1.00  0.00    -0.200 F 
ENDBRANCH  13  14
ENDBRANCH   8  13
ENDBRANCH   5   8
ENDBRANCH   3   4
ENDBRANCH   2   3
ENDBRANCH   1   2
BRANCH   1  23
ATOM     23  C   UNL     1      -3.599   4.389  -1.070  1.00  0.00     0.002 C 
BRANCH  23  24
ATOM     24  C   UNL     1      -3.030   5.466  -1.996  1.00  0.00     0.021 C 
BRANCH  24  25
ATOM     25  C   UNL     1      -3.018   5.099  -3.477  1.00  0.00     0.116 C 
BRANCH  25  26
ATOM     26  N   UNL     1      -4.358   5.059  -4.042  1.00  0.00    -0.352 N 
ATOM     27  C   UNL     1      -4.859   5.806  -5.081  1.00  0.00     0.251 C 
ATOM     28  H   UNL     1      -4.981   4.418  -3.631  1.00  0.00     0.163 HD
ATOM     29  O   UNL     1      -6.059   5.820  -5.335  1.00  0.00    -0.269 OA
BRANCH  27  30
ATOM     30  C   UNL     1      -3.921   6.617  -5.882  1.00  0.00     0.039 A 
ATOM     31  C   UNL     1      -4.143   7.988  -6.017  1.00  0.00     0.014 A 
ATOM     32  C   UNL     1      -2.793   6.015  -6.448  1.00  0.00     0.014 A 
ATOM     33  C   UNL     1      -3.195   8.774  -6.676  1.00  0.00     0.010 A 
ATOM     34  C   UNL     1      -1.822   6.810  -7.048  1.00  0.00     0.010 A 
ATOM     35  C   UNL     1      -2.014   8.196  -7.171  1.00  0.00    -0.014 A 
BRANCH  35  36
ATOM     36  C   UNL     1      -0.971   9.011  -7.842  1.00  0.00     0.031 A 
ATOM     37  C   UNL     1      -0.660   8.769  -9.294  1.00  0.00     0.074 A 
ATOM     38  C   UNL     1      -0.250   9.904  -7.135  1.00  0.00     0.049 A 
ATOM     39  N   UNL     1       0.287   9.288 -10.034  1.00  0.00    -0.248 NA
ATOM     40  C   UNL     1      -1.507   7.792 -10.000  1.00  0.00     0.031 C 
ATOM     41  C   UNL     1      -0.430  10.211  -5.714  1.00  0.00     0.029 A 
ATOM     42  N   UNL     1       0.795  10.709  -7.517  1.00  0.00    -0.354 N 
ATOM     43  C   UNL     1       0.168   8.680 -11.277  1.00  0.00     0.074 A 
ATOM     44  C   UNL     1      -0.916   7.728 -11.184  1.00  0.00     0.031 C 
ATOM     45  C   UNL     1       0.462  11.147  -5.350  1.00  0.00     0.029 A 
ATOM     46  C   UNL     1       1.302  11.477  -6.496  1.00  0.00     0.049 A 
ATOM     47  H   UNL     1       1.147  10.734  -8.436  1.00  0.00     0.167 HD
ATOM     48  C   UNL     1       0.887   8.905 -12.401  1.00  0.00     0.031 A 
ATOM     49  C   UNL     1       2.337  12.339  -6.484  1.00  0.00     0.031 A 
ATOM     50  C   UNL     1       1.942   9.876 -12.505  1.00  0.00     0.049 A 
ATOM     51  C   UNL     1       3.119  12.569  -7.750  1.00  0.00     0.074 A 
ATOM     52  C   UNL     1       2.680  10.227 -13.622  1.00  0.00     0.029 A 
ATOM     53  N   UNL     1       2.403  10.654 -11.456  1.00  0.00    -0.354 N 
ATOM     54  N   UNL     1       2.947  12.037  -8.935  1.00  0.00    -0.248 NA
ATOM     55  C   UNL     1       4.232  13.527  -7.677  1.00  0.00     0.031 C 
ATOM     56  C   UNL     1       3.621  11.186 -13.238  1.00  0.00     0.029 A 
ATOM     57  C   UNL     1       3.431  11.469 -11.895  1.00  0.00     0.049 A 
ATOM     58  H   UNL     1       2.052  10.630 -10.537  1.00  0.00     0.167 HD
ATOM     59  C   UNL     1       3.902  12.624  -9.756  1.00  0.00     0.074 A 
ATOM     60  C   UNL     1       4.644  13.558  -8.936  1.00  0.00     0.031 C 
ATOM     61  C   UNL     1       4.142  12.410 -11.071  1.00  0.00     0.031 A 
BRANCH  48  62
ATOM     62  C   UNL     1       0.562   8.084 -13.617  1.00  0.00    -0.014 A 
ATOM     63  C   UNL     1      -0.617   8.300 -14.347  1.00  0.00     0.009 A 
ATOM     64  C   UNL     1       1.480   7.126 -14.074  1.00  0.00     0.009 A 
ATOM     65  C   UNL     1      -0.881   7.554 -15.497  1.00  0.00     0.001 A 
ATOM     66  C   UNL     1       1.226   6.400 -15.239  1.00  0.00     0.001 A 
ATOM     67  C   UNL     1       0.042   6.610 -15.945  1.00  0.00     0.000 A 
ENDBRANCH  48  62
BRANCH  49  68
ATOM     68  C   UNL     1       2.706  13.061  -5.237  1.00  0.00    -0.014 A 
ATOM     69  C   UNL     1       2.516  14.448  -5.134  1.00  0.00     0.009 A 
ATOM     70  C   UNL     1       3.292  12.377  -4.160  1.00  0.00     0.009 A 
ATOM     71  C   UNL     1       2.941  15.140  -3.998  1.00  0.00     0.001 A 
ATOM     72  C   UNL     1       3.688  13.067  -3.013  1.00  0.00     0.001 A 
ATOM     73  C   UNL     1       3.525  14.450  -2.938  1.00  0.00     0.000 A 
ENDBRANCH  49  68
BRANCH  61  74
ATOM     74  C   UNL     1       5.210  13.239 -11.725  1.00  0.00    -0.014 A 
ATOM     75  C   UNL     1       6.571  12.999 -11.486  1.00  0.00     0.009 A 
ATOM     76  C   UNL     1       4.843  14.235 -12.644  1.00  0.00     0.009 A 
ATOM     77  C   UNL     1       7.544  13.761 -12.135  1.00  0.00     0.001 A 
ATOM     78  C   UNL     1       5.818  14.975 -13.313  1.00  0.00     0.001 A 
ATOM     79  C   UNL     1       7.168  14.742 -13.052  1.00  0.00     0.000 A 
ENDBRANCH  61  74
ENDBRANCH  35  36
ENDBRANCH  27  30
ENDBRANCH  25  26
ENDBRANCH  24  25
ENDBRANCH  23  24
ENDBRANCH   1  23
TORSDOF 16
