REMARK SMILES CN1C(=O)C[C@H](C(=O)Nc2ccc(C(=O)NCCCCCCNC(=O)c3ccc(-c4c5nc(c(-c6ccccc6)c6ccc([nH]6)c(-c6ccccc6)c6nc(c(-c7ccccc7)c7ccc4[nH]7)C=C6)C=C5)cc3)cc2)S/C1=[NH+]\c1cccc(C(F)(F)F)c1
REMARK SMILES IDX 18 1 17 2 16 3 14 4 15 5 13 7 10 8 11 9 75 10 12 11 74 12
REMARK SMILES IDX 9 13 7 14 8 15 6 17 1 18 2 19 3 20 77 21 4 22 5 23 76 24
REMARK SMILES IDX 78 25 79 27 80 28 88 29 81 30 83 31 82 32 84 33 85 34 86 35
REMARK SMILES IDX 87 36 19 37 20 38 21 39 22 40 23 41 24 42 25 44 26 45 27 46
REMARK SMILES IDX 73 47 28 48 72 49 29 50 30 51 31 52 66 53 32 54 71 55 65 56
REMARK SMILES IDX 67 57 33 58 70 59 64 60 63 61 34 63 56 64 41 65 55 66 42 67
REMARK SMILES IDX 45 68 54 69 68 70 43 71 44 72 53 74 69 75 46 76 35 77 36 78
REMARK SMILES IDX 40 79 37 80 39 81 38 82 57 83 58 84 62 85 59 86 61 87 60 88
REMARK SMILES IDX 47 89 48 90 52 91 49 92 51 93 50 94
REMARK H PARENT 16 6 9 16 78 26 23 43 67 62 45 73
REMARK Flexibility Score: inf
ROOT
ATOM      1  C   UNL     1       2.238  -9.524   2.903  1.00  0.00     0.021 C 
ENDROOT
BRANCH   1   2
ATOM      2  C   UNL     1       2.303  -9.373   1.381  1.00  0.00     0.116 C 
BRANCH   2   3
ATOM      3  N   UNL     1       1.505 -10.405   0.744  1.00  0.00    -0.352 N 
ATOM      4  C   UNL     1       0.278 -10.377   0.131  1.00  0.00     0.251 C 
ATOM      5  O   UNL     1      -0.163 -11.425  -0.339  1.00  0.00    -0.269 OA
ATOM      6  H   UNL     1       1.925 -11.295   0.753  1.00  0.00     0.163 HD
BRANCH   4   7
ATOM      7  C   UNL     1      -0.494  -9.119  -0.059  1.00  0.00     0.039 A 
ATOM      8  C   UNL     1      -1.762  -6.703  -0.707  1.00  0.00     0.041 A 
ATOM      9  C   UNL     1      -1.923  -7.809  -1.536  1.00  0.00     0.027 A 
ATOM     10  C   UNL     1      -1.114  -6.855   0.519  1.00  0.00     0.027 A 
ATOM     11  C   UNL     1      -1.264  -9.004  -1.226  1.00  0.00     0.016 A 
ATOM     12  C   UNL     1      -0.504  -8.066   0.854  1.00  0.00     0.016 A 
BRANCH   8  13
ATOM     13  N   UNL     1      -2.291  -5.468  -1.100  1.00  0.00    -0.325 N 
ATOM     14  C   UNL     1      -1.642  -4.252  -1.156  1.00  0.00     0.238 C 
ATOM     15  O   UNL     1      -2.305  -3.227  -1.326  1.00  0.00    -0.273 OA
ATOM     16  H   UNL     1      -3.238  -5.467  -1.367  1.00  0.00     0.169 HD
BRANCH  14  17
ATOM     17  C   UNL     1      -0.110  -4.224  -1.163  1.00  0.00     0.160 C 
ATOM     18  C   UNL     1       0.327  -0.011   0.017  1.00  0.00     0.301 C 
ATOM     19  N   UNL     1       0.273  -1.430  -0.308  1.00  0.00    -0.194 N 
ATOM     20  C   UNL     1       0.498  -1.742  -1.647  1.00  0.00     0.311 C 
ATOM     21  C   UNL     1       0.002  -2.328   0.717  1.00  0.00     0.319 C 
ATOM     22  O   UNL     1       0.781  -0.874  -2.483  1.00  0.00    -0.247 OA
ATOM     23  C   UNL     1       0.443  -3.183  -2.115  1.00  0.00     0.153 C 
ATOM     24  S   UNL     1       0.594  -3.946   0.452  1.00  0.00    -0.024 SA
ATOM     25  N   UNL     1      -0.597  -1.936   1.798  1.00  0.00    -0.235 N 
ATOM     26  H   UNL     1      -0.759  -0.974   1.933  1.00  0.00     0.313 HD
BRANCH  25  27
ATOM     27  C   UNL     1      -1.019  -2.844   2.777  1.00  0.00     0.126 A 
ATOM     28  C   UNL     1      -2.388  -3.093   2.903  1.00  0.00     0.052 A 
ATOM     29  C   UNL     1      -0.127  -3.493   3.634  1.00  0.00     0.064 A 
ATOM     30  C   UNL     1      -2.863  -4.008   3.841  1.00  0.00     0.005 A 
ATOM     31  C   UNL     1      -0.584  -4.450   4.554  1.00  0.00     0.060 A 
ATOM     32  C   UNL     1      -1.963  -4.692   4.656  1.00  0.00     0.013 A 
BRANCH  31  33
ATOM     33  C   UNL     1       0.384  -5.231   5.403  1.00  0.00     0.416 C 
ATOM     34  F   UNL     1       0.244  -4.983   6.733  1.00  0.00    -0.166 F 
ATOM     35  F   UNL     1       0.227  -6.578   5.255  1.00  0.00    -0.166 F 
ATOM     36  F   UNL     1       1.692  -4.987   5.109  1.00  0.00    -0.166 F 
ENDBRANCH  31  33
ENDBRANCH  25  27
ENDBRANCH  14  17
ENDBRANCH   8  13
ENDBRANCH   4   7
ENDBRANCH   2   3
ENDBRANCH   1   2
BRANCH   1  37
ATOM     37  C   UNL     1       3.115 -10.665   3.435  1.00  0.00     0.002 C 
BRANCH  37  38
ATOM     38  C   UNL     1       4.621 -10.477   3.214  1.00  0.00     0.002 C 
BRANCH  38  39
ATOM     39  C   UNL     1       5.200  -9.181   3.787  1.00  0.00     0.021 C 
BRANCH  39  40
ATOM     40  C   UNL     1       5.043  -9.040   5.297  1.00  0.00     0.116 C 
BRANCH  40  41
ATOM     41  N   UNL     1       5.799 -10.054   6.015  1.00  0.00    -0.352 N 
ATOM     42  C   UNL     1       6.759  -9.899   6.983  1.00  0.00     0.251 C 
ATOM     43  H   UNL     1       5.593 -10.985   5.771  1.00  0.00     0.163 HD
ATOM     44  O   UNL     1       7.458 -10.848   7.321  1.00  0.00    -0.269 OA
BRANCH  42  45
ATOM     45  C   UNL     1       6.958  -8.576   7.612  1.00  0.00     0.039 A 
ATOM     46  C   UNL     1       8.259  -8.110   7.815  1.00  0.00     0.014 A 
ATOM     47  C   UNL     1       5.862  -7.807   8.015  1.00  0.00     0.014 A 
ATOM     48  C   UNL     1       8.460  -6.849   8.378  1.00  0.00     0.010 A 
ATOM     49  C   UNL     1       6.062  -6.521   8.505  1.00  0.00     0.010 A 
ATOM     50  C   UNL     1       7.363  -6.034   8.702  1.00  0.00    -0.014 A 
BRANCH  50  51
ATOM     51  C   UNL     1       7.554  -4.673   9.260  1.00  0.00     0.031 A 
ATOM     52  C   UNL     1       7.086  -4.355  10.653  1.00  0.00     0.074 A 
ATOM     53  C   UNL     1       8.098  -3.709   8.494  1.00  0.00     0.049 A 
ATOM     54  N   UNL     1       7.131  -3.217  11.300  1.00  0.00    -0.248 NA
ATOM     55  C   UNL     1       6.463  -5.453  11.409  1.00  0.00     0.031 C 
ATOM     56  C   UNL     1       8.563  -3.881   7.116  1.00  0.00     0.029 A 
ATOM     57  N   UNL     1       8.351  -2.389   8.768  1.00  0.00    -0.354 N 
ATOM     58  C   UNL     1       6.529  -3.460  12.528  1.00  0.00     0.074 A 
ATOM     59  C   UNL     1       6.077  -4.834  12.514  1.00  0.00     0.031 C 
ATOM     60  C   UNL     1       9.079  -2.721   6.679  1.00  0.00     0.029 A 
ATOM     61  C   UNL     1       8.943  -1.715   7.728  1.00  0.00     0.049 A 
ATOM     62  H   UNL     1       8.130  -1.965   9.629  1.00  0.00     0.167 HD
ATOM     63  C   UNL     1       6.383  -2.623  13.583  1.00  0.00     0.031 A 
ATOM     64  C   UNL     1       9.332  -0.431   7.629  1.00  0.00     0.031 A 
ATOM     65  C   UNL     1       6.831  -1.255  13.596  1.00  0.00     0.049 A 
ATOM     66  C   UNL     1       9.133   0.489   8.800  1.00  0.00     0.074 A 
ATOM     67  C   UNL     1       6.774  -0.338  14.630  1.00  0.00     0.029 A 
ATOM     68  N   UNL     1       7.412  -0.607  12.517  1.00  0.00    -0.354 N 
ATOM     69  N   UNL     1       8.621   0.229   9.979  1.00  0.00    -0.248 NA
ATOM     70  C   UNL     1       9.576   1.879   8.628  1.00  0.00     0.031 C 
ATOM     71  C   UNL     1       7.271   0.882  14.159  1.00  0.00     0.029 A 
ATOM     72  C   UNL     1       7.695   0.707  12.851  1.00  0.00     0.049 A 
ATOM     73  H   UNL     1       7.597  -1.020  11.642  1.00  0.00     0.167 HD
ATOM     74  C   UNL     1       8.708   1.413  10.700  1.00  0.00     0.074 A 
ATOM     75  C   UNL     1       9.334   2.387   9.829  1.00  0.00     0.031 C 
ATOM     76  C   UNL     1       8.311   1.667  11.970  1.00  0.00     0.031 A 
BRANCH  63  77
ATOM     77  C   UNL     1       5.693  -3.171  14.803  1.00  0.00    -0.014 A 
ATOM     78  C   UNL     1       6.288  -4.170  15.592  1.00  0.00     0.009 A 
ATOM     79  C   UNL     1       4.430  -2.682  15.171  1.00  0.00     0.009 A 
ATOM     80  C   UNL     1       5.611  -4.703  16.691  1.00  0.00     0.001 A 
ATOM     81  C   UNL     1       3.770  -3.192  16.290  1.00  0.00     0.001 A 
ATOM     82  C   UNL     1       4.354  -4.212  17.040  1.00  0.00     0.000 A 
ENDBRANCH  63  77
BRANCH  64  83
ATOM     83  C   UNL     1       9.983   0.051   6.383  1.00  0.00    -0.014 A 
ATOM     84  C   UNL     1      11.354   0.347   6.371  1.00  0.00     0.009 A 
ATOM     85  C   UNL     1       9.245   0.203   5.199  1.00  0.00     0.009 A 
ATOM     86  C   UNL     1      11.970   0.804   5.204  1.00  0.00     0.001 A 
ATOM     87  C   UNL     1       9.869   0.634   4.027  1.00  0.00     0.001 A 
ATOM     88  C   UNL     1      11.229   0.942   4.032  1.00  0.00     0.000 A 
ENDBRANCH  64  83
BRANCH  76  89
ATOM     89  C   UNL     1       8.573   3.047  12.507  1.00  0.00    -0.014 A 
ATOM     90  C   UNL     1       7.843   4.159  12.059  1.00  0.00     0.009 A 
ATOM     91  C   UNL     1       9.544   3.228  13.505  1.00  0.00     0.009 A 
ATOM     92  C   UNL     1       8.105   5.430  12.575  1.00  0.00     0.001 A 
ATOM     93  C   UNL     1       9.783   4.495  14.041  1.00  0.00     0.001 A 
ATOM     94  C   UNL     1       9.070   5.595  13.568  1.00  0.00     0.000 A 
ENDBRANCH  76  89
ENDBRANCH  50  51
ENDBRANCH  42  45
ENDBRANCH  40  41
ENDBRANCH  39  40
ENDBRANCH  38  39
ENDBRANCH  37  38
ENDBRANCH   1  37
TORSDOF 17
