REMARK SMILES CC(C)C[C@H](CNC(=O)c1ccc(O)cc1O)C(=O)NCCCCCCNC(=O)c1ccc(-c2c3nc(c(-c4ccccc4)c4ccc([nH]4)c(-c4ccccc4)c4nc(c(-c5ccccc5)c5ccc2[nH]5)C=C4)C=C3)cc1
REMARK SMILES IDX 22 1 21 2 20 3 18 4 19 5 5 7 4 8 2 9 1 10 3 11 6 12 7 13
REMARK SMILES IDX 8 14 9 16 10 17 11 18 16 19 12 20 15 21 13 22 17 23 14 25
REMARK SMILES IDX 23 27 24 28 25 29 26 30 27 31 28 32 29 34 30 35 31 36 77 37
REMARK SMILES IDX 32 38 76 39 33 40 34 41 35 42 70 43 36 44 75 45 69 46 71 47
REMARK SMILES IDX 37 48 74 49 68 50 67 51 38 53 60 54 45 55 59 56 46 57 49 58
REMARK SMILES IDX 58 59 72 60 47 61 48 62 57 64 73 65 50 66 39 67 40 68 44 69
REMARK SMILES IDX 41 70 43 71 42 72 61 73 62 74 66 75 63 76 65 77 64 78 51 79
REMARK SMILES IDX 52 80 56 81 53 82 55 83 54 84
REMARK H PARENT 20 6 7 15 17 24 14 26 27 33 71 52 49 63
REMARK Flexibility Score: inf
ROOT
ATOM      1  C   UNL     1      -3.845   1.301   3.772  1.00  0.00     0.021 C 
ENDROOT
BRANCH   1   2
ATOM      2  C   UNL     1      -3.319  -0.105   3.492  1.00  0.00     0.116 C 
BRANCH   2   3
ATOM      3  N   UNL     1      -3.745  -0.574   2.187  1.00  0.00    -0.356 N 
ATOM      4  C   UNL     1      -3.020  -0.963   1.103  1.00  0.00     0.224 C 
ATOM      5  O   UNL     1      -3.633  -1.238   0.070  1.00  0.00    -0.275 OA
ATOM      6  H   UNL     1      -4.721  -0.619   2.065  1.00  0.00     0.163 HD
BRANCH   4   7
ATOM      7  C   UNL     1      -1.501  -1.079   1.159  1.00  0.00     0.098 C 
BRANCH   7   8
ATOM      8  C   UNL     1      -1.036  -2.176   2.144  1.00  0.00     0.018 C 
BRANCH   8   9
ATOM      9  C   UNL     1      -1.687  -3.562   1.932  1.00  0.00    -0.017 C 
ATOM     10  C   UNL     1      -1.262  -4.201   0.609  1.00  0.00     0.007 C 
ATOM     11  C   UNL     1      -1.321  -4.489   3.094  1.00  0.00     0.007 C 
ENDBRANCH   8   9
ENDBRANCH   7   8
BRANCH   7  12
ATOM     12  C   UNL     1      -0.880   0.323   1.338  1.00  0.00     0.129 C 
BRANCH  12  13
ATOM     13  N   UNL     1       0.269   0.361   2.235  1.00  0.00    -0.351 N 
ATOM     14  C   UNL     1       1.591   0.185   1.924  1.00  0.00     0.255 C 
ATOM     15  H   UNL     1       0.069   0.535   3.183  1.00  0.00     0.163 HD
ATOM     16  O   UNL     1       2.398  -0.152   2.789  1.00  0.00    -0.269 OA
BRANCH  14  17
ATOM     17  C   UNL     1       2.047   0.324   0.534  1.00  0.00     0.081 A 
ATOM     18  C   UNL     1       1.780   1.501  -0.178  1.00  0.00     0.021 A 
ATOM     19  C   UNL     1       2.775  -0.709  -0.063  1.00  0.00     0.132 A 
ATOM     20  C   UNL     1       2.177   1.610  -1.511  1.00  0.00     0.047 A 
ATOM     21  C   UNL     1       3.158  -0.608  -1.395  1.00  0.00     0.093 A 
ATOM     22  C   UNL     1       2.849   0.547  -2.111  1.00  0.00     0.119 A 
BRANCH  19  23
ATOM     23  O   UNL     1       3.135  -1.843   0.614  1.00  0.00    -0.507 OA
ATOM     24  H   UNL     1       2.895  -1.948   1.514  1.00  0.00     0.293 HD
ENDBRANCH  19  23
BRANCH  22  25
ATOM     25  O   UNL     1       3.237   0.608  -3.417  1.00  0.00    -0.508 OA
ATOM     26  H   UNL     1       3.046   1.370  -3.927  1.00  0.00     0.293 HD
ENDBRANCH  22  25
ENDBRANCH  14  17
ENDBRANCH  12  13
ENDBRANCH   7  12
ENDBRANCH   4   7
ENDBRANCH   2   3
ENDBRANCH   1   2
BRANCH   1  27
ATOM     27  C   UNL     1      -5.352   1.370   4.033  1.00  0.00     0.002 C 
BRANCH  27  28
ATOM     28  C   UNL     1      -5.850   0.509   5.198  1.00  0.00     0.002 C 
BRANCH  28  29
ATOM     29  C   UNL     1      -5.120   0.718   6.528  1.00  0.00     0.021 C 
BRANCH  29  30
ATOM     30  C   UNL     1      -5.109   2.155   7.041  1.00  0.00     0.116 C 
BRANCH  30  31
ATOM     31  N   UNL     1      -6.446   2.662   7.296  1.00  0.00    -0.352 N 
ATOM     32  C   UNL     1      -6.925   3.328   8.392  1.00  0.00     0.251 C 
ATOM     33  H   UNL     1      -7.101   2.504   6.578  1.00  0.00     0.163 HD
ATOM     34  O   UNL     1      -8.131   3.546   8.503  1.00  0.00    -0.269 OA
BRANCH  32  35
ATOM     35  C   UNL     1      -6.001   3.772   9.457  1.00  0.00     0.039 A 
ATOM     36  C   UNL     1      -6.361   3.556  10.790  1.00  0.00     0.014 A 
ATOM     37  C   UNL     1      -4.802   4.422   9.149  1.00  0.00     0.014 A 
ATOM     38  C   UNL     1      -5.500   3.953  11.814  1.00  0.00     0.010 A 
ATOM     39  C   UNL     1      -3.918   4.766  10.169  1.00  0.00     0.010 A 
ATOM     40  C   UNL     1      -4.263   4.544  11.511  1.00  0.00    -0.014 A 
BRANCH  40  41
ATOM     41  C   UNL     1      -3.331   4.957  12.588  1.00  0.00     0.031 A 
ATOM     42  C   UNL     1      -3.046   6.415  12.820  1.00  0.00     0.074 A 
ATOM     43  C   UNL     1      -2.708   4.021  13.329  1.00  0.00     0.049 A 
ATOM     44  N   UNL     1      -2.229   6.970  13.680  1.00  0.00    -0.248 NA
ATOM     45  C   UNL     1      -3.755   7.374  11.958  1.00  0.00     0.031 C 
ATOM     46  C   UNL     1      -2.872   2.574  13.183  1.00  0.00     0.029 A 
ATOM     47  N   UNL     1      -1.805   4.153  14.354  1.00  0.00    -0.354 N 
ATOM     48  C   UNL     1      -2.317   8.338  13.454  1.00  0.00     0.074 A 
ATOM     49  C   UNL     1      -3.230   8.527  12.348  1.00  0.00     0.031 C 
ATOM     50  C   UNL     1      -2.111   1.952  14.098  1.00  0.00     0.029 A 
ATOM     51  C   UNL     1      -1.386   2.953  14.874  1.00  0.00     0.049 A 
ATOM     52  H   UNL     1      -1.488   5.024  14.685  1.00  0.00     0.167 HD
ATOM     53  C   UNL     1      -1.708   9.348  14.118  1.00  0.00     0.031 A 
ATOM     54  C   UNL     1      -0.515   2.689  15.866  1.00  0.00     0.031 A 
ATOM     55  C   UNL     1      -0.809   9.167  15.226  1.00  0.00     0.049 A 
ATOM     56  C   UNL     1       0.143   3.829  16.592  1.00  0.00     0.074 A 
ATOM     57  C   UNL     1      -0.168  10.130  15.985  1.00  0.00     0.029 A 
ATOM     58  N   UNL     1      -0.430   7.936  15.737  1.00  0.00    -0.354 N 
ATOM     59  N   UNL     1       0.013   5.118  16.395  1.00  0.00    -0.248 NA
ATOM     60  C   UNL     1       1.056   3.474  17.688  1.00  0.00     0.031 C 
ATOM     61  C   UNL     1       0.624   9.480  16.938  1.00  0.00     0.029 A 
ATOM     62  C   UNL     1       0.442   8.114  16.797  1.00  0.00     0.049 A 
ATOM     63  H   UNL     1      -0.736   7.064  15.396  1.00  0.00     0.167 HD
ATOM     64  C   UNL     1       0.804   5.728  17.359  1.00  0.00     0.074 A 
ATOM     65  C   UNL     1       1.400   4.669  18.147  1.00  0.00     0.031 C 
ATOM     66  C   UNL     1       1.019   7.049  17.573  1.00  0.00     0.031 A 
BRANCH  53  67
ATOM     67  C   UNL     1      -2.002  10.748  13.657  1.00  0.00    -0.014 A 
ATOM     68  C   UNL     1      -3.251  11.341  13.903  1.00  0.00     0.009 A 
ATOM     69  C   UNL     1      -1.015  11.490  12.992  1.00  0.00     0.009 A 
ATOM     70  C   UNL     1      -3.517  12.638  13.459  1.00  0.00     0.001 A 
ATOM     71  C   UNL     1      -1.275  12.796  12.572  1.00  0.00     0.001 A 
ATOM     72  C   UNL     1      -2.528  13.365  12.798  1.00  0.00     0.000 A 
ENDBRANCH  53  67
BRANCH  54  73
ATOM     73  C   UNL     1      -0.228   1.284  16.250  1.00  0.00    -0.014 A 
ATOM     74  C   UNL     1      -0.727   0.762  17.454  1.00  0.00     0.009 A 
ATOM     75  C   UNL     1       0.554   0.464  15.424  1.00  0.00     0.009 A 
ATOM     76  C   UNL     1      -0.423  -0.547  17.835  1.00  0.00     0.001 A 
ATOM     77  C   UNL     1       0.835  -0.853  15.797  1.00  0.00     0.001 A 
ATOM     78  C   UNL     1       0.354  -1.353  17.006  1.00  0.00     0.000 A 
ENDBRANCH  54  73
BRANCH  66  79
ATOM     79  C   UNL     1       1.903   7.418  18.729  1.00  0.00    -0.014 A 
ATOM     80  C   UNL     1       3.294   7.253  18.663  1.00  0.00     0.009 A 
ATOM     81  C   UNL     1       1.334   7.966  19.889  1.00  0.00     0.009 A 
ATOM     82  C   UNL     1       4.097   7.599  19.751  1.00  0.00     0.001 A 
ATOM     83  C   UNL     1       2.141   8.333  20.966  1.00  0.00     0.001 A 
ATOM     84  C   UNL     1       3.520   8.142  20.900  1.00  0.00     0.000 A 
ENDBRANCH  66  79
ENDBRANCH  40  41
ENDBRANCH  32  35
ENDBRANCH  30  31
ENDBRANCH  29  30
ENDBRANCH  28  29
ENDBRANCH  27  28
ENDBRANCH   1  27
TORSDOF 20
