REMARK SMILES COCCC(=O)N1Cc2ccccc2C[C@H]1C(=O)NCCCCCCNC(=O)c1ccc(-c2c3nc(c(-c4ccccc4)c4ccc([nH]4)c(-c4ccccc4)c4nc(c(-c5ccccc5)c5ccc2[nH]5)C=C4)C=C3)cc1
REMARK SMILES IDX 21 1 20 2 19 3 17 4 18 5 16 7 7 8 8 9 9 10 15 11 10 12 14 13
REMARK SMILES IDX 11 14 13 15 12 16 5 17 6 18 4 19 3 20 2 21 1 22 22 23 23 24
REMARK SMILES IDX 24 25 25 26 26 27 27 28 28 30 29 31 30 32 76 33 31 34 75 35
REMARK SMILES IDX 32 36 33 37 34 38 69 39 35 40 74 41 68 42 70 43 36 44 73 45
REMARK SMILES IDX 67 46 66 47 37 49 59 50 44 51 58 52 45 53 48 54 57 55 71 56
REMARK SMILES IDX 46 57 47 58 56 60 72 61 49 62 38 63 39 64 43 65 40 66 42 67
REMARK SMILES IDX 41 68 60 69 61 70 65 71 62 72 64 73 63 74 50 75 51 76 55 77
REMARK SMILES IDX 52 78 54 79 53 80
REMARK H PARENT 19 6 26 29 70 48 48 59
REMARK Flexibility Score: inf
ROOT
ATOM      1  C   UNL     1      -2.815   0.612   1.999  1.00  0.00     0.021 C 
ENDROOT
BRANCH   1   2
ATOM      2  C   UNL     1      -2.551  -0.116   0.687  1.00  0.00     0.116 C 
BRANCH   2   3
ATOM      3  N   UNL     1      -1.786   0.670  -0.252  1.00  0.00    -0.354 N 
ATOM      4  C   UNL     1      -0.556   0.428  -0.780  1.00  0.00     0.243 C 
ATOM      5  O   UNL     1      -0.244   1.067  -1.788  1.00  0.00    -0.273 OA
ATOM      6  H   UNL     1      -2.218   1.502  -0.554  1.00  0.00     0.163 HD
BRANCH   4   7
ATOM      7  C   UNL     1       0.291  -0.757  -0.291  1.00  0.00     0.179 C 
ATOM      8  N   UNL     1       0.403  -1.017   1.178  1.00  0.00    -0.326 N 
ATOM      9  C   UNL     1       0.286  -2.408   1.649  1.00  0.00     0.156 C 
ATOM     10  C   UNL     1       0.599  -3.475   0.633  1.00  0.00    -0.025 A 
ATOM     11  C   UNL     1      -0.264  -1.941  -1.119  1.00  0.00     0.071 C 
ATOM     12  C   UNL     1       1.059  -4.735   1.037  1.00  0.00     0.006 A 
ATOM     13  C   UNL     1       0.325  -3.255  -0.720  1.00  0.00    -0.040 A 
ATOM     14  C   UNL     1       1.257  -5.751   0.101  1.00  0.00     0.000 A 
ATOM     15  C   UNL     1       0.512  -4.278  -1.657  1.00  0.00     0.004 A 
ATOM     16  C   UNL     1       0.985  -5.522  -1.246  1.00  0.00     0.000 A 
BRANCH   8  17
ATOM     17  C   UNL     1       0.986  -0.119   2.078  1.00  0.00     0.225 C 
ATOM     18  O   UNL     1       1.596  -0.505   3.081  1.00  0.00    -0.275 OA
BRANCH  17  19
ATOM     19  C   UNL     1       0.744   1.372   1.935  1.00  0.00     0.128 C 
BRANCH  19  20
ATOM     20  C   UNL     1       1.934   2.157   1.431  1.00  0.00     0.169 C 
BRANCH  20  21
ATOM     21  O   UNL     1       2.065   1.974   0.027  1.00  0.00    -0.384 OA
ATOM     22  C   UNL     1       3.242   1.264  -0.326  1.00  0.00     0.194 C 
ENDBRANCH  20  21
ENDBRANCH  19  20
ENDBRANCH  17  19
ENDBRANCH   8  17
ENDBRANCH   4   7
ENDBRANCH   2   3
ENDBRANCH   1   2
BRANCH   1  23
ATOM     23  C   UNL     1      -3.446   1.998   1.838  1.00  0.00     0.002 C 
BRANCH  23  24
ATOM     24  C   UNL     1      -4.677   2.046   0.926  1.00  0.00     0.002 C 
BRANCH  24  25
ATOM     25  C   UNL     1      -5.747   1.000   1.233  1.00  0.00     0.021 C 
BRANCH  25  26
ATOM     26  C   UNL     1      -6.229   1.013   2.672  1.00  0.00     0.116 C 
BRANCH  26  27
ATOM     27  N   UNL     1      -6.932   2.241   2.988  1.00  0.00    -0.352 N 
ATOM     28  C   UNL     1      -8.182   2.378   3.526  1.00  0.00     0.251 C 
ATOM     29  H   UNL     1      -6.452   3.078   2.791  1.00  0.00     0.163 HD
ATOM     30  O   UNL     1      -8.749   3.470   3.529  1.00  0.00    -0.269 OA
BRANCH  28  31
ATOM     31  C   UNL     1      -8.851   1.192   4.093  1.00  0.00     0.039 A 
ATOM     32  C   UNL     1     -10.193   0.960   3.790  1.00  0.00     0.014 A 
ATOM     33  C   UNL     1      -8.146   0.308   4.919  1.00  0.00     0.014 A 
ATOM     34  C   UNL     1     -10.826  -0.170   4.305  1.00  0.00     0.010 A 
ATOM     35  C   UNL     1      -8.751  -0.863   5.352  1.00  0.00     0.010 A 
ATOM     36  C   UNL     1     -10.107  -1.094   5.082  1.00  0.00    -0.014 A 
BRANCH  36  37
ATOM     37  C   UNL     1     -10.778  -2.271   5.682  1.00  0.00     0.031 A 
ATOM     38  C   UNL     1     -10.876  -2.389   7.179  1.00  0.00     0.074 A 
ATOM     39  C   UNL     1     -11.263  -3.245   4.892  1.00  0.00     0.049 A 
ATOM     40  N   UNL     1     -11.406  -3.344   7.900  1.00  0.00    -0.248 NA
ATOM     41  C   UNL     1     -10.268  -1.307   7.971  1.00  0.00     0.031 C 
ATOM     42  C   UNL     1     -11.189  -3.267   3.430  1.00  0.00     0.029 A 
ATOM     43  N   UNL     1     -11.915  -4.408   5.212  1.00  0.00    -0.354 N 
ATOM     44  C   UNL     1     -11.178  -2.986   9.223  1.00  0.00     0.074 A 
ATOM     45  C   UNL     1     -10.402  -1.766   9.204  1.00  0.00     0.031 C 
ATOM     46  C   UNL     1     -11.803  -4.372   2.978  1.00  0.00     0.029 A 
ATOM     47  C   UNL     1     -12.279  -5.151   4.117  1.00  0.00     0.049 A 
ATOM     48  H   UNL     1     -12.103  -4.683   6.138  1.00  0.00     0.167 HD
ATOM     49  C   UNL     1     -11.597  -3.599  10.355  1.00  0.00     0.031 A 
ATOM     50  C   UNL     1     -12.928  -6.328   4.041  1.00  0.00     0.031 A 
ATOM     51  C   UNL     1     -12.373  -4.810  10.370  1.00  0.00     0.049 A 
ATOM     52  C   UNL     1     -13.389  -6.994   5.307  1.00  0.00     0.074 A 
ATOM     53  C   UNL     1     -12.893  -5.489  11.457  1.00  0.00     0.029 A 
ATOM     54  N   UNL     1     -12.735  -5.525   9.238  1.00  0.00    -0.354 N 
ATOM     55  N   UNL     1     -13.227  -6.609   6.550  1.00  0.00    -0.248 NA
ATOM     56  C   UNL     1     -14.142  -8.246   5.156  1.00  0.00     0.031 C 
ATOM     57  C   UNL     1     -13.524  -6.646  10.985  1.00  0.00     0.029 A 
ATOM     58  C   UNL     1     -13.456  -6.651   9.601  1.00  0.00     0.049 A 
ATOM     59  H   UNL     1     -12.513  -5.270   8.313  1.00  0.00     0.167 HD
ATOM     60  C   UNL     1     -13.886  -7.552   7.328  1.00  0.00     0.074 A 
ATOM     61  C   UNL     1     -14.459  -8.520   6.414  1.00  0.00     0.031 C 
ATOM     62  C   UNL     1     -14.013  -7.607   8.678  1.00  0.00     0.031 A 
BRANCH  49  63
ATOM     63  C   UNL     1     -11.200  -2.969  11.663  1.00  0.00    -0.014 A 
ATOM     64  C   UNL     1     -11.697  -1.713  12.052  1.00  0.00     0.009 A 
ATOM     65  C   UNL     1     -10.304  -3.633  12.514  1.00  0.00     0.009 A 
ATOM     66  C   UNL     1     -11.259  -1.111  13.234  1.00  0.00     0.001 A 
ATOM     67  C   UNL     1      -9.896  -3.045  13.713  1.00  0.00     0.001 A 
ATOM     68  C   UNL     1     -10.361  -1.779  14.065  1.00  0.00     0.000 A 
ENDBRANCH  49  63
BRANCH  50  69
ATOM     69  C   UNL     1     -13.208  -6.927   2.710  1.00  0.00    -0.014 A 
ATOM     70  C   UNL     1     -14.513  -6.945   2.195  1.00  0.00     0.009 A 
ATOM     71  C   UNL     1     -12.165  -7.460   1.936  1.00  0.00     0.009 A 
ATOM     72  C   UNL     1     -14.771  -7.502   0.941  1.00  0.00     0.001 A 
ATOM     73  C   UNL     1     -12.422  -7.990   0.670  1.00  0.00     0.001 A 
ATOM     74  C   UNL     1     -13.725  -8.018   0.177  1.00  0.00     0.000 A 
ENDBRANCH  50  69
BRANCH  62  75
ATOM     75  C   UNL     1     -14.841  -8.727   9.244  1.00  0.00    -0.014 A 
ATOM     76  C   UNL     1     -14.398 -10.059   9.217  1.00  0.00     0.009 A 
ATOM     77  C   UNL     1     -16.076  -8.434   9.846  1.00  0.00     0.009 A 
ATOM     78  C   UNL     1     -15.195 -11.078   9.744  1.00  0.00     0.001 A 
ATOM     79  C   UNL     1     -16.853  -9.450  10.402  1.00  0.00     0.001 A 
ATOM     80  C   UNL     1     -16.418 -10.773  10.340  1.00  0.00     0.000 A 
ENDBRANCH  62  75
ENDBRANCH  36  37
ENDBRANCH  28  31
ENDBRANCH  26  27
ENDBRANCH  25  26
ENDBRANCH  24  25
ENDBRANCH  23  24
ENDBRANCH   1  23
TORSDOF 17
