REMARK SMILES CC[C@](C)(NC(=O)N(C)Cc1cccc(C)c1)C(=O)NCCCCCCNC(=O)c1ccc(-c2c3nc(c(-c4ccccc4)c4ccc([nH]4)c(-c4ccccc4)c4nc(c(-c5ccccc5)c5ccc2[nH]5)C=C4)C=C3)cc1
REMARK SMILES IDX 22 1 21 2 20 3 18 4 19 5 3 7 4 8 2 9 1 10 5 11 6 12 7 14
REMARK SMILES IDX 8 15 9 16 10 17 11 18 12 19 17 20 13 21 15 22 14 23 16 24
REMARK SMILES IDX 23 25 24 26 25 27 26 28 27 29 28 30 29 32 30 33 31 34 77 35
REMARK SMILES IDX 32 36 76 37 33 38 34 39 35 40 70 41 36 42 75 43 69 44 71 45
REMARK SMILES IDX 37 46 74 47 68 48 67 49 38 51 60 52 45 53 59 54 46 55 49 56
REMARK SMILES IDX 58 57 72 58 47 59 48 60 57 62 73 63 50 64 39 65 40 66 44 67
REMARK SMILES IDX 41 68 43 69 42 70 61 71 62 72 66 73 63 74 65 75 64 76 51 77
REMARK SMILES IDX 52 78 56 79 53 80 55 81 54 82
REMARK H PARENT 20 6 5 13 27 31 71 50 49 61
REMARK Flexibility Score: inf
ROOT
ATOM      1  C   UNL     1       2.896   4.618   3.911  1.00  0.00     0.021 C 
ENDROOT
BRANCH   1   2
ATOM      2  C   UNL     1       2.180   4.452   2.568  1.00  0.00     0.116 C 
BRANCH   2   3
ATOM      3  N   UNL     1       2.756   3.456   1.684  1.00  0.00    -0.354 N 
ATOM      4  C   UNL     1       2.332   2.216   1.300  1.00  0.00     0.245 C 
ATOM      5  O   UNL     1       3.006   1.657   0.427  1.00  0.00    -0.272 OA
ATOM      6  H   UNL     1       3.615   3.725   1.286  1.00  0.00     0.163 HD
BRANCH   4   7
ATOM      7  C   UNL     1       1.007   1.589   1.819  1.00  0.00     0.117 C 
ATOM      8  C   UNL     1       0.868   0.093   1.480  1.00  0.00     0.045 C 
BRANCH   7   9
ATOM      9  C   UNL     1      -0.151   2.355   1.088  1.00  0.00     0.035 C 
ATOM     10  C   UNL     1      -0.220   2.166  -0.426  1.00  0.00     0.007 C 
ENDBRANCH   7   9
BRANCH   7  11
ATOM     11  N   UNL     1       0.816   1.772   3.276  1.00  0.00    -0.324 N 
ATOM     12  C   UNL     1       1.437   1.474   4.426  1.00  0.00     0.318 C 
ATOM     13  H   UNL     1      -0.020   2.261   3.453  1.00  0.00     0.166 HD
ATOM     14  O   UNL     1       0.721   1.645   5.421  1.00  0.00    -0.249 OA
BRANCH  12  15
ATOM     15  N   UNL     1       2.749   1.119   4.540  1.00  0.00    -0.324 N 
ATOM     16  C   UNL     1       3.718   0.843   3.486  1.00  0.00     0.149 C 
BRANCH  15  17
ATOM     17  C   UNL     1       3.320   1.153   5.901  1.00  0.00     0.156 C 
BRANCH  17  18
ATOM     18  C   UNL     1       3.972  -0.146   6.320  1.00  0.00    -0.028 A 
ATOM     19  C   UNL     1       5.063  -0.136   7.197  1.00  0.00     0.005 A 
ATOM     20  C   UNL     1       3.519  -1.373   5.811  1.00  0.00     0.009 A 
ATOM     21  C   UNL     1       5.727  -1.324   7.503  1.00  0.00     0.001 A 
ATOM     22  C   UNL     1       4.221  -2.555   6.055  1.00  0.00    -0.051 A 
ATOM     23  C   UNL     1       5.318  -2.525   6.920  1.00  0.00     0.003 A 
ATOM     24  C   UNL     1       3.795  -3.826   5.386  1.00  0.00     0.044 C 
ENDBRANCH  17  18
ENDBRANCH  15  17
ENDBRANCH  12  15
ENDBRANCH   7  11
ENDBRANCH   4   7
ENDBRANCH   2   3
ENDBRANCH   1   2
BRANCH   1  25
ATOM     25  C   UNL     1       4.425   4.708   3.890  1.00  0.00     0.002 C 
BRANCH  25  26
ATOM     26  C   UNL     1       5.043   5.767   2.973  1.00  0.00     0.002 C 
BRANCH  26  27
ATOM     27  C   UNL     1       4.417   7.157   3.043  1.00  0.00     0.021 C 
BRANCH  27  28
ATOM     28  C   UNL     1       4.518   7.817   4.406  1.00  0.00     0.116 C 
BRANCH  28  29
ATOM     29  N   UNL     1       5.710   8.633   4.574  1.00  0.00    -0.352 N 
ATOM     30  C   UNL     1       6.113   9.421   5.625  1.00  0.00     0.251 C 
ATOM     31  H   UNL     1       6.330   8.619   3.810  1.00  0.00     0.163 HD
ATOM     32  O   UNL     1       7.073  10.157   5.470  1.00  0.00    -0.269 OA
BRANCH  30  33
ATOM     33  C   UNL     1       5.511   9.274   6.987  1.00  0.00     0.039 A 
ATOM     34  C   UNL     1       6.353   9.541   8.079  1.00  0.00     0.014 A 
ATOM     35  C   UNL     1       4.262   8.703   7.217  1.00  0.00     0.014 A 
ATOM     36  C   UNL     1       6.058   9.009   9.330  1.00  0.00     0.010 A 
ATOM     37  C   UNL     1       4.005   8.101   8.428  1.00  0.00     0.010 A 
ATOM     38  C   UNL     1       4.942   8.192   9.456  1.00  0.00    -0.014 A 
BRANCH  38  39
ATOM     39  C   UNL     1       4.710   7.303  10.579  1.00  0.00     0.031 A 
ATOM     40  C   UNL     1       3.777   7.689  11.646  1.00  0.00     0.074 A 
ATOM     41  C   UNL     1       5.294   6.087  10.571  1.00  0.00     0.049 A 
ATOM     42  N   UNL     1       3.774   7.161  12.821  1.00  0.00    -0.248 NA
ATOM     43  C   UNL     1       2.818   8.779  11.497  1.00  0.00     0.031 C 
ATOM     44  C   UNL     1       4.979   4.929  11.400  1.00  0.00     0.029 A 
ATOM     45  N   UNL     1       6.473   5.735   9.927  1.00  0.00    -0.354 N 
ATOM     46  C   UNL     1       2.640   7.600  13.460  1.00  0.00     0.074 A 
ATOM     47  C   UNL     1       2.168   8.706  12.663  1.00  0.00     0.031 C 
ATOM     48  C   UNL     1       6.033   4.095  11.399  1.00  0.00     0.029 A 
ATOM     49  C   UNL     1       7.122   4.774  10.712  1.00  0.00     0.049 A 
ATOM     50  H   UNL     1       6.795   6.097   9.070  1.00  0.00     0.167 HD
ATOM     51  C   UNL     1       2.150   6.869  14.498  1.00  0.00     0.031 A 
ATOM     52  C   UNL     1       8.333   5.053  11.280  1.00  0.00     0.031 A 
ATOM     53  C   UNL     1       3.093   5.827  14.908  1.00  0.00     0.049 A 
ATOM     54  C   UNL     1       8.306   5.051  12.794  1.00  0.00     0.074 A 
ATOM     55  C   UNL     1       3.134   4.456  14.715  1.00  0.00     0.029 A 
ATOM     56  N   UNL     1       4.353   6.197  15.369  1.00  0.00    -0.354 N 
ATOM     57  N   UNL     1       7.222   5.172  13.509  1.00  0.00    -0.248 NA
ATOM     58  C   UNL     1       9.506   4.936  13.620  1.00  0.00     0.031 C 
ATOM     59  C   UNL     1       4.461   4.018  14.979  1.00  0.00     0.029 A 
ATOM     60  C   UNL     1       5.209   5.114  15.375  1.00  0.00     0.049 A 
ATOM     61  H   UNL     1       4.600   7.107  15.652  1.00  0.00     0.167 HD
ATOM     62  C   UNL     1       7.542   5.150  14.842  1.00  0.00     0.074 A 
ATOM     63  C   UNL     1       8.985   4.991  14.859  1.00  0.00     0.031 C 
ATOM     64  C   UNL     1       6.591   5.273  15.815  1.00  0.00     0.031 A 
BRANCH  51  65
ATOM     65  C   UNL     1       0.715   6.922  14.979  1.00  0.00    -0.014 A 
ATOM     66  C   UNL     1       0.255   5.945  15.882  1.00  0.00     0.009 A 
ATOM     67  C   UNL     1      -0.261   7.824  14.517  1.00  0.00     0.009 A 
ATOM     68  C   UNL     1      -1.094   5.851  16.259  1.00  0.00     0.001 A 
ATOM     69  C   UNL     1      -1.608   7.746  14.896  1.00  0.00     0.001 A 
ATOM     70  C   UNL     1      -2.028   6.750  15.760  1.00  0.00     0.000 A 
ENDBRANCH  51  65
BRANCH  52  71
ATOM     71  C   UNL     1       9.178   5.964  10.453  1.00  0.00    -0.014 A 
ATOM     72  C   UNL     1       9.655   5.488   9.214  1.00  0.00     0.009 A 
ATOM     73  C   UNL     1       9.178   7.348  10.681  1.00  0.00     0.009 A 
ATOM     74  C   UNL     1      10.003   6.376   8.191  1.00  0.00     0.001 A 
ATOM     75  C   UNL     1       9.542   8.233   9.657  1.00  0.00     0.001 A 
ATOM     76  C   UNL     1       9.915   7.749   8.403  1.00  0.00     0.000 A 
ENDBRANCH  52  71
BRANCH  64  77
ATOM     77  C   UNL     1       6.842   5.502  17.288  1.00  0.00    -0.014 A 
ATOM     78  C   UNL     1       8.041   5.985  17.828  1.00  0.00     0.009 A 
ATOM     79  C   UNL     1       5.764   5.351  18.192  1.00  0.00     0.009 A 
ATOM     80  C   UNL     1       8.169   6.261  19.198  1.00  0.00     0.001 A 
ATOM     81  C   UNL     1       5.871   5.672  19.548  1.00  0.00     0.001 A 
ATOM     82  C   UNL     1       7.082   6.116  20.054  1.00  0.00     0.000 A 
ENDBRANCH  64  77
ENDBRANCH  38  39
ENDBRANCH  30  33
ENDBRANCH  28  29
ENDBRANCH  27  28
ENDBRANCH  26  27
ENDBRANCH  25  26
ENDBRANCH   1  25
TORSDOF 18
