REMARK SMILES O=C(NCCCCCCNC(=O)c1cccc(S(=O)(=O)NC[C@@H]2COc3ccccc3O2)c1)c1ccc(-c2c3nc(c(-c4ccccc4)c4ccc([nH]4)c(-c4ccccc4)c4nc(c(-c5ccccc5)c5ccc2[nH]5)C=C4)C=C3)cc1
REMARK SMILES IDX 7 1 6 2 5 3 4 4 3 5 1 6 2 7 34 9 35 10 81 11 36 12 80 13
REMARK SMILES IDX 37 14 38 15 39 16 74 17 40 18 79 19 73 20 75 21 41 22 78 23
REMARK SMILES IDX 72 24 71 25 42 27 64 28 49 29 63 30 50 31 53 32 62 33 76 34
REMARK SMILES IDX 51 35 52 36 61 38 77 39 54 40 43 41 44 42 48 43 45 44 47 45
REMARK SMILES IDX 46 46 65 47 66 48 70 49 67 50 69 51 68 52 55 53 56 54 60 55
REMARK SMILES IDX 57 56 59 57 58 58 8 59 9 60 10 61 11 62 12 64 13 65 14 66
REMARK SMILES IDX 33 67 15 68 17 69 16 70 18 71 19 72 20 73 21 74 22 76 23 77
REMARK SMILES IDX 24 78 32 79 25 80 31 81 26 82 30 83 27 84 29 85 28 86
REMARK H PARENT 3 8 75 26 53 37 10 63 21 75
REMARK Flexibility Score: inf
ROOT
ATOM      1  C   UNL     1       4.732  -2.640   3.431  1.00  0.00     0.002 C 
ENDROOT
BRANCH   1   2
ATOM      2  C   UNL     1       4.239  -1.212   3.681  1.00  0.00     0.002 C 
BRANCH   2   3
ATOM      3  C   UNL     1       4.682  -0.164   2.659  1.00  0.00     0.021 C 
BRANCH   3   4
ATOM      4  C   UNL     1       4.403  -0.509   1.200  1.00  0.00     0.116 C 
BRANCH   4   5
ATOM      5  N   UNL     1       2.986  -0.642   0.916  1.00  0.00    -0.352 N 
ATOM      6  O   UNL     1       1.011  -0.155  -0.054  1.00  0.00    -0.269 OA
ATOM      7  C   UNL     1       2.231  -0.026  -0.050  1.00  0.00     0.251 C 
ATOM      8  H   UNL     1       2.495  -1.263   1.502  1.00  0.00     0.163 HD
BRANCH   7   9
ATOM      9  C   UNL     1       2.882   0.818  -1.075  1.00  0.00     0.039 A 
ATOM     10  C   UNL     1       4.013   0.377  -1.770  1.00  0.00     0.014 A 
ATOM     11  C   UNL     1       2.319   2.064  -1.367  1.00  0.00     0.014 A 
ATOM     12  C   UNL     1       4.639   1.222  -2.685  1.00  0.00     0.010 A 
ATOM     13  C   UNL     1       2.914   2.886  -2.325  1.00  0.00     0.010 A 
ATOM     14  C   UNL     1       4.090   2.480  -2.976  1.00  0.00    -0.014 A 
BRANCH  14  15
ATOM     15  C   UNL     1       4.705   3.351  -4.005  1.00  0.00     0.031 A 
ATOM     16  C   UNL     1       5.337   4.659  -3.628  1.00  0.00     0.074 A 
ATOM     17  C   UNL     1       4.646   2.979  -5.297  1.00  0.00     0.049 A 
ATOM     18  N   UNL     1       5.840   5.586  -4.404  1.00  0.00    -0.248 NA
ATOM     19  C   UNL     1       5.404   4.972  -2.192  1.00  0.00     0.031 C 
ATOM     20  C   UNL     1       4.051   1.735  -5.790  1.00  0.00     0.029 A 
ATOM     21  N   UNL     1       5.076   3.618  -6.432  1.00  0.00    -0.354 N 
ATOM     22  C   UNL     1       6.259   6.602  -3.556  1.00  0.00     0.074 A 
ATOM     23  C   UNL     1       5.939   6.185  -2.207  1.00  0.00     0.031 C 
ATOM     24  C   UNL     1       4.155   1.701  -7.127  1.00  0.00     0.029 A 
ATOM     25  C   UNL     1       4.774   2.940  -7.586  1.00  0.00     0.049 A 
ATOM     26  H   UNL     1       5.554   4.479  -6.419  1.00  0.00     0.167 HD
ATOM     27  C   UNL     1       6.854   7.777  -3.874  1.00  0.00     0.031 A 
ATOM     28  C   UNL     1       4.943   3.287  -8.875  1.00  0.00     0.031 A 
ATOM     29  C   UNL     1       7.167   8.191  -5.217  1.00  0.00     0.049 A 
ATOM     30  C   UNL     1       5.573   4.606  -9.207  1.00  0.00     0.074 A 
ATOM     31  C   UNL     1       7.814   9.341  -5.636  1.00  0.00     0.029 A 
ATOM     32  N   UNL     1       6.846   7.474  -6.359  1.00  0.00    -0.354 N 
ATOM     33  N   UNL     1       6.006   5.537  -8.392  1.00  0.00    -0.248 NA
ATOM     34  C   UNL     1       5.740   4.922 -10.631  1.00  0.00     0.031 C 
ATOM     35  C   UNL     1       7.841   9.342  -7.035  1.00  0.00     0.029 A 
ATOM     36  C   UNL     1       7.254   8.169  -7.484  1.00  0.00     0.049 A 
ATOM     37  H   UNL     1       6.394   6.599  -6.368  1.00  0.00     0.167 HD
ATOM     38  C   UNL     1       6.512   6.543  -9.203  1.00  0.00     0.074 A 
ATOM     39  C   UNL     1       6.340   6.104 -10.573  1.00  0.00     0.031 C 
ATOM     40  C   UNL     1       7.073   7.722  -8.841  1.00  0.00     0.031 A 
BRANCH  27  41
ATOM     41  C   UNL     1       7.170   8.717  -2.746  1.00  0.00    -0.014 A 
ATOM     42  C   UNL     1       8.217   8.456  -1.848  1.00  0.00     0.009 A 
ATOM     43  C   UNL     1       6.421   9.895  -2.593  1.00  0.00     0.009 A 
ATOM     44  C   UNL     1       8.483   9.338  -0.797  1.00  0.00     0.001 A 
ATOM     45  C   UNL     1       6.704  10.786  -1.556  1.00  0.00     0.001 A 
ATOM     46  C   UNL     1       7.728  10.502  -0.653  1.00  0.00     0.000 A 
ENDBRANCH  27  41
BRANCH  28  47
ATOM     47  C   UNL     1       4.480   2.361  -9.938  1.00  0.00    -0.014 A 
ATOM     48  C   UNL     1       5.400   1.599 -10.672  1.00  0.00     0.009 A 
ATOM     49  C   UNL     1       3.107   2.192 -10.179  1.00  0.00     0.009 A 
ATOM     50  C   UNL     1       4.952   0.687 -11.630  1.00  0.00     0.001 A 
ATOM     51  C   UNL     1       2.662   1.263 -11.121  1.00  0.00     0.001 A 
ATOM     52  C   UNL     1       3.585   0.514 -11.848  1.00  0.00     0.000 A 
ENDBRANCH  28  47
BRANCH  40  53
ATOM     53  C   UNL     1       7.570   8.613  -9.942  1.00  0.00    -0.014 A 
ATOM     54  C   UNL     1       6.682   9.377 -10.713  1.00  0.00     0.009 A 
ATOM     55  C   UNL     1       8.950   8.732 -10.168  1.00  0.00     0.009 A 
ATOM     56  C   UNL     1       7.168  10.233 -11.703  1.00  0.00     0.001 A 
ATOM     57  C   UNL     1       9.433   9.604 -11.144  1.00  0.00     0.001 A 
ATOM     58  C   UNL     1       8.542  10.350 -11.914  1.00  0.00     0.000 A 
ENDBRANCH  40  53
ENDBRANCH  14  15
ENDBRANCH   7   9
ENDBRANCH   4   5
ENDBRANCH   3   4
ENDBRANCH   2   3
ENDBRANCH   1   2
BRANCH   1  59
ATOM     59  C   UNL     1       6.240  -2.804   3.213  1.00  0.00     0.021 C 
BRANCH  59  60
ATOM     60  C   UNL     1       7.128  -2.278   4.337  1.00  0.00     0.116 C 
BRANCH  60  61
ATOM     61  N   UNL     1       6.912  -3.003   5.575  1.00  0.00    -0.352 N 
ATOM     62  C   UNL     1       7.801  -3.668   6.378  1.00  0.00     0.251 C 
ATOM     63  H   UNL     1       5.978  -3.021   5.887  1.00  0.00     0.163 HD
ATOM     64  O   UNL     1       7.374  -4.410   7.259  1.00  0.00    -0.269 OA
BRANCH  62  65
ATOM     65  C   UNL     1       9.264  -3.459   6.261  1.00  0.00     0.041 A 
ATOM     66  C   UNL     1      10.131  -4.520   6.537  1.00  0.00     0.014 A 
ATOM     67  C   UNL     1       9.787  -2.183   6.063  1.00  0.00     0.035 A 
ATOM     68  C   UNL     1      11.512  -4.301   6.602  1.00  0.00     0.002 A 
ATOM     69  C   UNL     1      11.155  -1.952   6.196  1.00  0.00     0.083 A 
ATOM     70  C   UNL     1      12.027  -3.011   6.449  1.00  0.00     0.022 A 
BRANCH  69  71
ATOM     71  S   UNL     1      11.787  -0.295   6.123  1.00  0.00     0.240 S 
ATOM     72  O   UNL     1      12.324   0.040   7.420  1.00  0.00    -0.207 OA
ATOM     73  O   UNL     1      12.561  -0.203   4.907  1.00  0.00    -0.207 OA
BRANCH  71  74
ATOM     74  N   UNL     1      10.405   0.652   5.847  1.00  0.00    -0.207 NA
ATOM     75  H   UNL     1       9.678   0.021   5.511  1.00  0.00     0.141 HD
BRANCH  74  76
ATOM     76  C   UNL     1       9.806   1.442   6.961  1.00  0.00     0.147 C 
BRANCH  76  77
ATOM     77  C   UNL     1       9.288   0.628   8.165  1.00  0.00     0.226 C 
ATOM     78  C   UNL     1       7.864   0.085   8.005  1.00  0.00     0.276 C 
ATOM     79  O   UNL     1       9.380   1.444   9.351  1.00  0.00    -0.482 OA
ATOM     80  O   UNL     1       6.905   1.136   7.880  1.00  0.00    -0.486 OA
ATOM     81  C   UNL     1       8.241   2.151   9.633  1.00  0.00     0.161 A 
ATOM     82  C   UNL     1       7.046   2.011   8.923  1.00  0.00     0.161 A 
ATOM     83  C   UNL     1       8.307   3.036  10.705  1.00  0.00     0.050 A 
ATOM     84  C   UNL     1       5.930   2.773   9.258  1.00  0.00     0.050 A 
ATOM     85  C   UNL     1       7.184   3.786  11.059  1.00  0.00     0.004 A 
ATOM     86  C   UNL     1       5.997   3.656  10.335  1.00  0.00     0.004 A 
ENDBRANCH  76  77
ENDBRANCH  74  76
ENDBRANCH  71  74
ENDBRANCH  69  71
ENDBRANCH  62  65
ENDBRANCH  60  61
ENDBRANCH  59  60
ENDBRANCH   1  59
TORSDOF 17
