REMARK SMILES Cc1ccc(-c2nn(-c3ccccc3)cc2[C@@H]2[NH2+][C@H](C(=O)NCCCCCCNC(=O)c3ccc(-c4c5nc(c(-c6ccccc6)c6ccc([nH]6)c(-c6ccccc6)c6nc(c(-c7ccccc7)c7ccc4[nH]7)C=C6)C=C5)cc3)CS2)cc1
REMARK SMILES IDX 25 1 24 2 23 3 22 4 20 5 21 6 19 8 17 9 18 10 81 11 80 14
REMARK SMILES IDX 16 15 6 16 7 17 8 18 15 19 5 20 1 21 2 22 3 23 83 24 4 25
REMARK SMILES IDX 82 26 9 27 10 28 14 29 11 30 13 31 12 32 26 33 27 34 28 35
REMARK SMILES IDX 29 36 30 37 31 39 32 40 33 41 79 42 34 43 78 44 35 45 36 46
REMARK SMILES IDX 37 47 72 48 38 49 77 50 71 51 73 52 39 53 76 54 70 55 69 56
REMARK SMILES IDX 40 58 62 59 47 60 61 61 48 62 51 63 60 64 74 65 49 66 50 67
REMARK SMILES IDX 59 69 75 70 52 71 41 72 42 73 46 74 43 75 45 76 44 77 63 78
REMARK SMILES IDX 64 79 68 80 65 81 67 82 66 83 53 84 54 85 58 86 55 87 57 88
REMARK SMILES IDX 56 89
REMARK H PARENT 22 7 18 12 18 13 29 38 73 57 51 68
REMARK Flexibility Score: inf
ROOT
ATOM      1  C   UNL     1      -4.739  -1.360  -3.505  1.00  0.00     0.002 C 
ENDROOT
BRANCH   1   2
ATOM      2  C   UNL     1      -4.320  -2.093  -2.198  1.00  0.00     0.021 C 
BRANCH   2   3
ATOM      3  C   UNL     1      -4.945  -1.813  -0.829  1.00  0.00     0.116 C 
BRANCH   3   4
ATOM      4  N   UNL     1      -5.855  -2.823  -0.302  1.00  0.00    -0.351 N 
ATOM      5  C   UNL     1      -6.157  -3.220   0.971  1.00  0.00     0.279 C 
ATOM      6  O   UNL     1      -7.188  -3.908   1.071  1.00  0.00    -0.268 OA
ATOM      7  H   UNL     1      -6.348  -3.315  -0.999  1.00  0.00     0.163 HD
BRANCH   5   8
ATOM      8  C   UNL     1      -5.353  -2.961   2.278  1.00  0.00     0.283 C 
ATOM      9  C   UNL     1      -4.058  -1.002   2.878  1.00  0.00     0.278 C 
ATOM     10  N   UNL     1      -4.045  -2.276   2.151  1.00  0.00    -0.320 N 
ATOM     11  S   UNL     1      -5.129  -1.256   4.304  1.00  0.00    -0.087 SA
ATOM     12  H   UNL     1      -3.314  -2.874   2.536  1.00  0.00     0.348 HD
ATOM     13  H   UNL     1      -3.866  -2.090   1.164  1.00  0.00     0.348 HD
ATOM     14  C   UNL     1      -6.235  -2.341   3.371  1.00  0.00     0.151 C 
BRANCH   9  15
ATOM     15  C   UNL     1      -4.518   0.070   1.944  1.00  0.00     0.067 A 
ATOM     16  C   UNL     1      -3.748   0.805   0.968  1.00  0.00     0.103 A 
ATOM     17  N   UNL     1      -4.537   1.699   0.323  1.00  0.00    -0.167 NA
ATOM     18  N   UNL     1      -5.799   1.392   0.718  1.00  0.00    -0.240 N 
ATOM     19  C   UNL     1      -5.805   0.536   1.775  1.00  0.00     0.126 A 
BRANCH  16  20
ATOM     20  C   UNL     1      -2.313   0.639   0.625  1.00  0.00     0.003 A 
ATOM     21  C   UNL     1       1.931   0.132  -0.197  1.00  0.00     0.044 C 
ATOM     22  C   UNL     1       0.464   0.323   0.057  1.00  0.00    -0.051 A 
ATOM     23  C   UNL     1      -0.341  -0.788   0.286  1.00  0.00     0.004 A 
ATOM     24  C   UNL     1      -0.133   1.590   0.064  1.00  0.00     0.004 A 
ATOM     25  C   UNL     1      -1.702  -0.626   0.567  1.00  0.00     0.011 A 
ATOM     26  C   UNL     1      -1.506   1.745   0.337  1.00  0.00     0.011 A 
ENDBRANCH  16  20
BRANCH  18  27
ATOM     27  C   UNL     1      -6.954   1.714  -0.034  1.00  0.00     0.065 A 
ATOM     28  C   UNL     1      -7.765   0.673  -0.525  1.00  0.00     0.028 A 
ATOM     29  C   UNL     1      -7.292   3.042  -0.279  1.00  0.00     0.028 A 
ATOM     30  C   UNL     1      -8.860   0.961  -1.338  1.00  0.00     0.002 A 
ATOM     31  C   UNL     1      -8.445   3.322  -1.020  1.00  0.00     0.002 A 
ATOM     32  C   UNL     1      -9.208   2.288  -1.574  1.00  0.00     0.000 A 
ENDBRANCH  18  27
ENDBRANCH   9  15
ENDBRANCH   5   8
ENDBRANCH   3   4
ENDBRANCH   2   3
ENDBRANCH   1   2
BRANCH   1  33
ATOM     33  C   UNL     1      -5.830  -0.281  -3.595  1.00  0.00     0.002 C 
BRANCH  33  34
ATOM     34  C   UNL     1      -5.490   1.120  -3.081  1.00  0.00     0.021 C 
BRANCH  34  35
ATOM     35  C   UNL     1      -4.645   2.032  -3.970  1.00  0.00     0.116 C 
BRANCH  35  36
ATOM     36  N   UNL     1      -5.400   2.987  -4.803  1.00  0.00    -0.352 N 
ATOM     37  C   UNL     1      -4.901   3.996  -5.627  1.00  0.00     0.251 C 
ATOM     38  H   UNL     1      -6.380   2.902  -4.773  1.00  0.00     0.163 HD
ATOM     39  O   UNL     1      -5.623   4.713  -6.292  1.00  0.00    -0.269 OA
BRANCH  37  40
ATOM     40  C   UNL     1      -3.428   4.085  -5.768  1.00  0.00     0.039 A 
ATOM     41  C   UNL     1      -2.899   3.627  -6.977  1.00  0.00     0.014 A 
ATOM     42  C   UNL     1      -2.661   4.136  -4.609  1.00  0.00     0.014 A 
ATOM     43  C   UNL     1      -1.722   2.893  -6.943  1.00  0.00     0.010 A 
ATOM     44  C   UNL     1      -1.542   3.328  -4.558  1.00  0.00     0.010 A 
ATOM     45  C   UNL     1      -1.146   2.622  -5.702  1.00  0.00    -0.014 A 
BRANCH  45  46
ATOM     46  C   UNL     1      -0.202   1.531  -5.502  1.00  0.00     0.031 A 
ATOM     47  C   UNL     1       1.232   1.852  -5.359  1.00  0.00     0.074 A 
ATOM     48  C   UNL     1      -0.603   0.237  -5.465  1.00  0.00     0.049 A 
ATOM     49  N   UNL     1       2.188   1.051  -5.691  1.00  0.00    -0.248 NA
ATOM     50  C   UNL     1       1.703   3.158  -4.912  1.00  0.00     0.031 C 
ATOM     51  C   UNL     1       0.220  -0.913  -5.085  1.00  0.00     0.029 A 
ATOM     52  N   UNL     1      -1.768  -0.355  -5.961  1.00  0.00    -0.354 N 
ATOM     53  C   UNL     1       3.353   1.586  -5.199  1.00  0.00     0.074 A 
ATOM     54  C   UNL     1       3.021   2.951  -4.867  1.00  0.00     0.031 C 
ATOM     55  C   UNL     1      -0.298  -2.016  -5.647  1.00  0.00     0.029 A 
ATOM     56  C   UNL     1      -1.375  -1.584  -6.519  1.00  0.00     0.049 A 
ATOM     57  H   UNL     1      -2.680   0.015  -5.926  1.00  0.00     0.167 HD
ATOM     58  C   UNL     1       4.420   0.768  -4.981  1.00  0.00     0.031 A 
ATOM     59  C   UNL     1      -1.499  -1.910  -7.841  1.00  0.00     0.031 A 
ATOM     60  C   UNL     1       4.195  -0.587  -5.496  1.00  0.00     0.049 A 
ATOM     61  C   UNL     1      -0.191  -2.312  -8.512  1.00  0.00     0.074 A 
ATOM     62  C   UNL     1       3.973  -1.825  -4.913  1.00  0.00     0.029 A 
ATOM     63  N   UNL     1       3.918  -0.751  -6.845  1.00  0.00    -0.354 N 
ATOM     64  N   UNL     1       0.973  -2.283  -7.924  1.00  0.00    -0.248 NA
ATOM     65  C   UNL     1      -0.074  -2.654  -9.934  1.00  0.00     0.031 C 
ATOM     66  C   UNL     1       3.586  -2.738  -5.937  1.00  0.00     0.029 A 
ATOM     67  C   UNL     1       3.585  -2.057  -7.139  1.00  0.00     0.049 A 
ATOM     68  H   UNL     1       3.954  -0.025  -7.509  1.00  0.00     0.167 HD
ATOM     69  C   UNL     1       1.964  -2.507  -8.843  1.00  0.00     0.074 A 
ATOM     70  C   UNL     1       1.260  -2.749 -10.088  1.00  0.00     0.031 C 
ATOM     71  C   UNL     1       3.286  -2.413  -8.518  1.00  0.00     0.031 A 
BRANCH  58  72
ATOM     72  C   UNL     1       5.584   1.123  -4.078  1.00  0.00    -0.014 A 
ATOM     73  C   UNL     1       6.419   0.101  -3.588  1.00  0.00     0.009 A 
ATOM     74  C   UNL     1       5.879   2.416  -3.611  1.00  0.00     0.009 A 
ATOM     75  C   UNL     1       7.414   0.343  -2.630  1.00  0.00     0.001 A 
ATOM     76  C   UNL     1       6.857   2.666  -2.639  1.00  0.00     0.001 A 
ATOM     77  C   UNL     1       7.617   1.625  -2.136  1.00  0.00     0.000 A 
ENDBRANCH  58  72
BRANCH  59  78
ATOM     78  C   UNL     1      -2.609  -1.211  -8.538  1.00  0.00    -0.014 A 
ATOM     79  C   UNL     1      -3.933  -1.540  -8.190  1.00  0.00     0.009 A 
ATOM     80  C   UNL     1      -2.372  -0.017  -9.233  1.00  0.00     0.009 A 
ATOM     81  C   UNL     1      -4.974  -0.635  -8.416  1.00  0.00     0.001 A 
ATOM     82  C   UNL     1      -3.419   0.880  -9.467  1.00  0.00     0.001 A 
ATOM     83  C   UNL     1      -4.709   0.589  -9.024  1.00  0.00     0.000 A 
ENDBRANCH  59  78
BRANCH  71  84
ATOM     84  C   UNL     1       4.431  -2.603  -9.481  1.00  0.00    -0.014 A 
ATOM     85  C   UNL     1       4.435  -3.572 -10.492  1.00  0.00     0.009 A 
ATOM     86  C   UNL     1       5.622  -1.864  -9.305  1.00  0.00     0.009 A 
ATOM     87  C   UNL     1       5.554  -3.752 -11.320  1.00  0.00     0.001 A 
ATOM     88  C   UNL     1       6.745  -2.054 -10.112  1.00  0.00     0.001 A 
ATOM     89  C   UNL     1       6.707  -2.994 -11.130  1.00  0.00     0.000 A 
ENDBRANCH  71  84
ENDBRANCH  45  46
ENDBRANCH  37  40
ENDBRANCH  35  36
ENDBRANCH  34  35
ENDBRANCH  33  34
ENDBRANCH   1  33
TORSDOF 16
