REMARK SMILES Cc1cc(C)n(C)c(=O)c1C(=O)N1CCC2(CC1)C[NH2+][C@@H](C(=O)NCCCCCCNC(=O)c1ccc(-c3c4nc(c(-c5ccccc5)c5ccc([nH]5)c(-c5ccccc5)c5nc(c(-c6ccccc6)c6ccc3[nH]6)C=C5)C=C4)cc1)C2
REMARK SMILES IDX 28 1 27 2 26 3 25 4 24 5 22 6 23 7 21 9 11 10 12 11 13 12
REMARK SMILES IDX 14 13 18 14 15 15 17 16 16 17 19 18 82 19 20 20 10 23 1 24
REMARK SMILES IDX 2 25 3 26 4 27 8 28 5 29 6 30 9 31 7 32 29 33 30 34 31 35
REMARK SMILES IDX 32 36 33 38 34 39 35 40 81 41 36 42 80 43 37 44 38 45 39 46
REMARK SMILES IDX 74 47 40 48 79 49 73 50 75 51 41 52 78 53 72 54 71 55 42 57
REMARK SMILES IDX 64 58 49 59 63 60 50 61 53 62 62 63 76 64 51 65 52 66 61 68
REMARK SMILES IDX 77 69 54 70 43 71 44 72 48 73 45 74 47 75 46 76 65 77 66 78
REMARK SMILES IDX 70 79 67 80 69 81 68 82 55 83 56 84 60 85 57 86 59 87 58 88
REMARK H PARENT 24 8 20 21 20 22 31 37 75 56 53 67
REMARK Flexibility Score: inf
ROOT
ATOM      1  C   UNL     1      -2.136  -2.706  -7.617  1.00  0.00     0.002 C 
ENDROOT
BRANCH   1   2
ATOM      2  C   UNL     1      -1.422  -1.356  -7.494  1.00  0.00     0.002 C 
BRANCH   2   3
ATOM      3  C   UNL     1      -0.748  -1.117  -6.141  1.00  0.00     0.021 C 
BRANCH   3   4
ATOM      4  C   UNL     1       0.283  -2.182  -5.778  1.00  0.00     0.116 C 
BRANCH   4   5
ATOM      5  N   UNL     1       1.428  -2.126  -6.665  1.00  0.00    -0.351 N 
ATOM      6  C   UNL     1       2.734  -1.849  -6.385  1.00  0.00     0.278 C 
ATOM      7  O   UNL     1       3.537  -1.840  -7.322  1.00  0.00    -0.268 OA
ATOM      8  H   UNL     1       1.235  -2.317  -7.611  1.00  0.00     0.163 HD
BRANCH   6   9
ATOM      9  C   UNL     1       3.198  -1.541  -4.956  1.00  0.00     0.273 C 
ATOM     10  C   UNL     1       1.735   2.449   0.075  1.00  0.00     0.259 C 
ATOM     11  O   UNL     1       2.561   3.332   0.324  1.00  0.00    -0.269 OA
ATOM     12  N   UNL     1       1.797   1.767  -1.136  1.00  0.00    -0.338 N 
ATOM     13  C   UNL     1       3.061   1.788  -1.856  1.00  0.00     0.120 C 
ATOM     14  C   UNL     1       0.696   1.175  -1.882  1.00  0.00     0.120 C 
ATOM     15  C   UNL     1       3.516   0.353  -2.060  1.00  0.00     0.034 C 
ATOM     16  C   UNL     1       1.023  -0.227  -2.428  1.00  0.00     0.034 C 
ATOM     17  C   UNL     1       2.500  -0.484  -2.866  1.00  0.00     0.029 C 
ATOM     18  C   UNL     1       2.880  -1.978  -2.697  1.00  0.00     0.268 C 
ATOM     19  C   UNL     1       2.672  -0.228  -4.385  1.00  0.00     0.088 C 
ATOM     20  N   UNL     1       2.741  -2.578  -4.013  1.00  0.00    -0.336 N 
ATOM     21  H   UNL     1       1.768  -2.824  -4.194  1.00  0.00     0.346 HD
ATOM     22  H   UNL     1       3.281  -3.439  -4.099  1.00  0.00     0.346 HD
BRANCH  10  23
ATOM     23  C   UNL     1       0.784   2.038   1.169  1.00  0.00     0.108 A 
ATOM     24  C   UNL     1       1.083  -0.495   0.897  1.00  0.00     0.045 C 
ATOM     25  C   UNL     1       0.557   0.754   1.532  1.00  0.00    -0.031 A 
ATOM     26  C   UNL     1      -0.178   0.446   2.741  1.00  0.00     0.026 A 
ATOM     27  C   UNL     1      -0.460   1.379   3.658  1.00  0.00     0.018 A 
ATOM     28  C   UNL     1       0.308   3.121   2.122  1.00  0.00     0.263 A 
ATOM     29  C   UNL     1      -1.092   0.944   4.953  1.00  0.00     0.064 C 
ATOM     30  N   UNL     1      -0.172   2.709   3.381  1.00  0.00    -0.315 N 
ATOM     31  O   UNL     1       0.347   4.306   1.794  1.00  0.00    -0.268 OA
ATOM     32  C   UNL     1      -0.403   3.737   4.388  1.00  0.00     0.153 C 
ENDBRANCH  10  23
ENDBRANCH   6   9
ENDBRANCH   4   5
ENDBRANCH   3   4
ENDBRANCH   2   3
ENDBRANCH   1   2
BRANCH   1  33
ATOM     33  C   UNL     1      -3.190  -2.971  -6.541  1.00  0.00     0.021 C 
BRANCH  33  34
ATOM     34  C   UNL     1      -4.295  -1.923  -6.482  1.00  0.00     0.116 C 
BRANCH  34  35
ATOM     35  N   UNL     1      -5.055  -1.870  -7.721  1.00  0.00    -0.352 N 
ATOM     36  C   UNL     1      -6.397  -2.074  -7.925  1.00  0.00     0.251 C 
ATOM     37  H   UNL     1      -4.533  -1.657  -8.528  1.00  0.00     0.163 HD
ATOM     38  O   UNL     1      -6.842  -2.211  -9.056  1.00  0.00    -0.269 OA
BRANCH  36  39
ATOM     39  C   UNL     1      -7.300  -2.143  -6.759  1.00  0.00     0.039 A 
ATOM     40  C   UNL     1      -8.247  -3.167  -6.697  1.00  0.00     0.014 A 
ATOM     41  C   UNL     1      -7.207  -1.200  -5.731  1.00  0.00     0.014 A 
ATOM     42  C   UNL     1      -9.068  -3.276  -5.575  1.00  0.00     0.010 A 
ATOM     43  C   UNL     1      -7.971  -1.356  -4.580  1.00  0.00     0.010 A 
ATOM     44  C   UNL     1      -8.917  -2.388  -4.496  1.00  0.00    -0.014 A 
BRANCH  44  45
ATOM     45  C   UNL     1      -9.754  -2.517  -3.280  1.00  0.00     0.031 A 
ATOM     46  C   UNL     1     -10.730  -1.432  -2.921  1.00  0.00     0.074 A 
ATOM     47  C   UNL     1      -9.610  -3.591  -2.481  1.00  0.00     0.049 A 
ATOM     48  N   UNL     1     -11.533  -1.356  -1.890  1.00  0.00    -0.248 NA
ATOM     49  C   UNL     1     -10.800  -0.272  -3.824  1.00  0.00     0.031 C 
ATOM     50  C   UNL     1      -8.676  -4.696  -2.708  1.00  0.00     0.029 A 
ATOM     51  N   UNL     1     -10.252  -3.932  -1.317  1.00  0.00    -0.354 N 
ATOM     52  C   UNL     1     -12.195  -0.142  -2.020  1.00  0.00     0.074 A 
ATOM     53  C   UNL     1     -11.661   0.512  -3.192  1.00  0.00     0.031 C 
ATOM     54  C   UNL     1      -8.834  -5.610  -1.738  1.00  0.00     0.029 A 
ATOM     55  C   UNL     1      -9.845  -5.137  -0.797  1.00  0.00     0.049 A 
ATOM     56  H   UNL     1     -10.938  -3.367  -0.894  1.00  0.00     0.167 HD
ATOM     57  C   UNL     1     -13.180   0.371  -1.245  1.00  0.00     0.031 A 
ATOM     58  C   UNL     1     -10.242  -5.789   0.313  1.00  0.00     0.031 A 
ATOM     59  C   UNL     1     -13.715  -0.286  -0.084  1.00  0.00     0.049 A 
ATOM     60  C   UNL     1     -11.312  -5.183   1.177  1.00  0.00     0.074 A 
ATOM     61  C   UNL     1     -14.747   0.130   0.738  1.00  0.00     0.029 A 
ATOM     62  N   UNL     1     -13.260  -1.494   0.422  1.00  0.00    -0.354 N 
ATOM     63  N   UNL     1     -11.972  -4.063   1.007  1.00  0.00    -0.248 NA
ATOM     64  C   UNL     1     -11.696  -5.932   2.382  1.00  0.00     0.031 C 
ATOM     65  C   UNL     1     -14.874  -0.793   1.778  1.00  0.00     0.029 A 
ATOM     66  C   UNL     1     -13.967  -1.820   1.566  1.00  0.00     0.049 A 
ATOM     67  H   UNL     1     -12.541  -2.038   0.026  1.00  0.00     0.167 HD
ATOM     68  C   UNL     1     -12.864  -3.983   2.069  1.00  0.00     0.074 A 
ATOM     69  C   UNL     1     -12.672  -5.176   2.868  1.00  0.00     0.031 C 
ATOM     70  C   UNL     1     -13.759  -3.007   2.356  1.00  0.00     0.031 A 
BRANCH  57  71
ATOM     71  C   UNL     1     -13.743   1.711  -1.628  1.00  0.00    -0.014 A 
ATOM     72  C   UNL     1     -14.530   1.866  -2.781  1.00  0.00     0.009 A 
ATOM     73  C   UNL     1     -13.534   2.821  -0.795  1.00  0.00     0.009 A 
ATOM     74  C   UNL     1     -15.072   3.111  -3.106  1.00  0.00     0.001 A 
ATOM     75  C   UNL     1     -14.103   4.057  -1.106  1.00  0.00     0.001 A 
ATOM     76  C   UNL     1     -14.865   4.203  -2.264  1.00  0.00     0.000 A 
ENDBRANCH  57  71
BRANCH  58  77
ATOM     77  C   UNL     1      -9.635  -7.104   0.650  1.00  0.00    -0.014 A 
ATOM     78  C   UNL     1     -10.386  -8.284   0.540  1.00  0.00     0.009 A 
ATOM     79  C   UNL     1      -8.293  -7.191   1.055  1.00  0.00     0.009 A 
ATOM     80  C   UNL     1      -9.810  -9.521   0.839  1.00  0.00     0.001 A 
ATOM     81  C   UNL     1      -7.711  -8.431   1.325  1.00  0.00     0.001 A 
ATOM     82  C   UNL     1      -8.472  -9.594   1.223  1.00  0.00     0.000 A 
ENDBRANCH  58  77
BRANCH  70  83
ATOM     83  C   UNL     1     -14.614  -3.182   3.580  1.00  0.00    -0.014 A 
ATOM     84  C   UNL     1     -14.074  -3.042   4.868  1.00  0.00     0.009 A 
ATOM     85  C   UNL     1     -15.994  -3.402   3.441  1.00  0.00     0.009 A 
ATOM     86  C   UNL     1     -14.897  -3.139   5.992  1.00  0.00     0.001 A 
ATOM     87  C   UNL     1     -16.818  -3.467   4.565  1.00  0.00     0.001 A 
ATOM     88  C   UNL     1     -16.268  -3.342   5.839  1.00  0.00     0.000 A 
ENDBRANCH  70  83
ENDBRANCH  44  45
ENDBRANCH  36  39
ENDBRANCH  34  35
ENDBRANCH  33  34
ENDBRANCH   1  33
TORSDOF 14
