REMARK SMILES CCCn1ncc(C(=O)N2CCC(C(=O)NCCCCCCNC(=O)c3ccc(-c4c5nc(c(-c6ccccc6)c6ccc([nH]6)c(-c6ccccc6)c6nc(c(-c7ccccc7)c7ccc4[nH]7)C=C6)C=C5)cc3)CC2)c1C
REMARK SMILES IDX 19 1 18 2 17 3 16 4 14 5 15 6 13 8 8 9 9 10 10 11 11 12
REMARK SMILES IDX 75 13 12 14 74 15 7 16 4 17 5 18 76 19 6 20 77 21 3 22 2 23
REMARK SMILES IDX 1 24 20 25 21 26 22 27 23 28 24 29 25 31 26 32 27 33 73 34
REMARK SMILES IDX 28 35 72 36 29 37 30 38 31 39 66 40 32 41 71 42 65 43 67 44
REMARK SMILES IDX 33 45 70 46 64 47 63 48 34 50 56 51 41 52 55 53 42 54 45 55
REMARK SMILES IDX 54 56 68 57 43 58 44 59 53 61 69 62 46 63 35 64 36 65 40 66
REMARK SMILES IDX 37 67 39 68 38 69 57 70 58 71 62 72 59 73 61 74 60 75 47 76
REMARK SMILES IDX 48 77 52 78 49 79 51 80 50 81
REMARK H PARENT 16 7 23 30 67 49 45 60
REMARK Flexibility Score: inf
ROOT
ATOM      1  C   UNL     1       0.326   3.784   9.106  1.00  0.00     0.002 C 
ENDROOT
BRANCH   1   2
ATOM      2  C   UNL     1      -0.200   2.765   8.089  1.00  0.00     0.021 C 
BRANCH   2   3
ATOM      3  C   UNL     1       0.374   1.359   8.242  1.00  0.00     0.116 C 
BRANCH   3   4
ATOM      4  N   UNL     1      -0.089   0.717   9.461  1.00  0.00    -0.356 N 
ATOM      5  C   UNL     1      -0.779  -0.437   9.659  1.00  0.00     0.223 C 
ATOM      6  O   UNL     1      -1.055  -0.750  10.820  1.00  0.00    -0.275 OA
ATOM      7  H   UNL     1       0.138   1.203  10.287  1.00  0.00     0.163 HD
BRANCH   5   8
ATOM      8  C   UNL     1      -1.204  -1.333   8.504  1.00  0.00     0.082 C 
ATOM      9  C   UNL     1      -0.789  -1.073   4.629  1.00  0.00     0.257 C 
ATOM     10  O   UNL     1      -0.965   0.144   4.589  1.00  0.00    -0.269 OA
ATOM     11  N   UNL     1      -1.262  -1.839   5.688  1.00  0.00    -0.338 N 
ATOM     12  C   UNL     1      -2.497  -1.439   6.338  1.00  0.00     0.120 C 
ATOM     13  C   UNL     1      -0.375  -2.672   6.488  1.00  0.00     0.120 C 
ATOM     14  C   UNL     1      -2.226  -0.634   7.597  1.00  0.00     0.035 C 
ATOM     15  C   UNL     1       0.009  -1.946   7.779  1.00  0.00     0.035 C 
BRANCH   9  16
ATOM     16  C   UNL     1      -0.208  -1.804   3.508  1.00  0.00     0.080 A 
ATOM     17  N   UNL     1       0.627  -2.277   1.515  1.00  0.00    -0.269 N 
ATOM     18  N   UNL     1       0.229  -3.471   2.006  1.00  0.00    -0.180 NA
ATOM     19  C   UNL     1       0.487  -1.261   2.432  1.00  0.00     0.048 A 
ATOM     20  C   UNL     1      -0.296  -3.176   3.194  1.00  0.00     0.149 A 
ATOM     21  C   UNL     1       0.958   0.130   2.230  1.00  0.00     0.067 C 
BRANCH  17  22
ATOM     22  C   UNL     1       1.200  -2.256   0.178  1.00  0.00     0.144 C 
BRANCH  22  23
ATOM     23  C   UNL     1       0.473  -1.403  -0.872  1.00  0.00     0.020 C 
ATOM     24  C   UNL     1       1.048  -0.003  -1.052  1.00  0.00     0.006 C 
ENDBRANCH  22  23
ENDBRANCH  17  22
ENDBRANCH   9  16
ENDBRANCH   5   8
ENDBRANCH   3   4
ENDBRANCH   2   3
ENDBRANCH   1   2
BRANCH   1  25
ATOM     25  C   UNL     1       1.853   3.914   9.197  1.00  0.00     0.002 C 
BRANCH  25  26
ATOM     26  C   UNL     1       2.604   4.129   7.876  1.00  0.00     0.021 C 
BRANCH  26  27
ATOM     27  C   UNL     1       2.221   5.403   7.137  1.00  0.00     0.116 C 
BRANCH  27  28
ATOM     28  N   UNL     1       2.608   6.609   7.863  1.00  0.00    -0.352 N 
ATOM     29  C   UNL     1       2.359   7.919   7.524  1.00  0.00     0.251 C 
ATOM     30  H   UNL     1       3.110   6.467   8.698  1.00  0.00     0.163 HD
ATOM     31  O   UNL     1       3.046   8.830   7.985  1.00  0.00    -0.269 OA
BRANCH  29  32
ATOM     32  C   UNL     1       1.259   8.223   6.594  1.00  0.00     0.039 A 
ATOM     33  C   UNL     1       1.415   9.188   5.597  1.00  0.00     0.014 A 
ATOM     34  C   UNL     1       0.065   7.515   6.717  1.00  0.00     0.014 A 
ATOM     35  C   UNL     1       0.390   9.370   4.672  1.00  0.00     0.010 A 
ATOM     36  C   UNL     1      -0.891   7.601   5.731  1.00  0.00     0.010 A 
ATOM     37  C   UNL     1      -0.752   8.550   4.724  1.00  0.00    -0.014 A 
BRANCH  37  38
ATOM     38  C   UNL     1      -1.722   8.582   3.631  1.00  0.00     0.031 A 
ATOM     39  C   UNL     1      -1.118   8.436   2.281  1.00  0.00     0.074 A 
ATOM     40  C   UNL     1      -3.063   8.547   3.790  1.00  0.00     0.049 A 
ATOM     41  N   UNL     1      -1.032   9.342   1.365  1.00  0.00    -0.248 NA
ATOM     42  C   UNL     1      -0.406   7.187   1.960  1.00  0.00     0.031 C 
ATOM     43  C   UNL     1      -3.824   8.384   5.033  1.00  0.00     0.029 A 
ATOM     44  N   UNL     1      -4.040   8.539   2.838  1.00  0.00    -0.354 N 
ATOM     45  C   UNL     1      -0.454   8.716   0.267  1.00  0.00     0.074 A 
ATOM     46  C   UNL     1       0.075   7.463   0.745  1.00  0.00     0.031 C 
ATOM     47  C   UNL     1      -5.103   8.055   4.742  1.00  0.00     0.029 A 
ATOM     48  C   UNL     1      -5.293   8.158   3.307  1.00  0.00     0.049 A 
ATOM     49  H   UNL     1      -3.873   8.782   1.899  1.00  0.00     0.167 HD
ATOM     50  C   UNL     1      -0.714   9.145  -0.999  1.00  0.00     0.031 A 
ATOM     51  C   UNL     1      -6.408   7.930   2.572  1.00  0.00     0.031 A 
ATOM     52  C   UNL     1      -1.287  10.468  -1.010  1.00  0.00     0.049 A 
ATOM     53  C   UNL     1      -6.235   8.618   1.277  1.00  0.00     0.074 A 
ATOM     54  C   UNL     1      -0.906  11.705  -0.528  1.00  0.00     0.029 A 
ATOM     55  N   UNL     1      -2.640  10.555  -1.235  1.00  0.00    -0.354 N 
ATOM     56  N   UNL     1      -6.219   9.912   1.150  1.00  0.00    -0.248 NA
ATOM     57  C   UNL     1      -5.669   7.875   0.165  1.00  0.00     0.031 C 
ATOM     58  C   UNL     1      -2.109  12.298  -0.039  1.00  0.00     0.029 A 
ATOM     59  C   UNL     1      -3.166  11.429  -0.320  1.00  0.00     0.049 A 
ATOM     60  H   UNL     1      -3.143  10.074  -1.931  1.00  0.00     0.167 HD
ATOM     61  C   UNL     1      -5.237  10.154   0.203  1.00  0.00     0.074 A 
ATOM     62  C   UNL     1      -5.035   8.869  -0.462  1.00  0.00     0.031 C 
ATOM     63  C   UNL     1      -4.488  11.296   0.252  1.00  0.00     0.031 A 
BRANCH  50  64
ATOM     64  C   UNL     1      -0.891   8.193  -2.158  1.00  0.00    -0.014 A 
ATOM     65  C   UNL     1      -1.099   8.721  -3.445  1.00  0.00     0.009 A 
ATOM     66  C   UNL     1      -1.164   6.821  -1.986  1.00  0.00     0.009 A 
ATOM     67  C   UNL     1      -1.619   7.932  -4.479  1.00  0.00     0.001 A 
ATOM     68  C   UNL     1      -1.641   6.021  -3.026  1.00  0.00     0.001 A 
ATOM     69  C   UNL     1      -1.896   6.584  -4.267  1.00  0.00     0.000 A 
ENDBRANCH  50  64
BRANCH  51  70
ATOM     70  C   UNL     1      -7.528   6.996   2.808  1.00  0.00    -0.014 A 
ATOM     71  C   UNL     1      -8.738   7.140   2.108  1.00  0.00     0.009 A 
ATOM     72  C   UNL     1      -7.308   5.789   3.494  1.00  0.00     0.009 A 
ATOM     73  C   UNL     1      -9.667   6.093   2.050  1.00  0.00     0.001 A 
ATOM     74  C   UNL     1      -8.237   4.745   3.439  1.00  0.00     0.001 A 
ATOM     75  C   UNL     1      -9.407   4.889   2.701  1.00  0.00     0.000 A 
ENDBRANCH  51  70
BRANCH  63  76
ATOM     76  C   UNL     1      -4.959  12.408   1.161  1.00  0.00    -0.014 A 
ATOM     77  C   UNL     1      -5.154  12.257   2.546  1.00  0.00     0.009 A 
ATOM     78  C   UNL     1      -5.117  13.688   0.608  1.00  0.00     0.009 A 
ATOM     79  C   UNL     1      -5.544  13.342   3.340  1.00  0.00     0.001 A 
ATOM     80  C   UNL     1      -5.482  14.776   1.404  1.00  0.00     0.001 A 
ATOM     81  C   UNL     1      -5.707  14.601   2.767  1.00  0.00     0.000 A 
ENDBRANCH  63  76
ENDBRANCH  37  38
ENDBRANCH  29  32
ENDBRANCH  27  28
ENDBRANCH  26  27
ENDBRANCH  25  26
ENDBRANCH   1  25
TORSDOF 16
