REMARK SMILES O=C(NCCCCCCNC(=O)c1ncoc1-c1cc(F)cc(F)c1)c1ccc(-c2c3nc(c(-c4ccccc4)c4ccc([nH]4)c(-c4ccccc4)c4nc(c(-c5ccccc5)c5ccc2[nH]5)C=C4)C=C3)cc1
REMARK SMILES IDX 6 1 5 2 4 3 3 4 1 5 2 6 26 8 27 9 73 10 28 11 72 12 29 13
REMARK SMILES IDX 30 14 31 15 66 16 32 17 71 18 65 19 67 20 33 21 70 22 64 23
REMARK SMILES IDX 63 24 34 26 56 27 41 28 55 29 42 30 45 31 54 32 68 33 43 34
REMARK SMILES IDX 44 35 53 37 69 38 46 39 35 40 36 41 40 42 37 43 39 44 38 45
REMARK SMILES IDX 57 46 58 47 62 48 59 49 61 50 60 51 47 52 48 53 52 54 49 55
REMARK SMILES IDX 51 56 50 57 7 58 8 59 9 60 10 61 11 62 12 64 13 65 14 66
REMARK SMILES IDX 17 67 15 68 16 69 18 70 19 71 25 72 20 73 23 74 21 75 22 76
REMARK SMILES IDX 24 77
REMARK H PARENT 3 7 67 25 45 36 10 63
REMARK Flexibility Score: inf
ROOT
ATOM      1  C   UNL     1       4.160   2.783  -2.846  1.00  0.00     0.002 C 
ENDROOT
BRANCH   1   2
ATOM      2  C   UNL     1       4.577   1.367  -2.454  1.00  0.00     0.021 C 
BRANCH   2   3
ATOM      3  C   UNL     1       4.349   1.021  -0.992  1.00  0.00     0.116 C 
BRANCH   3   4
ATOM      4  N   UNL     1       2.940   0.933  -0.647  1.00  0.00    -0.352 N 
ATOM      5  O   UNL     1       1.044  -0.082   0.052  1.00  0.00    -0.269 OA
ATOM      6  C   UNL     1       2.268  -0.096  -0.031  1.00  0.00     0.251 C 
ATOM      7  H   UNL     1       2.393   1.716  -0.888  1.00  0.00     0.163 HD
BRANCH   6   8
ATOM      8  C   UNL     1       3.034  -1.238   0.514  1.00  0.00     0.039 A 
ATOM      9  C   UNL     1       4.196  -1.016   1.255  1.00  0.00     0.014 A 
ATOM     10  C   UNL     1       2.592  -2.542   0.273  1.00  0.00     0.014 A 
ATOM     11  C   UNL     1       4.993  -2.092   1.624  1.00  0.00     0.010 A 
ATOM     12  C   UNL     1       3.345  -3.627   0.734  1.00  0.00     0.010 A 
ATOM     13  C   UNL     1       4.564  -3.410   1.393  1.00  0.00    -0.014 A 
BRANCH  13  14
ATOM     14  C   UNL     1       5.375  -4.526   1.943  1.00  0.00     0.031 A 
ATOM     15  C   UNL     1       6.054  -5.527   1.051  1.00  0.00     0.074 A 
ATOM     16  C   UNL     1       5.537  -4.589   3.280  1.00  0.00     0.049 A 
ATOM     17  N   UNL     1       6.851  -6.512   1.385  1.00  0.00    -0.248 NA
ATOM     18  C   UNL     1       5.811  -5.417  -0.396  1.00  0.00     0.031 C 
ATOM     19  C   UNL     1       4.915  -3.679   4.247  1.00  0.00     0.029 A 
ATOM     20  N   UNL     1       6.296  -5.427   4.055  1.00  0.00    -0.354 N 
ATOM     21  C   UNL     1       7.195  -7.145   0.197  1.00  0.00     0.074 A 
ATOM     22  C   UNL     1       6.500  -6.449  -0.866  1.00  0.00     0.031 C 
ATOM     23  C   UNL     1       5.369  -3.965   5.475  1.00  0.00     0.029 A 
ATOM     24  C   UNL     1       6.254  -5.119   5.393  1.00  0.00     0.049 A 
ATOM     25  H   UNL     1       6.820  -6.175   3.688  1.00  0.00     0.167 HD
ATOM     26  C   UNL     1       8.019  -8.204   0.011  1.00  0.00     0.031 A 
ATOM     27  C   UNL     1       6.848  -5.708   6.446  1.00  0.00     0.031 A 
ATOM     28  C   UNL     1       8.703  -8.899   1.073  1.00  0.00     0.049 A 
ATOM     29  C   UNL     1       7.730  -6.897   6.208  1.00  0.00     0.074 A 
ATOM     30  C   UNL     1       9.569  -9.976   0.981  1.00  0.00     0.029 A 
ATOM     31  N   UNL     1       8.597  -8.587   2.420  1.00  0.00    -0.354 N 
ATOM     32  N   UNL     1       8.066  -7.461   5.074  1.00  0.00    -0.248 NA
ATOM     33  C   UNL     1       8.315  -7.529   7.397  1.00  0.00     0.031 C 
ATOM     34  C   UNL     1       9.949 -10.346   2.276  1.00  0.00     0.029 A 
ATOM     35  C   UNL     1       9.365  -9.464   3.170  1.00  0.00     0.049 A 
ATOM     36  H   UNL     1       8.057  -7.852   2.788  1.00  0.00     0.167 HD
ATOM     37  C   UNL     1       8.908  -8.510   5.411  1.00  0.00     0.074 A 
ATOM     38  C   UNL     1       9.060  -8.479   6.852  1.00  0.00     0.031 C 
ATOM     39  C   UNL     1       9.494  -9.426   4.603  1.00  0.00     0.031 A 
BRANCH  26  40
ATOM     40  C   UNL     1       8.221  -8.698  -1.395  1.00  0.00    -0.014 A 
ATOM     41  C   UNL     1       9.003  -7.979  -2.313  1.00  0.00     0.009 A 
ATOM     42  C   UNL     1       7.687  -9.937  -1.785  1.00  0.00     0.009 A 
ATOM     43  C   UNL     1       9.228  -8.481  -3.597  1.00  0.00     0.001 A 
ATOM     44  C   UNL     1       7.934 -10.447  -3.061  1.00  0.00     0.001 A 
ATOM     45  C   UNL     1       8.700  -9.717  -3.968  1.00  0.00     0.000 A 
ENDBRANCH  26  40
BRANCH  27  46
ATOM     46  C   UNL     1       6.602  -5.200   7.820  1.00  0.00    -0.014 A 
ATOM     47  C   UNL     1       7.631  -4.602   8.562  1.00  0.00     0.009 A 
ATOM     48  C   UNL     1       5.329  -5.320   8.400  1.00  0.00     0.009 A 
ATOM     49  C   UNL     1       7.397  -4.163   9.867  1.00  0.00     0.001 A 
ATOM     50  C   UNL     1       5.089  -4.848   9.691  1.00  0.00     0.001 A 
ATOM     51  C   UNL     1       6.126  -4.282  10.428  1.00  0.00     0.000 A 
ENDBRANCH  27  46
BRANCH  39  52
ATOM     52  C   UNL     1      10.367 -10.451   5.269  1.00  0.00    -0.014 A 
ATOM     53  C   UNL     1       9.814 -11.474   6.056  1.00  0.00     0.009 A 
ATOM     54  C   UNL     1      11.759 -10.390   5.110  1.00  0.00     0.009 A 
ATOM     55  C   UNL     1      10.642 -12.389   6.708  1.00  0.00     0.001 A 
ATOM     56  C   UNL     1      12.583 -11.325   5.738  1.00  0.00     0.001 A 
ATOM     57  C   UNL     1      12.025 -12.315   6.546  1.00  0.00     0.000 A 
ENDBRANCH  39  52
ENDBRANCH  13  14
ENDBRANCH   6   8
ENDBRANCH   3   4
ENDBRANCH   2   3
ENDBRANCH   1   2
BRANCH   1  58
ATOM     58  C   UNL     1       4.826   3.906  -2.046  1.00  0.00     0.002 C 
BRANCH  58  59
ATOM     59  C   UNL     1       6.359   3.858  -1.981  1.00  0.00     0.021 C 
BRANCH  59  60
ATOM     60  C   UNL     1       7.061   3.761  -3.337  1.00  0.00     0.116 C 
BRANCH  60  61
ATOM     61  N   UNL     1       6.728   4.894  -4.177  1.00  0.00    -0.351 N 
ATOM     62  C   UNL     1       7.529   5.932  -4.563  1.00  0.00     0.273 C 
ATOM     63  H   UNL     1       5.803   4.919  -4.514  1.00  0.00     0.163 HD
ATOM     64  O   UNL     1       6.998   6.933  -5.059  1.00  0.00    -0.267 OA
BRANCH  62  65
ATOM     65  C   UNL     1       8.963   5.841  -4.357  1.00  0.00     0.174 A 
ATOM     66  N   UNL     1       9.745   4.724  -4.614  1.00  0.00    -0.211 NA
ATOM     67  C   UNL     1       9.773   6.874  -3.931  1.00  0.00     0.167 A 
ATOM     68  C   UNL     1      10.966   5.141  -4.365  1.00  0.00     0.309 A 
ATOM     69  O   UNL     1      11.067   6.433  -3.945  1.00  0.00    -0.443 OA
BRANCH  67  70
ATOM     70  C   UNL     1       9.539   8.218  -3.452  1.00  0.00     0.026 A 
ATOM     71  C   UNL     1       8.684   8.431  -2.363  1.00  0.00     0.051 A 
ATOM     72  C   UNL     1      10.116   9.318  -4.094  1.00  0.00     0.051 A 
ATOM     73  C   UNL     1       8.406   9.727  -1.941  1.00  0.00     0.126 A 
ATOM     74  C   UNL     1       9.813  10.605  -3.658  1.00  0.00     0.126 A 
ATOM     75  F   UNL     1       7.586   9.916  -0.900  1.00  0.00    -0.207 F 
ATOM     76  C   UNL     1       8.960  10.823  -2.585  1.00  0.00     0.078 A 
ATOM     77  F   UNL     1      10.348  11.655  -4.295  1.00  0.00    -0.207 F 
ENDBRANCH  67  70
ENDBRANCH  62  65
ENDBRANCH  60  61
ENDBRANCH  59  60
ENDBRANCH  58  59
ENDBRANCH   1  58
TORSDOF 14
