REMARK SMILES CCOC(=O)c1cccc(Nc2c(-c3ccc(C(=O)NCCCCCCNC(=O)c4ccc(-c5c6nc(c(-c7ccccc7)c7ccc([nH]7)c(-c7ccccc7)c7nc(c(-c8ccccc8)c8ccc5[nH]8)C=C7)C=C6)cc4)cc3)nc3cnccn23)c1
REMARK SMILES IDX 21 1 20 2 18 3 19 4 17 6 14 7 15 8 79 9 16 10 78 11 13 12
REMARK SMILES IDX 12 13 86 14 80 15 81 16 85 17 82 18 84 19 83 20 11 21 10 23
REMARK SMILES IDX 6 24 7 25 87 26 8 27 9 28 4 29 5 30 3 31 2 32 1 33 22 34
REMARK SMILES IDX 23 35 24 36 25 37 26 38 27 39 28 40 29 42 30 43 31 44 77 45
REMARK SMILES IDX 32 46 76 47 33 48 34 49 35 50 70 51 36 52 75 53 69 54 71 55
REMARK SMILES IDX 37 56 74 57 68 58 67 59 38 61 60 62 45 63 59 64 46 65 49 66
REMARK SMILES IDX 58 67 72 68 47 69 48 70 57 72 73 73 50 74 39 75 40 76 44 77
REMARK SMILES IDX 41 78 43 79 42 80 61 81 62 82 66 83 63 84 65 85 64 86 51 87
REMARK SMILES IDX 52 88 56 89 53 90 55 91 54 92
REMARK H PARENT 20 5 11 22 27 41 71 60 49 71
REMARK Flexibility Score: inf
ROOT
ATOM      1  C   UNL     1       2.757   0.489  12.858  1.00  0.00     0.116 C 
ENDROOT
BRANCH   1   2
ATOM      2  N   UNL     1       3.017  -0.368  11.718  1.00  0.00    -0.352 N 
ATOM      3  C   UNL     1       3.216  -0.091  10.391  1.00  0.00     0.251 C 
ATOM      4  O   UNL     1       3.449  -1.030   9.630  1.00  0.00    -0.269 OA
ATOM      5  H   UNL     1       3.057  -1.327  11.937  1.00  0.00     0.163 HD
BRANCH   3   6
ATOM      6  C   UNL     1       3.211   1.293   9.845  1.00  0.00     0.039 A 
ATOM      7  C   UNL     1       3.324   3.856   8.698  1.00  0.00     0.004 A 
ATOM      8  C   UNL     1       4.128   2.828   8.195  1.00  0.00     0.011 A 
ATOM      9  C   UNL     1       2.450   3.597   9.755  1.00  0.00     0.011 A 
ATOM     10  C   UNL     1       4.073   1.556   8.770  1.00  0.00     0.014 A 
ATOM     11  C   UNL     1       2.369   2.312  10.303  1.00  0.00     0.014 A 
BRANCH   7  12
ATOM     12  C   UNL     1       3.352   5.170   8.100  1.00  0.00     0.114 A 
ATOM     13  C   UNL     1       2.883   5.463   6.827  1.00  0.00     0.143 A 
ATOM     14  N   UNL     1       3.060   6.825   6.707  1.00  0.00    -0.283 N 
ATOM     15  N   UNL     1       3.856   6.282   8.735  1.00  0.00    -0.225 NA
ATOM     16  C   UNL     1       3.684   7.245   7.857  1.00  0.00     0.157 A 
ATOM     17  C   UNL     1       2.721   7.747   5.731  1.00  0.00     0.115 A 
ATOM     18  C   UNL     1       4.027   8.635   7.978  1.00  0.00     0.158 A 
ATOM     19  C   UNL     1       3.054   9.035   5.929  1.00  0.00     0.129 A 
ATOM     20  N   UNL     1       3.727   9.502   7.047  1.00  0.00    -0.259 NA
BRANCH  13  21
ATOM     21  N   UNL     1       2.289   4.679   5.886  1.00  0.00    -0.339 N 
ATOM     22  H   UNL     1       1.352   4.412   6.032  1.00  0.00     0.168 HD
BRANCH  21  23
ATOM     23  C   UNL     1       2.935   4.221   4.708  1.00  0.00     0.040 A 
ATOM     24  C   UNL     1       3.025   2.603   2.889  1.00  0.00     0.062 A 
ATOM     25  C   UNL     1       4.207   3.179   2.418  1.00  0.00     0.016 A 
ATOM     26  C   UNL     1       2.378   3.136   4.012  1.00  0.00     0.041 A 
ATOM     27  C   UNL     1       4.735   4.292   3.063  1.00  0.00     0.003 A 
ATOM     28  C   UNL     1       4.105   4.805   4.200  1.00  0.00     0.026 A 
BRANCH  24  29
ATOM     29  C   UNL     1       2.541   1.371   2.231  1.00  0.00     0.338 C 
ATOM     30  O   UNL     1       3.289   0.514   1.792  1.00  0.00    -0.246 OA
BRANCH  29  31
ATOM     31  O   UNL     1       1.187   1.377   2.166  1.00  0.00    -0.462 OA
BRANCH  31  32
ATOM     32  C   UNL     1       0.598   0.212   1.567  1.00  0.00     0.230 C 
ATOM     33  C   UNL     1       0.744   0.217   0.055  1.00  0.00     0.049 C 
ENDBRANCH  31  32
ENDBRANCH  29  31
ENDBRANCH  24  29
ENDBRANCH  21  23
ENDBRANCH  13  21
ENDBRANCH   7  12
ENDBRANCH   3   6
ENDBRANCH   1   2
BRANCH   1  34
ATOM     34  C   UNL     1       1.284   0.399  13.263  1.00  0.00     0.021 C 
BRANCH  34  35
ATOM     35  C   UNL     1       0.944  -0.871  14.054  1.00  0.00     0.002 C 
BRANCH  35  36
ATOM     36  C   UNL     1       1.600  -0.963  15.437  1.00  0.00     0.002 C 
BRANCH  36  37
ATOM     37  C   UNL     1       1.305   0.209  16.379  1.00  0.00     0.021 C 
BRANCH  37  38
ATOM     38  C   UNL     1      -0.174   0.422  16.693  1.00  0.00     0.116 C 
BRANCH  38  39
ATOM     39  N   UNL     1      -0.747  -0.709  17.404  1.00  0.00    -0.352 N 
ATOM     40  C   UNL     1      -1.454  -0.739  18.578  1.00  0.00     0.251 C 
ATOM     41  H   UNL     1      -0.607  -1.585  16.978  1.00  0.00     0.163 HD
ATOM     42  O   UNL     1      -1.680  -1.813  19.128  1.00  0.00    -0.269 OA
BRANCH  40  43
ATOM     43  C   UNL     1      -1.938   0.514  19.197  1.00  0.00     0.039 A 
ATOM     44  C   UNL     1      -1.821   0.664  20.581  1.00  0.00     0.014 A 
ATOM     45  C   UNL     1      -2.543   1.517  18.432  1.00  0.00     0.014 A 
ATOM     46  C   UNL     1      -2.269   1.836  21.193  1.00  0.00     0.010 A 
ATOM     47  C   UNL     1      -2.939   2.710  19.036  1.00  0.00     0.010 A 
ATOM     48  C   UNL     1      -2.810   2.878  20.422  1.00  0.00    -0.014 A 
BRANCH  48  49
ATOM     49  C   UNL     1      -3.228   4.149  21.064  1.00  0.00     0.031 A 
ATOM     50  C   UNL     1      -4.678   4.540  21.123  1.00  0.00     0.074 A 
ATOM     51  C   UNL     1      -2.289   4.971  21.570  1.00  0.00     0.049 A 
ATOM     52  N   UNL     1      -5.224   5.598  21.670  1.00  0.00    -0.248 NA
ATOM     53  C   UNL     1      -5.638   3.639  20.467  1.00  0.00     0.031 C 
ATOM     54  C   UNL     1      -0.844   4.732  21.530  1.00  0.00     0.029 A 
ATOM     55  N   UNL     1      -2.410   6.171  22.222  1.00  0.00    -0.354 N 
ATOM     56  C   UNL     1      -6.586   5.495  21.415  1.00  0.00     0.074 A 
ATOM     57  C   UNL     1      -6.778   4.295  20.628  1.00  0.00     0.031 C 
ATOM     58  C   UNL     1      -0.217   5.736  22.162  1.00  0.00     0.029 A 
ATOM     59  C   UNL     1      -1.210   6.698  22.630  1.00  0.00     0.049 A 
ATOM     60  H   UNL     1      -3.276   6.613  22.383  1.00  0.00     0.167 HD
ATOM     61  C   UNL     1      -7.588   6.314  21.815  1.00  0.00     0.031 A 
ATOM     62  C   UNL     1      -0.938   7.824  23.314  1.00  0.00     0.031 A 
ATOM     63  C   UNL     1      -7.402   7.502  22.605  1.00  0.00     0.049 A 
ATOM     64  C   UNL     1      -2.068   8.702  23.767  1.00  0.00     0.074 A 
ATOM     65  C   UNL     1      -8.361   8.367  23.105  1.00  0.00     0.029 A 
ATOM     66  N   UNL     1      -6.171   7.994  23.009  1.00  0.00    -0.354 N 
ATOM     67  N   UNL     1      -3.357   8.551  23.580  1.00  0.00    -0.248 NA
ATOM     68  C   UNL     1      -1.705   9.897  24.541  1.00  0.00     0.031 C 
ATOM     69  C   UNL     1      -7.707   9.403  23.780  1.00  0.00     0.029 A 
ATOM     70  C   UNL     1      -6.344   9.159  23.738  1.00  0.00     0.049 A 
ATOM     71  H   UNL     1      -5.302   7.577  22.808  1.00  0.00     0.167 HD
ATOM     72  C   UNL     1      -3.959   9.619  24.231  1.00  0.00     0.074 A 
ATOM     73  C   UNL     1      -2.897  10.397  24.834  1.00  0.00     0.031 C 
ATOM     74  C   UNL     1      -5.276   9.928  24.321  1.00  0.00     0.031 A 
BRANCH  61  75
ATOM     75  C   UNL     1      -8.985   5.947  21.397  1.00  0.00    -0.014 A 
ATOM     76  C   UNL     1      -9.650   4.854  21.973  1.00  0.00     0.009 A 
ATOM     77  C   UNL     1      -9.655   6.723  20.438  1.00  0.00     0.009 A 
ATOM     78  C   UNL     1     -10.947   4.524  21.573  1.00  0.00     0.001 A 
ATOM     79  C   UNL     1     -10.960   6.405  20.058  1.00  0.00     0.001 A 
ATOM     80  C   UNL     1     -11.602   5.301  20.618  1.00  0.00     0.000 A 
ENDBRANCH  61  75
BRANCH  62  81
ATOM     81  C   UNL     1       0.467   8.165  23.649  1.00  0.00    -0.014 A 
ATOM     82  C   UNL     1       0.935   8.028  24.965  1.00  0.00     0.009 A 
ATOM     83  C   UNL     1       1.346   8.627  22.658  1.00  0.00     0.009 A 
ATOM     84  C   UNL     1       2.251   8.370  25.286  1.00  0.00     0.001 A 
ATOM     85  C   UNL     1       2.667   8.945  22.978  1.00  0.00     0.001 A 
ATOM     86  C   UNL     1       3.116   8.824  24.292  1.00  0.00     0.000 A 
ENDBRANCH  62  81
BRANCH  74  87
ATOM     87  C   UNL     1      -5.632  11.150  25.119  1.00  0.00    -0.014 A 
ATOM     88  C   UNL     1      -5.381  12.439  24.623  1.00  0.00     0.009 A 
ATOM     89  C   UNL     1      -6.234  11.008  26.378  1.00  0.00     0.009 A 
ATOM     90  C   UNL     1      -5.689  13.562  25.392  1.00  0.00     0.001 A 
ATOM     91  C   UNL     1      -6.564  12.134  27.134  1.00  0.00     0.001 A 
ATOM     92  C   UNL     1      -6.282  13.409  26.646  1.00  0.00     0.000 A 
ENDBRANCH  74  87
ENDBRANCH  48  49
ENDBRANCH  40  43
ENDBRANCH  38  39
ENDBRANCH  37  38
ENDBRANCH  36  37
ENDBRANCH  35  36
ENDBRANCH  34  35
ENDBRANCH   1  34
TORSDOF 19
