REMARK SMILES C[C@@H]([NH2+]CC(C)(C)C(=O)NCCCCCCNC(=O)c1ccc(-c2c3nc(c(-c4ccccc4)c4ccc([nH]4)c(-c4ccccc4)c4nc(c(-c5ccccc5)c5ccc2[nH]5)C=C4)C=C3)cc1)C1CC1
REMARK SMILES IDX 12 1 11 2 10 3 8 4 9 5 5 7 6 8 7 9 4 10 3 11 2 14 1 15 68 16
REMARK SMILES IDX 69 17 70 18 13 19 14 20 15 21 16 22 17 23 18 24 19 26 20 27
REMARK SMILES IDX 21 28 67 29 22 30 66 31 23 32 24 33 25 34 60 35 26 36 65 37
REMARK SMILES IDX 59 38 61 39 27 40 64 41 58 42 57 43 28 45 50 46 35 47 49 48
REMARK SMILES IDX 36 49 39 50 48 51 62 52 37 53 38 54 47 56 63 57 40 58 29 59
REMARK SMILES IDX 30 60 34 61 31 62 33 63 32 64 51 65 52 66 56 67 53 68 55 69
REMARK SMILES IDX 54 70 41 71 42 72 46 73 43 74 45 75 44 76
REMARK H PARENT 10 6 3 12 3 13 17 25 61 44 39 55
REMARK Flexibility Score: inf
ROOT
ATOM      1  C   UNL     1       1.058   2.399  -6.892  1.00  0.00     0.021 C 
ENDROOT
BRANCH   1   2
ATOM      2  C   UNL     1       2.122   1.810  -5.959  1.00  0.00     0.116 C 
BRANCH   2   3
ATOM      3  N   UNL     1       1.613   1.730  -4.609  1.00  0.00    -0.355 N 
ATOM      4  C   UNL     1       0.819   0.748  -4.102  1.00  0.00     0.231 C 
ATOM      5  O   UNL     1      -0.218   1.144  -3.572  1.00  0.00    -0.274 OA
ATOM      6  H   UNL     1       1.866   2.458  -3.995  1.00  0.00     0.163 HD
BRANCH   4   7
ATOM      7  C   UNL     1       1.195  -0.737  -4.246  1.00  0.00     0.092 C 
ATOM      8  C   UNL     1       2.714  -0.948  -4.110  1.00  0.00     0.027 C 
ATOM      9  C   UNL     1       0.694  -1.235  -5.620  1.00  0.00     0.027 C 
BRANCH   7  10
ATOM     10  C   UNL     1       0.463  -1.634  -3.191  1.00  0.00     0.277 C 
BRANCH  10  11
ATOM     11  N   UNL     1       0.738  -1.532  -1.755  1.00  0.00    -0.343 N 
ATOM     12  H   UNL     1       0.379  -2.379  -1.316  1.00  0.00     0.346 HD
ATOM     13  H   UNL     1       1.748  -1.398  -1.697  1.00  0.00     0.346 HD
BRANCH  11  14
ATOM     14  C   UNL     1       0.173  -0.390  -1.028  1.00  0.00     0.182 C 
ATOM     15  C   UNL     1       0.834  -0.399   0.369  1.00  0.00     0.075 C 
BRANCH  14  16
ATOM     16  C   UNL     1      -1.329  -0.354  -0.825  1.00  0.00     0.047 C 
ATOM     17  C   UNL     1      -2.341  -0.224  -1.943  1.00  0.00     0.010 C 
ATOM     18  C   UNL     1      -2.268  -1.495  -1.146  1.00  0.00     0.010 C 
ENDBRANCH  14  16
ENDBRANCH  11  14
ENDBRANCH  10  11
ENDBRANCH   7  10
ENDBRANCH   4   7
ENDBRANCH   2   3
ENDBRANCH   1   2
BRANCH   1  19
ATOM     19  C   UNL     1       0.599   3.816  -6.515  1.00  0.00     0.002 C 
BRANCH  19  20
ATOM     20  C   UNL     1       1.728   4.825  -6.277  1.00  0.00     0.002 C 
BRANCH  20  21
ATOM     21  C   UNL     1       2.765   4.904  -7.396  1.00  0.00     0.021 C 
BRANCH  21  22
ATOM     22  C   UNL     1       2.184   5.223  -8.764  1.00  0.00     0.116 C 
BRANCH  22  23
ATOM     23  N   UNL     1       1.648   6.571  -8.824  1.00  0.00    -0.352 N 
ATOM     24  C   UNL     1       1.962   7.574  -9.706  1.00  0.00     0.251 C 
ATOM     25  H   UNL     1       0.971   6.794  -8.144  1.00  0.00     0.163 HD
ATOM     26  O   UNL     1       1.581   8.724  -9.510  1.00  0.00    -0.269 OA
BRANCH  24  27
ATOM     27  C   UNL     1       2.792   7.257 -10.885  1.00  0.00     0.039 A 
ATOM     28  C   UNL     1       3.887   8.070 -11.181  1.00  0.00     0.014 A 
ATOM     29  C   UNL     1       2.507   6.137 -11.672  1.00  0.00     0.014 A 
ATOM     30  C   UNL     1       4.735   7.725 -12.235  1.00  0.00     0.010 A 
ATOM     31  C   UNL     1       3.396   5.751 -12.669  1.00  0.00     0.010 A 
ATOM     32  C   UNL     1       4.516   6.543 -12.963  1.00  0.00    -0.014 A 
BRANCH  32  33
ATOM     33  C   UNL     1       5.448   6.117 -14.036  1.00  0.00     0.031 A 
ATOM     34  C   UNL     1       4.968   6.021 -15.457  1.00  0.00     0.074 A 
ATOM     35  C   UNL     1       6.707   5.754 -13.720  1.00  0.00     0.049 A 
ATOM     36  N   UNL     1       5.613   5.610 -16.520  1.00  0.00    -0.248 NA
ATOM     37  C   UNL     1       3.574   6.417 -15.716  1.00  0.00     0.031 C 
ATOM     38  C   UNL     1       7.283   5.768 -12.374  1.00  0.00     0.029 A 
ATOM     39  N   UNL     1       7.729   5.296 -14.513  1.00  0.00    -0.354 N 
ATOM     40  C   UNL     1       4.701   5.684 -17.565  1.00  0.00     0.074 A 
ATOM     41  C   UNL     1       3.445   6.127 -17.002  1.00  0.00     0.031 C 
ATOM     42  C   UNL     1       8.563   5.366 -12.439  1.00  0.00     0.029 A 
ATOM     43  C   UNL     1       8.884   5.022 -13.820  1.00  0.00     0.049 A 
ATOM     44  H   UNL     1       7.644   5.176 -15.487  1.00  0.00     0.167 HD
ATOM     45  C   UNL     1       4.896   5.425 -18.879  1.00  0.00     0.031 A 
ATOM     46  C   UNL     1      10.065   4.538 -14.247  1.00  0.00     0.031 A 
ATOM     47  C   UNL     1       6.148   4.989 -19.439  1.00  0.00     0.049 A 
ATOM     48  C   UNL     1      10.246   4.226 -15.707  1.00  0.00     0.074 A 
ATOM     49  C   UNL     1       6.461   4.754 -20.766  1.00  0.00     0.029 A 
ATOM     50  N   UNL     1       7.290   4.719 -18.703  1.00  0.00    -0.354 N 
ATOM     51  N   UNL     1       9.395   4.369 -16.694  1.00  0.00    -0.248 NA
ATOM     52  C   UNL     1      11.555   3.694 -16.112  1.00  0.00     0.031 C 
ATOM     53  C   UNL     1       7.777   4.283 -20.826  1.00  0.00     0.029 A 
ATOM     54  C   UNL     1       8.301   4.287 -19.544  1.00  0.00     0.049 A 
ATOM     55  H   UNL     1       7.370   4.819 -17.726  1.00  0.00     0.167 HD
ATOM     56  C   UNL     1      10.072   3.970 -17.838  1.00  0.00     0.074 A 
ATOM     57  C   UNL     1      11.409   3.597 -17.426  1.00  0.00     0.031 C 
ATOM     58  C   UNL     1       9.626   3.917 -19.117  1.00  0.00     0.031 A 
BRANCH  45  59
ATOM     59  C   UNL     1       3.722   5.597 -19.802  1.00  0.00    -0.014 A 
ATOM     60  C   UNL     1       3.203   6.869 -20.093  1.00  0.00     0.009 A 
ATOM     61  C   UNL     1       3.149   4.474 -20.420  1.00  0.00     0.009 A 
ATOM     62  C   UNL     1       2.112   7.009 -20.954  1.00  0.00     0.001 A 
ATOM     63  C   UNL     1       2.079   4.620 -21.305  1.00  0.00     0.001 A 
ATOM     64  C   UNL     1       1.555   5.886 -21.563  1.00  0.00     0.000 A 
ENDBRANCH  45  59
BRANCH  46  65
ATOM     65  C   UNL     1      11.175   4.319 -13.282  1.00  0.00    -0.014 A 
ATOM     66  C   UNL     1      12.325   5.122 -13.323  1.00  0.00     0.009 A 
ATOM     67  C   UNL     1      11.096   3.299 -12.321  1.00  0.00     0.009 A 
ATOM     68  C   UNL     1      13.383   4.890 -12.441  1.00  0.00     0.001 A 
ATOM     69  C   UNL     1      12.142   3.089 -11.420  1.00  0.00     0.001 A 
ATOM     70  C   UNL     1      13.289   3.878 -11.488  1.00  0.00     0.000 A 
ENDBRANCH  46  65
BRANCH  58  71
ATOM     71  C   UNL     1      10.602   3.469 -20.169  1.00  0.00    -0.014 A 
ATOM     72  C   UNL     1      11.007   2.128 -20.265  1.00  0.00     0.009 A 
ATOM     73  C   UNL     1      11.083   4.394 -21.109  1.00  0.00     0.009 A 
ATOM     74  C   UNL     1      11.898   1.731 -21.264  1.00  0.00     0.001 A 
ATOM     75  C   UNL     1      11.949   3.988 -22.125  1.00  0.00     0.001 A 
ATOM     76  C   UNL     1      12.363   2.659 -22.196  1.00  0.00     0.000 A 
ENDBRANCH  58  71
ENDBRANCH  32  33
ENDBRANCH  24  27
ENDBRANCH  22  23
ENDBRANCH  21  22
ENDBRANCH  20  21
ENDBRANCH  19  20
ENDBRANCH   1  19
TORSDOF 17
