REMARK SMILES [NH3+][C@@]1(C(=O)NCCCCCCNC(=O)c2ccc(-c3c4nc(c(-c5ccccc5)c5ccc([nH]5)c(-c5ccccc5)c5nc(c(-c6ccccc6)c6ccc3[nH]6)C=C5)C=C4)cc2)CC[N@H+](Cc2ccc(OCC(=O)N3CCCCC3)cc2)C1
REMARK SMILES IDX 7 1 6 2 5 3 3 4 4 5 2 7 63 8 83 9 64 10 65 11 1 13 66 17
REMARK SMILES IDX 67 18 68 19 82 20 69 21 81 22 70 23 71 24 72 25 73 26 74 27
REMARK SMILES IDX 75 28 76 29 80 30 77 31 79 32 78 33 8 34 9 35 10 36 11 37
REMARK SMILES IDX 12 38 13 39 14 41 15 42 16 43 62 44 17 45 61 46 18 47 19 48
REMARK SMILES IDX 20 49 55 50 21 51 60 52 54 53 56 54 22 55 59 56 53 57 52 58
REMARK SMILES IDX 23 60 45 61 30 62 44 63 31 64 34 65 43 66 57 67 32 68 33 69
REMARK SMILES IDX 42 71 58 72 35 73 24 74 25 75 29 76 26 77 28 78 27 79 46 80
REMARK SMILES IDX 47 81 51 82 48 83 50 84 49 85 36 86 37 87 41 88 38 89 40 90
REMARK SMILES IDX 39 91
REMARK H PARENT 5 6 65 12 1 14 1 15 1 16 12 40 56 59 34 70
REMARK Flexibility Score: inf
ROOT
ATOM      1  C   UNL     1       0.820   3.564  -4.938  1.00  0.00     0.021 C 
ENDROOT
BRANCH   1   2
ATOM      2  C   UNL     1       0.724   2.137  -3.284  1.00  0.00     0.116 C 
BRANCH   2   3
ATOM      3  N   UNL     1       0.968   0.680  -2.978  1.00  0.00    -0.350 N 
ATOM      4  C   UNL     1       0.868   0.188  -1.691  1.00  0.00     0.287 C 
ATOM      5  O   UNL     1       1.003  -1.038  -1.554  1.00  0.00    -0.268 OA
ATOM      6  H   UNL     1       1.205   0.067  -3.711  1.00  0.00     0.163 HD
BRANCH   4   7
ATOM      7  C   UNL     1       0.512   1.097  -0.380  1.00  0.00     0.228 C 
ATOM      8  C   UNL     1      -1.003   1.301  -0.226  1.00  0.00     0.146 C 
ATOM      9  C   UNL     1       1.060   2.544  -0.181  1.00  0.00     0.342 C 
ATOM     10  C   UNL     1      -1.291   2.789  -0.456  1.00  0.00     0.270 C 
ATOM     11  N   UNL     1      -0.022   3.500  -0.478  1.00  0.00    -0.325 N 
ATOM     12  H   UNL     1       0.031   4.176   0.284  1.00  0.00     0.348 HD
BRANCH   7  13
ATOM     13  N   UNL     1       0.983   0.249   0.768  1.00  0.00    -0.340 N 
ATOM     14  H   UNL     1       0.633  -0.702   0.654  1.00  0.00     0.345 HD
ATOM     15  H   UNL     1       0.632   0.638   1.644  1.00  0.00     0.345 HD
ATOM     16  H   UNL     1       2.003   0.237   0.787  1.00  0.00     0.345 HD
ENDBRANCH   7  13
BRANCH  11  17
ATOM     17  C   UNL     1       0.138   4.599  -1.445  1.00  0.00     0.299 C 
BRANCH  17  18
ATOM     18  C   UNL     1       0.403   4.163  -2.894  1.00  0.00     0.006 A 
ATOM     19  C   UNL     1       2.132   3.776  -3.254  1.00  0.00     0.013 A 
ATOM     20  C   UNL     1      -0.935   3.334  -3.810  1.00  0.00     0.013 A 
ATOM     21  C   UNL     1       2.526   2.418  -4.370  1.00  0.00     0.047 A 
ATOM     22  C   UNL     1      -0.520   1.957  -4.918  1.00  0.00     0.047 A 
ATOM     23  C   UNL     1       1.215   1.543  -5.228  1.00  0.00     0.120 A 
BRANCH  23  24
ATOM     24  O   UNL     1       1.669   0.621  -6.116  1.00  0.00    -0.484 OA
BRANCH  24  25
ATOM     25  C   UNL     1       0.714  -0.018  -6.938  1.00  0.00     0.329 C 
BRANCH  25  26
ATOM     26  C   UNL     1       0.105  -1.268  -6.321  1.00  0.00     0.260 C 
ATOM     27  O   UNL     1      -1.124  -1.387  -6.302  1.00  0.00    -0.271 OA
ATOM     28  N   UNL     1       0.961  -2.254  -5.851  1.00  0.00    -0.340 N 
ATOM     29  C   UNL     1       0.391  -3.492  -5.338  1.00  0.00     0.119 C 
ATOM     30  C   UNL     1       2.422  -2.176  -5.736  1.00  0.00     0.119 C 
ATOM     31  C   UNL     1       0.732  -3.655  -3.863  1.00  0.00     0.022 C 
ATOM     32  C   UNL     1       2.857  -2.328  -4.278  1.00  0.00     0.022 C 
ATOM     33  C   UNL     1       2.242  -3.571  -3.631  1.00  0.00     0.004 C 
ENDBRANCH  25  26
ENDBRANCH  24  25
ENDBRANCH  23  24
ENDBRANCH  17  18
ENDBRANCH  11  17
ENDBRANCH   4   7
ENDBRANCH   2   3
ENDBRANCH   1   2
BRANCH   1  34
ATOM     34  C   UNL     1       0.377   3.539  -6.609  1.00  0.00     0.002 C 
BRANCH  34  35
ATOM     35  C   UNL     1      -1.077   3.791  -7.051  1.00  0.00     0.002 C 
BRANCH  35  36
ATOM     36  C   UNL     1      -1.641   5.157  -6.688  1.00  0.00     0.021 C 
BRANCH  36  37
ATOM     37  C   UNL     1      -0.739   6.312  -7.089  1.00  0.00     0.116 C 
BRANCH  37  38
ATOM     38  N   UNL     1      -0.302   6.211  -8.480  1.00  0.00    -0.352 N 
ATOM     39  C   UNL     1      -0.528   7.065  -9.524  1.00  0.00     0.251 C 
ATOM     40  H   UNL     1       0.232   5.413  -8.697  1.00  0.00     0.163 HD
ATOM     41  O   UNL     1      -0.283   6.743 -10.680  1.00  0.00    -0.269 OA
BRANCH  39  42
ATOM     42  C   UNL     1      -1.088   8.385  -9.214  1.00  0.00     0.039 A 
ATOM     43  C   UNL     1      -2.210   8.832  -9.909  1.00  0.00     0.014 A 
ATOM     44  C   UNL     1      -0.535   9.125  -8.165  1.00  0.00     0.014 A 
ATOM     45  C   UNL     1      -2.816  10.018  -9.509  1.00  0.00     0.010 A 
ATOM     46  C   UNL     1      -1.205  10.239  -7.699  1.00  0.00     0.010 A 
ATOM     47  C   UNL     1      -2.333  10.709  -8.384  1.00  0.00    -0.014 A 
BRANCH  47  48
ATOM     48  C   UNL     1      -2.965  11.964  -7.933  1.00  0.00     0.031 A 
ATOM     49  C   UNL     1      -2.172  13.238  -7.974  1.00  0.00     0.074 A 
ATOM     50  C   UNL     1      -4.217  11.935  -7.442  1.00  0.00     0.049 A 
ATOM     51  N   UNL     1      -2.527  14.441  -7.606  1.00  0.00    -0.248 NA
ATOM     52  C   UNL     1      -0.781  13.144  -8.454  1.00  0.00     0.031 C 
ATOM     53  C   UNL     1      -5.046  10.735  -7.293  1.00  0.00     0.029 A 
ATOM     54  N   UNL     1      -5.014  12.948  -6.981  1.00  0.00    -0.354 N 
ATOM     55  C   UNL     1      -1.400  15.232  -7.786  1.00  0.00     0.074 A 
ATOM     56  C   UNL     1      -0.332  14.367  -8.228  1.00  0.00     0.031 C 
ATOM     57  C   UNL     1      -6.252  11.090  -6.822  1.00  0.00     0.029 A 
ATOM     58  C   UNL     1      -6.269  12.533  -6.609  1.00  0.00     0.049 A 
ATOM     59  H   UNL     1      -4.716  13.885  -6.922  1.00  0.00     0.167 HD
ATOM     60  C   UNL     1      -1.276  16.570  -7.630  1.00  0.00     0.031 A 
ATOM     61  C   UNL     1      -7.317  13.247  -6.161  1.00  0.00     0.031 A 
ATOM     62  C   UNL     1      -2.357  17.422  -7.225  1.00  0.00     0.049 A 
ATOM     63  C   UNL     1      -7.169  14.737  -6.038  1.00  0.00     0.074 A 
ATOM     64  C   UNL     1      -2.373  18.799  -7.102  1.00  0.00     0.029 A 
ATOM     65  N   UNL     1      -3.623  16.970  -6.885  1.00  0.00    -0.354 N 
ATOM     66  N   UNL     1      -6.122  15.486  -6.290  1.00  0.00    -0.248 NA
ATOM     67  C   UNL     1      -8.351  15.481  -5.586  1.00  0.00     0.031 C 
ATOM     68  C   UNL     1      -3.642  19.176  -6.648  1.00  0.00     0.029 A 
ATOM     69  C   UNL     1      -4.427  18.039  -6.535  1.00  0.00     0.049 A 
ATOM     70  H   UNL     1      -3.908  16.027  -6.892  1.00  0.00     0.167 HD
ATOM     71  C   UNL     1      -6.523  16.792  -6.047  1.00  0.00     0.074 A 
ATOM     72  C   UNL     1      -7.916  16.732  -5.649  1.00  0.00     0.031 C 
ATOM     73  C   UNL     1      -5.808  17.940  -6.139  1.00  0.00     0.031 A 
BRANCH  60  74
ATOM     74  C   UNL     1       0.072  17.173  -7.906  1.00  0.00    -0.014 A 
ATOM     75  C   UNL     1       0.593  17.225  -9.210  1.00  0.00     0.009 A 
ATOM     76  C   UNL     1       0.834  17.696  -6.851  1.00  0.00     0.009 A 
ATOM     77  C   UNL     1       1.866  17.748  -9.444  1.00  0.00     0.001 A 
ATOM     78  C   UNL     1       2.094  18.247  -7.092  1.00  0.00     0.001 A 
ATOM     79  C   UNL     1       2.614  18.263  -8.386  1.00  0.00     0.000 A 
ENDBRANCH  60  74
BRANCH  61  80
ATOM     80  C   UNL     1      -8.601  12.570  -5.847  1.00  0.00    -0.014 A 
ATOM     81  C   UNL     1      -9.714  12.736  -6.686  1.00  0.00     0.009 A 
ATOM     82  C   UNL     1      -8.720  11.746  -4.718  1.00  0.00     0.009 A 
ATOM     83  C   UNL     1     -10.927  12.112  -6.385  1.00  0.00     0.001 A 
ATOM     84  C   UNL     1      -9.927  11.102  -4.434  1.00  0.00     0.001 A 
ATOM     85  C   UNL     1     -11.032  11.293  -5.263  1.00  0.00     0.000 A 
ENDBRANCH  61  80
BRANCH  73  86
ATOM     86  C   UNL     1      -6.530  19.215  -5.821  1.00  0.00    -0.014 A 
ATOM     87  C   UNL     1      -6.856  19.551  -4.498  1.00  0.00     0.009 A 
ATOM     88  C   UNL     1      -6.851  20.108  -6.854  1.00  0.00     0.009 A 
ATOM     89  C   UNL     1      -7.523  20.744  -4.221  1.00  0.00     0.001 A 
ATOM     90  C   UNL     1      -7.492  21.314  -6.570  1.00  0.00     0.001 A 
ATOM     91  C   UNL     1      -7.836  21.626  -5.256  1.00  0.00     0.000 A 
ENDBRANCH  73  86
ENDBRANCH  47  48
ENDBRANCH  39  42
ENDBRANCH  37  38
ENDBRANCH  36  37
ENDBRANCH  35  36
ENDBRANCH  34  35
ENDBRANCH   1  34
TORSDOF 19
