REMARK SMILES COc1ccc(C(=O)N[C@H](C(=O)NCCCCCCNC(=O)c2ccc(-c3c4nc(c(-c5ccccc5)c5ccc([nH]5)c(-c5ccccc5)c5nc(c(-c6ccccc6)c6ccc3[nH]6)C=C5)C=C4)cc2)C2=C(C)N=N[C@H]2C)c(F)c1F
REMARK SMILES IDX 16 1 15 2 14 3 13 4 11 5 12 6 10 8 9 9 7 10 8 11 6 13 3 14
REMARK SMILES IDX 4 15 80 16 5 17 78 18 81 19 79 20 2 21 1 22 71 23 72 24
REMARK SMILES IDX 76 25 73 26 74 27 75 28 77 29 17 30 18 31 19 32 20 33 21 34
REMARK SMILES IDX 22 36 23 37 24 38 70 39 25 40 69 41 26 42 27 43 28 44 63 45
REMARK SMILES IDX 29 46 68 47 62 48 64 49 30 50 67 51 61 52 60 53 31 55 53 56
REMARK SMILES IDX 38 57 52 58 39 59 42 60 51 61 65 62 40 63 41 64 50 66 66 67
REMARK SMILES IDX 43 68 32 69 33 70 37 71 34 72 36 73 35 74 54 75 55 76 59 77
REMARK SMILES IDX 56 78 58 79 57 80 44 81 45 82 49 83 46 84 48 85 47 86
REMARK H PARENT 13 7 9 12 20 35 64 54 42 65
REMARK Flexibility Score: inf
ROOT
ATOM      1  C   UNL     1       3.908   3.059  -3.036  1.00  0.00     0.002 C 
ENDROOT
BRANCH   1   2
ATOM      2  C   UNL     1       2.690   2.242  -3.482  1.00  0.00     0.021 C 
BRANCH   2   3
ATOM      3  C   UNL     1       1.477   3.049  -3.949  1.00  0.00     0.116 C 
BRANCH   3   4
ATOM      4  N   UNL     1       1.761   3.936  -5.078  1.00  0.00    -0.354 N 
ATOM      5  C   UNL     1       0.972   4.892  -5.683  1.00  0.00     0.247 C 
ATOM      6  O   UNL     1       1.513   5.669  -6.475  1.00  0.00    -0.272 OA
ATOM      7  H   UNL     1       2.659   3.834  -5.468  1.00  0.00     0.163 HD
BRANCH   5   8
ATOM      8  C   UNL     1      -0.554   4.954  -5.379  1.00  0.00     0.202 C 
BRANCH   8   9
ATOM      9  N   UNL     1      -1.199   6.250  -5.047  1.00  0.00    -0.336 N 
ATOM     10  C   UNL     1      -0.938   7.334  -4.235  1.00  0.00     0.255 C 
ATOM     11  O   UNL     1      -1.882   8.074  -3.954  1.00  0.00    -0.269 OA
ATOM     12  H   UNL     1      -2.043   6.367  -5.541  1.00  0.00     0.165 HD
BRANCH  10  13
ATOM     13  C   UNL     1       0.410   7.755  -3.800  1.00  0.00     0.078 A 
ATOM     14  C   UNL     1       3.067   8.526  -3.300  1.00  0.00     0.157 A 
ATOM     15  C   UNL     1       2.074   9.495  -3.418  1.00  0.00     0.050 A 
ATOM     16  C   UNL     1       2.709   7.191  -3.379  1.00  0.00     0.201 A 
ATOM     17  C   UNL     1       0.749   9.112  -3.694  1.00  0.00     0.021 A 
ATOM     18  C   UNL     1       1.375   6.833  -3.479  1.00  0.00     0.175 A 
ATOM     19  F   UNL     1       3.657   6.245  -3.381  1.00  0.00    -0.200 F 
ATOM     20  F   UNL     1       0.993   5.600  -3.160  1.00  0.00    -0.203 F 
BRANCH  14  21
ATOM     21  O   UNL     1       4.361   8.934  -3.155  1.00  0.00    -0.494 OA
ATOM     22  C   UNL     1       5.002   8.384  -2.001  1.00  0.00     0.278 C 
ENDBRANCH  14  21
ENDBRANCH  10  13
ENDBRANCH   8   9
BRANCH   8  23
ATOM     23  C   UNL     1      -1.166   4.459  -6.683  1.00  0.00     0.011 C 
ATOM     24  C   UNL     1      -1.240   3.208  -7.167  1.00  0.00     0.064 C 
ATOM     25  C   UNL     1      -1.505   5.330  -7.864  1.00  0.00     0.156 C 
ATOM     26  C   UNL     1      -0.892   1.913  -6.527  1.00  0.00     0.069 C 
ATOM     27  N   UNL     1      -1.575   3.169  -8.497  1.00  0.00    -0.160 NA
ATOM     28  N   UNL     1      -1.666   4.333  -8.960  1.00  0.00    -0.181 NA
ATOM     29  C   UNL     1      -2.832   6.083  -7.791  1.00  0.00     0.040 C 
ENDBRANCH   8  23
ENDBRANCH   5   8
ENDBRANCH   3   4
ENDBRANCH   2   3
ENDBRANCH   1   2
BRANCH   1  30
ATOM     30  C   UNL     1       3.714   3.970  -1.821  1.00  0.00     0.002 C 
BRANCH  30  31
ATOM     31  C   UNL     1       3.285   3.325  -0.513  1.00  0.00     0.021 C 
BRANCH  31  32
ATOM     32  C   UNL     1       4.075   2.100  -0.102  1.00  0.00     0.116 C 
BRANCH  32  33
ATOM     33  N   UNL     1       5.494   2.354   0.068  1.00  0.00    -0.352 N 
ATOM     34  C   UNL     1       6.346   1.853   1.028  1.00  0.00     0.251 C 
ATOM     35  H   UNL     1       5.901   2.965  -0.588  1.00  0.00     0.163 HD
ATOM     36  O   UNL     1       7.500   2.240   1.100  1.00  0.00    -0.269 OA
BRANCH  34  37
ATOM     37  C   UNL     1       5.826   0.870   2.006  1.00  0.00     0.039 A 
ATOM     38  C   UNL     1       6.109   1.060   3.360  1.00  0.00     0.014 A 
ATOM     39  C   UNL     1       5.031  -0.204   1.597  1.00  0.00     0.014 A 
ATOM     40  C   UNL     1       5.538   0.210   4.308  1.00  0.00     0.010 A 
ATOM     41  C   UNL     1       4.391  -0.993   2.547  1.00  0.00     0.010 A 
ATOM     42  C   UNL     1       4.643  -0.798   3.913  1.00  0.00    -0.014 A 
BRANCH  42  43
ATOM     43  C   UNL     1       3.961  -1.650   4.918  1.00  0.00     0.031 A 
ATOM     44  C   UNL     1       4.207  -3.133   4.949  1.00  0.00     0.074 A 
ATOM     45  C   UNL     1       3.081  -1.094   5.774  1.00  0.00     0.049 A 
ATOM     46  N   UNL     1       3.694  -4.038   5.745  1.00  0.00    -0.248 NA
ATOM     47  C   UNL     1       5.130  -3.677   3.940  1.00  0.00     0.031 C 
ATOM     48  C   UNL     1       2.716   0.325   5.813  1.00  0.00     0.029 A 
ATOM     49  N   UNL     1       2.333  -1.655   6.778  1.00  0.00    -0.354 N 
ATOM     50  C   UNL     1       4.222  -5.252   5.326  1.00  0.00     0.074 A 
ATOM     51  C   UNL     1       5.048  -4.979   4.171  1.00  0.00     0.031 C 
ATOM     52  C   UNL     1       1.844   0.527   6.814  1.00  0.00     0.029 A 
ATOM     53  C   UNL     1       1.555  -0.750   7.458  1.00  0.00     0.049 A 
ATOM     54  H   UNL     1       2.352  -2.616   6.991  1.00  0.00     0.167 HD
ATOM     55  C   UNL     1       4.052  -6.482   5.865  1.00  0.00     0.031 A 
ATOM     56  C   UNL     1       0.702  -0.927   8.484  1.00  0.00     0.031 A 
ATOM     57  C   UNL     1       3.234  -6.753   7.017  1.00  0.00     0.049 A 
ATOM     58  C   UNL     1       0.520  -2.305   9.056  1.00  0.00     0.074 A 
ATOM     59  C   UNL     1       3.045  -7.955   7.676  1.00  0.00     0.029 A 
ATOM     60  N   UNL     1       2.462  -5.809   7.676  1.00  0.00    -0.354 N 
ATOM     61  N   UNL     1       1.092  -3.430   8.700  1.00  0.00    -0.248 NA
ATOM     62  C   UNL     1      -0.415  -2.435  10.182  1.00  0.00     0.031 C 
ATOM     63  C   UNL     1       2.110  -7.752   8.696  1.00  0.00     0.029 A 
ATOM     64  C   UNL     1       1.769  -6.409   8.715  1.00  0.00     0.049 A 
ATOM     65  H   UNL     1       2.413  -4.854   7.441  1.00  0.00     0.167 HD
ATOM     66  C   UNL     1       0.607  -4.395   9.573  1.00  0.00     0.074 A 
ATOM     67  C   UNL     1      -0.287  -3.717  10.490  1.00  0.00     0.031 C 
ATOM     68  C   UNL     1       0.877  -5.723   9.614  1.00  0.00     0.031 A 
BRANCH  55  69
ATOM     69  C   UNL     1       4.761  -7.634   5.205  1.00  0.00    -0.014 A 
ATOM     70  C   UNL     1       6.159  -7.756   5.253  1.00  0.00     0.009 A 
ATOM     71  C   UNL     1       4.016  -8.632   4.557  1.00  0.00     0.009 A 
ATOM     72  C   UNL     1       6.798  -8.833   4.635  1.00  0.00     0.001 A 
ATOM     73  C   UNL     1       4.655  -9.724   3.968  1.00  0.00     0.001 A 
ATOM     74  C   UNL     1       6.046  -9.819   3.998  1.00  0.00     0.000 A 
ENDBRANCH  55  69
BRANCH  56  75
ATOM     75  C   UNL     1      -0.041   0.232   9.047  1.00  0.00    -0.014 A 
ATOM     76  C   UNL     1       0.243   0.706  10.337  1.00  0.00     0.009 A 
ATOM     77  C   UNL     1      -1.048   0.864   8.300  1.00  0.00     0.009 A 
ATOM     78  C   UNL     1      -0.488   1.766  10.879  1.00  0.00     0.001 A 
ATOM     79  C   UNL     1      -1.754   1.945   8.832  1.00  0.00     0.001 A 
ATOM     80  C   UNL     1      -1.482   2.388  10.125  1.00  0.00     0.000 A 
ENDBRANCH  56  75
BRANCH  68  81
ATOM     81  C   UNL     1       0.220  -6.523  10.705  1.00  0.00    -0.014 A 
ATOM     82  C   UNL     1      -1.160  -6.779  10.696  1.00  0.00     0.009 A 
ATOM     83  C   UNL     1       1.003  -7.053  11.743  1.00  0.00     0.009 A 
ATOM     84  C   UNL     1      -1.748  -7.514  11.727  1.00  0.00     0.001 A 
ATOM     85  C   UNL     1       0.417  -7.816  12.754  1.00  0.00     0.001 A 
ATOM     86  C   UNL     1      -0.959  -8.036  12.752  1.00  0.00     0.000 A 
ENDBRANCH  68  81
ENDBRANCH  42  43
ENDBRANCH  34  37
ENDBRANCH  32  33
ENDBRANCH  31  32
ENDBRANCH  30  31
ENDBRANCH   1  30
TORSDOF 17
