REMARK SMILES Cc1nn(C)c(C)c1CNC(=O)N[C@H]1CC[C@@H](C(=O)NCCCCCCNC(=O)c2ccc(-c3c4nc(c(-c5ccccc5)c5ccc([nH]5)c(-c5ccccc5)c5nc(c(-c6ccccc6)c6ccc3[nH]6)C=C5)C=C4)cc2)C1
REMARK SMILES IDX 23 1 22 2 21 3 20 4 18 5 19 6 17 8 14 9 15 10 78 11 16 12
REMARK SMILES IDX 13 13 10 14 11 15 12 17 9 19 8 20 1 21 2 22 3 23 4 24 6 25
REMARK SMILES IDX 5 26 7 27 24 28 25 29 26 30 27 31 28 32 29 34 30 35 31 36
REMARK SMILES IDX 77 37 32 38 76 39 33 40 34 41 35 42 70 43 36 44 75 45 69 46
REMARK SMILES IDX 71 47 37 48 74 49 68 50 67 51 38 53 60 54 45 55 59 56 46 57
REMARK SMILES IDX 49 58 58 59 72 60 47 61 48 62 57 64 73 65 50 66 39 67 40 68
REMARK SMILES IDX 44 69 41 70 43 71 42 72 61 73 62 74 66 75 63 76 65 77 64 78
REMARK SMILES IDX 51 79 52 80 56 81 53 82 55 83 54 84
REMARK H PARENT 20 7 10 16 13 18 27 33 71 52 49 63
REMARK Flexibility Score: inf
ROOT
ATOM      1  C   UNL     1      -3.788   6.949  -2.973  1.00  0.00     0.002 C 
ENDROOT
BRANCH   1   2
ATOM      2  C   UNL     1      -2.278   6.794  -2.776  1.00  0.00     0.021 C 
BRANCH   2   3
ATOM      3  C   UNL     1      -1.774   5.352  -2.793  1.00  0.00     0.116 C 
BRANCH   3   4
ATOM      4  N   UNL     1      -1.292   4.933  -4.090  1.00  0.00    -0.356 N 
ATOM      5  C   UNL     1      -0.178   4.279  -4.496  1.00  0.00     0.223 C 
ATOM      6  O   UNL     1      -0.166   3.932  -5.685  1.00  0.00    -0.275 OA
ATOM      7  H   UNL     1      -1.897   5.172  -4.829  1.00  0.00     0.163 HD
BRANCH   5   8
ATOM      8  C   UNL     1       1.013   3.890  -3.618  1.00  0.00     0.080 C 
ATOM      9  C   UNL     1       1.210   3.643  -1.180  1.00  0.00     0.084 C 
ATOM     10  C   UNL     1       1.647   2.342  -1.850  1.00  0.00     0.026 C 
ATOM     11  C   UNL     1       1.370   4.650  -2.335  1.00  0.00     0.038 C 
ATOM     12  C   UNL     1       0.975   2.405  -3.223  1.00  0.00     0.015 C 
BRANCH   9  13
ATOM     13  N   UNL     1      -0.162   3.474  -0.697  1.00  0.00    -0.335 N 
ATOM     14  N   UNL     1      -0.431   4.736   1.276  1.00  0.00    -0.334 N 
ATOM     15  C   UNL     1      -0.913   4.005   0.272  1.00  0.00     0.315 C 
ATOM     16  H   UNL     1      -1.032   5.446   1.598  1.00  0.00     0.165 HD
ATOM     17  O   UNL     1      -2.131   3.841   0.199  1.00  0.00    -0.249 OA
ATOM     18  H   UNL     1      -0.655   2.799  -1.216  1.00  0.00     0.165 HD
BRANCH  14  19
ATOM     19  C   UNL     1       0.827   4.649   1.963  1.00  0.00     0.157 C 
BRANCH  19  20
ATOM     20  C   UNL     1       1.442   5.991   2.165  1.00  0.00     0.015 A 
ATOM     21  C   UNL     1       3.047   5.344   4.137  1.00  0.00     0.069 C 
ATOM     22  C   UNL     1       2.424   6.274   3.160  1.00  0.00     0.065 A 
ATOM     23  N   UNL     1       2.777   7.559   3.165  1.00  0.00    -0.178 NA
ATOM     24  N   UNL     1       2.043   8.111   2.188  1.00  0.00    -0.272 N 
ATOM     25  C   UNL     1       1.267   7.205   1.506  1.00  0.00     0.040 A 
ATOM     26  C   UNL     1       2.140   9.541   2.000  1.00  0.00     0.174 C 
ATOM     27  C   UNL     1       0.442   7.595   0.333  1.00  0.00     0.067 C 
ENDBRANCH  19  20
ENDBRANCH  14  19
ENDBRANCH   9  13
ENDBRANCH   5   8
ENDBRANCH   3   4
ENDBRANCH   2   3
ENDBRANCH   1   2
BRANCH   1  28
ATOM     28  C   UNL     1      -4.676   6.150  -2.011  1.00  0.00     0.002 C 
BRANCH  28  29
ATOM     29  C   UNL     1      -4.345   6.284  -0.522  1.00  0.00     0.021 C 
BRANCH  29  30
ATOM     30  C   UNL     1      -4.399   7.694   0.050  1.00  0.00     0.116 C 
BRANCH  30  31
ATOM     31  N   UNL     1      -5.700   8.316  -0.118  1.00  0.00    -0.352 N 
ATOM     32  C   UNL     1      -6.562   8.838   0.807  1.00  0.00     0.251 C 
ATOM     33  H   UNL     1      -6.013   8.373  -1.050  1.00  0.00     0.163 HD
ATOM     34  O   UNL     1      -7.698   9.171   0.454  1.00  0.00    -0.269 OA
BRANCH  32  35
ATOM     35  C   UNL     1      -6.169   9.001   2.224  1.00  0.00     0.039 A 
ATOM     36  C   UNL     1      -7.121   8.736   3.214  1.00  0.00     0.014 A 
ATOM     37  C   UNL     1      -4.903   9.468   2.589  1.00  0.00     0.014 A 
ATOM     38  C   UNL     1      -6.795   8.900   4.561  1.00  0.00     0.010 A 
ATOM     39  C   UNL     1      -4.553   9.561   3.936  1.00  0.00     0.010 A 
ATOM     40  C   UNL     1      -5.500   9.293   4.936  1.00  0.00    -0.014 A 
BRANCH  40  41
ATOM     41  C   UNL     1      -5.136   9.448   6.367  1.00  0.00     0.031 A 
ATOM     42  C   UNL     1      -4.780  10.803   6.919  1.00  0.00     0.074 A 
ATOM     43  C   UNL     1      -5.088   8.365   7.166  1.00  0.00     0.049 A 
ATOM     44  N   UNL     1      -4.414  11.130   8.133  1.00  0.00    -0.248 NA
ATOM     45  C   UNL     1      -4.819  11.934   5.979  1.00  0.00     0.031 C 
ATOM     46  C   UNL     1      -5.371   6.990   6.748  1.00  0.00     0.029 A 
ATOM     47  N   UNL     1      -4.782   8.251   8.499  1.00  0.00    -0.354 N 
ATOM     48  C   UNL     1      -4.164  12.497   8.097  1.00  0.00     0.074 A 
ATOM     49  C   UNL     1      -4.372  12.928   6.732  1.00  0.00     0.031 C 
ATOM     50  C   UNL     1      -5.255   6.176   7.810  1.00  0.00     0.029 A 
ATOM     51  C   UNL     1      -4.858   6.964   8.973  1.00  0.00     0.049 A 
ATOM     52  H   UNL     1      -4.533   9.019   9.062  1.00  0.00     0.167 HD
ATOM     53  C   UNL     1      -3.813  13.324   9.111  1.00  0.00     0.031 A 
ATOM     54  C   UNL     1      -4.634   6.473  10.206  1.00  0.00     0.031 A 
ATOM     55  C   UNL     1      -3.620  12.902  10.472  1.00  0.00     0.049 A 
ATOM     56  C   UNL     1      -4.253   7.411  11.315  1.00  0.00     0.074 A 
ATOM     57  C   UNL     1      -3.311  13.673  11.580  1.00  0.00     0.029 A 
ATOM     58  N   UNL     1      -3.720  11.591  10.912  1.00  0.00    -0.354 N 
ATOM     59  N   UNL     1      -4.079   8.710  11.276  1.00  0.00    -0.248 NA
ATOM     60  C   UNL     1      -4.053   6.815  12.644  1.00  0.00     0.031 C 
ATOM     61  C   UNL     1      -3.184  12.822  12.683  1.00  0.00     0.029 A 
ATOM     62  C   UNL     1      -3.464  11.529  12.272  1.00  0.00     0.049 A 
ATOM     63  H   UNL     1      -3.940  10.819  10.343  1.00  0.00     0.167 HD
ATOM     64  C   UNL     1      -3.776   9.090  12.576  1.00  0.00     0.074 A 
ATOM     65  C   UNL     1      -3.807   7.888  13.383  1.00  0.00     0.031 C 
ATOM     66  C   UNL     1      -3.497  10.325  13.060  1.00  0.00     0.031 A 
BRANCH  53  67
ATOM     67  C   UNL     1      -3.614  14.777   8.777  1.00  0.00    -0.014 A 
ATOM     68  C   UNL     1      -4.702  15.603   8.452  1.00  0.00     0.009 A 
ATOM     69  C   UNL     1      -2.326  15.333   8.815  1.00  0.00     0.009 A 
ATOM     70  C   UNL     1      -4.499  16.948   8.133  1.00  0.00     0.001 A 
ATOM     71  C   UNL     1      -2.130  16.685   8.523  1.00  0.00     0.001 A 
ATOM     72  C   UNL     1      -3.214  17.488   8.172  1.00  0.00     0.000 A 
ENDBRANCH  53  67
BRANCH  54  73
ATOM     73  C   UNL     1      -4.791   5.018  10.464  1.00  0.00    -0.014 A 
ATOM     74  C   UNL     1      -5.876   4.543  11.217  1.00  0.00     0.009 A 
ATOM     75  C   UNL     1      -3.856   4.099   9.965  1.00  0.00     0.009 A 
ATOM     76  C   UNL     1      -6.007   3.178  11.486  1.00  0.00     0.001 A 
ATOM     77  C   UNL     1      -4.004   2.733  10.213  1.00  0.00     0.001 A 
ATOM     78  C   UNL     1      -5.074   2.275  10.980  1.00  0.00     0.000 A 
ENDBRANCH  54  73
BRANCH  66  79
ATOM     79  C   UNL     1      -3.239  10.440  14.535  1.00  0.00    -0.014 A 
ATOM     80  C   UNL     1      -2.047   9.967  15.106  1.00  0.00     0.009 A 
ATOM     81  C   UNL     1      -4.193  11.053  15.361  1.00  0.00     0.009 A 
ATOM     82  C   UNL     1      -1.832  10.075  16.481  1.00  0.00     0.001 A 
ATOM     83  C   UNL     1      -3.964  11.185  16.732  1.00  0.00     0.001 A 
ATOM     84  C   UNL     1      -2.788  10.686  17.292  1.00  0.00     0.000 A 
ENDBRANCH  66  79
ENDBRANCH  40  41
ENDBRANCH  32  35
ENDBRANCH  30  31
ENDBRANCH  29  30
ENDBRANCH  28  29
ENDBRANCH   1  28
TORSDOF 16
