REMARK SMILES COc1cc(NS(=O)(=O)c2cc(C)c(C(=O)NCCCCCCNC(=O)c3ccc(-c4c5nc(c(-c6ccccc6)c6ccc([nH]6)c(-c6ccccc6)c6nc(c(-c7ccccc7)c7ccc4[nH]7)C=C6)C=C5)cc3)s2)cc(OC)c1
REMARK SMILES IDX 19 1 18 2 17 3 15 4 16 5 14 7 10 8 11 9 75 10 12 11 13 12
REMARK SMILES IDX 7 13 8 14 9 15 6 16 5 18 3 19 4 20 80 21 77 22 76 23 2 24
REMARK SMILES IDX 1 25 78 26 79 27 20 28 21 29 22 30 23 31 24 32 25 33 26 35
REMARK SMILES IDX 27 36 28 37 74 38 29 39 73 40 30 41 31 42 32 43 67 44 33 45
REMARK SMILES IDX 72 46 66 47 68 48 34 49 71 50 65 51 64 52 35 54 57 55 42 56
REMARK SMILES IDX 56 57 43 58 46 59 55 60 69 61 44 62 45 63 54 65 70 66 47 67
REMARK SMILES IDX 36 68 37 69 41 70 38 71 40 72 39 73 58 74 59 75 63 76 60 77
REMARK SMILES IDX 62 78 61 79 48 80 49 81 53 82 50 83 52 84 51 85
REMARK H PARENT 17 6 6 17 24 34 68 53 46 64
REMARK Flexibility Score: inf
ROOT
ATOM      1  C   UNL     1      -2.410   1.457   3.549  1.00  0.00     0.021 C 
ENDROOT
BRANCH   1   2
ATOM      2  C   UNL     1      -3.473   1.172   2.482  1.00  0.00     0.116 C 
BRANCH   2   3
ATOM      3  N   UNL     1      -2.858   0.975   1.193  1.00  0.00    -0.351 N 
ATOM      4  C   UNL     1      -2.692  -0.106   0.371  1.00  0.00     0.261 C 
ATOM      5  O   UNL     1      -2.172   0.196  -0.711  1.00  0.00    -0.268 OA
ATOM      6  H   UNL     1      -2.471   1.801   0.823  1.00  0.00     0.163 HD
BRANCH   4   7
ATOM      7  C   UNL     1      -3.048  -1.491   0.703  1.00  0.00     0.096 A 
ATOM      8  C   UNL     1      -3.002  -3.921   0.216  1.00  0.00     0.141 A 
ATOM      9  C   UNL     1      -3.263  -3.674   1.542  1.00  0.00     0.038 A 
ATOM     10  S   UNL     1      -3.264  -2.519  -0.705  1.00  0.00    -0.116 S 
ATOM     11  C   UNL     1      -3.152  -2.269   1.862  1.00  0.00    -0.026 A 
ATOM     12  C   UNL     1      -2.982  -1.882   3.292  1.00  0.00     0.046 C 
BRANCH   8  13
ATOM     13  S   UNL     1      -2.345  -5.347  -0.607  1.00  0.00     0.271 S 
ATOM     14  O   UNL     1      -3.368  -5.792  -1.507  1.00  0.00    -0.200 OA
ATOM     15  O   UNL     1      -1.880  -6.203   0.479  1.00  0.00    -0.200 OA
BRANCH  13  16
ATOM     16  N   UNL     1      -0.993  -4.936  -1.536  1.00  0.00    -0.279 N 
ATOM     17  H   UNL     1      -1.022  -5.116  -2.503  1.00  0.00     0.180 HD
BRANCH  16  18
ATOM     18  C   UNL     1       0.200  -4.338  -0.991  1.00  0.00     0.056 A 
ATOM     19  C   UNL     1       1.308  -2.526   0.180  1.00  0.00     0.124 A 
ATOM     20  C   UNL     1       0.178  -3.306  -0.057  1.00  0.00     0.073 A 
ATOM     21  C   UNL     1       2.519  -2.822  -0.427  1.00  0.00     0.093 A 
ATOM     22  C   UNL     1       2.581  -3.881  -1.328  1.00  0.00     0.124 A 
ATOM     23  C   UNL     1       1.416  -4.608  -1.630  1.00  0.00     0.073 A 
BRANCH  19  24
ATOM     24  O   UNL     1       1.177  -1.454   1.024  1.00  0.00    -0.497 OA
ATOM     25  C   UNL     1       1.189  -0.234   0.274  1.00  0.00     0.278 C 
ENDBRANCH  19  24
BRANCH  22  26
ATOM     26  O   UNL     1       3.703  -4.281  -2.003  1.00  0.00    -0.497 OA
ATOM     27  C   UNL     1       4.913  -3.604  -1.681  1.00  0.00     0.278 C 
ENDBRANCH  22  26
ENDBRANCH  16  18
ENDBRANCH  13  16
ENDBRANCH   8  13
ENDBRANCH   4   7
ENDBRANCH   2   3
ENDBRANCH   1   2
BRANCH   1  28
ATOM     28  C   UNL     1      -2.178   2.947   3.821  1.00  0.00     0.002 C 
BRANCH  28  29
ATOM     29  C   UNL     1      -3.370   3.683   4.447  1.00  0.00     0.002 C 
BRANCH  29  30
ATOM     30  C   UNL     1      -3.930   3.064   5.733  1.00  0.00     0.021 C 
BRANCH  30  31
ATOM     31  C   UNL     1      -2.936   2.954   6.888  1.00  0.00     0.116 C 
BRANCH  31  32
ATOM     32  N   UNL     1      -2.478   4.259   7.333  1.00  0.00    -0.352 N 
ATOM     33  C   UNL     1      -2.529   4.839   8.573  1.00  0.00     0.251 C 
ATOM     34  H   UNL     1      -2.066   4.814   6.632  1.00  0.00     0.163 HD
ATOM     35  O   UNL     1      -2.283   6.037   8.689  1.00  0.00    -0.269 OA
BRANCH  33  36
ATOM     36  C   UNL     1      -2.873   4.050   9.778  1.00  0.00     0.039 A 
ATOM     37  C   UNL     1      -3.665   4.651  10.762  1.00  0.00     0.014 A 
ATOM     38  C   UNL     1      -2.350   2.770   9.993  1.00  0.00     0.014 A 
ATOM     39  C   UNL     1      -3.950   3.967  11.947  1.00  0.00     0.010 A 
ATOM     40  C   UNL     1      -2.678   2.066  11.153  1.00  0.00     0.010 A 
ATOM     41  C   UNL     1      -3.462   2.666  12.149  1.00  0.00    -0.014 A 
BRANCH  41  42
ATOM     42  C   UNL     1      -3.731   1.949  13.420  1.00  0.00     0.031 A 
ATOM     43  C   UNL     1      -2.614   1.686  14.393  1.00  0.00     0.074 A 
ATOM     44  C   UNL     1      -4.975   1.514  13.694  1.00  0.00     0.049 A 
ATOM     45  N   UNL     1      -2.654   1.079  15.553  1.00  0.00    -0.248 NA
ATOM     46  C   UNL     1      -1.272   2.148  14.003  1.00  0.00     0.031 C 
ATOM     47  C   UNL     1      -6.140   1.672  12.822  1.00  0.00     0.029 A 
ATOM     48  N   UNL     1      -5.465   0.850  14.791  1.00  0.00    -0.354 N 
ATOM     49  C   UNL     1      -1.346   1.069  16.020  1.00  0.00     0.074 A 
ATOM     50  C   UNL     1      -0.529   1.697  15.003  1.00  0.00     0.031 C 
ATOM     51  C   UNL     1      -7.216   1.143  13.430  1.00  0.00     0.029 A 
ATOM     52  C   UNL     1      -6.812   0.594  14.721  1.00  0.00     0.049 A 
ATOM     53  H   UNL     1      -4.904   0.584  15.555  1.00  0.00     0.167 HD
ATOM     54  C   UNL     1      -0.866   0.596  17.195  1.00  0.00     0.031 A 
ATOM     55  C   UNL     1      -7.632  -0.007  15.602  1.00  0.00     0.031 A 
ATOM     56  C   UNL     1      -1.673  -0.009  18.219  1.00  0.00     0.049 A 
ATOM     57  C   UNL     1      -7.083  -0.494  16.913  1.00  0.00     0.074 A 
ATOM     58  C   UNL     1      -1.285  -0.474  19.464  1.00  0.00     0.029 A 
ATOM     59  N   UNL     1      -3.038  -0.227  18.118  1.00  0.00    -0.354 N 
ATOM     60  N   UNL     1      -5.853  -0.445  17.361  1.00  0.00    -0.248 NA
ATOM     61  C   UNL     1      -8.043  -1.103  17.845  1.00  0.00     0.031 C 
ATOM     62  C   UNL     1      -2.412  -0.999  20.106  1.00  0.00     0.029 A 
ATOM     63  C   UNL     1      -3.506  -0.828  19.274  1.00  0.00     0.049 A 
ATOM     64  H   UNL     1      -3.592   0.010  17.340  1.00  0.00     0.167 HD
ATOM     65  C   UNL     1      -5.894  -0.996  18.635  1.00  0.00     0.074 A 
ATOM     66  C   UNL     1      -7.272  -1.358  18.893  1.00  0.00     0.031 C 
ATOM     67  C   UNL     1      -4.880  -1.183  19.514  1.00  0.00     0.031 A 
BRANCH  54  68
ATOM     68  C   UNL     1       0.613   0.714  17.428  1.00  0.00    -0.014 A 
ATOM     69  C   UNL     1       1.205   1.954  17.715  1.00  0.00     0.009 A 
ATOM     70  C   UNL     1       1.422  -0.432  17.380  1.00  0.00     0.009 A 
ATOM     71  C   UNL     1       2.583   2.050  17.913  1.00  0.00     0.001 A 
ATOM     72  C   UNL     1       2.797  -0.336  17.602  1.00  0.00     0.001 A 
ATOM     73  C   UNL     1       3.378   0.905  17.859  1.00  0.00     0.000 A 
ENDBRANCH  54  68
BRANCH  55  74
ATOM     74  C   UNL     1      -9.076  -0.147  15.291  1.00  0.00    -0.014 A 
ATOM     75  C   UNL     1     -10.019   0.680  15.921  1.00  0.00     0.009 A 
ATOM     76  C   UNL     1      -9.518  -1.104  14.367  1.00  0.00     0.009 A 
ATOM     77  C   UNL     1     -11.380   0.536  15.646  1.00  0.00     0.001 A 
ATOM     78  C   UNL     1     -10.878  -1.232  14.078  1.00  0.00     0.001 A 
ATOM     79  C   UNL     1     -11.808  -0.417  14.723  1.00  0.00     0.000 A 
ENDBRANCH  55  74
BRANCH  67  80
ATOM     80  C   UNL     1      -5.233  -1.783  20.843  1.00  0.00    -0.014 A 
ATOM     81  C   UNL     1      -5.514  -3.152  20.968  1.00  0.00     0.009 A 
ATOM     82  C   UNL     1      -5.264  -0.971  21.986  1.00  0.00     0.009 A 
ATOM     83  C   UNL     1      -5.852  -3.690  22.211  1.00  0.00     0.001 A 
ATOM     84  C   UNL     1      -5.581  -1.516  23.231  1.00  0.00     0.001 A 
ATOM     85  C   UNL     1      -5.883  -2.873  23.341  1.00  0.00     0.000 A 
ENDBRANCH  67  80
ENDBRANCH  41  42
ENDBRANCH  33  36
ENDBRANCH  31  32
ENDBRANCH  30  31
ENDBRANCH  29  30
ENDBRANCH  28  29
ENDBRANCH   1  28
TORSDOF 18
