REMARK SMILES CC1(C)C(C(=O)Nc2ccc(CC(=O)NCCCCCCNC(=O)c3ccc(-c4c5nc(c(-c6ccccc6)c6ccc([nH]6)c(-c6ccccc6)c6nc(c(-c7ccccc7)c7ccc4[nH]7)C=C6)C=C5)cc3)cc2)C1(C)C
REMARK SMILES IDX 18 1 17 2 16 3 15 4 13 5 14 6 12 8 11 9 8 10 9 11 74 12
REMARK SMILES IDX 10 13 73 14 7 15 5 16 6 17 4 19 1 20 2 21 3 22 75 23 76 24
REMARK SMILES IDX 77 25 19 26 20 27 21 28 22 29 23 30 24 32 25 33 26 34 72 35
REMARK SMILES IDX 27 36 71 37 28 38 29 39 30 40 65 41 31 42 70 43 64 44 66 45
REMARK SMILES IDX 32 46 69 47 63 48 62 49 33 51 55 52 40 53 54 54 41 55 44 56
REMARK SMILES IDX 53 57 67 58 42 59 43 60 52 62 68 63 45 64 34 65 35 66 39 67
REMARK SMILES IDX 36 68 38 69 37 70 56 71 57 72 61 73 58 74 60 75 59 76 46 77
REMARK SMILES IDX 47 78 51 79 48 80 50 81 49 82
REMARK H PARENT 15 7 7 18 22 31 66 50 44 61
REMARK Flexibility Score: inf
ROOT
ATOM      1  C   UNL     1      -6.926  -0.985  -3.964  1.00  0.00     0.002 C 
ENDROOT
BRANCH   1   2
ATOM      2  C   UNL     1      -5.438  -1.140  -3.648  1.00  0.00     0.021 C 
BRANCH   2   3
ATOM      3  C   UNL     1      -4.920  -2.571  -3.825  1.00  0.00     0.116 C 
BRANCH   3   4
ATOM      4  N   UNL     1      -4.760  -2.890  -5.228  1.00  0.00    -0.356 N 
ATOM      5  C   UNL     1      -3.667  -2.716  -6.028  1.00  0.00     0.224 C 
ATOM      6  O   UNL     1      -3.789  -2.915  -7.238  1.00  0.00    -0.275 OA
ATOM      7  H   UNL     1      -5.547  -3.286  -5.666  1.00  0.00     0.163 HD
BRANCH   5   8
ATOM      8  C   UNL     1      -2.324  -2.367  -5.423  1.00  0.00     0.135 C 
BRANCH   8   9
ATOM      9  C   UNL     1      -2.126  -0.926  -5.022  1.00  0.00    -0.039 A 
ATOM     10  C   UNL     1      -1.259   1.560  -4.102  1.00  0.00     0.041 A 
ATOM     11  C   UNL     1      -1.236   1.295  -5.470  1.00  0.00     0.026 A 
ATOM     12  C   UNL     1      -1.964   0.721  -3.260  1.00  0.00     0.026 A 
ATOM     13  C   UNL     1      -1.686   0.047  -5.932  1.00  0.00     0.006 A 
ATOM     14  C   UNL     1      -2.295  -0.552  -3.687  1.00  0.00     0.006 A 
BRANCH  10  15
ATOM     15  N   UNL     1      -0.435   2.551  -3.546  1.00  0.00    -0.326 N 
ATOM     16  C   UNL     1      -0.072   2.555  -2.209  1.00  0.00     0.228 C 
ATOM     17  O   UNL     1      -0.606   3.314  -1.411  1.00  0.00    -0.274 OA
ATOM     18  H   UNL     1      -0.102   3.271  -4.129  1.00  0.00     0.169 HD
BRANCH  16  19
ATOM     19  C   UNL     1       1.188   1.843  -1.787  1.00  0.00     0.091 C 
ATOM     20  C   UNL     1       2.069   0.578   0.311  1.00  0.00     0.012 C 
ATOM     21  C   UNL     1       1.232   0.547  -0.951  1.00  0.00    -0.017 C 
ATOM     22  C   UNL     1       0.063  -0.392  -0.759  1.00  0.00     0.012 C 
ATOM     23  C   UNL     1       1.906   0.622  -2.344  1.00  0.00    -0.017 C 
ATOM     24  C   UNL     1       3.420   0.689  -2.419  1.00  0.00     0.012 C 
ATOM     25  C   UNL     1       1.369  -0.173  -3.509  1.00  0.00     0.012 C 
ENDBRANCH  16  19
ENDBRANCH  10  15
ENDBRANCH   8   9
ENDBRANCH   5   8
ENDBRANCH   3   4
ENDBRANCH   2   3
ENDBRANCH   1   2
BRANCH   1  26
ATOM     26  C   UNL     1      -7.850  -1.793  -3.053  1.00  0.00     0.002 C 
BRANCH  26  27
ATOM     27  C   UNL     1      -7.711  -1.483  -1.560  1.00  0.00     0.021 C 
BRANCH  27  28
ATOM     28  C   UNL     1      -8.013  -0.035  -1.185  1.00  0.00     0.116 C 
BRANCH  28  29
ATOM     29  N   UNL     1      -9.376   0.333  -1.532  1.00  0.00    -0.352 N 
ATOM     30  C   UNL     1     -10.380   0.824  -0.741  1.00  0.00     0.251 C 
ATOM     31  H   UNL     1      -9.613   0.211  -2.480  1.00  0.00     0.163 HD
ATOM     32  O   UNL     1     -11.533   0.846  -1.159  1.00  0.00    -0.269 OA
BRANCH  30  33
ATOM     33  C   UNL     1     -10.082   1.329   0.616  1.00  0.00     0.039 A 
ATOM     34  C   UNL     1     -10.983   1.052   1.647  1.00  0.00     0.014 A 
ATOM     35  C   UNL     1      -8.956   2.121   0.863  1.00  0.00     0.014 A 
ATOM     36  C   UNL     1     -10.742   1.545   2.929  1.00  0.00     0.010 A 
ATOM     37  C   UNL     1      -8.679   2.553   2.157  1.00  0.00     0.010 A 
ATOM     38  C   UNL     1      -9.581   2.287   3.198  1.00  0.00    -0.014 A 
BRANCH  38  39
ATOM     39  C   UNL     1      -9.322   2.820   4.558  1.00  0.00     0.031 A 
ATOM     40  C   UNL     1      -9.319   4.304   4.802  1.00  0.00     0.074 A 
ATOM     41  C   UNL     1      -9.067   1.968   5.570  1.00  0.00     0.049 A 
ATOM     42  N   UNL     1      -9.118   4.956   5.920  1.00  0.00    -0.248 NA
ATOM     43  C   UNL     1      -9.551   5.172   3.636  1.00  0.00     0.031 C 
ATOM     44  C   UNL     1      -8.997   0.510   5.454  1.00  0.00     0.029 A 
ATOM     45  N   UNL     1      -8.822   2.210   6.897  1.00  0.00    -0.354 N 
ATOM     46  C   UNL     1      -9.193   6.304   5.590  1.00  0.00     0.074 A 
ATOM     47  C   UNL     1      -9.398   6.378   4.160  1.00  0.00     0.031 C 
ATOM     48  C   UNL     1      -8.755  -0.014   6.666  1.00  0.00     0.029 A 
ATOM     49  C   UNL     1      -8.625   1.069   7.636  1.00  0.00     0.049 A 
ATOM     50  H   UNL     1      -8.789   3.114   7.284  1.00  0.00     0.167 HD
ATOM     51  C   UNL     1      -9.124   7.384   6.404  1.00  0.00     0.031 A 
ATOM     52  C   UNL     1      -8.372   0.912   8.948  1.00  0.00     0.031 A 
ATOM     53  C   UNL     1      -8.924   7.313   7.827  1.00  0.00     0.049 A 
ATOM     54  C   UNL     1      -8.302   2.126   9.832  1.00  0.00     0.074 A 
ATOM     55  C   UNL     1      -8.873   8.348   8.744  1.00  0.00     0.029 A 
ATOM     56  N   UNL     1      -8.743   6.138   8.538  1.00  0.00    -0.354 N 
ATOM     57  N   UNL     1      -8.439   3.390   9.513  1.00  0.00    -0.248 NA
ATOM     58  C   UNL     1      -8.064   1.887  11.262  1.00  0.00     0.031 C 
ATOM     59  C   UNL     1      -8.622   7.800  10.007  1.00  0.00     0.029 A 
ATOM     60  C   UNL     1      -8.569   6.421   9.882  1.00  0.00     0.049 A 
ATOM     61  H   UNL     1      -8.739   5.235   8.146  1.00  0.00     0.167 HD
ATOM     62  C   UNL     1      -8.326   4.095  10.704  1.00  0.00     0.074 A 
ATOM     63  C   UNL     1      -8.135   3.116  11.754  1.00  0.00     0.031 C 
ATOM     64  C   UNL     1      -8.375   5.434  10.911  1.00  0.00     0.031 A 
BRANCH  51  65
ATOM     65  C   UNL     1      -9.274   8.737   5.766  1.00  0.00    -0.014 A 
ATOM     66  C   UNL     1     -10.512   9.162   5.255  1.00  0.00     0.009 A 
ATOM     67  C   UNL     1      -8.176   9.608   5.695  1.00  0.00     0.009 A 
ATOM     68  C   UNL     1     -10.637  10.416   4.653  1.00  0.00     0.001 A 
ATOM     69  C   UNL     1      -8.311  10.872   5.118  1.00  0.00     0.001 A 
ATOM     70  C   UNL     1      -9.538  11.271   4.589  1.00  0.00     0.000 A 
ENDBRANCH  51  65
BRANCH  52  71
ATOM     71  C   UNL     1      -8.186  -0.449   9.514  1.00  0.00    -0.014 A 
ATOM     72  C   UNL     1      -9.157  -1.011  10.357  1.00  0.00     0.009 A 
ATOM     73  C   UNL     1      -7.028  -1.187   9.225  1.00  0.00     0.009 A 
ATOM     74  C   UNL     1      -8.957  -2.272  10.924  1.00  0.00     0.001 A 
ATOM     75  C   UNL     1      -6.845  -2.459   9.770  1.00  0.00     0.001 A 
ATOM     76  C   UNL     1      -7.804  -2.996  10.628  1.00  0.00     0.000 A 
ENDBRANCH  52  71
BRANCH  64  77
ATOM     77  C   UNL     1      -8.248   5.908  12.331  1.00  0.00    -0.014 A 
ATOM     78  C   UNL     1      -7.023   5.846  13.014  1.00  0.00     0.009 A 
ATOM     79  C   UNL     1      -9.367   6.443  12.988  1.00  0.00     0.009 A 
ATOM     80  C   UNL     1      -6.932   6.272  14.340  1.00  0.00     0.001 A 
ATOM     81  C   UNL     1      -9.266   6.896  14.304  1.00  0.00     0.001 A 
ATOM     82  C   UNL     1      -8.052   6.799  14.982  1.00  0.00     0.000 A 
ENDBRANCH  64  77
ENDBRANCH  38  39
ENDBRANCH  30  33
ENDBRANCH  28  29
ENDBRANCH  27  28
ENDBRANCH  26  27
ENDBRANCH   1  26
TORSDOF 16
