REMARK SMILES Cc1cnc2nc(-c3cc(F)c(F)cc3C(=O)NCCCCCCNC(=O)c3ccc(-c4c5nc(c(-c6ccccc6)c6ccc([nH]6)c(-c6ccccc6)c6nc(c(-c7ccccc7)c7ccc4[nH]7)C=C6)C=C5)cc3)[nH]c2c1
REMARK SMILES IDX 22 1 21 2 20 3 19 4 18 5 16 6 17 7 15 9 8 10 9 11 10 12
REMARK SMILES IDX 14 13 11 14 12 15 13 16 7 17 1 18 2 19 3 20 78 21 4 22 77 23
REMARK SMILES IDX 5 24 76 25 6 26 23 28 24 29 25 30 26 31 27 33 28 34 29 35
REMARK SMILES IDX 75 36 30 37 74 38 31 39 32 40 33 41 68 42 34 43 73 44 67 45
REMARK SMILES IDX 69 46 35 47 72 48 66 49 65 50 36 52 58 53 43 54 57 55 44 56
REMARK SMILES IDX 47 57 56 58 70 59 45 60 46 61 55 63 71 64 48 65 37 66 38 67
REMARK SMILES IDX 42 68 39 69 41 70 40 71 59 72 60 73 64 74 61 75 63 76 62 77
REMARK SMILES IDX 49 78 50 79 54 80 51 81 53 82 52 83
REMARK H PARENT 18 8 76 27 25 32 69 51 47 62
REMARK Flexibility Score: inf
ROOT
ATOM      1  C   UNL     1      -2.057  -3.988  -0.801  1.00  0.00     0.002 C 
ENDROOT
BRANCH   1   2
ATOM      2  C   UNL     1      -3.271  -3.216  -1.348  1.00  0.00     0.002 C 
BRANCH   2   3
ATOM      3  C   UNL     1      -3.062  -2.269  -2.528  1.00  0.00     0.021 C 
BRANCH   3   4
ATOM      4  C   UNL     1      -2.345  -2.806  -3.754  1.00  0.00     0.116 C 
BRANCH   4   5
ATOM      5  N   UNL     1      -3.020  -3.789  -4.545  1.00  0.00    -0.352 N 
ATOM      6  C   UNL     1      -2.901  -4.076  -5.883  1.00  0.00     0.252 C 
ATOM      7  O   UNL     1      -3.473  -5.106  -6.256  1.00  0.00    -0.269 OA
ATOM      8  H   UNL     1      -3.668  -4.345  -4.055  1.00  0.00     0.163 HD
BRANCH   6   9
ATOM      9  C   UNL     1      -2.269  -3.206  -6.947  1.00  0.00     0.053 A 
ATOM     10  C   UNL     1      -1.129  -2.361  -6.915  1.00  0.00     0.033 A 
ATOM     11  C   UNL     1      -0.748  -1.671  -8.095  1.00  0.00     0.055 A 
ATOM     12  C   UNL     1      -1.459  -1.806  -9.278  1.00  0.00     0.159 A 
ATOM     13  C   UNL     1      -2.961  -3.320  -8.184  1.00  0.00     0.057 A 
ATOM     14  F   UNL     1      -1.066  -1.127 -10.363  1.00  0.00    -0.204 F 
ATOM     15  C   UNL     1      -2.561  -2.632  -9.324  1.00  0.00     0.159 A 
ATOM     16  F   UNL     1      -3.254  -2.772 -10.462  1.00  0.00    -0.204 F 
BRANCH  10  17
ATOM     17  C   UNL     1      -0.252  -2.100  -5.774  1.00  0.00     0.141 A 
ATOM     18  C   UNL     1       2.123   0.247  -0.840  1.00  0.00     0.046 C 
ATOM     19  C   UNL     1       1.747  -0.571  -2.040  1.00  0.00    -0.031 A 
ATOM     20  C   UNL     1       2.244  -1.870  -2.187  1.00  0.00     0.117 A 
ATOM     21  C   UNL     1       0.912  -0.056  -3.037  1.00  0.00     0.035 A 
ATOM     22  N   UNL     1       1.949  -2.728  -3.190  1.00  0.00    -0.235 NA
ATOM     23  C   UNL     1       0.619  -0.933  -4.079  1.00  0.00     0.085 A 
ATOM     24  C   UNL     1       1.114  -2.229  -4.125  1.00  0.00     0.178 A 
ATOM     25  N   UNL     1      -0.158  -0.841  -5.202  1.00  0.00    -0.337 N 
ATOM     26  N   UNL     1       0.565  -2.936  -5.167  1.00  0.00    -0.209 NA
ATOM     27  H   UNL     1      -0.578  -0.019  -5.545  1.00  0.00     0.168 HD
ENDBRANCH  10  17
ENDBRANCH   6   9
ENDBRANCH   4   5
ENDBRANCH   3   4
ENDBRANCH   2   3
ENDBRANCH   1   2
BRANCH   1  28
ATOM     28  C   UNL     1      -0.751  -3.217  -0.582  1.00  0.00     0.021 C 
BRANCH  28  29
ATOM     29  C   UNL     1      -0.873  -2.020   0.338  1.00  0.00     0.116 C 
BRANCH  29  30
ATOM     30  N   UNL     1      -0.811  -2.317   1.764  1.00  0.00    -0.352 N 
ATOM     31  C   UNL     1      -0.585  -1.425   2.799  1.00  0.00     0.251 C 
ATOM     32  H   UNL     1      -0.946  -3.258   2.021  1.00  0.00     0.163 HD
ATOM     33  O   UNL     1      -0.286  -1.825   3.924  1.00  0.00    -0.269 OA
BRANCH  31  34
ATOM     34  C   UNL     1      -0.688   0.029   2.538  1.00  0.00     0.039 A 
ATOM     35  C   UNL     1       0.144   0.958   3.170  1.00  0.00     0.014 A 
ATOM     36  C   UNL     1      -1.633   0.467   1.618  1.00  0.00     0.014 A 
ATOM     37  C   UNL     1       0.053   2.304   2.808  1.00  0.00     0.010 A 
ATOM     38  C   UNL     1      -1.579   1.741   1.118  1.00  0.00     0.010 A 
ATOM     39  C   UNL     1      -0.803   2.690   1.762  1.00  0.00    -0.014 A 
BRANCH  39  40
ATOM     40  C   UNL     1      -0.870   4.069   1.285  1.00  0.00     0.031 A 
ATOM     41  C   UNL     1       0.446   4.713   1.038  1.00  0.00     0.074 A 
ATOM     42  C   UNL     1      -2.019   4.691   0.933  1.00  0.00     0.049 A 
ATOM     43  N   UNL     1       1.011   5.617   1.765  1.00  0.00    -0.248 NA
ATOM     44  C   UNL     1       1.292   4.215  -0.056  1.00  0.00     0.031 C 
ATOM     45  C   UNL     1      -3.386   4.154   0.857  1.00  0.00     0.029 A 
ATOM     46  N   UNL     1      -2.184   5.958   0.467  1.00  0.00    -0.354 N 
ATOM     47  C   UNL     1       2.195   5.956   1.119  1.00  0.00     0.074 A 
ATOM     48  C   UNL     1       2.396   4.950   0.106  1.00  0.00     0.031 C 
ATOM     49  C   UNL     1      -4.173   4.994   0.148  1.00  0.00     0.029 A 
ATOM     50  C   UNL     1      -3.431   6.215  -0.092  1.00  0.00     0.049 A 
ATOM     51  H   UNL     1      -1.476   6.640   0.522  1.00  0.00     0.167 HD
ATOM     52  C   UNL     1       2.774   7.174   1.319  1.00  0.00     0.031 A 
ATOM     53  C   UNL     1      -3.833   7.362  -0.690  1.00  0.00     0.031 A 
ATOM     54  C   UNL     1       2.191   7.850   2.453  1.00  0.00     0.049 A 
ATOM     55  C   UNL     1      -2.961   8.440  -0.174  1.00  0.00     0.074 A 
ATOM     56  C   UNL     1       2.079   7.585   3.803  1.00  0.00     0.029 A 
ATOM     57  N   UNL     1       1.246   8.810   2.178  1.00  0.00    -0.354 N 
ATOM     58  N   UNL     1      -2.977   8.831   1.067  1.00  0.00    -0.248 NA
ATOM     59  C   UNL     1      -1.759   8.763  -0.922  1.00  0.00     0.031 C 
ATOM     60  C   UNL     1       0.768   8.027   4.152  1.00  0.00     0.029 A 
ATOM     61  C   UNL     1       0.188   8.604   3.021  1.00  0.00     0.049 A 
ATOM     62  H   UNL     1       1.317   9.518   1.497  1.00  0.00     0.167 HD
ATOM     63  C   UNL     1      -1.642   9.032   1.384  1.00  0.00     0.074 A 
ATOM     64  C   UNL     1      -0.951   9.077   0.095  1.00  0.00     0.031 C 
ATOM     65  C   UNL     1      -1.190   8.857   2.661  1.00  0.00     0.031 A 
BRANCH  52  66
ATOM     66  C   UNL     1       3.521   7.948   0.257  1.00  0.00    -0.014 A 
ATOM     67  C   UNL     1       3.990   9.236   0.585  1.00  0.00     0.009 A 
ATOM     68  C   UNL     1       3.513   7.610  -1.107  1.00  0.00     0.009 A 
ATOM     69  C   UNL     1       4.309  10.173  -0.404  1.00  0.00     0.001 A 
ATOM     70  C   UNL     1       3.873   8.531  -2.097  1.00  0.00     0.001 A 
ATOM     71  C   UNL     1       4.234   9.824  -1.746  1.00  0.00     0.000 A 
ENDBRANCH  52  66
BRANCH  53  72
ATOM     72  C   UNL     1      -4.708   7.554  -1.865  1.00  0.00    -0.014 A 
ATOM     73  C   UNL     1      -5.223   8.825  -2.168  1.00  0.00     0.009 A 
ATOM     74  C   UNL     1      -4.776   6.565  -2.863  1.00  0.00     0.009 A 
ATOM     75  C   UNL     1      -5.731   9.113  -3.442  1.00  0.00     0.001 A 
ATOM     76  C   UNL     1      -5.284   6.853  -4.136  1.00  0.00     0.001 A 
ATOM     77  C   UNL     1      -5.742   8.133  -4.431  1.00  0.00     0.000 A 
ENDBRANCH  53  72
BRANCH  65  78
ATOM     78  C   UNL     1      -2.207   8.663   3.759  1.00  0.00    -0.014 A 
ATOM     79  C   UNL     1      -3.079   7.560   3.817  1.00  0.00     0.009 A 
ATOM     80  C   UNL     1      -2.153   9.526   4.863  1.00  0.00     0.009 A 
ATOM     81  C   UNL     1      -3.880   7.340   4.943  1.00  0.00     0.001 A 
ATOM     82  C   UNL     1      -2.937   9.294   5.995  1.00  0.00     0.001 A 
ATOM     83  C   UNL     1      -3.802   8.203   6.035  1.00  0.00     0.000 A 
ENDBRANCH  65  78
ENDBRANCH  39  40
ENDBRANCH  31  34
ENDBRANCH  29  30
ENDBRANCH  28  29
ENDBRANCH   1  28
TORSDOF 14
