REMARK SMILES CCC(CC)C[N@H+]1[C@@H]2CC[C@H]1C[C@H](CC(=O)NCCCCCCNC(=O)c1ccc(-c3c4nc(c(-c5ccccc5)c5ccc([nH]5)c(-c5ccccc5)c5nc(c(-c6ccccc6)c6ccc3[nH]6)C=C5)C=C4)cc1)C2
REMARK SMILES IDX 19 1 18 2 17 3 15 4 16 5 14 7 13 8 7 9 8 10 11 11 9 13 75 14
REMARK SMILES IDX 10 15 12 16 6 17 3 18 2 19 1 20 4 21 5 22 20 23 21 24 22 25
REMARK SMILES IDX 23 26 24 27 25 28 26 30 27 31 28 32 74 33 29 34 73 35 30 36
REMARK SMILES IDX 31 37 32 38 67 39 33 40 72 41 66 42 68 43 34 44 71 45 65 46
REMARK SMILES IDX 64 47 35 49 57 50 42 51 56 52 43 53 46 54 55 55 69 56 44 57
REMARK SMILES IDX 45 58 54 60 70 61 47 62 36 63 37 64 41 65 38 66 40 67 39 68
REMARK SMILES IDX 58 69 59 70 63 71 60 72 62 73 61 74 48 75 49 76 53 77 50 78
REMARK SMILES IDX 52 79 51 80
REMARK H PARENT 17 6 7 12 24 29 68 48 46 59
REMARK Flexibility Score: inf
ROOT
ATOM      1  C   UNL     1       3.938  -0.455  -0.767  1.00  0.00     0.021 C 
ENDROOT
BRANCH   1   2
ATOM      2  C   UNL     1       2.626   0.302  -1.032  1.00  0.00     0.116 C 
BRANCH   2   3
ATOM      3  N   UNL     1       2.167   0.082  -2.395  1.00  0.00    -0.356 N 
ATOM      4  C   UNL     1       1.204  -0.702  -2.950  1.00  0.00     0.220 C 
ATOM      5  O   UNL     1       1.132  -0.696  -4.183  1.00  0.00    -0.275 OA
ATOM      6  H   UNL     1       2.661   0.616  -3.059  1.00  0.00     0.163 HD
BRANCH   4   7
ATOM      7  C   UNL     1       0.168  -1.473  -2.142  1.00  0.00     0.104 C 
BRANCH   7   8
ATOM      8  C   UNL     1       0.522  -2.850  -1.517  1.00  0.00     0.010 C 
ATOM      9  N   UNL     1       0.609  -3.957   1.220  1.00  0.00    -0.330 N 
ATOM     10  C   UNL     1      -0.385  -4.478   0.298  1.00  0.00     0.184 C 
ATOM     11  C   UNL     1       1.848  -3.903   0.476  1.00  0.00     0.184 C 
ATOM     12  H   UNL     1       0.765  -4.537   2.044  1.00  0.00     0.348 HD
ATOM     13  C   UNL     1       0.384  -5.669  -0.298  1.00  0.00     0.071 C 
ATOM     14  C   UNL     1      -0.721  -3.439  -0.784  1.00  0.00     0.069 C 
ATOM     15  C   UNL     1       1.863  -5.299  -0.153  1.00  0.00     0.071 C 
ATOM     16  C   UNL     1       1.772  -2.836  -0.618  1.00  0.00     0.069 C 
BRANCH   9  17
ATOM     17  C   UNL     1       0.255  -3.106   2.345  1.00  0.00     0.266 C 
BRANCH  17  18
ATOM     18  C   UNL     1       0.514  -1.565   2.412  1.00  0.00     0.044 C 
BRANCH  18  19
ATOM     19  C   UNL     1      -0.323  -0.763   1.409  1.00  0.00     0.006 C 
ATOM     20  C   UNL     1      -0.125   0.750   1.433  1.00  0.00     0.004 C 
ENDBRANCH  18  19
BRANCH  18  21
ATOM     21  C   UNL     1       0.283  -1.028   3.848  1.00  0.00     0.006 C 
ATOM     22  C   UNL     1      -1.179  -0.937   4.277  1.00  0.00     0.004 C 
ENDBRANCH  18  21
ENDBRANCH  17  18
ENDBRANCH   9  17
ENDBRANCH   7   8
ENDBRANCH   4   7
ENDBRANCH   2   3
ENDBRANCH   1   2
BRANCH   1  23
ATOM     23  C   UNL     1       5.190   0.418  -0.848  1.00  0.00     0.002 C 
BRANCH  23  24
ATOM     24  C   UNL     1       5.376   1.371   0.336  1.00  0.00     0.002 C 
BRANCH  24  25
ATOM     25  C   UNL     1       5.542   0.707   1.708  1.00  0.00     0.021 C 
BRANCH  25  26
ATOM     26  C   UNL     1       6.641  -0.351   1.803  1.00  0.00     0.116 C 
BRANCH  26  27
ATOM     27  N   UNL     1       7.935   0.149   1.363  1.00  0.00    -0.352 N 
ATOM     28  C   UNL     1       9.141   0.147   2.002  1.00  0.00     0.251 C 
ATOM     29  H   UNL     1       7.941   0.552   0.465  1.00  0.00     0.163 HD
ATOM     30  O   UNL     1      10.088   0.790   1.527  1.00  0.00    -0.269 OA
BRANCH  28  31
ATOM     31  C   UNL     1       9.335  -0.603   3.257  1.00  0.00     0.039 A 
ATOM     32  C   UNL     1      10.072  -0.013   4.288  1.00  0.00     0.014 A 
ATOM     33  C   UNL     1       8.834  -1.900   3.408  1.00  0.00     0.014 A 
ATOM     34  C   UNL     1      10.270  -0.705   5.483  1.00  0.00     0.010 A 
ATOM     35  C   UNL     1       8.973  -2.562   4.626  1.00  0.00     0.010 A 
ATOM     36  C   UNL     1       9.703  -1.976   5.670  1.00  0.00    -0.014 A 
BRANCH  36  37
ATOM     37  C   UNL     1       9.888  -2.706   6.949  1.00  0.00     0.031 A 
ATOM     38  C   UNL     1      10.684  -3.982   6.987  1.00  0.00     0.074 A 
ATOM     39  C   UNL     1       9.322  -2.228   8.074  1.00  0.00     0.049 A 
ATOM     40  N   UNL     1      10.960  -4.753   8.009  1.00  0.00    -0.248 NA
ATOM     41  C   UNL     1      11.225  -4.468   5.706  1.00  0.00     0.031 C 
ATOM     42  C   UNL     1       8.500  -1.019   8.162  1.00  0.00     0.029 A 
ATOM     43  N   UNL     1       9.362  -2.697   9.363  1.00  0.00    -0.354 N 
ATOM     44  C   UNL     1      11.702  -5.810   7.495  1.00  0.00     0.074 A 
ATOM     45  C   UNL     1      11.781  -5.616   6.064  1.00  0.00     0.031 C 
ATOM     46  C   UNL     1       8.147  -0.820   9.443  1.00  0.00     0.029 A 
ATOM     47  C   UNL     1       8.689  -1.901  10.258  1.00  0.00     0.049 A 
ATOM     48  H   UNL     1       9.828  -3.524   9.621  1.00  0.00     0.167 HD
ATOM     49  C   UNL     1      12.289  -6.836   8.156  1.00  0.00     0.031 A 
ATOM     50  C   UNL     1       8.535  -2.026  11.589  1.00  0.00     0.031 A 
ATOM     51  C   UNL     1      12.212  -7.031   9.579  1.00  0.00     0.049 A 
ATOM     52  C   UNL     1       9.182  -3.186  12.294  1.00  0.00     0.074 A 
ATOM     53  C   UNL     1      12.787  -8.028  10.348  1.00  0.00     0.029 A 
ATOM     54  N   UNL     1      11.518  -6.205  10.450  1.00  0.00    -0.354 N 
ATOM     55  N   UNL     1       9.923  -4.148  11.800  1.00  0.00    -0.248 NA
ATOM     56  C   UNL     1       8.987  -3.262  13.749  1.00  0.00     0.031 C 
ATOM     57  C   UNL     1      12.411  -7.825  11.680  1.00  0.00     0.029 A 
ATOM     58  C   UNL     1      11.646  -6.672  11.747  1.00  0.00     0.049 A 
ATOM     59  H   UNL     1      11.011  -5.404  10.185  1.00  0.00     0.167 HD
ATOM     60  C   UNL     1      10.312  -4.921  12.886  1.00  0.00     0.074 A 
ATOM     61  C   UNL     1       9.741  -4.304  14.065  1.00  0.00     0.031 C 
ATOM     62  C   UNL     1      11.075  -6.041  12.908  1.00  0.00     0.031 A 
BRANCH  49  63
ATOM     63  C   UNL     1      13.075  -7.824   7.338  1.00  0.00    -0.014 A 
ATOM     64  C   UNL     1      14.299  -7.462   6.752  1.00  0.00     0.009 A 
ATOM     65  C   UNL     1      12.609  -9.138   7.179  1.00  0.00     0.009 A 
ATOM     66  C   UNL     1      15.023  -8.386   5.995  1.00  0.00     0.001 A 
ATOM     67  C   UNL     1      13.349 -10.068   6.445  1.00  0.00     0.001 A 
ATOM     68  C   UNL     1      14.550  -9.689   5.846  1.00  0.00     0.000 A 
ENDBRANCH  49  63
BRANCH  50  69
ATOM     69  C   UNL     1       7.764  -1.014  12.358  1.00  0.00    -0.014 A 
ATOM     70  C   UNL     1       8.417  -0.154  13.255  1.00  0.00     0.009 A 
ATOM     71  C   UNL     1       6.370  -0.923  12.225  1.00  0.00     0.009 A 
ATOM     72  C   UNL     1       7.686   0.746  14.034  1.00  0.00     0.001 A 
ATOM     73  C   UNL     1       5.645  -0.000  12.983  1.00  0.00     0.001 A 
ATOM     74  C   UNL     1       6.302   0.823  13.896  1.00  0.00     0.000 A 
ENDBRANCH  50  69
BRANCH  62  75
ATOM     75  C   UNL     1      11.375  -6.634  14.256  1.00  0.00    -0.014 A 
ATOM     76  C   UNL     1      10.382  -7.279  15.010  1.00  0.00     0.009 A 
ATOM     77  C   UNL     1      12.677  -6.549  14.774  1.00  0.00     0.009 A 
ATOM     78  C   UNL     1      10.677  -7.783  16.278  1.00  0.00     0.001 A 
ATOM     79  C   UNL     1      12.976  -7.083  16.027  1.00  0.00     0.001 A 
ATOM     80  C   UNL     1      11.973  -7.687  16.784  1.00  0.00     0.000 A 
ENDBRANCH  62  75
ENDBRANCH  36  37
ENDBRANCH  28  31
ENDBRANCH  26  27
ENDBRANCH  25  26
ENDBRANCH  24  25
ENDBRANCH  23  24
ENDBRANCH   1  23
TORSDOF 18
