REMARK SMILES COC(=O)c1ccc2c(c1)=N[C@H](c1cn(CCC(=O)NCCCCCCNC(=O)c3ccc(-c4c5nc(c(-c6ccccc6)c6ccc([nH]6)c(-c6ccccc6)c6nc(c(-c7ccccc7)c7ccc4[nH]7)C=C6)C=C5)cc3)c3ccccc13)N=2
REMARK SMILES IDX 22 1 21 2 20 3 18 4 19 5 17 7 16 8 15 9 13 10 14 11 83 12
REMARK SMILES IDX 78 13 82 14 79 15 81 16 80 17 12 18 5 19 6 20 10 21 7 22
REMARK SMILES IDX 9 23 8 24 11 25 84 26 3 27 4 28 2 29 1 30 23 31 24 32 25 33
REMARK SMILES IDX 26 34 27 35 28 36 29 38 30 39 31 40 77 41 32 42 76 43 33 44
REMARK SMILES IDX 34 45 35 46 70 47 36 48 75 49 69 50 71 51 37 52 74 53 68 54
REMARK SMILES IDX 67 55 38 57 60 58 45 59 59 60 46 61 49 62 58 63 72 64 47 65
REMARK SMILES IDX 48 66 57 68 73 69 50 70 39 71 40 72 44 73 41 74 43 75 42 76
REMARK SMILES IDX 61 77 62 78 66 79 63 80 65 81 64 82 51 83 52 84 56 85 53 86
REMARK SMILES IDX 55 87 54 88
REMARK H PARENT 20 6 27 37 71 56 49 67
REMARK Flexibility Score: inf
ROOT
ATOM      1  C   UNL     1      -2.502   5.032  -9.677  1.00  0.00     0.021 C 
ENDROOT
BRANCH   1   2
ATOM      2  C   UNL     1      -1.796   5.999 -10.651  1.00  0.00     0.116 C 
BRANCH   2   3
ATOM      3  N   UNL     1      -1.806   7.405 -10.274  1.00  0.00    -0.356 N 
ATOM      4  C   UNL     1      -0.814   8.321 -10.079  1.00  0.00     0.221 C 
ATOM      5  O   UNL     1      -1.156   9.493  -9.891  1.00  0.00    -0.275 OA
ATOM      6  H   UNL     1      -2.710   7.768 -10.130  1.00  0.00     0.163 HD
BRANCH   4   7
ATOM      7  C   UNL     1       0.659   7.964 -10.164  1.00  0.00     0.122 C 
BRANCH   7   8
ATOM      8  C   UNL     1       1.471   8.471  -8.945  1.00  0.00     0.132 C 
BRANCH   8   9
ATOM      9  N   UNL     1       1.481   7.559  -7.787  1.00  0.00    -0.347 N 
ATOM     10  C   UNL     1       0.551   5.567  -7.549  1.00  0.00     0.024 A 
ATOM     11  C   UNL     1       1.718   6.215  -7.966  1.00  0.00     0.094 A 
ATOM     12  C   UNL     1      -0.374   6.646  -7.263  1.00  0.00     0.007 A 
ATOM     13  C   UNL     1       0.529   7.589  -6.789  1.00  0.00     0.048 A 
ATOM     14  C   UNL     1      -1.679   6.811  -6.785  1.00  0.00     0.011 A 
ATOM     15  C   UNL     1       0.448   7.997  -5.450  1.00  0.00     0.027 A 
ATOM     16  C   UNL     1      -1.887   7.367  -5.530  1.00  0.00     0.001 A 
ATOM     17  C   UNL     1      -0.788   7.801  -4.806  1.00  0.00     0.002 A 
BRANCH  10  18
ATOM     18  C   UNL     1       0.483   4.079  -7.359  1.00  0.00     0.255 C 
ATOM     19  C   UNL     1       0.712   1.940  -3.380  1.00  0.00     0.062 A 
ATOM     20  C   UNL     1      -0.662   1.632  -3.752  1.00  0.00     0.018 A 
ATOM     21  C   UNL     1       1.532   2.633  -4.192  1.00  0.00     0.046 A 
ATOM     22  C   UNL     1      -1.256   2.127  -4.846  1.00  0.00     0.031 A 
ATOM     23  C   UNL     1       0.984   3.120  -5.462  1.00  0.00     0.087 A 
ATOM     24  C   UNL     1      -0.454   2.960  -5.749  1.00  0.00     0.086 A 
ATOM     25  N   UNL     1       1.596   3.703  -6.429  1.00  0.00    -0.252 NA
ATOM     26  N   UNL     1      -0.806   3.562  -6.831  1.00  0.00    -0.252 NA
BRANCH  19  27
ATOM     27  C   UNL     1       1.258   1.544  -2.053  1.00  0.00     0.337 C 
ATOM     28  O   UNL     1       2.207   2.108  -1.502  1.00  0.00    -0.246 OA
BRANCH  27  29
ATOM     29  O   UNL     1       0.558   0.504  -1.544  1.00  0.00    -0.465 OA
ATOM     30  C   UNL     1       0.941   0.114  -0.224  1.00  0.00     0.282 C 
ENDBRANCH  27  29
ENDBRANCH  19  27
ENDBRANCH  10  18
ENDBRANCH   8   9
ENDBRANCH   7   8
ENDBRANCH   4   7
ENDBRANCH   2   3
ENDBRANCH   1   2
BRANCH   1  31
ATOM     31  C   UNL     1      -3.845   5.480  -9.073  1.00  0.00     0.002 C 
BRANCH  31  32
ATOM     32  C   UNL     1      -4.956   4.435  -9.009  1.00  0.00     0.002 C 
BRANCH  32  33
ATOM     33  C   UNL     1      -4.575   3.090  -8.397  1.00  0.00     0.021 C 
BRANCH  33  34
ATOM     34  C   UNL     1      -3.965   3.132  -6.996  1.00  0.00     0.116 C 
BRANCH  34  35
ATOM     35  N   UNL     1      -4.871   3.193  -5.858  1.00  0.00    -0.352 N 
ATOM     36  C   UNL     1      -5.715   2.283  -5.273  1.00  0.00     0.251 C 
ATOM     37  H   UNL     1      -4.881   4.073  -5.416  1.00  0.00     0.163 HD
ATOM     38  O   UNL     1      -6.197   2.549  -4.172  1.00  0.00    -0.269 OA
BRANCH  36  39
ATOM     39  C   UNL     1      -6.149   1.047  -5.959  1.00  0.00     0.039 A 
ATOM     40  C   UNL     1      -5.364   0.372  -6.882  1.00  0.00     0.014 A 
ATOM     41  C   UNL     1      -7.453   0.589  -5.698  1.00  0.00     0.014 A 
ATOM     42  C   UNL     1      -5.942  -0.585  -7.694  1.00  0.00     0.010 A 
ATOM     43  C   UNL     1      -8.008  -0.445  -6.448  1.00  0.00     0.010 A 
ATOM     44  C   UNL     1      -7.273  -0.987  -7.495  1.00  0.00    -0.014 A 
BRANCH  44  45
ATOM     45  C   UNL     1      -7.739  -2.089  -8.336  1.00  0.00     0.031 A 
ATOM     46  C   UNL     1      -6.774  -3.216  -8.390  1.00  0.00     0.074 A 
ATOM     47  C   UNL     1      -8.903  -2.165  -9.011  1.00  0.00     0.049 A 
ATOM     48  N   UNL     1      -6.052  -3.564  -9.402  1.00  0.00    -0.248 NA
ATOM     49  C   UNL     1      -6.435  -3.905  -7.135  1.00  0.00     0.031 C 
ATOM     50  C   UNL     1     -10.077  -1.302  -8.881  1.00  0.00     0.029 A 
ATOM     51  N   UNL     1      -9.311  -3.109  -9.915  1.00  0.00    -0.354 N 
ATOM     52  C   UNL     1      -5.306  -4.652  -8.971  1.00  0.00     0.074 A 
ATOM     53  C   UNL     1      -5.455  -4.713  -7.540  1.00  0.00     0.031 C 
ATOM     54  C   UNL     1     -11.136  -1.897  -9.477  1.00  0.00     0.029 A 
ATOM     55  C   UNL     1     -10.673  -3.083 -10.179  1.00  0.00     0.049 A 
ATOM     56  H   UNL     1      -8.694  -3.748 -10.340  1.00  0.00     0.167 HD
ATOM     57  C   UNL     1      -4.869  -5.581  -9.862  1.00  0.00     0.031 A 
ATOM     58  C   UNL     1     -11.379  -3.982 -10.904  1.00  0.00     0.031 A 
ATOM     59  C   UNL     1      -4.903  -5.084 -11.213  1.00  0.00     0.049 A 
ATOM     60  C   UNL     1     -10.465  -4.637 -11.860  1.00  0.00     0.074 A 
ATOM     61  C   UNL     1      -4.127  -4.274 -12.011  1.00  0.00     0.029 A 
ATOM     62  N   UNL     1      -6.135  -5.172 -11.799  1.00  0.00    -0.354 N 
ATOM     63  N   UNL     1      -9.908  -4.013 -12.857  1.00  0.00    -0.248 NA
ATOM     64  C   UNL     1      -9.926  -5.960 -11.565  1.00  0.00     0.031 C 
ATOM     65  C   UNL     1      -4.990  -3.769 -13.032  1.00  0.00     0.029 A 
ATOM     66  C   UNL     1      -6.260  -4.312 -12.858  1.00  0.00     0.049 A 
ATOM     67  H   UNL     1      -6.848  -5.781 -11.497  1.00  0.00     0.167 HD
ATOM     68  C   UNL     1      -8.696  -4.651 -13.015  1.00  0.00     0.074 A 
ATOM     69  C   UNL     1      -8.844  -5.937 -12.347  1.00  0.00     0.031 C 
ATOM     70  C   UNL     1      -7.574  -3.956 -13.355  1.00  0.00     0.031 A 
BRANCH  57  71
ATOM     71  C   UNL     1      -4.937  -7.064  -9.569  1.00  0.00    -0.014 A 
ATOM     72  C   UNL     1      -5.680  -7.606  -8.501  1.00  0.00     0.009 A 
ATOM     73  C   UNL     1      -4.492  -7.971 -10.547  1.00  0.00     0.009 A 
ATOM     74  C   UNL     1      -5.962  -8.971  -8.403  1.00  0.00     0.001 A 
ATOM     75  C   UNL     1      -4.802  -9.336 -10.470  1.00  0.00     0.001 A 
ATOM     76  C   UNL     1      -5.537  -9.835  -9.399  1.00  0.00     0.000 A 
ENDBRANCH  57  71
BRANCH  58  77
ATOM     77  C   UNL     1     -12.728  -4.524 -10.640  1.00  0.00    -0.014 A 
ATOM     78  C   UNL     1     -13.187  -4.638  -9.316  1.00  0.00     0.009 A 
ATOM     79  C   UNL     1     -13.419  -5.228 -11.640  1.00  0.00     0.009 A 
ATOM     80  C   UNL     1     -14.256  -5.480  -8.993  1.00  0.00     0.001 A 
ATOM     81  C   UNL     1     -14.487  -6.074 -11.315  1.00  0.00     0.001 A 
ATOM     82  C   UNL     1     -14.890  -6.215  -9.989  1.00  0.00     0.000 A 
ENDBRANCH  58  77
BRANCH  70  83
ATOM     83  C   UNL     1      -7.736  -2.666 -14.109  1.00  0.00    -0.014 A 
ATOM     84  C   UNL     1      -7.092  -2.553 -15.351  1.00  0.00     0.009 A 
ATOM     85  C   UNL     1      -8.441  -1.553 -13.622  1.00  0.00     0.009 A 
ATOM     86  C   UNL     1      -7.138  -1.366 -16.083  1.00  0.00     0.001 A 
ATOM     87  C   UNL     1      -8.510  -0.370 -14.368  1.00  0.00     0.001 A 
ATOM     88  C   UNL     1      -7.851  -0.275 -15.594  1.00  0.00     0.000 A 
ENDBRANCH  70  83
ENDBRANCH  44  45
ENDBRANCH  36  39
ENDBRANCH  34  35
ENDBRANCH  33  34
ENDBRANCH  32  33
ENDBRANCH  31  32
ENDBRANCH   1  31
TORSDOF 18
