REMARK SMILES CCN(CC(C)(C)O)C(=O)Nc1ccc(C(=O)NCCCCCCNC(=O)c2ccc(-c3c4nc(c(-c5ccccc5)c5ccc([nH]5)c(-c5ccccc5)c5nc(c(-c6ccccc6)c6ccc3[nH]6)C=C5)C=C4)cc2)c(O)c1
REMARK SMILES IDX 20 1 19 2 18 3 16 4 17 5 15 7 12 8 13 9 78 10 14 11 76 12
REMARK SMILES IDX 11 13 9 14 10 15 3 17 2 18 1 19 4 20 5 21 6 22 7 23 8 24
REMARK SMILES IDX 77 26 21 28 22 29 23 30 24 31 25 32 26 33 27 35 28 36 29 37
REMARK SMILES IDX 75 38 30 39 74 40 31 41 32 42 33 43 68 44 34 45 73 46 67 47
REMARK SMILES IDX 69 48 35 49 72 50 66 51 65 52 36 54 58 55 43 56 57 57 44 58
REMARK SMILES IDX 47 59 56 60 70 61 45 62 46 63 55 65 71 66 48 67 37 68 38 69
REMARK SMILES IDX 42 70 39 71 41 72 40 73 59 74 60 75 64 76 61 77 63 78 62 79
REMARK SMILES IDX 49 80 50 81 54 82 51 83 53 84 52 85
REMARK H PARENT 18 6 11 16 8 25 77 27 25 34 69 53 47 64
REMARK Flexibility Score: inf
ROOT
ATOM      1  C   UNL     1      -1.095   6.565   7.215  1.00  0.00     0.021 C 
ENDROOT
BRANCH   1   2
ATOM      2  C   UNL     1      -0.087   5.435   7.312  1.00  0.00     0.116 C 
BRANCH   2   3
ATOM      3  N   UNL     1      -0.475   4.349   8.180  1.00  0.00    -0.352 N 
ATOM      4  C   UNL     1       0.079   3.100   8.256  1.00  0.00     0.255 C 
ATOM      5  O   UNL     1      -0.294   2.323   9.131  1.00  0.00    -0.269 OA
ATOM      6  H   UNL     1      -1.227   4.529   8.789  1.00  0.00     0.163 HD
BRANCH   4   7
ATOM      7  C   UNL     1       0.991   2.630   7.192  1.00  0.00     0.081 A 
ATOM      8  C   UNL     1       2.161   1.703   4.803  1.00  0.00     0.046 A 
ATOM      9  C   UNL     1       1.296   0.950   5.548  1.00  0.00     0.027 A 
ATOM     10  C   UNL     1       2.628   2.874   5.394  1.00  0.00     0.073 A 
ATOM     11  C   UNL     1       0.650   1.397   6.682  1.00  0.00     0.020 A 
ATOM     12  C   UNL     1       2.077   3.303   6.617  1.00  0.00     0.130 A 
BRANCH   8  13
ATOM     13  N   UNL     1       2.634   1.243   3.570  1.00  0.00    -0.308 N 
ATOM     14  C   UNL     1       2.348   0.269   2.668  1.00  0.00     0.321 C 
ATOM     15  O   UNL     1       3.280   0.073   1.871  1.00  0.00    -0.248 OA
ATOM     16  H   UNL     1       3.398   1.784   3.267  1.00  0.00     0.171 HD
BRANCH  14  17
ATOM     17  N   UNL     1       1.150  -0.401   2.504  1.00  0.00    -0.322 N 
BRANCH  17  18
ATOM     18  C   UNL     1       1.030  -1.140   1.230  1.00  0.00     0.118 C 
ATOM     19  C   UNL     1       1.010  -0.212   0.010  1.00  0.00     0.027 C 
ENDBRANCH  17  18
BRANCH  17  20
ATOM     20  C   UNL     1      -0.111  -0.410   3.286  1.00  0.00     0.155 C 
BRANCH  20  21
ATOM     21  C   UNL     1      -0.370  -1.667   4.237  1.00  0.00     0.077 C 
ATOM     22  C   UNL     1       0.821  -2.254   5.036  1.00  0.00     0.043 C 
ATOM     23  C   UNL     1      -1.522  -1.322   5.207  1.00  0.00     0.043 C 
BRANCH  21  24
ATOM     24  O   UNL     1      -0.837  -2.753   3.413  1.00  0.00    -0.389 OA
ATOM     25  H   UNL     1      -0.141  -3.005   2.786  1.00  0.00     0.211 HD
ENDBRANCH  21  24
ENDBRANCH  20  21
ENDBRANCH  17  20
ENDBRANCH  14  17
ENDBRANCH   8  13
BRANCH  12  26
ATOM     26  O   UNL     1       2.685   4.370   7.218  1.00  0.00    -0.507 OA
ATOM     27  H   UNL     1       2.359   4.696   8.034  1.00  0.00     0.293 HD
ENDBRANCH  12  26
ENDBRANCH   4   7
ENDBRANCH   2   3
ENDBRANCH   1   2
BRANCH   1  28
ATOM     28  C   UNL     1      -1.643   7.113   8.534  1.00  0.00     0.002 C 
BRANCH  28  29
ATOM     29  C   UNL     1      -0.670   7.278   9.707  1.00  0.00     0.002 C 
BRANCH  29  30
ATOM     30  C   UNL     1       0.620   8.053   9.448  1.00  0.00     0.021 C 
BRANCH  30  31
ATOM     31  C   UNL     1       0.458   9.361   8.695  1.00  0.00     0.116 C 
BRANCH  31  32
ATOM     32  N   UNL     1      -0.405  10.297   9.389  1.00  0.00    -0.352 N 
ATOM     33  C   UNL     1      -0.168  11.612   9.708  1.00  0.00     0.251 C 
ATOM     34  H   UNL     1      -1.279   9.942   9.670  1.00  0.00     0.163 HD
ATOM     35  O   UNL     1      -0.929  12.223  10.441  1.00  0.00    -0.269 OA
BRANCH  33  36
ATOM     36  C   UNL     1       1.044  12.272   9.174  1.00  0.00     0.039 A 
ATOM     37  C   UNL     1       1.844  13.011  10.045  1.00  0.00     0.014 A 
ATOM     38  C   UNL     1       1.395  12.141   7.827  1.00  0.00     0.014 A 
ATOM     39  C   UNL     1       3.029  13.580   9.576  1.00  0.00     0.010 A 
ATOM     40  C   UNL     1       2.616  12.636   7.382  1.00  0.00     0.010 A 
ATOM     41  C   UNL     1       3.439  13.370   8.249  1.00  0.00    -0.014 A 
BRANCH  41  42
ATOM     42  C   UNL     1       4.715  13.933   7.741  1.00  0.00     0.031 A 
ATOM     43  C   UNL     1       4.695  14.958   6.639  1.00  0.00     0.074 A 
ATOM     44  C   UNL     1       5.888  13.494   8.238  1.00  0.00     0.049 A 
ATOM     45  N   UNL     1       5.700  15.522   6.018  1.00  0.00    -0.248 NA
ATOM     46  C   UNL     1       3.372  15.393   6.158  1.00  0.00     0.031 C 
ATOM     47  C   UNL     1       6.042  12.489   9.293  1.00  0.00     0.029 A 
ATOM     48  N   UNL     1       7.178  13.838   7.919  1.00  0.00    -0.354 N 
ATOM     49  C   UNL     1       5.131  16.369   5.075  1.00  0.00     0.074 A 
ATOM     50  C   UNL     1       3.698  16.200   5.160  1.00  0.00     0.031 C 
ATOM     51  C   UNL     1       7.349  12.322   9.554  1.00  0.00     0.029 A 
ATOM     52  C   UNL     1       8.126  13.169   8.655  1.00  0.00     0.049 A 
ATOM     53  H   UNL     1       7.402  14.502   7.228  1.00  0.00     0.167 HD
ATOM     54  C   UNL     1       5.745  17.232   4.232  1.00  0.00     0.031 A 
ATOM     55  C   UNL     1       9.470  13.225   8.602  1.00  0.00     0.031 A 
ATOM     56  C   UNL     1       7.170  17.403   4.148  1.00  0.00     0.049 A 
ATOM     57  C   UNL     1      10.125  14.150   7.612  1.00  0.00     0.074 A 
ATOM     58  C   UNL     1       7.888  18.268   3.341  1.00  0.00     0.029 A 
ATOM     59  N   UNL     1       8.094  16.696   4.901  1.00  0.00    -0.354 N 
ATOM     60  N   UNL     1       9.571  14.981   6.763  1.00  0.00    -0.248 NA
ATOM     61  C   UNL     1      11.595  14.152   7.582  1.00  0.00     0.031 C 
ATOM     62  C   UNL     1       9.249  18.048   3.569  1.00  0.00     0.029 A 
ATOM     63  C   UNL     1       9.376  17.093   4.564  1.00  0.00     0.049 A 
ATOM     64  H   UNL     1       7.871  16.013   5.574  1.00  0.00     0.167 HD
ATOM     65  C   UNL     1      10.622  15.633   6.130  1.00  0.00     0.074 A 
ATOM     66  C   UNL     1      11.845  15.112   6.704  1.00  0.00     0.031 C 
ATOM     67  C   UNL     1      10.581  16.578   5.160  1.00  0.00     0.031 A 
BRANCH  54  68
ATOM     68  C   UNL     1       4.873  18.067   3.335  1.00  0.00    -0.014 A 
ATOM     69  C   UNL     1       4.074  19.096   3.858  1.00  0.00     0.009 A 
ATOM     70  C   UNL     1       4.890  17.859   1.947  1.00  0.00     0.009 A 
ATOM     71  C   UNL     1       3.288  19.881   3.012  1.00  0.00     0.001 A 
ATOM     72  C   UNL     1       4.127  18.666   1.101  1.00  0.00     0.001 A 
ATOM     73  C   UNL     1       3.321  19.671   1.635  1.00  0.00     0.000 A 
ENDBRANCH  54  68
BRANCH  55  74
ATOM     74  C   UNL     1      10.302  12.385   9.508  1.00  0.00    -0.014 A 
ATOM     75  C   UNL     1      11.108  12.980  10.491  1.00  0.00     0.009 A 
ATOM     76  C   UNL     1      10.335  10.990   9.360  1.00  0.00     0.009 A 
ATOM     77  C   UNL     1      11.965  12.201  11.273  1.00  0.00     0.001 A 
ATOM     78  C   UNL     1      11.165  10.210  10.168  1.00  0.00     0.001 A 
ATOM     79  C   UNL     1      11.991  10.817  11.112  1.00  0.00     0.000 A 
ENDBRANCH  55  74
BRANCH  67  80
ATOM     80  C   UNL     1      11.891  17.156   4.702  1.00  0.00    -0.014 A 
ATOM     81  C   UNL     1      12.796  16.408   3.935  1.00  0.00     0.009 A 
ATOM     82  C   UNL     1      12.199  18.491   5.008  1.00  0.00     0.009 A 
ATOM     83  C   UNL     1      14.001  16.975   3.515  1.00  0.00     0.001 A 
ATOM     84  C   UNL     1      13.388  19.066   4.559  1.00  0.00     0.001 A 
ATOM     85  C   UNL     1      14.293  18.305   3.821  1.00  0.00     0.000 A 
ENDBRANCH  67  80
ENDBRANCH  41  42
ENDBRANCH  33  36
ENDBRANCH  31  32
ENDBRANCH  30  31
ENDBRANCH  29  30
ENDBRANCH  28  29
ENDBRANCH   1  28
TORSDOF 20
