REMARK SMILES O=C(NCCCCCCNC(=O)[C@@H]1C[N@@H+](C2CCN(C(=O)c3ccccc3)CC2)C[C@H]1C1CC1)c1ccc(-c2c3nc(c(-c4ccccc4)c4ccc([nH]4)c(-c4ccccc4)c4nc(c(-c5ccccc5)c5ccc2[nH]5)C=C4)C=C3)cc1
REMARK SMILES IDX 6 1 5 2 4 3 3 4 1 5 2 6 35 8 36 9 82 10 37 11 81 12 38 13
REMARK SMILES IDX 39 14 40 15 75 16 41 17 80 18 74 19 76 20 42 21 79 22 73 23
REMARK SMILES IDX 72 24 43 26 65 27 50 28 64 29 51 30 54 31 63 32 77 33 52 34
REMARK SMILES IDX 53 35 62 37 78 38 55 39 44 40 45 41 49 42 46 43 48 44 47 45
REMARK SMILES IDX 66 46 67 47 71 48 68 49 70 50 69 51 56 52 57 53 61 54 58 55
REMARK SMILES IDX 60 56 59 57 7 58 8 59 9 60 10 61 11 62 12 64 13 65 14 66
REMARK SMILES IDX 31 67 15 68 30 69 32 71 33 72 34 73 16 74 17 75 29 76 18 77
REMARK SMILES IDX 28 78 19 79 20 80 21 81 22 82 23 83 27 84 24 85 26 86 25 87
REMARK H PARENT 3 7 76 25 54 36 10 63 15 70
REMARK Flexibility Score: inf
ROOT
ATOM      1  C   UNL     1       4.058  -0.209   3.645  1.00  0.00     0.002 C 
ENDROOT
BRANCH   1   2
ATOM      2  C   UNL     1       4.590   0.529   2.418  1.00  0.00     0.021 C 
BRANCH   2   3
ATOM      3  C   UNL     1       4.327  -0.165   1.091  1.00  0.00     0.116 C 
BRANCH   3   4
ATOM      4  N   UNL     1       2.915  -0.384   0.848  1.00  0.00    -0.352 N 
ATOM      5  O   UNL     1       0.976  -0.215  -0.295  1.00  0.00    -0.269 OA
ATOM      6  C   UNL     1       2.190  -0.102  -0.283  1.00  0.00     0.251 C 
ATOM      7  H   UNL     1       2.410  -0.787   1.590  1.00  0.00     0.163 HD
BRANCH   6   8
ATOM      8  C   UNL     1       2.908   0.370  -1.484  1.00  0.00     0.039 A 
ATOM      9  C   UNL     1       4.046  -0.301  -1.942  1.00  0.00     0.014 A 
ATOM     10  C   UNL     1       2.437   1.507  -2.143  1.00  0.00     0.014 A 
ATOM     11  C   UNL     1       4.779   0.229  -2.996  1.00  0.00     0.010 A 
ATOM     12  C   UNL     1       3.128   1.989  -3.253  1.00  0.00     0.010 A 
ATOM     13  C   UNL     1       4.310   1.362  -3.677  1.00  0.00    -0.014 A 
BRANCH  13  14
ATOM     14  C   UNL     1       5.011   1.828  -4.895  1.00  0.00     0.031 A 
ATOM     15  C   UNL     1       5.666   3.175  -4.947  1.00  0.00     0.074 A 
ATOM     16  C   UNL     1       5.014   1.025  -5.975  1.00  0.00     0.049 A 
ATOM     17  N   UNL     1       6.266   3.758  -5.954  1.00  0.00    -0.248 NA
ATOM     18  C   UNL     1       5.636   3.979  -3.716  1.00  0.00     0.031 C 
ATOM     19  C   UNL     1       4.394  -0.302  -6.040  1.00  0.00     0.029 A 
ATOM     20  N   UNL     1       5.546   1.206  -7.225  1.00  0.00    -0.354 N 
ATOM     21  C   UNL     1       6.661   5.005  -5.489  1.00  0.00     0.074 A 
ATOM     22  C   UNL     1       6.216   5.103  -4.115  1.00  0.00     0.031 C 
ATOM     23  C   UNL     1       4.596  -0.821  -7.259  1.00  0.00     0.029 A 
ATOM     24  C   UNL     1       5.297   0.160  -8.078  1.00  0.00     0.049 A 
ATOM     25  H   UNL     1       6.056   2.007  -7.485  1.00  0.00     0.167 HD
ATOM     26  C   UNL     1       7.332   5.978  -6.152  1.00  0.00     0.031 A 
ATOM     27  C   UNL     1       5.568   0.015  -9.387  1.00  0.00     0.031 A 
ATOM     28  C   UNL     1       7.758   5.874  -7.524  1.00  0.00     0.049 A 
ATOM     29  C   UNL     1       6.278   1.120 -10.108  1.00  0.00     0.074 A 
ATOM     30  C   UNL     1       8.485   6.783  -8.272  1.00  0.00     0.029 A 
ATOM     31  N   UNL     1       7.480   4.800  -8.357  1.00  0.00    -0.354 N 
ATOM     32  N   UNL     1       6.695   2.272  -9.640  1.00  0.00    -0.248 NA
ATOM     33  C   UNL     1       6.557   0.906 -11.533  1.00  0.00     0.031 C 
ATOM     34  C   UNL     1       8.594   6.286  -9.576  1.00  0.00     0.029 A 
ATOM     35  C   UNL     1       7.990   5.039  -9.623  1.00  0.00     0.049 A 
ATOM     36  H   UNL     1       6.993   3.988  -8.089  1.00  0.00     0.167 HD
ATOM     37  C   UNL     1       7.302   2.916 -10.708  1.00  0.00     0.074 A 
ATOM     38  C   UNL     1       7.212   2.018 -11.843  1.00  0.00     0.031 C 
ATOM     39  C   UNL     1       7.883   4.139 -10.744  1.00  0.00     0.031 A 
BRANCH  26  40
ATOM     40  C   UNL     1       7.606   7.258  -5.410  1.00  0.00    -0.014 A 
ATOM     41  C   UNL     1       8.527   7.314  -4.352  1.00  0.00     0.009 A 
ATOM     42  C   UNL     1       6.944   8.436  -5.794  1.00  0.00     0.009 A 
ATOM     43  C   UNL     1       8.746   8.511  -3.666  1.00  0.00     0.001 A 
ATOM     44  C   UNL     1       7.187   9.638  -5.126  1.00  0.00     0.001 A 
ATOM     45  C   UNL     1       8.078   9.672  -4.055  1.00  0.00     0.000 A 
ENDBRANCH  26  40
BRANCH  27  46
ATOM     46  C   UNL     1       5.131  -1.220 -10.085  1.00  0.00    -0.014 A 
ATOM     47  C   UNL     1       6.064  -2.188 -10.480  1.00  0.00     0.009 A 
ATOM     48  C   UNL     1       3.765  -1.461 -10.305  1.00  0.00     0.009 A 
ATOM     49  C   UNL     1       5.638  -3.369 -11.092  1.00  0.00     0.001 A 
ATOM     50  C   UNL     1       3.340  -2.655 -10.889  1.00  0.00     0.001 A 
ATOM     51  C   UNL     1       4.277  -3.605 -11.287  1.00  0.00     0.000 A 
ENDBRANCH  27  46
BRANCH  39  52
ATOM     52  C   UNL     1       8.491   4.570 -12.048  1.00  0.00    -0.014 A 
ATOM     53  C   UNL     1       7.690   4.955 -13.133  1.00  0.00     0.009 A 
ATOM     54  C   UNL     1       9.887   4.638 -12.172  1.00  0.00     0.009 A 
ATOM     55  C   UNL     1       8.278   5.378 -14.327  1.00  0.00     0.001 A 
ATOM     56  C   UNL     1      10.471   5.088 -13.356  1.00  0.00     0.001 A 
ATOM     57  C   UNL     1       9.666   5.451 -14.435  1.00  0.00     0.000 A 
ENDBRANCH  39  52
ENDBRANCH  13  14
ENDBRANCH   6   8
ENDBRANCH   3   4
ENDBRANCH   2   3
ENDBRANCH   1   2
BRANCH   1  58
ATOM     58  C   UNL     1       4.415  -1.696   3.724  1.00  0.00     0.002 C 
BRANCH  58  59
ATOM     59  C   UNL     1       5.904  -2.030   3.576  1.00  0.00     0.021 C 
BRANCH  59  60
ATOM     60  C   UNL     1       6.820  -1.238   4.495  1.00  0.00     0.116 C 
BRANCH  60  61
ATOM     61  N   UNL     1       6.503  -1.491   5.881  1.00  0.00    -0.356 N 
ATOM     62  C   UNL     1       7.295  -1.710   6.952  1.00  0.00     0.229 C 
ATOM     63  H   UNL     1       5.538  -1.507   6.080  1.00  0.00     0.163 HD
ATOM     64  O   UNL     1       6.729  -1.899   8.033  1.00  0.00    -0.275 OA
BRANCH  62  65
ATOM     65  C   UNL     1       8.803  -1.686   6.877  1.00  0.00     0.142 C 
ATOM     66  C   UNL     1       9.331  -0.353   6.379  1.00  0.00     0.276 C 
ATOM     67  C   UNL     1       9.523  -2.735   6.048  1.00  0.00     0.065 C 
ATOM     68  N   UNL     1      10.722  -0.583   6.011  1.00  0.00    -0.331 N 
ATOM     69  C   UNL     1      10.816  -2.006   5.612  1.00  0.00     0.267 C 
ATOM     70  H   UNL     1      10.943   0.051   5.243  1.00  0.00     0.348 HD
BRANCH  67  71
ATOM     71  C   UNL     1       9.835  -4.055   6.721  1.00  0.00    -0.001 C 
ATOM     72  C   UNL     1       9.926  -4.271   8.216  1.00  0.00     0.004 C 
ATOM     73  C   UNL     1       8.764  -4.835   7.445  1.00  0.00     0.004 C 
ENDBRANCH  67  71
BRANCH  68  74
ATOM     74  C   UNL     1      11.772  -0.161   6.959  1.00  0.00     0.187 C 
ATOM     75  C   UNL     1      11.785  -0.784   8.358  1.00  0.00     0.086 C 
ATOM     76  C   UNL     1      11.913   1.366   7.096  1.00  0.00     0.086 C 
ATOM     77  C   UNL     1      10.812  -0.157   9.342  1.00  0.00     0.126 C 
ATOM     78  C   UNL     1      10.989   2.030   8.112  1.00  0.00     0.126 C 
ATOM     79  N   UNL     1      10.817   1.296   9.368  1.00  0.00    -0.338 N 
ATOM     80  C   UNL     1      10.280   1.869  10.527  1.00  0.00     0.253 C 
ATOM     81  O   UNL     1       9.963   1.228  11.526  1.00  0.00    -0.269 OA
BRANCH  80  82
ATOM     82  C   UNL     1      10.103   3.327  10.588  1.00  0.00     0.040 A 
ATOM     83  C   UNL     1      10.980   4.054  11.394  1.00  0.00     0.014 A 
ATOM     84  C   UNL     1       9.046   3.953   9.924  1.00  0.00     0.014 A 
ATOM     85  C   UNL     1      10.820   5.432  11.510  1.00  0.00     0.001 A 
ATOM     86  C   UNL     1       8.892   5.334  10.042  1.00  0.00     0.001 A 
ATOM     87  C   UNL     1       9.780   6.071  10.831  1.00  0.00     0.000 A 
ENDBRANCH  80  82
ENDBRANCH  68  74
ENDBRANCH  62  65
ENDBRANCH  60  61
ENDBRANCH  59  60
ENDBRANCH  58  59
ENDBRANCH   1  58
TORSDOF 16
