REMARK SMILES CCCn1cc(Br)cc1C(=O)NC[C@H]1CC[C@@H](C(=O)NCCCCCCNC(=O)c2ccc(-c3c4nc(c(-c5ccccc5)c5ccc([nH]5)c(-c5ccccc5)c5nc(c(-c6ccccc6)c6ccc3[nH]6)C=C5)C=C4)cc2)O1
REMARK SMILES IDX 22 1 21 2 20 3 18 4 19 5 17 7 14 8 15 9 78 10 16 11 13 12
REMARK SMILES IDX 12 13 10 14 11 15 9 17 4 18 5 19 6 20 8 21 7 22 3 23 2 24
REMARK SMILES IDX 1 25 23 26 24 27 25 28 26 29 27 30 28 31 29 33 30 34 31 35
REMARK SMILES IDX 77 36 32 37 76 38 33 39 34 40 35 41 70 42 36 43 75 44 69 45
REMARK SMILES IDX 71 46 37 47 74 48 68 49 67 50 38 52 60 53 45 54 59 55 46 56
REMARK SMILES IDX 49 57 58 58 72 59 47 60 48 61 57 63 73 64 50 65 39 66 40 67
REMARK SMILES IDX 44 68 41 69 43 70 42 71 61 72 62 73 66 74 63 75 65 76 64 77
REMARK SMILES IDX 51 78 52 79 56 80 53 81 55 82 54 83
REMARK H PARENT 20 6 12 16 27 32 71 51 49 62
REMARK Flexibility Score: inf
ROOT
ATOM      1  C   UNL     1       0.777   4.440  -3.625  1.00  0.00     0.021 C 
ENDROOT
BRANCH   1   2
ATOM      2  C   UNL     1       0.116   3.154  -3.137  1.00  0.00     0.116 C 
BRANCH   2   3
ATOM      3  N   UNL     1      -0.627   2.482  -4.183  1.00  0.00    -0.354 N 
ATOM      4  C   UNL     1      -0.555   1.177  -4.578  1.00  0.00     0.249 C 
ATOM      5  O   UNL     1      -1.298   0.807  -5.490  1.00  0.00    -0.272 OA
ATOM      6  H   UNL     1      -1.270   3.042  -4.676  1.00  0.00     0.163 HD
BRANCH   4   7
ATOM      7  C   UNL     1       0.481   0.245  -3.923  1.00  0.00     0.207 C 
ATOM      8  C   UNL     1       0.759  -1.208  -2.100  1.00  0.00     0.138 C 
ATOM      9  C   UNL     1       1.129  -1.941  -3.392  1.00  0.00     0.037 C 
ATOM     10  O   UNL     1       0.371   0.125  -2.494  1.00  0.00    -0.363 OA
ATOM     11  C   UNL     1       0.373  -1.175  -4.446  1.00  0.00     0.045 C 
BRANCH   8  12
ATOM     12  C   UNL     1      -0.368  -1.946  -1.346  1.00  0.00     0.148 C 
BRANCH  12  13
ATOM     13  N   UNL     1      -0.502  -1.651   0.084  1.00  0.00    -0.348 N 
ATOM     14  C   UNL     1      -1.169  -1.001   1.076  1.00  0.00     0.268 C 
ATOM     15  O   UNL     1      -0.891  -1.599   2.135  1.00  0.00    -0.268 OA
ATOM     16  H   UNL     1       0.220  -2.151   0.529  1.00  0.00     0.163 HD
BRANCH  14  17
ATOM     17  C   UNL     1      -2.039   0.184   1.186  1.00  0.00     0.108 A 
ATOM     18  N   UNL     1      -2.593   1.195   0.400  1.00  0.00    -0.342 N 
ATOM     19  C   UNL     1      -3.120   2.199   1.213  1.00  0.00     0.102 A 
ATOM     20  C   UNL     1      -3.146   1.742   2.490  1.00  0.00     0.036 A 
ATOM     21  C   UNL     1      -2.506   0.506   2.486  1.00  0.00     0.049 A 
ATOM     22  Br  UNL     1      -3.873   2.581   3.992  1.00  0.00    -0.049 Br
BRANCH  18  23
ATOM     23  C   UNL     1      -2.818   1.372  -1.023  1.00  0.00     0.122 C 
BRANCH  23  24
ATOM     24  C   UNL     1      -2.852   0.148  -1.887  1.00  0.00     0.018 C 
ATOM     25  C   UNL     1      -3.866  -0.905  -1.478  1.00  0.00     0.006 C 
ENDBRANCH  23  24
ENDBRANCH  18  23
ENDBRANCH  14  17
ENDBRANCH  12  13
ENDBRANCH   8  12
ENDBRANCH   4   7
ENDBRANCH   2   3
ENDBRANCH   1   2
BRANCH   1  26
ATOM     26  C   UNL     1      -0.177   5.510  -4.170  1.00  0.00     0.002 C 
BRANCH  26  27
ATOM     27  C   UNL     1      -1.359   5.920  -3.276  1.00  0.00     0.002 C 
BRANCH  27  28
ATOM     28  C   UNL     1      -1.052   6.347  -1.833  1.00  0.00     0.021 C 
BRANCH  28  29
ATOM     29  C   UNL     1      -0.128   7.547  -1.698  1.00  0.00     0.116 C 
BRANCH  29  30
ATOM     30  N   UNL     1      -0.703   8.803  -2.200  1.00  0.00    -0.352 N 
ATOM     31  C   UNL     1      -0.095  10.045  -2.308  1.00  0.00     0.251 C 
ATOM     32  H   UNL     1      -1.640   8.757  -2.499  1.00  0.00     0.163 HD
ATOM     33  O   UNL     1      -0.764  11.080  -2.359  1.00  0.00    -0.269 OA
BRANCH  31  34
ATOM     34  C   UNL     1       1.373  10.111  -2.383  1.00  0.00     0.039 A 
ATOM     35  C   UNL     1       2.143  11.138  -1.827  1.00  0.00     0.014 A 
ATOM     36  C   UNL     1       1.989   9.045  -3.018  1.00  0.00     0.014 A 
ATOM     37  C   UNL     1       3.533  11.033  -1.893  1.00  0.00     0.010 A 
ATOM     38  C   UNL     1       3.300   8.789  -2.772  1.00  0.00     0.010 A 
ATOM     39  C   UNL     1       4.097   9.842  -2.374  1.00  0.00    -0.014 A 
BRANCH  39  40
ATOM     40  C   UNL     1       5.525   9.593  -2.446  1.00  0.00     0.031 A 
ATOM     41  C   UNL     1       6.210   9.652  -1.139  1.00  0.00     0.074 A 
ATOM     42  C   UNL     1       6.117   9.076  -3.547  1.00  0.00     0.049 A 
ATOM     43  N   UNL     1       7.019  10.566  -0.725  1.00  0.00    -0.248 NA
ATOM     44  C   UNL     1       5.830   8.669  -0.111  1.00  0.00     0.031 C 
ATOM     45  C   UNL     1       5.497   8.618  -4.802  1.00  0.00     0.029 A 
ATOM     46  N   UNL     1       7.417   8.727  -3.727  1.00  0.00    -0.354 N 
ATOM     47  C   UNL     1       7.428  10.159   0.537  1.00  0.00     0.074 A 
ATOM     48  C   UNL     1       6.511   9.124   0.943  1.00  0.00     0.031 C 
ATOM     49  C   UNL     1       6.372   7.849  -5.489  1.00  0.00     0.029 A 
ATOM     50  C   UNL     1       7.657   7.902  -4.819  1.00  0.00     0.049 A 
ATOM     51  H   UNL     1       8.135   9.036  -3.128  1.00  0.00     0.167 HD
ATOM     52  C   UNL     1       8.653  10.504   1.020  1.00  0.00     0.031 A 
ATOM     53  C   UNL     1       8.826   7.284  -5.124  1.00  0.00     0.031 A 
ATOM     54  C   UNL     1       9.264  11.537   0.216  1.00  0.00     0.049 A 
ATOM     55  C   UNL     1       9.898   7.995  -4.386  1.00  0.00     0.074 A 
ATOM     56  C   UNL     1       8.907  12.819  -0.154  1.00  0.00     0.029 A 
ATOM     57  N   UNL     1      10.218  11.136  -0.692  1.00  0.00    -0.354 N 
ATOM     58  N   UNL     1      10.240   9.227  -4.637  1.00  0.00    -0.248 NA
ATOM     59  C   UNL     1      10.244   7.509  -3.059  1.00  0.00     0.031 C 
ATOM     60  C   UNL     1       9.286  12.921  -1.526  1.00  0.00     0.029 A 
ATOM     61  C   UNL     1       9.930  11.736  -1.891  1.00  0.00     0.049 A 
ATOM     62  H   UNL     1      10.971  10.527  -0.513  1.00  0.00     0.167 HD
ATOM     63  C   UNL     1      10.421   9.803  -3.387  1.00  0.00     0.074 A 
ATOM     64  C   UNL     1      10.503   8.675  -2.459  1.00  0.00     0.031 C 
ATOM     65  C   UNL     1      10.187  11.134  -3.181  1.00  0.00     0.031 A 
BRANCH  52  66
ATOM     66  C   UNL     1       9.471   9.619   1.925  1.00  0.00    -0.014 A 
ATOM     67  C   UNL     1      10.709  10.099   2.387  1.00  0.00     0.009 A 
ATOM     68  C   UNL     1       9.215   8.247   2.113  1.00  0.00     0.009 A 
ATOM     69  C   UNL     1      11.668   9.235   2.929  1.00  0.00     0.001 A 
ATOM     70  C   UNL     1      10.152   7.390   2.693  1.00  0.00     0.001 A 
ATOM     71  C   UNL     1      11.392   7.880   3.072  1.00  0.00     0.000 A 
ENDBRANCH  52  66
BRANCH  53  72
ATOM     72  C   UNL     1       9.046   5.963  -5.758  1.00  0.00    -0.014 A 
ATOM     73  C   UNL     1      10.305   5.607  -6.269  1.00  0.00     0.009 A 
ATOM     74  C   UNL     1       8.092   4.940  -5.606  1.00  0.00     0.009 A 
ATOM     75  C   UNL     1      10.610   4.271  -6.575  1.00  0.00     0.001 A 
ATOM     76  C   UNL     1       8.396   3.608  -5.912  1.00  0.00     0.001 A 
ATOM     77  C   UNL     1       9.660   3.271  -6.382  1.00  0.00     0.000 A 
ENDBRANCH  53  72
BRANCH  65  78
ATOM     78  C   UNL     1       9.934  12.007  -4.390  1.00  0.00    -0.014 A 
ATOM     79  C   UNL     1       8.846  11.822  -5.264  1.00  0.00     0.009 A 
ATOM     80  C   UNL     1      10.726  13.152  -4.553  1.00  0.00     0.009 A 
ATOM     81  C   UNL     1       8.579  12.744  -6.284  1.00  0.00     0.001 A 
ATOM     82  C   UNL     1      10.447  14.082  -5.558  1.00  0.00     0.001 A 
ATOM     83  C   UNL     1       9.378  13.876  -6.426  1.00  0.00     0.000 A 
ENDBRANCH  65  78
ENDBRANCH  39  40
ENDBRANCH  31  34
ENDBRANCH  29  30
ENDBRANCH  28  29
ENDBRANCH  27  28
ENDBRANCH  26  27
ENDBRANCH   1  26
TORSDOF 18
