REMARK SMILES O=C(NCCCCCCNC(=O)c1cccnc1NC[C@H](c1ccccc1)[NH+]1CCOCC1)c1ccc(-c2c3nc(c(-c4ccccc4)c4ccc([nH]4)c(-c4ccccc4)c4nc(c(-c5ccccc5)c5ccc2[nH]5)C=C4)C=C3)cc1
REMARK SMILES IDX 7 1 6 2 5 3 4 4 3 5 1 6 2 7 34 9 35 10 81 11 36 12 80 13
REMARK SMILES IDX 37 14 38 15 39 16 74 17 40 18 79 19 73 20 75 21 41 22 78 23
REMARK SMILES IDX 72 24 71 25 42 27 64 28 49 29 63 30 50 31 53 32 62 33 76 34
REMARK SMILES IDX 51 35 52 36 61 38 77 39 54 40 43 41 44 42 48 43 45 44 47 45
REMARK SMILES IDX 46 46 65 47 66 48 70 49 67 50 69 51 68 52 55 53 56 54 60 55
REMARK SMILES IDX 57 56 59 57 58 58 8 59 9 60 10 61 11 62 12 64 13 65 14 66
REMARK SMILES IDX 18 67 15 68 17 69 16 70 19 71 20 73 21 74 28 75 29 76 33 77
REMARK SMILES IDX 30 79 32 80 31 81 22 82 23 83 27 84 24 85 26 86 25 87
REMARK H PARENT 3 8 75 26 53 37 10 63 19 72 28 78
REMARK Flexibility Score: inf
ROOT
ATOM      1  C   UNL     1       3.513   9.158   9.255  1.00  0.00     0.002 C 
ENDROOT
BRANCH   1   2
ATOM      2  C   UNL     1       2.694   9.588   8.035  1.00  0.00     0.002 C 
BRANCH   2   3
ATOM      3  C   UNL     1       1.215   9.202   8.075  1.00  0.00     0.021 C 
BRANCH   3   4
ATOM      4  C   UNL     1       0.463   9.705   9.299  1.00  0.00     0.116 C 
BRANCH   4   5
ATOM      5  N   UNL     1       0.372  11.155   9.331  1.00  0.00    -0.352 N 
ATOM      6  O   UNL     1      -0.669  13.157   9.239  1.00  0.00    -0.269 OA
ATOM      7  C   UNL     1      -0.747  11.943   9.408  1.00  0.00     0.251 C 
ATOM      8  H   UNL     1       1.230  11.636   9.291  1.00  0.00     0.163 HD
BRANCH   7   9
ATOM      9  C   UNL     1      -2.058  11.320   9.685  1.00  0.00     0.039 A 
ATOM     10  C   UNL     1      -2.190  10.371  10.703  1.00  0.00     0.014 A 
ATOM     11  C   UNL     1      -3.171  11.710   8.936  1.00  0.00     0.014 A 
ATOM     12  C   UNL     1      -3.409   9.734  10.902  1.00  0.00     0.010 A 
ATOM     13  C   UNL     1      -4.414  11.128   9.192  1.00  0.00     0.010 A 
ATOM     14  C   UNL     1      -4.540  10.131  10.172  1.00  0.00    -0.014 A 
BRANCH  14  15
ATOM     15  C   UNL     1      -5.870   9.586  10.537  1.00  0.00     0.031 A 
ATOM     16  C   UNL     1      -6.657   8.736   9.583  1.00  0.00     0.074 A 
ATOM     17  C   UNL     1      -6.369   9.895  11.750  1.00  0.00     0.049 A 
ATOM     18  N   UNL     1      -7.850   8.219   9.742  1.00  0.00    -0.248 NA
ATOM     19  C   UNL     1      -6.037   8.430   8.285  1.00  0.00     0.031 C 
ATOM     20  C   UNL     1      -5.694  10.725  12.754  1.00  0.00     0.029 A 
ATOM     21  N   UNL     1      -7.555   9.554  12.347  1.00  0.00    -0.354 N 
ATOM     22  C   UNL     1      -8.134   7.548   8.559  1.00  0.00     0.074 A 
ATOM     23  C   UNL     1      -6.995   7.732   7.686  1.00  0.00     0.031 C 
ATOM     24  C   UNL     1      -6.464  10.807  13.847  1.00  0.00     0.029 A 
ATOM     25  C   UNL     1      -7.713  10.100  13.598  1.00  0.00     0.049 A 
ATOM     26  H   UNL     1      -8.227   8.974  11.921  1.00  0.00     0.167 HD
ATOM     27  C   UNL     1      -9.248   6.849   8.237  1.00  0.00     0.031 A 
ATOM     28  C   UNL     1      -8.763  10.072  14.438  1.00  0.00     0.031 A 
ATOM     29  C   UNL     1     -10.376   6.672   9.116  1.00  0.00     0.049 A 
ATOM     30  C   UNL     1     -10.001   9.331  14.028  1.00  0.00     0.074 A 
ATOM     31  C   UNL     1     -11.521   5.923   8.904  1.00  0.00     0.029 A 
ATOM     32  N   UNL     1     -10.509   7.263  10.363  1.00  0.00    -0.354 N 
ATOM     33  N   UNL     1     -10.222   8.638  12.938  1.00  0.00    -0.248 NA
ATOM     34  C   UNL     1     -11.135   9.373  14.960  1.00  0.00     0.031 C 
ATOM     35  C   UNL     1     -12.378   6.119   9.991  1.00  0.00     0.029 A 
ATOM     36  C   UNL     1     -11.740   6.937  10.909  1.00  0.00     0.049 A 
ATOM     37  H   UNL     1      -9.831   7.830  10.795  1.00  0.00     0.167 HD
ATOM     38  C   UNL     1     -11.515   8.151  13.058  1.00  0.00     0.074 A 
ATOM     39  C   UNL     1     -12.018   8.604  14.339  1.00  0.00     0.031 C 
ATOM     40  C   UNL     1     -12.226   7.402  12.182  1.00  0.00     0.031 A 
BRANCH  27  41
ATOM     41  C   UNL     1      -9.334   6.245   6.863  1.00  0.00    -0.014 A 
ATOM     42  C   UNL     1      -8.580   5.117   6.508  1.00  0.00     0.009 A 
ATOM     43  C   UNL     1     -10.255   6.765   5.938  1.00  0.00     0.009 A 
ATOM     44  C   UNL     1      -8.733   4.533   5.247  1.00  0.00     0.001 A 
ATOM     45  C   UNL     1     -10.423   6.165   4.688  1.00  0.00     0.001 A 
ATOM     46  C   UNL     1      -9.659   5.053   4.342  1.00  0.00     0.000 A 
ENDBRANCH  27  41
BRANCH  28  47
ATOM     47  C   UNL     1      -8.705  10.816  15.724  1.00  0.00    -0.014 A 
ATOM     48  C   UNL     1      -8.705  10.136  16.950  1.00  0.00     0.009 A 
ATOM     49  C   UNL     1      -8.659  12.220  15.727  1.00  0.00     0.009 A 
ATOM     50  C   UNL     1      -8.689  10.847  18.152  1.00  0.00     0.001 A 
ATOM     51  C   UNL     1      -8.607  12.927  16.929  1.00  0.00     0.001 A 
ATOM     52  C   UNL     1      -8.635  12.240  18.140  1.00  0.00     0.000 A 
ENDBRANCH  28  47
BRANCH  40  53
ATOM     53  C   UNL     1     -13.618   7.012  12.588  1.00  0.00    -0.014 A 
ATOM     54  C   UNL     1     -14.658   7.954  12.603  1.00  0.00     0.009 A 
ATOM     55  C   UNL     1     -13.901   5.677  12.916  1.00  0.00     0.009 A 
ATOM     56  C   UNL     1     -15.951   7.570  12.965  1.00  0.00     0.001 A 
ATOM     57  C   UNL     1     -15.200   5.291  13.248  1.00  0.00     0.001 A 
ATOM     58  C   UNL     1     -16.221   6.239  13.280  1.00  0.00     0.000 A 
ENDBRANCH  40  53
ENDBRANCH  14  15
ENDBRANCH   7   9
ENDBRANCH   4   5
ENDBRANCH   3   4
ENDBRANCH   2   3
ENDBRANCH   1   2
BRANCH   1  59
ATOM     59  C   UNL     1       3.424   7.671   9.618  1.00  0.00     0.021 C 
BRANCH  59  60
ATOM     60  C   UNL     1       3.773   6.711   8.483  1.00  0.00     0.116 C 
BRANCH  60  61
ATOM     61  N   UNL     1       5.150   6.871   8.053  1.00  0.00    -0.352 N 
ATOM     62  C   UNL     1       6.180   5.967   8.133  1.00  0.00     0.255 C 
ATOM     63  H   UNL     1       5.375   7.741   7.652  1.00  0.00     0.163 HD
ATOM     64  O   UNL     1       7.340   6.344   7.982  1.00  0.00    -0.269 OA
BRANCH  62  65
ATOM     65  C   UNL     1       5.891   4.545   8.405  1.00  0.00     0.082 A 
ATOM     66  C   UNL     1       4.974   3.863   7.596  1.00  0.00     0.019 A 
ATOM     67  C   UNL     1       6.576   3.858   9.417  1.00  0.00     0.139 A 
ATOM     68  C   UNL     1       4.699   2.531   7.861  1.00  0.00     0.021 A 
ATOM     69  N   UNL     1       6.283   2.563   9.683  1.00  0.00    -0.239 NA
ATOM     70  C   UNL     1       5.367   1.934   8.912  1.00  0.00     0.113 A 
BRANCH  67  71
ATOM     71  N   UNL     1       7.498   4.512  10.225  1.00  0.00    -0.363 N 
ATOM     72  H   UNL     1       7.514   5.496  10.252  1.00  0.00     0.162 HD
BRANCH  71  73
ATOM     73  C   UNL     1       8.447   3.747  11.036  1.00  0.00     0.184 C 
BRANCH  73  74
ATOM     74  C   UNL     1       9.860   3.684  10.358  1.00  0.00     0.234 C 
BRANCH  74  75
ATOM     75  N   UNL     1      10.893   3.349  11.375  1.00  0.00    -0.323 N 
ATOM     76  C   UNL     1      12.094   4.201  11.330  1.00  0.00     0.291 C 
ATOM     77  C   UNL     1      11.299   1.940  11.516  1.00  0.00     0.291 C 
ATOM     78  H   UNL     1      10.354   3.556  12.216  1.00  0.00     0.348 HD
ATOM     79  C   UNL     1      13.180   3.716  10.362  1.00  0.00     0.221 C 
ATOM     80  C   UNL     1      12.440   1.494  10.575  1.00  0.00     0.221 C 
ATOM     81  O   UNL     1      13.571   2.372  10.666  1.00  0.00    -0.370 OA
ENDBRANCH  74  75
BRANCH  74  82
ATOM     82  C   UNL     1       9.895   2.878   9.060  1.00  0.00     0.011 A 
ATOM     83  C   UNL     1       9.379   1.574   8.971  1.00  0.00     0.010 A 
ATOM     84  C   UNL     1      10.487   3.432   7.912  1.00  0.00     0.010 A 
ATOM     85  C   UNL     1       9.527   0.820   7.805  1.00  0.00     0.001 A 
ATOM     86  C   UNL     1      10.624   2.683   6.742  1.00  0.00     0.001 A 
ATOM     87  C   UNL     1      10.162   1.370   6.696  1.00  0.00     0.000 A 
ENDBRANCH  74  82
ENDBRANCH  73  74
ENDBRANCH  71  73
ENDBRANCH  67  71
ENDBRANCH  62  65
ENDBRANCH  60  61
ENDBRANCH  59  60
ENDBRANCH   1  59
TORSDOF 18
