REMARK SMILES Cn1cnnc1S[C@@H]1CCC[C@]([NH3+])(C(=O)NCCCCCCNC(=O)c2ccc(-c3c4nc(c(-c5ccccc5)c5ccc([nH]5)c(-c5ccccc5)c5nc(c(-c6ccccc6)c6ccc3[nH]6)C=C5)C=C4)cc2)C1
REMARK SMILES IDX 19 1 18 2 17 3 16 4 14 5 15 6 12 8 8 9 9 10 74 11 10 12
REMARK SMILES IDX 11 13 7 14 6 15 1 16 2 17 3 18 4 19 5 20 13 21 20 25 21 26
REMARK SMILES IDX 22 27 23 28 24 29 25 31 26 32 27 33 73 34 28 35 72 36 29 37
REMARK SMILES IDX 30 38 31 39 66 40 32 41 71 42 65 43 67 44 33 45 70 46 64 47
REMARK SMILES IDX 63 48 34 50 56 51 41 52 55 53 42 54 45 55 54 56 68 57 43 58
REMARK SMILES IDX 44 59 53 61 69 62 46 63 35 64 36 65 40 66 37 67 39 68 38 69
REMARK SMILES IDX 57 70 58 71 62 72 59 73 61 74 60 75 47 76 48 77 52 78 49 79
REMARK SMILES IDX 51 80 50 81
REMARK H PARENT 16 7 13 22 13 23 13 24 23 30 67 49 45 60
REMARK Flexibility Score: inf
ROOT
ATOM      1  C   UNL     1       4.978   3.035  -2.837  1.00  0.00     0.002 C 
ENDROOT
BRANCH   1   2
ATOM      2  C   UNL     1       4.885   1.990  -1.724  1.00  0.00     0.021 C 
BRANCH   2   3
ATOM      3  C   UNL     1       4.015   0.787  -2.070  1.00  0.00     0.116 C 
BRANCH   3   4
ATOM      4  N   UNL     1       4.700  -0.193  -2.880  1.00  0.00    -0.351 N 
ATOM      5  C   UNL     1       4.864  -1.533  -2.703  1.00  0.00     0.281 C 
ATOM      6  O   UNL     1       5.465  -2.139  -3.600  1.00  0.00    -0.268 OA
ATOM      7  H   UNL     1       5.117   0.168  -3.696  1.00  0.00     0.163 HD
BRANCH   5   8
ATOM      8  C   UNL     1       4.360  -2.301  -1.426  1.00  0.00     0.175 C 
ATOM      9  C   UNL     1       2.323  -2.862   0.039  1.00  0.00     0.061 C 
ATOM     10  C   UNL     1       3.128  -2.533   1.304  1.00  0.00     0.015 C 
ATOM     11  C   UNL     1       2.820  -2.256  -1.281  1.00  0.00     0.094 C 
ATOM     12  C   UNL     1       4.639  -2.545   1.105  1.00  0.00     0.008 C 
ATOM     13  C   UNL     1       5.082  -1.807  -0.157  1.00  0.00     0.079 C 
BRANCH   9  14
ATOM     14  S   UNL     1       0.550  -2.667   0.400  1.00  0.00    -0.082 SA
BRANCH  14  15
ATOM     15  C   UNL     1      -0.071  -1.109  -0.015  1.00  0.00     0.191 A 
ATOM     16  C   UNL     1       1.677   0.597   0.753  1.00  0.00     0.153 C 
ATOM     17  N   UNL     1       0.413   0.140   0.262  1.00  0.00    -0.312 N 
ATOM     18  C   UNL     1      -0.603   1.011  -0.029  1.00  0.00     0.226 A 
ATOM     19  N   UNL     1      -1.636   0.352  -0.486  1.00  0.00    -0.138 NA
ATOM     20  N   UNL     1      -1.302  -0.979  -0.474  1.00  0.00    -0.124 NA
ENDBRANCH  14  15
ENDBRANCH   9  14
BRANCH   8  21
ATOM     21  N   UNL     1       4.761  -3.733  -1.592  1.00  0.00    -0.345 N 
ATOM     22  H   UNL     1       4.451  -4.269  -0.781  1.00  0.00     0.345 HD
ATOM     23  H   UNL     1       5.776  -3.795  -1.673  1.00  0.00     0.345 HD
ATOM     24  H   UNL     1       4.329  -4.111  -2.435  1.00  0.00     0.345 HD
ENDBRANCH   8  21
ENDBRANCH   5   8
ENDBRANCH   3   4
ENDBRANCH   2   3
ENDBRANCH   1   2
BRANCH   1  25
ATOM     25  C   UNL     1       3.637   3.627  -3.285  1.00  0.00     0.002 C 
BRANCH  25  26
ATOM     26  C   UNL     1       2.780   4.238  -2.172  1.00  0.00     0.021 C 
BRANCH  26  27
ATOM     27  C   UNL     1       3.452   5.366  -1.394  1.00  0.00     0.116 C 
BRANCH  27  28
ATOM     28  N   UNL     1       3.817   6.481  -2.253  1.00  0.00    -0.352 N 
ATOM     29  C   UNL     1       3.476   7.804  -2.160  1.00  0.00     0.251 C 
ATOM     30  H   UNL     1       4.395   6.250  -3.015  1.00  0.00     0.163 HD
ATOM     31  O   UNL     1       3.712   8.568  -3.098  1.00  0.00    -0.269 OA
BRANCH  29  32
ATOM     32  C   UNL     1       2.814   8.319  -0.946  1.00  0.00     0.039 A 
ATOM     33  C   UNL     1       1.741   9.204  -1.083  1.00  0.00     0.014 A 
ATOM     34  C   UNL     1       3.261   7.949   0.326  1.00  0.00     0.014 A 
ATOM     35  C   UNL     1       1.080   9.671   0.054  1.00  0.00     0.010 A 
ATOM     36  C   UNL     1       2.555   8.355   1.454  1.00  0.00     0.010 A 
ATOM     37  C   UNL     1       1.460   9.224   1.331  1.00  0.00    -0.014 A 
BRANCH  37  38
ATOM     38  C   UNL     1       0.724   9.654   2.545  1.00  0.00     0.031 A 
ATOM     39  C   UNL     1       1.414  10.467   3.605  1.00  0.00     0.074 A 
ATOM     40  C   UNL     1      -0.553   9.260   2.722  1.00  0.00     0.049 A 
ATOM     41  N   UNL     1       0.949  10.892   4.753  1.00  0.00    -0.248 NA
ATOM     42  C   UNL     1       2.818  10.829   3.355  1.00  0.00     0.031 C 
ATOM     43  C   UNL     1      -1.325   8.441   1.786  1.00  0.00     0.029 A 
ATOM     44  N   UNL     1      -1.425   9.495   3.755  1.00  0.00    -0.354 N 
ATOM     45  C   UNL     1       2.005  11.557   5.365  1.00  0.00     0.074 A 
ATOM     46  C   UNL     1       3.148  11.430   4.488  1.00  0.00     0.031 C 
ATOM     47  C   UNL     1      -2.564   8.269   2.272  1.00  0.00     0.029 A 
ATOM     48  C   UNL     1      -2.662   8.926   3.571  1.00  0.00     0.049 A 
ATOM     49  H   UNL     1      -1.187  10.022   4.552  1.00  0.00     0.167 HD
ATOM     50  C   UNL     1       2.018  12.229   6.541  1.00  0.00     0.031 A 
ATOM     51  C   UNL     1      -3.751   8.928   4.361  1.00  0.00     0.031 A 
ATOM     52  C   UNL     1       0.879  12.356   7.411  1.00  0.00     0.049 A 
ATOM     53  C   UNL     1      -3.704   9.656   5.676  1.00  0.00     0.074 A 
ATOM     54  C   UNL     1       0.775  13.062   8.597  1.00  0.00     0.029 A 
ATOM     55  N   UNL     1      -0.353  11.759   7.192  1.00  0.00    -0.354 N 
ATOM     56  N   UNL     1      -2.718  10.338   6.207  1.00  0.00    -0.248 NA
ATOM     57  C   UNL     1      -4.924   9.622   6.493  1.00  0.00     0.031 C 
ATOM     58  C   UNL     1      -0.500  12.840   9.127  1.00  0.00     0.029 A 
ATOM     59  C   UNL     1      -1.213  12.052   8.237  1.00  0.00     0.049 A 
ATOM     60  H   UNL     1      -0.583  11.208   6.409  1.00  0.00     0.167 HD
ATOM     61  C   UNL     1      -3.208  10.838   7.407  1.00  0.00     0.074 A 
ATOM     62  C   UNL     1      -4.583  10.395   7.515  1.00  0.00     0.031 C 
ATOM     63  C   UNL     1      -2.577  11.598   8.335  1.00  0.00     0.031 A 
BRANCH  50  64
ATOM     64  C   UNL     1       3.316  12.866   6.959  1.00  0.00    -0.014 A 
ATOM     65  C   UNL     1       3.849  13.963   6.263  1.00  0.00     0.009 A 
ATOM     66  C   UNL     1       4.003  12.377   8.081  1.00  0.00     0.009 A 
ATOM     67  C   UNL     1       5.066  14.527   6.655  1.00  0.00     0.001 A 
ATOM     68  C   UNL     1       5.202  12.965   8.491  1.00  0.00     0.001 A 
ATOM     69  C   UNL     1       5.738  14.031   7.770  1.00  0.00     0.000 A 
ENDBRANCH  50  64
BRANCH  51  70
ATOM     70  C   UNL     1      -4.988   8.227   3.924  1.00  0.00    -0.014 A 
ATOM     71  C   UNL     1      -6.132   8.958   3.570  1.00  0.00     0.009 A 
ATOM     72  C   UNL     1      -5.031   6.826   3.857  1.00  0.00     0.009 A 
ATOM     73  C   UNL     1      -7.301   8.299   3.183  1.00  0.00     0.001 A 
ATOM     74  C   UNL     1      -6.191   6.171   3.440  1.00  0.00     0.001 A 
ATOM     75  C   UNL     1      -7.328   6.907   3.113  1.00  0.00     0.000 A 
ENDBRANCH  51  70
BRANCH  63  76
ATOM     76  C   UNL     1      -3.377  12.026   9.534  1.00  0.00    -0.014 A 
ATOM     77  C   UNL     1      -3.753  11.109  10.528  1.00  0.00     0.009 A 
ATOM     78  C   UNL     1      -3.727  13.377   9.689  1.00  0.00     0.009 A 
ATOM     79  C   UNL     1      -4.494  11.532  11.635  1.00  0.00     0.001 A 
ATOM     80  C   UNL     1      -4.438  13.802  10.811  1.00  0.00     0.001 A 
ATOM     81  C   UNL     1      -4.830  12.878  11.778  1.00  0.00     0.000 A 
ENDBRANCH  63  76
ENDBRANCH  37  38
ENDBRANCH  29  32
ENDBRANCH  27  28
ENDBRANCH  26  27
ENDBRANCH  25  26
ENDBRANCH   1  25
TORSDOF 16
