REMARK SMILES CCN(C1CC1)S(=O)(=O)c1ccc(F)c(C(=O)NCCCCCCNC(=O)c2ccc(-c3c4nc(c(-c5ccccc5)c5ccc([nH]5)c(-c5ccccc5)c5nc(c(-c6ccccc6)c6ccc3[nH]6)C=C5)C=C4)cc2)c1F
REMARK SMILES IDX 21 1 20 2 19 3 18 4 16 5 17 6 15 8 10 9 11 10 76 11 12 12
REMARK SMILES IDX 77 13 13 14 14 15 7 16 8 17 9 18 3 19 2 20 1 21 4 22 5 23
REMARK SMILES IDX 6 24 22 25 23 26 24 27 25 28 26 29 27 31 28 32 29 33 75 34
REMARK SMILES IDX 30 35 74 36 31 37 32 38 33 39 68 40 34 41 73 42 67 43 69 44
REMARK SMILES IDX 35 45 72 46 66 47 65 48 36 50 58 51 43 52 57 53 44 54 47 55
REMARK SMILES IDX 56 56 70 57 45 58 46 59 55 61 71 62 48 63 37 64 38 65 42 66
REMARK SMILES IDX 39 67 41 68 40 69 59 70 60 71 64 72 61 73 63 74 62 75 49 76
REMARK SMILES IDX 50 77 54 78 51 79 53 80 52 81
REMARK H PARENT 18 7 25 30 69 49 47 60
REMARK Flexibility Score: inf
ROOT
ATOM      1  C   UNL     1       6.538   1.791   9.919  1.00  0.00     0.002 C 
ENDROOT
BRANCH   1   2
ATOM      2  C   UNL     1       6.028   0.586   9.117  1.00  0.00     0.021 C 
BRANCH   2   3
ATOM      3  C   UNL     1       4.550   0.684   8.717  1.00  0.00     0.116 C 
BRANCH   3   4
ATOM      4  N   UNL     1       4.405   1.541   7.556  1.00  0.00    -0.352 N 
ATOM      5  C   UNL     1       4.273   1.305   6.213  1.00  0.00     0.257 C 
ATOM      6  O   UNL     1       4.301   2.302   5.490  1.00  0.00    -0.269 OA
ATOM      7  H   UNL     1       4.400   2.499   7.782  1.00  0.00     0.163 HD
BRANCH   5   8
ATOM      8  C   UNL     1       4.079  -0.030   5.588  1.00  0.00     0.112 A 
ATOM      9  C   UNL     1       3.276  -1.272   3.645  1.00  0.00     0.119 A 
ATOM     10  C   UNL     1       3.764  -2.466   4.177  1.00  0.00     0.028 A 
ATOM     11  C   UNL     1       3.392  -0.078   4.360  1.00  0.00     0.158 A 
ATOM     12  C   UNL     1       4.429  -2.438   5.397  1.00  0.00     0.042 A 
ATOM     13  F   UNL     1       2.822   1.030   3.863  1.00  0.00    -0.205 F 
ATOM     14  C   UNL     1       4.629  -1.223   6.060  1.00  0.00     0.139 A 
ATOM     15  F   UNL     1       5.440  -1.266   7.123  1.00  0.00    -0.206 F 
BRANCH   9  16
ATOM     16  S   UNL     1       2.793  -1.219   1.938  1.00  0.00     0.246 S 
ATOM     17  O   UNL     1       3.197  -2.477   1.343  1.00  0.00    -0.207 OA
ATOM     18  O   UNL     1       3.312   0.020   1.397  1.00  0.00    -0.207 OA
BRANCH  16  19
ATOM     19  N   UNL     1       1.075  -1.178   1.943  1.00  0.00    -0.195 NA
BRANCH  19  20
ATOM     20  C   UNL     1       0.438  -1.034   0.601  1.00  0.00     0.099 C 
ATOM     21  C   UNL     1       0.814   0.248  -0.121  1.00  0.00     0.022 C 
ENDBRANCH  19  20
BRANCH  19  22
ATOM     22  C   UNL     1       0.428  -2.188   2.825  1.00  0.00     0.073 C 
ATOM     23  C   UNL     1      -0.753  -3.049   2.449  1.00  0.00     0.022 C 
ATOM     24  C   UNL     1       0.596  -3.672   2.621  1.00  0.00     0.022 C 
ENDBRANCH  19  22
ENDBRANCH  16  19
ENDBRANCH   9  16
ENDBRANCH   5   8
ENDBRANCH   3   4
ENDBRANCH   2   3
ENDBRANCH   1   2
BRANCH   1  25
ATOM     25  C   UNL     1       5.914   1.957  11.310  1.00  0.00     0.002 C 
BRANCH  25  26
ATOM     26  C   UNL     1       6.033   0.737  12.230  1.00  0.00     0.021 C 
BRANCH  26  27
ATOM     27  C   UNL     1       7.464   0.310  12.547  1.00  0.00     0.116 C 
BRANCH  27  28
ATOM     28  N   UNL     1       8.170   1.312  13.328  1.00  0.00    -0.352 N 
ATOM     29  C   UNL     1       8.851   1.180  14.512  1.00  0.00     0.251 C 
ATOM     30  H   UNL     1       8.157   2.222  12.952  1.00  0.00     0.163 HD
ATOM     31  O   UNL     1       9.209   2.179  15.128  1.00  0.00    -0.269 OA
BRANCH  29  32
ATOM     32  C   UNL     1       9.146  -0.162  15.061  1.00  0.00     0.039 A 
ATOM     33  C   UNL     1       8.986  -0.374  16.433  1.00  0.00     0.014 A 
ATOM     34  C   UNL     1       9.618  -1.194  14.243  1.00  0.00     0.014 A 
ATOM     35  C   UNL     1       9.254  -1.632  16.977  1.00  0.00     0.010 A 
ATOM     36  C   UNL     1       9.827  -2.465  14.777  1.00  0.00     0.010 A 
ATOM     37  C   UNL     1       9.653  -2.695  16.150  1.00  0.00    -0.014 A 
BRANCH  37  38
ATOM     38  C   UNL     1       9.883  -4.048  16.715  1.00  0.00     0.031 A 
ATOM     39  C   UNL     1      11.261  -4.648  16.731  1.00  0.00     0.074 A 
ATOM     40  C   UNL     1       8.836  -4.755  17.183  1.00  0.00     0.049 A 
ATOM     41  N   UNL     1      11.649  -5.810  17.196  1.00  0.00    -0.248 NA
ATOM     42  C   UNL     1      12.341  -3.852  16.127  1.00  0.00     0.031 C 
ATOM     43  C   UNL     1       7.442  -4.306  17.179  1.00  0.00     0.029 A 
ATOM     44  N   UNL     1       8.784  -5.999  17.757  1.00  0.00    -0.354 N 
ATOM     45  C   UNL     1      13.010  -5.888  16.931  1.00  0.00     0.074 A 
ATOM     46  C   UNL     1      13.373  -4.679  16.223  1.00  0.00     0.031 C 
ATOM     47  C   UNL     1       6.677  -5.247  17.756  1.00  0.00     0.029 A 
ATOM     48  C   UNL     1       7.521  -6.373  18.145  1.00  0.00     0.049 A 
ATOM     49  H   UNL     1       9.576  -6.571  17.880  1.00  0.00     0.167 HD
ATOM     50  C   UNL     1      13.885  -6.868  17.263  1.00  0.00     0.031 A 
ATOM     51  C   UNL     1       7.089  -7.492  18.756  1.00  0.00     0.031 A 
ATOM     52  C   UNL     1      13.530  -8.067  17.975  1.00  0.00     0.049 A 
ATOM     53  C   UNL     1       8.082  -8.554  19.132  1.00  0.00     0.074 A 
ATOM     54  C   UNL     1      14.354  -9.094  18.403  1.00  0.00     0.029 A 
ATOM     55  N   UNL     1      12.242  -8.399  18.365  1.00  0.00    -0.354 N 
ATOM     56  N   UNL     1       9.378  -8.581  18.936  1.00  0.00    -0.248 NA
ATOM     57  C   UNL     1       7.552  -9.733  19.831  1.00  0.00     0.031 C 
ATOM     58  C   UNL     1      13.558 -10.066  19.018  1.00  0.00     0.029 A 
ATOM     59  C   UNL     1      12.246  -9.622  19.016  1.00  0.00     0.049 A 
ATOM     60  H   UNL     1      11.443  -7.847  18.204  1.00  0.00     0.167 HD
ATOM     61  C   UNL     1       9.823  -9.763  19.512  1.00  0.00     0.074 A 
ATOM     62  C   UNL     1       8.661 -10.417  20.078  1.00  0.00     0.031 C 
ATOM     63  C   UNL     1      11.081 -10.262  19.569  1.00  0.00     0.031 A 
BRANCH  50  64
ATOM     64  C   UNL     1      15.319  -6.681  16.851  1.00  0.00    -0.014 A 
ATOM     65  C   UNL     1      16.135  -5.724  17.477  1.00  0.00     0.009 A 
ATOM     66  C   UNL     1      15.871  -7.491  15.847  1.00  0.00     0.009 A 
ATOM     67  C   UNL     1      17.463  -5.559  17.081  1.00  0.00     0.001 A 
ATOM     68  C   UNL     1      17.208  -7.341  15.471  1.00  0.00     0.001 A 
ATOM     69  C   UNL     1      18.000  -6.369  16.081  1.00  0.00     0.000 A 
ENDBRANCH  50  64
BRANCH  51  70
ATOM     70  C   UNL     1       5.650  -7.647  19.088  1.00  0.00    -0.014 A 
ATOM     71  C   UNL     1       5.215  -7.551  20.419  1.00  0.00     0.009 A 
ATOM     72  C   UNL     1       4.706  -7.891  18.079  1.00  0.00     0.009 A 
ATOM     73  C   UNL     1       3.866  -7.722  20.736  1.00  0.00     0.001 A 
ATOM     74  C   UNL     1       3.354  -8.035  18.397  1.00  0.00     0.001 A 
ATOM     75  C   UNL     1       2.936  -7.959  19.725  1.00  0.00     0.000 A 
ENDBRANCH  51  70
BRANCH  63  76
ATOM     76  C   UNL     1      11.266 -11.563  20.296  1.00  0.00    -0.014 A 
ATOM     77  C   UNL     1      10.825 -12.776  19.743  1.00  0.00     0.009 A 
ATOM     78  C   UNL     1      11.905 -11.575  21.545  1.00  0.00     0.009 A 
ATOM     79  C   UNL     1      10.985 -13.971  20.448  1.00  0.00     0.001 A 
ATOM     80  C   UNL     1      12.088 -12.775  22.235  1.00  0.00     0.001 A 
ATOM     81  C   UNL     1      11.618 -13.969  21.691  1.00  0.00     0.000 A 
ENDBRANCH  63  76
ENDBRANCH  37  38
ENDBRANCH  29  32
ENDBRANCH  27  28
ENDBRANCH  26  27
ENDBRANCH  25  26
ENDBRANCH   1  25
TORSDOF 17
