REMARK SMILES CS(=O)(=O)c1ccc(N2N=C(C(=O)NCCCCCCNC(=O)c3ccc(-c4c5nc(c(-c6ccccc6)c6ccc([nH]6)c(-c6ccccc6)c6nc(c(-c7ccccc7)c7ccc4[nH]7)C=C6)C=C5)cc3)C[C@H]2c2ccco2)cc1
REMARK SMILES IDX 17 1 16 2 15 3 14 4 12 5 13 6 11 8 9 9 10 10 73 11 72 12
REMARK SMILES IDX 8 13 5 14 6 15 80 16 7 17 79 18 2 19 1 20 3 21 4 22 74 23
REMARK SMILES IDX 75 24 78 25 76 26 77 27 18 28 19 29 20 30 21 31 22 32 23 34
REMARK SMILES IDX 24 35 25 36 71 37 26 38 70 39 27 40 28 41 29 42 64 43 30 44
REMARK SMILES IDX 69 45 63 46 65 47 31 48 68 49 62 50 61 51 32 53 54 54 39 55
REMARK SMILES IDX 53 56 40 57 43 58 52 59 66 60 41 61 42 62 51 64 67 65 44 66
REMARK SMILES IDX 33 67 34 68 38 69 35 70 37 71 36 72 55 73 56 74 60 75 57 76
REMARK SMILES IDX 59 77 58 78 45 79 46 80 50 81 47 82 49 83 48 84
REMARK H PARENT 14 7 21 33 65 52 43 63
REMARK Flexibility Score: inf
ROOT
ATOM      1  C   UNL     1       5.290  12.853   2.331  1.00  0.00     0.002 C 
ENDROOT
BRANCH   1   2
ATOM      2  C   UNL     1       4.173  11.811   2.417  1.00  0.00     0.021 C 
BRANCH   2   3
ATOM      3  C   UNL     1       3.670  11.328   1.061  1.00  0.00     0.116 C 
BRANCH   3   4
ATOM      4  N   UNL     1       4.617  10.421   0.448  1.00  0.00    -0.351 N 
ATOM      5  C   UNL     1       4.565   9.110   0.053  1.00  0.00     0.267 C 
ATOM      6  O   UNL     1       5.608   8.595  -0.345  1.00  0.00    -0.268 OA
ATOM      7  H   UNL     1       5.492  10.839   0.277  1.00  0.00     0.163 HD
BRANCH   5   8
ATOM      8  C   UNL     1       3.291   8.280   0.034  1.00  0.00     0.128 C 
ATOM      9  N   UNL     1       1.999   6.657  -0.456  1.00  0.00    -0.254 N 
ATOM     10  N   UNL     1       3.298   7.050  -0.385  1.00  0.00    -0.171 NA
ATOM     11  C   UNL     1       1.052   7.618   0.115  1.00  0.00     0.180 C 
ATOM     12  C   UNL     1       1.961   8.799   0.460  1.00  0.00     0.099 C 
BRANCH   9  13
ATOM     13  C   UNL     1       1.678   5.320  -0.650  1.00  0.00     0.060 A 
ATOM     14  C   UNL     1       0.948   2.632  -1.018  1.00  0.00     0.067 A 
ATOM     15  C   UNL     1       1.920   2.959  -0.073  1.00  0.00     0.022 A 
ATOM     16  C   UNL     1       0.360   3.627  -1.800  1.00  0.00     0.022 A 
ATOM     17  C   UNL     1       2.287   4.301   0.097  1.00  0.00     0.029 A 
ATOM     18  C   UNL     1       0.736   4.956  -1.618  1.00  0.00     0.029 A 
BRANCH  14  19
ATOM     19  S   UNL     1       0.380   0.973  -1.281  1.00  0.00     0.175 S 
ATOM     20  C   UNL     1       0.970  -0.008   0.066  1.00  0.00     0.163 C 
ATOM     21  O   UNL     1       1.027   0.500  -2.491  1.00  0.00    -0.224 OA
ATOM     22  O   UNL     1      -1.066   1.016  -1.172  1.00  0.00    -0.224 OA
ENDBRANCH  14  19
ENDBRANCH   9  13
BRANCH  11  23
ATOM     23  C   UNL     1      -0.133   8.026  -0.712  1.00  0.00     0.128 A 
ATOM     24  C   UNL     1      -1.379   7.459  -0.905  1.00  0.00     0.048 A 
ATOM     25  O   UNL     1      -0.047   9.183  -1.437  1.00  0.00    -0.467 OA
ATOM     26  C   UNL     1      -2.070   8.294  -1.813  1.00  0.00     0.042 A 
ATOM     27  C   UNL     1      -1.224   9.339  -2.092  1.00  0.00     0.195 A 
ENDBRANCH  11  23
ENDBRANCH   5   8
ENDBRANCH   3   4
ENDBRANCH   2   3
ENDBRANCH   1   2
BRANCH   1  28
ATOM     28  C   UNL     1       4.942  14.109   1.524  1.00  0.00     0.002 C 
BRANCH  28  29
ATOM     29  C   UNL     1       3.633  14.796   1.921  1.00  0.00     0.021 C 
BRANCH  29  30
ATOM     30  C   UNL     1       3.553  15.206   3.387  1.00  0.00     0.116 C 
BRANCH  30  31
ATOM     31  N   UNL     1       4.583  16.169   3.738  1.00  0.00    -0.352 N 
ATOM     32  C   UNL     1       4.457  17.412   4.303  1.00  0.00     0.251 C 
ATOM     33  H   UNL     1       5.506  15.888   3.542  1.00  0.00     0.163 HD
ATOM     34  O   UNL     1       5.415  18.176   4.335  1.00  0.00    -0.269 OA
BRANCH  32  35
ATOM     35  C   UNL     1       3.155  17.836   4.859  1.00  0.00     0.039 A 
ATOM     36  C   UNL     1       2.698  19.128   4.591  1.00  0.00     0.014 A 
ATOM     37  C   UNL     1       2.395  16.970   5.648  1.00  0.00     0.014 A 
ATOM     38  C   UNL     1       1.452  19.532   5.071  1.00  0.00     0.010 A 
ATOM     39  C   UNL     1       1.119  17.346   6.059  1.00  0.00     0.010 A 
ATOM     40  C   UNL     1       0.638  18.634   5.780  1.00  0.00    -0.014 A 
BRANCH  40  41
ATOM     41  C   UNL     1      -0.720  19.025   6.233  1.00  0.00     0.031 A 
ATOM     42  C   UNL     1      -1.045  19.082   7.700  1.00  0.00     0.074 A 
ATOM     43  C   UNL     1      -1.677  19.281   5.320  1.00  0.00     0.049 A 
ATOM     44  N   UNL     1      -2.183  19.368   8.283  1.00  0.00    -0.248 NA
ATOM     45  C   UNL     1       0.041  18.750   8.636  1.00  0.00     0.031 C 
ATOM     46  C   UNL     1      -1.499  19.225   3.867  1.00  0.00     0.029 A 
ATOM     47  N   UNL     1      -2.992  19.638   5.479  1.00  0.00    -0.354 N 
ATOM     48  C   UNL     1      -1.951  19.240   9.647  1.00  0.00     0.074 A 
ATOM     49  C   UNL     1      -0.584  18.795   9.803  1.00  0.00     0.031 C 
ATOM     50  C   UNL     1      -2.651  19.570   3.270  1.00  0.00     0.029 A 
ATOM     51  C   UNL     1      -3.659  19.826   4.293  1.00  0.00     0.049 A 
ATOM     52  H   UNL     1      -3.418  19.749   6.360  1.00  0.00     0.167 HD
ATOM     53  C   UNL     1      -2.793  19.488  10.678  1.00  0.00     0.031 A 
ATOM     54  C   UNL     1      -4.941  20.160   4.054  1.00  0.00     0.031 A 
ATOM     55  C   UNL     1      -4.154  19.931  10.521  1.00  0.00     0.049 A 
ATOM     56  C   UNL     1      -5.865  20.401   5.215  1.00  0.00     0.074 A 
ATOM     57  C   UNL     1      -5.071  20.259  11.503  1.00  0.00     0.029 A 
ATOM     58  N   UNL     1      -4.794  20.100   9.303  1.00  0.00    -0.354 N 
ATOM     59  N   UNL     1      -5.610  20.343   6.500  1.00  0.00    -0.248 NA
ATOM     60  C   UNL     1      -7.251  20.764   4.891  1.00  0.00     0.031 C 
ATOM     61  C   UNL     1      -6.286  20.565  10.881  1.00  0.00     0.029 A 
ATOM     62  C   UNL     1      -6.105  20.496   9.509  1.00  0.00     0.049 A 
ATOM     63  H   UNL     1      -4.378  19.959   8.421  1.00  0.00     0.167 HD
ATOM     64  C   UNL     1      -6.795  20.691   7.137  1.00  0.00     0.074 A 
ATOM     65  C   UNL     1      -7.761  20.977   6.096  1.00  0.00     0.031 C 
ATOM     66  C   UNL     1      -7.058  20.770   8.464  1.00  0.00     0.031 A 
BRANCH  53  67
ATOM     67  C   UNL     1      -2.266  19.272  12.071  1.00  0.00    -0.014 A 
ATOM     68  C   UNL     1      -1.270  20.101  12.613  1.00  0.00     0.009 A 
ATOM     69  C   UNL     1      -2.796  18.243  12.865  1.00  0.00     0.009 A 
ATOM     70  C   UNL     1      -0.788  19.877  13.905  1.00  0.00     0.001 A 
ATOM     71  C   UNL     1      -2.336  18.043  14.168  1.00  0.00     0.001 A 
ATOM     72  C   UNL     1      -1.325  18.852  14.683  1.00  0.00     0.000 A 
ENDBRANCH  53  67
BRANCH  54  73
ATOM     73  C   UNL     1      -5.426  20.299   2.655  1.00  0.00    -0.014 A 
ATOM     74  C   UNL     1      -5.774  21.559   2.143  1.00  0.00     0.009 A 
ATOM     75  C   UNL     1      -5.550  19.173   1.826  1.00  0.00     0.009 A 
ATOM     76  C   UNL     1      -6.264  21.683   0.840  1.00  0.00     0.001 A 
ATOM     77  C   UNL     1      -6.008  19.305   0.513  1.00  0.00     0.001 A 
ATOM     78  C   UNL     1      -6.375  20.557   0.025  1.00  0.00     0.000 A 
ENDBRANCH  54  73
BRANCH  66  79
ATOM     79  C   UNL     1      -8.436  21.217   8.867  1.00  0.00    -0.014 A 
ATOM     80  C   UNL     1      -9.559  20.396   8.676  1.00  0.00     0.009 A 
ATOM     81  C   UNL     1      -8.607  22.468   9.482  1.00  0.00     0.009 A 
ATOM     82  C   UNL     1     -10.828  20.835   9.057  1.00  0.00     0.001 A 
ATOM     83  C   UNL     1      -9.872  22.889   9.894  1.00  0.00     0.001 A 
ATOM     84  C   UNL     1     -10.983  22.078   9.671  1.00  0.00     0.000 A 
ENDBRANCH  66  79
ENDBRANCH  40  41
ENDBRANCH  32  35
ENDBRANCH  30  31
ENDBRANCH  29  30
ENDBRANCH  28  29
ENDBRANCH   1  28
TORSDOF 16
