REMARK SMILES C[C@H]1[NH2+]CC[C@@H]1C(=O)N[C@@H](CC(=O)NCCCCCCNC(=O)c1ccc(-c2c3nc(c(-c4ccccc4)c4ccc([nH]4)c(-c4ccccc4)c4nc(c(-c5ccccc5)c5ccc2[nH]5)C=C4)C=C3)cc1)c1cccs1
REMARK SMILES IDX 17 1 16 2 15 3 14 4 12 5 13 6 11 8 10 9 9 10 7 11 8 12 6 14
REMARK SMILES IDX 1 15 2 16 3 17 4 18 5 21 72 22 73 23 76 24 74 25 75 26 18 27
REMARK SMILES IDX 19 28 20 29 21 30 22 31 23 33 24 34 25 35 71 36 26 37 70 38
REMARK SMILES IDX 27 39 28 40 29 41 64 42 30 43 69 44 63 45 65 46 31 47 68 48
REMARK SMILES IDX 62 49 61 50 32 52 54 53 39 54 53 55 40 56 43 57 52 58 66 59
REMARK SMILES IDX 41 60 42 61 51 63 67 64 44 65 33 66 34 67 38 68 35 69 37 70
REMARK SMILES IDX 36 71 55 72 56 73 60 74 57 75 59 76 58 77 45 78 46 79 50 80
REMARK SMILES IDX 47 81 49 82 48 83
REMARK H PARENT 14 7 9 13 3 19 3 20 21 32 65 51 43 62
REMARK Flexibility Score: inf
ROOT
ATOM      1  C   UNL     1      -2.708   2.617  -6.303  1.00  0.00     0.002 C 
ENDROOT
BRANCH   1   2
ATOM      2  C   UNL     1      -2.217   2.407  -4.870  1.00  0.00     0.021 C 
BRANCH   2   3
ATOM      3  C   UNL     1      -2.006   3.697  -4.075  1.00  0.00     0.116 C 
BRANCH   3   4
ATOM      4  N   UNL     1      -3.273   4.225  -3.606  1.00  0.00    -0.356 N 
ATOM      5  C   UNL     1      -3.764   4.357  -2.344  1.00  0.00     0.222 C 
ATOM      6  O   UNL     1      -4.890   4.841  -2.210  1.00  0.00    -0.275 OA
ATOM      7  H   UNL     1      -3.876   4.540  -4.317  1.00  0.00     0.163 HD
BRANCH   5   8
ATOM      8  C   UNL     1      -2.938   3.978  -1.132  1.00  0.00     0.130 C 
BRANCH   8   9
ATOM      9  C   UNL     1      -2.925   2.500  -0.718  1.00  0.00     0.131 C 
BRANCH   9  10
ATOM     10  N   UNL     1      -2.059   1.692  -1.560  1.00  0.00    -0.348 N 
ATOM     11  C   UNL     1      -0.847   1.116  -1.407  1.00  0.00     0.229 C 
ATOM     12  O   UNL     1      -0.262   0.842  -2.459  1.00  0.00    -0.275 OA
ATOM     13  H   UNL     1      -2.447   1.526  -2.450  1.00  0.00     0.164 HD
BRANCH  11  14
ATOM     14  C   UNL     1      -0.213   0.890  -0.035  1.00  0.00     0.142 C 
ATOM     15  C   UNL     1       2.056   0.066   0.816  1.00  0.00     0.076 C 
ATOM     16  C   UNL     1       0.896  -0.182  -0.150  1.00  0.00     0.192 C 
ATOM     17  N   UNL     1       0.255  -1.479   0.170  1.00  0.00    -0.343 N 
ATOM     18  C   UNL     1      -1.110  -1.215   0.616  1.00  0.00     0.261 C 
ATOM     19  H   UNL     1       0.776  -1.948   0.912  1.00  0.00     0.346 HD
ATOM     20  H   UNL     1       0.247  -2.081  -0.653  1.00  0.00     0.346 HD
ATOM     21  C   UNL     1      -1.133   0.249   0.996  1.00  0.00     0.081 C 
ENDBRANCH  11  14
ENDBRANCH   9  10
BRANCH   9  22
ATOM     22  C   UNL     1      -4.284   1.834  -0.676  1.00  0.00     0.027 A 
ATOM     23  C   UNL     1      -5.079   1.591   0.430  1.00  0.00     0.017 A 
ATOM     24  S   UNL     1      -5.021   1.200  -2.102  1.00  0.00    -0.147 S 
ATOM     25  C   UNL     1      -6.270   0.875   0.107  1.00  0.00     0.012 A 
ATOM     26  C   UNL     1      -6.361   0.601  -1.238  1.00  0.00     0.065 A 
ENDBRANCH   9  22
ENDBRANCH   8   9
ENDBRANCH   5   8
ENDBRANCH   3   4
ENDBRANCH   2   3
ENDBRANCH   1   2
BRANCH   1  27
ATOM     27  C   UNL     1      -1.720   3.338  -7.222  1.00  0.00     0.002 C 
BRANCH  27  28
ATOM     28  C   UNL     1      -0.312   2.739  -7.260  1.00  0.00     0.021 C 
BRANCH  28  29
ATOM     29  C   UNL     1      -0.256   1.253  -7.604  1.00  0.00     0.116 C 
BRANCH  29  30
ATOM     30  N   UNL     1      -0.797   0.981  -8.926  1.00  0.00    -0.352 N 
ATOM     31  C   UNL     1      -0.182   0.427 -10.020  1.00  0.00     0.251 C 
ATOM     32  H   UNL     1      -1.740   1.231  -9.055  1.00  0.00     0.163 HD
ATOM     33  O   UNL     1      -0.719   0.466 -11.121  1.00  0.00    -0.269 OA
BRANCH  31  34
ATOM     34  C   UNL     1       1.143  -0.209  -9.869  1.00  0.00     0.039 A 
ATOM     35  C   UNL     1       2.145   0.087 -10.796  1.00  0.00     0.014 A 
ATOM     36  C   UNL     1       1.388  -1.107  -8.826  1.00  0.00     0.014 A 
ATOM     37  C   UNL     1       3.413  -0.478 -10.646  1.00  0.00     0.010 A 
ATOM     38  C   UNL     1       2.669  -1.618  -8.641  1.00  0.00     0.010 A 
ATOM     39  C   UNL     1       3.691  -1.313  -9.552  1.00  0.00    -0.014 A 
BRANCH  39  40
ATOM     40  C   UNL     1       5.044  -1.886  -9.348  1.00  0.00     0.031 A 
ATOM     41  C   UNL     1       5.257  -3.370  -9.445  1.00  0.00     0.074 A 
ATOM     42  C   UNL     1       6.068  -1.076  -9.017  1.00  0.00     0.049 A 
ATOM     43  N   UNL     1       6.351  -4.062  -9.244  1.00  0.00    -0.248 NA
ATOM     44  C   UNL     1       4.083  -4.187  -9.793  1.00  0.00     0.031 C 
ATOM     45  C   UNL     1       5.984   0.378  -8.861  1.00  0.00     0.029 A 
ATOM     46  N   UNL     1       7.381  -1.364  -8.746  1.00  0.00    -0.354 N 
ATOM     47  C   UNL     1       5.992  -5.392  -9.425  1.00  0.00     0.074 A 
ATOM     48  C   UNL     1       4.573  -5.415  -9.706  1.00  0.00     0.031 C 
ATOM     49  C   UNL     1       7.199   0.856  -8.548  1.00  0.00     0.029 A 
ATOM     50  C   UNL     1       8.136  -0.258  -8.442  1.00  0.00     0.049 A 
ATOM     51  H   UNL     1       7.748  -2.278  -8.768  1.00  0.00     0.167 HD
ATOM     52  C   UNL     1       6.777  -6.495  -9.379  1.00  0.00     0.031 A 
ATOM     53  C   UNL     1       9.435  -0.153  -8.109  1.00  0.00     0.031 A 
ATOM     54  C   UNL     1       8.188  -6.474  -9.104  1.00  0.00     0.049 A 
ATOM     55  C   UNL     1      10.280  -1.394  -8.040  1.00  0.00     0.074 A 
ATOM     56  C   UNL     1       9.080  -7.532  -9.084  1.00  0.00     0.029 A 
ATOM     57  N   UNL     1       8.914  -5.333  -8.799  1.00  0.00    -0.354 N 
ATOM     58  N   UNL     1       9.940  -2.639  -8.273  1.00  0.00    -0.248 NA
ATOM     59  C   UNL     1      11.691  -1.213  -7.671  1.00  0.00     0.031 C 
ATOM     60  C   UNL     1      10.337  -7.037  -8.720  1.00  0.00     0.029 A 
ATOM     61  C   UNL     1      10.238  -5.664  -8.566  1.00  0.00     0.049 A 
ATOM     62  H   UNL     1       8.542  -4.422  -8.754  1.00  0.00     0.167 HD
ATOM     63  C   UNL     1      11.099  -3.385  -8.107  1.00  0.00     0.074 A 
ATOM     64  C   UNL     1      12.153  -2.452  -7.766  1.00  0.00     0.031 C 
ATOM     65  C   UNL     1      11.274  -4.723  -8.228  1.00  0.00     0.031 A 
BRANCH  52  66
ATOM     66  C   UNL     1       6.114  -7.822  -9.625  1.00  0.00    -0.014 A 
ATOM     67  C   UNL     1       5.648  -8.176 -10.902  1.00  0.00     0.009 A 
ATOM     68  C   UNL     1       5.975  -8.741  -8.574  1.00  0.00     0.009 A 
ATOM     69  C   UNL     1       5.021  -9.406 -11.111  1.00  0.00     0.001 A 
ATOM     70  C   UNL     1       5.374  -9.982  -8.792  1.00  0.00     0.001 A 
ATOM     71  C   UNL     1       4.888 -10.309 -10.057  1.00  0.00     0.000 A 
ENDBRANCH  52  66
BRANCH  53  72
ATOM     72  C   UNL     1      10.027   1.182  -7.832  1.00  0.00    -0.014 A 
ATOM     73  C   UNL     1      10.925   1.761  -8.741  1.00  0.00     0.009 A 
ATOM     74  C   UNL     1       9.699   1.882  -6.661  1.00  0.00     0.009 A 
ATOM     75  C   UNL     1      11.502   3.003  -8.472  1.00  0.00     0.001 A 
ATOM     76  C   UNL     1      10.258   3.137  -6.407  1.00  0.00     0.001 A 
ATOM     77  C   UNL     1      11.165   3.692  -7.308  1.00  0.00     0.000 A 
ENDBRANCH  53  72
BRANCH  65  78
ATOM     78  C   UNL     1      12.665  -5.253  -8.026  1.00  0.00    -0.014 A 
ATOM     79  C   UNL     1      13.239  -5.324  -6.747  1.00  0.00     0.009 A 
ATOM     80  C   UNL     1      13.394  -5.726  -9.128  1.00  0.00     0.009 A 
ATOM     81  C   UNL     1      14.530  -5.830  -6.582  1.00  0.00     0.001 A 
ATOM     82  C   UNL     1      14.673  -6.256  -8.957  1.00  0.00     0.001 A 
ATOM     83  C   UNL     1      15.243  -6.300  -7.685  1.00  0.00     0.000 A 
ENDBRANCH  65  78
ENDBRANCH  39  40
ENDBRANCH  31  34
ENDBRANCH  29  30
ENDBRANCH  28  29
ENDBRANCH  27  28
ENDBRANCH   1  27
TORSDOF 17
