REMARK SMILES Cc1cc(Cl)c2c(c1)C=C(C(=O)NCCCCCCNC(=O)c1ccc(-c3c4nc(c(-c5ccccc5)c5ccc([nH]5)c(-c5ccccc5)c5nc(c(-c6ccccc6)c6ccc3[nH]6)C=C5)C=C4)cc1)[C@@H](C(F)(F)F)O2
REMARK SMILES IDX 17 1 16 2 15 3 14 4 13 5 11 6 12 7 10 9 1 10 2 11 3 12 8 13
REMARK SMILES IDX 4 14 7 15 5 16 6 17 9 18 76 19 71 20 72 21 73 22 74 23 75 24
REMARK SMILES IDX 18 25 19 26 20 27 21 28 22 30 23 31 24 32 70 33 25 34 69 35
REMARK SMILES IDX 26 36 27 37 28 38 63 39 29 40 68 41 62 42 64 43 30 44 67 45
REMARK SMILES IDX 61 46 60 47 31 49 53 50 38 51 52 52 39 53 42 54 51 55 65 56
REMARK SMILES IDX 40 57 41 58 50 60 66 61 43 62 32 63 33 64 37 65 34 66 36 67
REMARK SMILES IDX 35 68 54 69 55 70 59 71 56 72 58 73 57 74 44 75 45 76 49 77
REMARK SMILES IDX 46 78 48 79 47 80
REMARK H PARENT 13 8 20 29 64 48 42 59
REMARK Flexibility Score: inf
ROOT
ATOM      1  C   UNL     1       0.370  11.875   2.956  1.00  0.00     0.002 C 
ENDROOT
BRANCH   1   2
ATOM      2  C   UNL     1       1.597  10.965   3.108  1.00  0.00     0.002 C 
BRANCH   2   3
ATOM      3  C   UNL     1       1.282   9.501   3.428  1.00  0.00     0.021 C 
BRANCH   3   4
ATOM      4  C   UNL     1       0.347   8.844   2.419  1.00  0.00     0.116 C 
BRANCH   4   5
ATOM      5  N   UNL     1       1.066   8.342   1.264  1.00  0.00    -0.352 N 
ATOM      6  C   UNL     1       1.241   7.149   0.649  1.00  0.00     0.251 C 
ATOM      7  O   UNL     1       1.943   7.178  -0.367  1.00  0.00    -0.270 OA
ATOM      8  H   UNL     1       1.559   9.060   0.804  1.00  0.00     0.163 HD
BRANCH   6   9
ATOM      9  C   UNL     1       0.665   5.849   1.111  1.00  0.00     0.067 C 
ATOM     10  C   UNL     1       0.946  -0.193  -0.197  1.00  0.00     0.044 C 
ATOM     11  C   UNL     1       0.538   1.029   0.570  1.00  0.00    -0.049 A 
ATOM     12  C   UNL     1      -0.285   0.924   1.696  1.00  0.00     0.028 A 
ATOM     13  C   UNL     1       0.985   2.295   0.163  1.00  0.00     0.015 A 
ATOM     14  C   UNL     1      -0.651   2.067   2.406  1.00  0.00     0.084 A 
ATOM     15  C   UNL     1       0.619   3.444   0.874  1.00  0.00     0.019 A 
ATOM     16  Cl  UNL     1      -1.659   1.885   3.798  1.00  0.00    -0.080 Cl
ATOM     17  C   UNL     1      -0.206   3.326   1.993  1.00  0.00     0.146 A 
ATOM     18  C   UNL     1       1.131   4.753   0.486  1.00  0.00     0.025 C 
ATOM     19  O   UNL     1      -0.562   4.406   2.747  1.00  0.00    -0.474 OA
ATOM     20  C   UNL     1      -0.390   5.723   2.172  1.00  0.00     0.314 C 
BRANCH  20  21
ATOM     21  C   UNL     1      -1.763   6.250   1.716  1.00  0.00     0.429 C 
ATOM     22  F   UNL     1      -2.560   6.489   2.788  1.00  0.00    -0.167 F 
ATOM     23  F   UNL     1      -1.678   7.421   1.041  1.00  0.00    -0.167 F 
ATOM     24  F   UNL     1      -2.410   5.378   0.911  1.00  0.00    -0.167 F 
ENDBRANCH  20  21
ENDBRANCH   6   9
ENDBRANCH   4   5
ENDBRANCH   3   4
ENDBRANCH   2   3
ENDBRANCH   1   2
BRANCH   1  25
ATOM     25  C   UNL     1      -0.652  11.786   4.092  1.00  0.00     0.021 C 
BRANCH  25  26
ATOM     26  C   UNL     1      -0.082  12.089   5.472  1.00  0.00     0.116 C 
BRANCH  26  27
ATOM     27  N   UNL     1       0.460  13.435   5.548  1.00  0.00    -0.352 N 
ATOM     28  C   UNL     1       0.095  14.469   6.370  1.00  0.00     0.251 C 
ATOM     29  H   UNL     1       1.192  13.633   4.920  1.00  0.00     0.163 HD
ATOM     30  O   UNL     1       0.497  15.608   6.155  1.00  0.00    -0.269 OA
BRANCH  28  31
ATOM     31  C   UNL     1      -0.800  14.203   7.512  1.00  0.00     0.039 A 
ATOM     32  C   UNL     1      -1.881  15.056   7.738  1.00  0.00     0.014 A 
ATOM     33  C   UNL     1      -0.566  13.113   8.356  1.00  0.00     0.014 A 
ATOM     34  C   UNL     1      -2.759  14.786   8.787  1.00  0.00     0.010 A 
ATOM     35  C   UNL     1      -1.484  12.803   9.352  1.00  0.00     0.010 A 
ATOM     36  C   UNL     1      -2.581  13.644   9.585  1.00  0.00    -0.014 A 
BRANCH  36  37
ATOM     37  C   UNL     1      -3.522  13.333  10.687  1.00  0.00     0.031 A 
ATOM     38  C   UNL     1      -3.047  13.372  12.112  1.00  0.00     0.074 A 
ATOM     39  C   UNL     1      -4.794  12.992  10.403  1.00  0.00     0.049 A 
ATOM     40  N   UNL     1      -3.716  13.126  13.210  1.00  0.00    -0.248 NA
ATOM     41  C   UNL     1      -1.632  13.716  12.336  1.00  0.00     0.031 C 
ATOM     42  C   UNL     1      -5.364  12.897   9.058  1.00  0.00     0.029 A 
ATOM     43  N   UNL     1      -5.840  12.673  11.231  1.00  0.00    -0.354 N 
ATOM     44  C   UNL     1      -2.806  13.285  14.247  1.00  0.00     0.074 A 
ATOM     45  C   UNL     1      -1.525  13.585  13.649  1.00  0.00     0.031 C 
ATOM     46  C   UNL     1      -6.667  12.587   9.155  1.00  0.00     0.029 A 
ATOM     47  C   UNL     1      -7.013  12.421  10.563  1.00  0.00     0.049 A 
ATOM     48  H   UNL     1      -5.757  12.629  12.211  1.00  0.00     0.167 HD
ATOM     49  C   UNL     1      -3.025  13.217  15.581  1.00  0.00     0.031 A 
ATOM     50  C   UNL     1      -8.233  12.097  11.034  1.00  0.00     0.031 A 
ATOM     51  C   UNL     1      -4.301  12.925  16.174  1.00  0.00     0.049 A 
ATOM     52  C   UNL     1      -8.438  11.979  12.519  1.00  0.00     0.074 A 
ATOM     53  C   UNL     1      -4.631  12.868  17.516  1.00  0.00     0.029 A 
ATOM     54  N   UNL     1      -5.455  12.641  15.461  1.00  0.00    -0.354 N 
ATOM     55  N   UNL     1      -7.580  12.187  13.489  1.00  0.00    -0.248 NA
ATOM     56  C   UNL     1      -9.780  11.590  12.974  1.00  0.00     0.031 C 
ATOM     57  C   UNL     1      -5.974  12.495  17.617  1.00  0.00     0.029 A 
ATOM     58  C   UNL     1      -6.495  12.380  16.337  1.00  0.00     0.049 A 
ATOM     59  H   UNL     1      -5.526  12.628  14.479  1.00  0.00     0.167 HD
ATOM     60  C   UNL     1      -8.283  11.975  14.668  1.00  0.00     0.074 A 
ATOM     61  C   UNL     1      -9.641  11.642  14.292  1.00  0.00     0.031 C 
ATOM     62  C   UNL     1      -7.840  12.049  15.946  1.00  0.00     0.031 A 
BRANCH  49  63
ATOM     63  C   UNL     1      -1.858  13.473  16.492  1.00  0.00    -0.014 A 
ATOM     64  C   UNL     1      -1.316  14.762  16.626  1.00  0.00     0.009 A 
ATOM     65  C   UNL     1      -1.333  12.431  17.272  1.00  0.00     0.009 A 
ATOM     66  C   UNL     1      -0.256  14.996  17.503  1.00  0.00     0.001 A 
ATOM     67  C   UNL     1      -0.292  12.675  18.170  1.00  0.00     0.001 A 
ATOM     68  C   UNL     1       0.250  13.955  18.280  1.00  0.00     0.000 A 
ENDBRANCH  49  63
BRANCH  50  69
ATOM     69  C   UNL     1      -9.361  11.889  10.088  1.00  0.00    -0.014 A 
ATOM     70  C   UNL     1     -10.416  12.813  10.029  1.00  0.00     0.009 A 
ATOM     71  C   UNL     1      -9.386  10.778   9.231  1.00  0.00     0.009 A 
ATOM     72  C   UNL     1     -11.479  12.620   9.144  1.00  0.00     0.001 A 
ATOM     73  C   UNL     1     -10.436  10.602   8.327  1.00  0.00     0.001 A 
ATOM     74  C   UNL     1     -11.485  11.518   8.289  1.00  0.00     0.000 A 
ENDBRANCH  50  69
BRANCH  62  75
ATOM     75  C   UNL     1      -8.832  11.780  17.043  1.00  0.00    -0.014 A 
ATOM     76  C   UNL     1      -9.287  10.479  17.305  1.00  0.00     0.009 A 
ATOM     77  C   UNL     1      -9.246  12.829  17.880  1.00  0.00     0.009 A 
ATOM     78  C   UNL     1     -10.152  10.237  18.373  1.00  0.00     0.001 A 
ATOM     79  C   UNL     1     -10.087  12.578  18.965  1.00  0.00     0.001 A 
ATOM     80  C   UNL     1     -10.543  11.284  19.207  1.00  0.00     0.000 A 
ENDBRANCH  62  75
ENDBRANCH  36  37
ENDBRANCH  28  31
ENDBRANCH  26  27
ENDBRANCH  25  26
ENDBRANCH   1  25
TORSDOF 14
