REMARK SMILES [NH3+]C[C@H]1CC[C@@H](C(=O)Nc2ccc(O)c(C(=O)NCCCCCCNC(=O)c3ccc(-c4c5nc(c(-c6ccccc6)c6ccc([nH]6)c(-c6ccccc6)c6nc(c(-c7ccccc7)c7ccc4[nH]7)C=C6)C=C5)cc3)c2)O1
REMARK SMILES IDX 20 1 19 2 18 3 16 4 17 5 15 7 10 8 11 9 76 10 12 11 13 12
REMARK SMILES IDX 9 13 7 14 8 15 6 17 3 18 4 19 77 20 5 21 2 22 1 23 14 27
REMARK SMILES IDX 21 29 22 30 23 31 24 32 25 33 26 34 27 36 28 37 29 38 75 39
REMARK SMILES IDX 30 40 74 41 31 42 32 43 33 44 68 45 34 46 73 47 67 48 69 49
REMARK SMILES IDX 35 50 72 51 66 52 65 53 36 55 58 56 43 57 57 58 44 59 47 60
REMARK SMILES IDX 56 61 70 62 45 63 46 64 55 66 71 67 48 68 37 69 38 70 42 71
REMARK SMILES IDX 39 72 41 73 40 74 59 75 60 76 64 77 61 78 63 79 62 80 49 81
REMARK SMILES IDX 50 82 54 83 51 84 53 85 52 86
REMARK H PARENT 18 6 9 16 1 24 1 25 1 26 14 28 25 35 69 54 47 65
REMARK Flexibility Score: inf
ROOT
ATOM      1  C   UNL     1       8.801   0.743  -3.851  1.00  0.00     0.021 C 
ENDROOT
BRANCH   1   2
ATOM      2  C   UNL     1       7.947  -0.087  -2.887  1.00  0.00     0.116 C 
BRANCH   2   3
ATOM      3  N   UNL     1       8.569  -0.113  -1.580  1.00  0.00    -0.352 N 
ATOM      4  C   UNL     1       8.353   0.628  -0.449  1.00  0.00     0.255 C 
ATOM      5  O   UNL     1       9.122   0.436   0.497  1.00  0.00    -0.269 OA
ATOM      6  H   UNL     1       9.279  -0.788  -1.488  1.00  0.00     0.163 HD
BRANCH   4   7
ATOM      7  C   UNL     1       7.205   1.555  -0.243  1.00  0.00     0.083 A 
ATOM      8  C   UNL     1       5.588   2.326   1.427  1.00  0.00     0.042 A 
ATOM      9  C   UNL     1       5.060   3.221   0.500  1.00  0.00     0.030 A 
ATOM     10  C   UNL     1       6.676   1.533   1.065  1.00  0.00     0.043 A 
ATOM     11  C   UNL     1       5.584   3.282  -0.790  1.00  0.00     0.049 A 
ATOM     12  C   UNL     1       6.656   2.461  -1.158  1.00  0.00     0.128 A 
BRANCH   8  13
ATOM     13  N   UNL     1       5.126   2.247   2.747  1.00  0.00    -0.324 N 
ATOM     14  C   UNL     1       3.857   2.403   3.242  1.00  0.00     0.253 C 
ATOM     15  O   UNL     1       3.714   2.579   4.455  1.00  0.00    -0.272 OA
ATOM     16  H   UNL     1       5.817   2.050   3.420  1.00  0.00     0.170 HD
BRANCH  14  17
ATOM     17  C   UNL     1       2.657   2.183   2.306  1.00  0.00     0.208 C 
ATOM     18  C   UNL     1       0.828   0.721   2.478  1.00  0.00     0.174 C 
ATOM     19  C   UNL     1       0.319   2.122   2.169  1.00  0.00     0.041 C 
ATOM     20  O   UNL     1       2.261   0.794   2.346  1.00  0.00    -0.359 OA
ATOM     21  C   UNL     1       1.433   2.993   2.692  1.00  0.00     0.045 C 
BRANCH  18  22
ATOM     22  C   UNL     1       0.487   0.205   3.891  1.00  0.00     0.291 C 
BRANCH  22  23
ATOM     23  N   UNL     1      -0.944   0.143   4.185  1.00  0.00    -0.355 N 
ATOM     24  H   UNL     1      -1.081  -0.207   5.134  1.00  0.00     0.344 HD
ATOM     25  H   UNL     1      -1.401  -0.484   3.523  1.00  0.00     0.344 HD
ATOM     26  H   UNL     1      -1.349   1.076   4.105  1.00  0.00     0.344 HD
ENDBRANCH  22  23
ENDBRANCH  18  22
ENDBRANCH  14  17
ENDBRANCH   8  13
BRANCH  12  27
ATOM     27  O   UNL     1       7.170   2.637  -2.408  1.00  0.00    -0.507 OA
ATOM     28  H   UNL     1       6.775   3.252  -2.994  1.00  0.00     0.293 HD
ENDBRANCH  12  27
ENDBRANCH   4   7
ENDBRANCH   2   3
ENDBRANCH   1   2
BRANCH   1  29
ATOM     29  C   UNL     1       9.978  -0.028  -4.457  1.00  0.00     0.002 C 
BRANCH  29  30
ATOM     30  C   UNL     1       9.585  -1.110  -5.468  1.00  0.00     0.002 C 
BRANCH  30  31
ATOM     31  C   UNL     1       8.722  -0.630  -6.640  1.00  0.00     0.021 C 
BRANCH  31  32
ATOM     32  C   UNL     1       9.330   0.499  -7.470  1.00  0.00     0.116 C 
BRANCH  32  33
ATOM     33  N   UNL     1      10.558   0.087  -8.127  1.00  0.00    -0.352 N 
ATOM     34  C   UNL     1      10.890   0.103  -9.458  1.00  0.00     0.251 C 
ATOM     35  H   UNL     1      11.258  -0.256  -7.527  1.00  0.00     0.163 HD
ATOM     36  O   UNL     1      11.892  -0.491  -9.844  1.00  0.00    -0.269 OA
BRANCH  34  37
ATOM     37  C   UNL     1      10.047   0.825 -10.437  1.00  0.00     0.039 A 
ATOM     38  C   UNL     1       9.801   0.226 -11.676  1.00  0.00     0.014 A 
ATOM     39  C   UNL     1       9.554   2.106 -10.170  1.00  0.00     0.014 A 
ATOM     40  C   UNL     1       9.032   0.894 -12.631  1.00  0.00     0.010 A 
ATOM     41  C   UNL     1       8.739   2.749 -11.103  1.00  0.00     0.010 A 
ATOM     42  C   UNL     1       8.479   2.153 -12.345  1.00  0.00    -0.014 A 
BRANCH  42  43
ATOM     43  C   UNL     1       7.640   2.853 -13.350  1.00  0.00     0.031 A 
ATOM     44  C   UNL     1       8.131   4.114 -14.008  1.00  0.00     0.074 A 
ATOM     45  C   UNL     1       6.426   2.360 -13.662  1.00  0.00     0.049 A 
ATOM     46  N   UNL     1       7.541   4.856 -14.911  1.00  0.00    -0.248 NA
ATOM     47  C   UNL     1       9.448   4.616 -13.586  1.00  0.00     0.031 C 
ATOM     48  C   UNL     1       5.821   1.163 -13.075  1.00  0.00     0.029 A 
ATOM     49  N   UNL     1       5.485   2.804 -14.557  1.00  0.00    -0.354 N 
ATOM     50  C   UNL     1       8.411   5.909 -15.164  1.00  0.00     0.074 A 
ATOM     51  C   UNL     1       9.547   5.739 -14.284  1.00  0.00     0.031 C 
ATOM     52  C   UNL     1       4.626   0.948 -13.651  1.00  0.00     0.029 A 
ATOM     53  C   UNL     1       4.369   2.005 -14.623  1.00  0.00     0.049 A 
ATOM     54  H   UNL     1       5.599   3.617 -15.101  1.00  0.00     0.167 HD
ATOM     55  C   UNL     1       8.290   6.915 -16.063  1.00  0.00     0.031 A 
ATOM     56  C   UNL     1       3.267   2.109 -15.388  1.00  0.00     0.031 A 
ATOM     57  C   UNL     1       7.167   7.087 -16.945  1.00  0.00     0.049 A 
ATOM     58  C   UNL     1       3.154   3.241 -16.370  1.00  0.00     0.074 A 
ATOM     59  C   UNL     1       6.964   8.063 -17.906  1.00  0.00     0.029 A 
ATOM     60  N   UNL     1       6.059   6.256 -16.980  1.00  0.00    -0.354 N 
ATOM     61  N   UNL     1       4.008   4.201 -16.625  1.00  0.00    -0.248 NA
ATOM     62  C   UNL     1       1.929   3.291 -17.180  1.00  0.00     0.031 C 
ATOM     63  C   UNL     1       5.718   7.840 -18.501  1.00  0.00     0.029 A 
ATOM     64  C   UNL     1       5.165   6.701 -17.939  1.00  0.00     0.049 A 
ATOM     65  H   UNL     1       5.927   5.466 -16.407  1.00  0.00     0.167 HD
ATOM     66  C   UNL     1       3.437   4.953 -17.643  1.00  0.00     0.074 A 
ATOM     67  C   UNL     1       2.173   4.326 -17.970  1.00  0.00     0.031 C 
ATOM     68  C   UNL     1       3.915   6.064 -18.253  1.00  0.00     0.031 A 
BRANCH  55  69
ATOM     69  C   UNL     1       9.414   7.909 -16.143  1.00  0.00    -0.014 A 
ATOM     70  C   UNL     1      10.641   7.560 -16.728  1.00  0.00     0.009 A 
ATOM     71  C   UNL     1       9.230   9.219 -15.676  1.00  0.00     0.009 A 
ATOM     72  C   UNL     1      11.673   8.496 -16.818  1.00  0.00     0.001 A 
ATOM     73  C   UNL     1      10.256  10.160 -15.789  1.00  0.00     0.001 A 
ATOM     74  C   UNL     1      11.478   9.796 -16.353  1.00  0.00     0.000 A 
ENDBRANCH  55  69
BRANCH  56  75
ATOM     75  C   UNL     1       2.182   1.099 -15.280  1.00  0.00    -0.014 A 
ATOM     76  C   UNL     1       1.963   0.180 -16.318  1.00  0.00     0.009 A 
ATOM     77  C   UNL     1       1.343   1.069 -14.156  1.00  0.00     0.009 A 
ATOM     78  C   UNL     1       0.904  -0.727 -16.247  1.00  0.00     0.001 A 
ATOM     79  C   UNL     1       0.301   0.143 -14.077  1.00  0.00     0.001 A 
ATOM     80  C   UNL     1       0.075  -0.746 -15.126  1.00  0.00     0.000 A 
ENDBRANCH  56  75
BRANCH  68  81
ATOM     81  C   UNL     1       3.081   6.646 -19.358  1.00  0.00    -0.014 A 
ATOM     82  C   UNL     1       1.896   7.345 -19.082  1.00  0.00     0.009 A 
ATOM     83  C   UNL     1       3.498   6.506 -20.690  1.00  0.00     0.009 A 
ATOM     84  C   UNL     1       1.124   7.860 -20.124  1.00  0.00     0.001 A 
ATOM     85  C   UNL     1       2.737   7.045 -21.729  1.00  0.00     0.001 A 
ATOM     86  C   UNL     1       1.546   7.712 -21.445  1.00  0.00     0.000 A 
ENDBRANCH  68  81
ENDBRANCH  42  43
ENDBRANCH  34  37
ENDBRANCH  32  33
ENDBRANCH  31  32
ENDBRANCH  30  31
ENDBRANCH  29  30
ENDBRANCH   1  29
TORSDOF 18
