REMARK SMILES CC[N@@H+]1CCO[C@@H](Cn2cc(C(=O)NCCCCCCNC(=O)c3ccc(-c4c5nc(c(-c6ccccc6)c6ccc([nH]6)c(-c6ccccc6)c6nc(c(-c7ccccc7)c7ccc4[nH]7)C=C6)C=C5)cc3)nn2)C1
REMARK SMILES IDX 17 1 16 2 15 3 14 4 12 5 13 6 11 8 9 9 10 10 73 11 72 12
REMARK SMILES IDX 8 13 7 14 3 15 4 16 74 17 5 19 6 20 2 21 1 22 18 23 19 24
REMARK SMILES IDX 20 25 21 26 22 27 23 29 24 30 25 31 71 32 26 33 70 34 27 35
REMARK SMILES IDX 28 36 29 37 64 38 30 39 69 40 63 41 65 42 31 43 68 44 62 45
REMARK SMILES IDX 61 46 32 48 54 49 39 50 53 51 40 52 43 53 52 54 66 55 41 56
REMARK SMILES IDX 42 57 51 59 67 60 44 61 33 62 34 63 38 64 35 65 37 66 36 67
REMARK SMILES IDX 55 68 56 69 60 70 57 71 59 72 58 73 45 74 46 75 50 76 47 77
REMARK SMILES IDX 49 78 48 79
REMARK H PARENT 14 7 3 18 21 28 65 47 43 58
REMARK Flexibility Score: inf
ROOT
ATOM      1  C   UNL     1      -7.244   0.663   1.172  1.00  0.00     0.002 C 
ENDROOT
BRANCH   1   2
ATOM      2  C   UNL     1      -6.177   1.751   0.985  1.00  0.00     0.021 C 
BRANCH   2   3
ATOM      3  C   UNL     1      -5.006   1.311   0.107  1.00  0.00     0.116 C 
BRANCH   3   4
ATOM      4  N   UNL     1      -5.380   1.329  -1.291  1.00  0.00    -0.351 N 
ATOM      5  C   UNL     1      -4.969   2.108  -2.348  1.00  0.00     0.273 C 
ATOM      6  O   UNL     1      -5.439   1.829  -3.450  1.00  0.00    -0.267 OA
ATOM      7  H   UNL     1      -6.056   0.656  -1.532  1.00  0.00     0.163 HD
BRANCH   5   8
ATOM      8  C   UNL     1      -3.981   3.167  -2.174  1.00  0.00     0.170 A 
ATOM      9  N   UNL     1      -2.506   4.587  -1.470  1.00  0.00    -0.249 N 
ATOM     10  C   UNL     1      -3.623   3.916  -1.068  1.00  0.00     0.145 A 
ATOM     11  N   UNL     1      -2.295   4.444  -2.783  1.00  0.00    -0.067 NA
ATOM     12  N   UNL     1      -3.191   3.576  -3.230  1.00  0.00    -0.125 NA
BRANCH   9  13
ATOM     13  C   UNL     1      -1.502   5.198  -0.633  1.00  0.00     0.184 C 
BRANCH  13  14
ATOM     14  C   UNL     1      -0.656   4.158   0.115  1.00  0.00     0.194 C 
ATOM     15  N   UNL     1       1.114   2.358  -0.168  1.00  0.00    -0.331 N 
ATOM     16  C   UNL     1       1.915   3.137   0.794  1.00  0.00     0.291 C 
ATOM     17  C   UNL     1       0.174   3.272  -0.852  1.00  0.00     0.296 C 
ATOM     18  H   UNL     1       1.734   1.945  -0.865  1.00  0.00     0.348 HD
ATOM     19  C   UNL     1       1.058   3.983   1.748  1.00  0.00     0.222 C 
ATOM     20  O   UNL     1       0.201   4.878   1.025  1.00  0.00    -0.365 OA
BRANCH  15  21
ATOM     21  C   UNL     1       0.448   1.207   0.454  1.00  0.00     0.258 C 
ATOM     22  C   UNL     1       0.970  -0.075  -0.180  1.00  0.00     0.071 C 
ENDBRANCH  15  21
ENDBRANCH  13  14
ENDBRANCH   9  13
ENDBRANCH   5   8
ENDBRANCH   3   4
ENDBRANCH   2   3
ENDBRANCH   1   2
BRANCH   1  23
ATOM     23  C   UNL     1      -6.738  -0.679   1.728  1.00  0.00     0.002 C 
BRANCH  23  24
ATOM     24  C   UNL     1      -5.880  -0.615   3.002  1.00  0.00     0.021 C 
BRANCH  24  25
ATOM     25  C   UNL     1      -6.646  -0.147   4.227  1.00  0.00     0.116 C 
BRANCH  25  26
ATOM     26  N   UNL     1      -7.681  -1.101   4.640  1.00  0.00    -0.352 N 
ATOM     27  C   UNL     1      -8.607  -0.993   5.665  1.00  0.00     0.251 C 
ATOM     28  H   UNL     1      -7.723  -1.933   4.116  1.00  0.00     0.163 HD
ATOM     29  O   UNL     1      -9.146  -1.980   6.137  1.00  0.00    -0.269 OA
BRANCH  27  30
ATOM     30  C   UNL     1      -8.947   0.352   6.158  1.00  0.00     0.039 A 
ATOM     31  C   UNL     1      -9.228   0.621   7.502  1.00  0.00     0.014 A 
ATOM     32  C   UNL     1      -8.957   1.371   5.216  1.00  0.00     0.014 A 
ATOM     33  C   UNL     1      -9.471   1.941   7.879  1.00  0.00     0.010 A 
ATOM     34  C   UNL     1      -8.921   2.667   5.626  1.00  0.00     0.010 A 
ATOM     35  C   UNL     1      -9.310   2.954   6.923  1.00  0.00    -0.014 A 
BRANCH  35  36
ATOM     36  C   UNL     1      -9.460   4.365   7.225  1.00  0.00     0.031 A 
ATOM     37  C   UNL     1      -8.489   4.871   8.220  1.00  0.00     0.074 A 
ATOM     38  C   UNL     1     -10.216   5.175   6.449  1.00  0.00     0.049 A 
ATOM     39  N   UNL     1      -8.749   5.272   9.416  1.00  0.00    -0.248 NA
ATOM     40  C   UNL     1      -7.050   4.773   7.921  1.00  0.00     0.031 C 
ATOM     41  C   UNL     1     -10.968   4.838   5.231  1.00  0.00     0.029 A 
ATOM     42  N   UNL     1     -10.354   6.524   6.506  1.00  0.00    -0.354 N 
ATOM     43  C   UNL     1      -7.536   5.688   9.949  1.00  0.00     0.074 A 
ATOM     44  C   UNL     1      -6.515   5.160   9.081  1.00  0.00     0.031 C 
ATOM     45  C   UNL     1     -11.255   5.968   4.546  1.00  0.00     0.029 A 
ATOM     46  C   UNL     1     -10.848   7.109   5.345  1.00  0.00     0.049 A 
ATOM     47  H   UNL     1     -10.122   7.048   7.307  1.00  0.00     0.167 HD
ATOM     48  C   UNL     1      -7.489   6.665  10.896  1.00  0.00     0.031 A 
ATOM     49  C   UNL     1     -10.878   8.436   5.053  1.00  0.00     0.031 A 
ATOM     50  C   UNL     1      -8.806   6.955  11.413  1.00  0.00     0.049 A 
ATOM     51  C   UNL     1     -10.736   9.164   6.338  1.00  0.00     0.074 A 
ATOM     52  C   UNL     1      -9.784   6.210  12.042  1.00  0.00     0.029 A 
ATOM     53  N   UNL     1      -9.441   8.066  10.902  1.00  0.00    -0.354 N 
ATOM     54  N   UNL     1     -11.651   9.144   7.266  1.00  0.00    -0.248 NA
ATOM     55  C   UNL     1      -9.391   9.483   6.796  1.00  0.00     0.031 C 
ATOM     56  C   UNL     1     -11.007   6.648  11.454  1.00  0.00     0.029 A 
ATOM     57  C   UNL     1     -10.723   7.700  10.581  1.00  0.00     0.049 A 
ATOM     58  H   UNL     1      -9.046   8.960  10.788  1.00  0.00     0.167 HD
ATOM     59  C   UNL     1     -10.944   8.973   8.448  1.00  0.00     0.074 A 
ATOM     60  C   UNL     1      -9.555   9.293   8.111  1.00  0.00     0.031 C 
ATOM     61  C   UNL     1     -11.485   8.288   9.501  1.00  0.00     0.031 A 
BRANCH  48  62
ATOM     62  C   UNL     1      -6.359   7.651  11.035  1.00  0.00    -0.014 A 
ATOM     63  C   UNL     1      -6.423   8.591  12.080  1.00  0.00     0.009 A 
ATOM     64  C   UNL     1      -5.397   7.881  10.035  1.00  0.00     0.009 A 
ATOM     65  C   UNL     1      -5.630   9.743  12.072  1.00  0.00     0.001 A 
ATOM     66  C   UNL     1      -4.574   9.010  10.046  1.00  0.00     0.001 A 
ATOM     67  C   UNL     1      -4.713   9.957  11.049  1.00  0.00     0.000 A 
ENDBRANCH  48  62
BRANCH  49  68
ATOM     68  C   UNL     1     -10.764   9.111   3.738  1.00  0.00    -0.014 A 
ATOM     69  C   UNL     1     -11.072  10.475   3.592  1.00  0.00     0.009 A 
ATOM     70  C   UNL     1     -10.093   8.483   2.671  1.00  0.00     0.009 A 
ATOM     71  C   UNL     1     -10.686  11.188   2.446  1.00  0.00     0.001 A 
ATOM     72  C   UNL     1      -9.710   9.193   1.526  1.00  0.00     0.001 A 
ATOM     73  C   UNL     1      -9.992  10.550   1.421  1.00  0.00     0.000 A 
ENDBRANCH  49  68
BRANCH  61  74
ATOM     74  C   UNL     1     -12.941   7.891   9.421  1.00  0.00    -0.014 A 
ATOM     75  C   UNL     1     -13.460   7.047   8.422  1.00  0.00     0.009 A 
ATOM     76  C   UNL     1     -13.778   8.236  10.492  1.00  0.00     0.009 A 
ATOM     77  C   UNL     1     -14.782   6.588   8.481  1.00  0.00     0.001 A 
ATOM     78  C   UNL     1     -15.089   7.761  10.564  1.00  0.00     0.001 A 
ATOM     79  C   UNL     1     -15.593   6.942   9.556  1.00  0.00     0.000 A 
ENDBRANCH  61  74
ENDBRANCH  35  36
ENDBRANCH  27  30
ENDBRANCH  25  26
ENDBRANCH  24  25
ENDBRANCH  23  24
ENDBRANCH   1  23
TORSDOF 16
