REMARK SMILES NS(=O)(=O)c1ccc(NS(=O)(=O)c2cccc(C(=O)NCCCCCCNC(=O)c3ccc(-c4c5nc(c(-c6ccccc6)c6ccc([nH]6)c(-c6ccccc6)c6nc(c(-c7ccccc7)c7ccc4[nH]7)C=C6)C=C5)cc3)c2)cc1
REMARK SMILES IDX 22 1 21 2 20 3 18 4 19 5 17 7 13 8 14 9 78 10 15 11 16 12
REMARK SMILES IDX 10 13 11 14 12 15 9 16 8 18 5 19 6 20 80 21 7 22 79 23 2 24
REMARK SMILES IDX 3 25 4 26 1 27 23 30 24 31 25 32 26 33 27 34 28 35 29 37
REMARK SMILES IDX 30 38 31 39 77 40 32 41 76 42 33 43 34 44 35 45 70 46 36 47
REMARK SMILES IDX 75 48 69 49 71 50 37 51 74 52 68 53 67 54 38 56 60 57 45 58
REMARK SMILES IDX 59 59 46 60 49 61 58 62 72 63 47 64 48 65 57 67 73 68 50 69
REMARK SMILES IDX 39 70 40 71 44 72 41 73 43 74 42 75 61 76 62 77 66 78 63 79
REMARK SMILES IDX 65 80 64 81 51 82 52 83 56 84 53 85 55 86 54 87
REMARK H PARENT 20 6 9 17 1 28 1 29 27 36 71 55 49 66
REMARK Flexibility Score: inf
ROOT
ATOM      1  C   UNL     1       3.672   0.765  -2.072  1.00  0.00     0.021 C 
ENDROOT
BRANCH   1   2
ATOM      2  C   UNL     1       4.581   0.472  -3.257  1.00  0.00     0.116 C 
BRANCH   2   3
ATOM      3  N   UNL     1       5.077  -0.888  -3.304  1.00  0.00    -0.352 N 
ATOM      4  C   UNL     1       5.129  -1.832  -4.304  1.00  0.00     0.251 C 
ATOM      5  O   UNL     1       5.629  -2.923  -4.026  1.00  0.00    -0.269 OA
ATOM      6  H   UNL     1       5.453  -1.200  -2.449  1.00  0.00     0.163 HD
BRANCH   4   7
ATOM      7  C   UNL     1       4.555  -1.639  -5.671  1.00  0.00     0.041 A 
ATOM      8  C   UNL     1       3.578  -0.317  -7.437  1.00  0.00     0.088 A 
ATOM      9  C   UNL     1       3.161  -1.465  -8.116  1.00  0.00     0.022 A 
ATOM     10  C   UNL     1       4.375  -0.402  -6.289  1.00  0.00     0.036 A 
ATOM     11  C   UNL     1       3.462  -2.712  -7.582  1.00  0.00     0.002 A 
ATOM     12  C   UNL     1       4.117  -2.795  -6.348  1.00  0.00     0.014 A 
BRANCH   8  13
ATOM     13  S   UNL     1       2.776   1.229  -7.816  1.00  0.00     0.261 S 
ATOM     14  O   UNL     1       1.586   0.949  -8.589  1.00  0.00    -0.201 OA
ATOM     15  O   UNL     1       3.804   2.127  -8.296  1.00  0.00    -0.201 OA
BRANCH  13  16
ATOM     16  N   UNL     1       2.289   1.835  -6.327  1.00  0.00    -0.280 N 
ATOM     17  H   UNL     1       2.671   2.702  -6.060  1.00  0.00     0.180 HD
BRANCH  16  18
ATOM     18  C   UNL     1       1.381   1.228  -5.406  1.00  0.00     0.049 A 
ATOM     19  C   UNL     1       0.157   0.051  -3.168  1.00  0.00     0.082 A 
ATOM     20  C   UNL     1       0.497  -0.733  -4.269  1.00  0.00     0.024 A 
ATOM     21  C   UNL     1       0.340   1.433  -3.208  1.00  0.00     0.024 A 
ATOM     22  C   UNL     1       1.078  -0.135  -5.393  1.00  0.00     0.028 A 
ATOM     23  C   UNL     1       0.965   2.013  -4.321  1.00  0.00     0.028 A 
BRANCH  19  24
ATOM     24  S   UNL     1      -0.378  -0.733  -1.673  1.00  0.00     0.238 S 
ATOM     25  O   UNL     1       0.114  -2.094  -1.657  1.00  0.00    -0.207 OA
ATOM     26  O   UNL     1      -1.754  -0.388  -1.435  1.00  0.00    -0.207 OA
BRANCH  24  27
ATOM     27  N   UNL     1       0.524   0.057  -0.487  1.00  0.00    -0.225 NA
ATOM     28  H   UNL     1       0.289  -0.325   0.429  1.00  0.00     0.137 HD
ATOM     29  H   UNL     1       0.310   1.054  -0.505  1.00  0.00     0.137 HD
ENDBRANCH  24  27
ENDBRANCH  19  24
ENDBRANCH  16  18
ENDBRANCH  13  16
ENDBRANCH   8  13
ENDBRANCH   4   7
ENDBRANCH   2   3
ENDBRANCH   1   2
BRANCH   1  30
ATOM     30  C   UNL     1       4.322   0.910  -0.700  1.00  0.00     0.002 C 
BRANCH  30  31
ATOM     31  C   UNL     1       5.455   1.931  -0.577  1.00  0.00     0.002 C 
BRANCH  31  32
ATOM     32  C   UNL     1       5.209   3.325  -1.165  1.00  0.00     0.021 C 
BRANCH  32  33
ATOM     33  C   UNL     1       3.938   4.043  -0.717  1.00  0.00     0.116 C 
BRANCH  33  34
ATOM     34  N   UNL     1       3.888   4.279   0.713  1.00  0.00    -0.352 N 
ATOM     35  C   UNL     1       3.857   5.456   1.420  1.00  0.00     0.251 C 
ATOM     36  H   UNL     1       3.873   3.465   1.266  1.00  0.00     0.163 HD
ATOM     37  O   UNL     1       3.939   5.433   2.645  1.00  0.00    -0.269 OA
BRANCH  35  38
ATOM     38  C   UNL     1       3.756   6.758   0.724  1.00  0.00     0.039 A 
ATOM     39  C   UNL     1       4.613   7.792   1.116  1.00  0.00     0.014 A 
ATOM     40  C   UNL     1       2.809   6.981  -0.280  1.00  0.00     0.014 A 
ATOM     41  C   UNL     1       4.570   9.023   0.456  1.00  0.00     0.010 A 
ATOM     42  C   UNL     1       2.806   8.191  -0.977  1.00  0.00     0.010 A 
ATOM     43  C   UNL     1       3.690   9.221  -0.619  1.00  0.00    -0.014 A 
BRANCH  43  44
ATOM     44  C   UNL     1       3.694  10.492  -1.388  1.00  0.00     0.031 A 
ATOM     45  C   UNL     1       2.507  11.413  -1.350  1.00  0.00     0.074 A 
ATOM     46  C   UNL     1       4.747  10.789  -2.175  1.00  0.00     0.049 A 
ATOM     47  N   UNL     1       2.308  12.528  -2.007  1.00  0.00    -0.248 NA
ATOM     48  C   UNL     1       1.391  11.020  -0.476  1.00  0.00     0.031 C 
ATOM     49  C   UNL     1       5.950   9.968  -2.328  1.00  0.00     0.029 A 
ATOM     50  N   UNL     1       4.969  11.862  -3.002  1.00  0.00    -0.354 N 
ATOM     51  C   UNL     1       1.040  12.961  -1.640  1.00  0.00     0.074 A 
ATOM     52  C   UNL     1       0.503  11.970  -0.732  1.00  0.00     0.031 C 
ATOM     53  C   UNL     1       6.791  10.576  -3.180  1.00  0.00     0.029 A 
ATOM     54  C   UNL     1       6.174  11.809  -3.659  1.00  0.00     0.049 A 
ATOM     55  H   UNL     1       4.326  12.599  -3.112  1.00  0.00     0.167 HD
ATOM     56  C   UNL     1       0.386  14.087  -2.013  1.00  0.00     0.031 A 
ATOM     57  C   UNL     1       6.720  12.653  -4.554  1.00  0.00     0.031 A 
ATOM     58  C   UNL     1       0.919  15.083  -2.903  1.00  0.00     0.049 A 
ATOM     59  C   UNL     1       5.970  13.889  -4.961  1.00  0.00     0.074 A 
ATOM     60  C   UNL     1       0.352  16.285  -3.292  1.00  0.00     0.029 A 
ATOM     61  N   UNL     1       2.144  14.993  -3.545  1.00  0.00    -0.354 N 
ATOM     62  N   UNL     1       4.795  14.310  -4.561  1.00  0.00    -0.248 NA
ATOM     63  C   UNL     1       6.626  14.770  -5.938  1.00  0.00     0.031 C 
ATOM     64  C   UNL     1       1.217  16.903  -4.202  1.00  0.00     0.029 A 
ATOM     65  C   UNL     1       2.341  16.106  -4.345  1.00  0.00     0.049 A 
ATOM     66  H   UNL     1       2.780  14.248  -3.446  1.00  0.00     0.167 HD
ATOM     67  C   UNL     1       4.580  15.512  -5.220  1.00  0.00     0.074 A 
ATOM     68  C   UNL     1       5.751  15.761  -6.035  1.00  0.00     0.031 C 
ATOM     69  C   UNL     1       3.507  16.337  -5.155  1.00  0.00     0.031 A 
BRANCH  56  70
ATOM     70  C   UNL     1      -0.995  14.297  -1.458  1.00  0.00    -0.014 A 
ATOM     71  C   UNL     1      -1.190  14.648  -0.113  1.00  0.00     0.009 A 
ATOM     72  C   UNL     1      -2.111  14.174  -2.298  1.00  0.00     0.009 A 
ATOM     73  C   UNL     1      -2.480  14.837   0.388  1.00  0.00     0.001 A 
ATOM     74  C   UNL     1      -3.398  14.387  -1.801  1.00  0.00     0.001 A 
ATOM     75  C   UNL     1      -3.582  14.709  -0.457  1.00  0.00     0.000 A 
ENDBRANCH  56  70
BRANCH  57  76
ATOM     76  C   UNL     1       8.060  12.364  -5.123  1.00  0.00    -0.014 A 
ATOM     77  C   UNL     1       9.177  13.112  -4.721  1.00  0.00     0.009 A 
ATOM     78  C   UNL     1       8.229  11.344  -6.071  1.00  0.00     0.009 A 
ATOM     79  C   UNL     1      10.434  12.856  -5.272  1.00  0.00     0.001 A 
ATOM     80  C   UNL     1       9.492  11.075  -6.603  1.00  0.00     0.001 A 
ATOM     81  C   UNL     1      10.592  11.836  -6.209  1.00  0.00     0.000 A 
ENDBRANCH  57  76
BRANCH  69  82
ATOM     82  C   UNL     1       3.563  17.597  -5.970  1.00  0.00    -0.014 A 
ATOM     83  C   UNL     1       3.386  17.567  -7.362  1.00  0.00     0.009 A 
ATOM     84  C   UNL     1       3.761  18.831  -5.333  1.00  0.00     0.009 A 
ATOM     85  C   UNL     1       3.436  18.749  -8.104  1.00  0.00     0.001 A 
ATOM     86  C   UNL     1       3.788  20.013  -6.074  1.00  0.00     0.001 A 
ATOM     87  C   UNL     1       3.633  19.970  -7.459  1.00  0.00     0.000 A 
ENDBRANCH  69  82
ENDBRANCH  43  44
ENDBRANCH  35  38
ENDBRANCH  33  34
ENDBRANCH  32  33
ENDBRANCH  31  32
ENDBRANCH  30  31
ENDBRANCH   1  30
TORSDOF 18
