REMARK SMILES Cc1cc(Cl)ccc1-c1ccc(C(=O)NCCCCCCNC(=O)c2ccc(-c3c4nc(c(-c5ccccc5)c5ccc([nH]5)c(-c5ccccc5)c5nc(c(-c6ccccc6)c6ccc3[nH]6)C=C5)C=C4)cc2)c(Cl)c1
REMARK SMILES IDX 19 1 18 2 17 3 16 4 15 5 13 6 14 7 12 9 9 10 10 11 75 12
REMARK SMILES IDX 11 13 73 14 74 15 8 16 1 17 2 18 3 19 4 20 7 21 5 22 6 23
REMARK SMILES IDX 20 24 21 25 22 26 23 27 24 29 25 30 26 31 72 32 27 33 71 34
REMARK SMILES IDX 28 35 29 36 30 37 65 38 31 39 70 40 64 41 66 42 32 43 69 44
REMARK SMILES IDX 63 45 62 46 33 48 55 49 40 50 54 51 41 52 44 53 53 54 67 55
REMARK SMILES IDX 42 56 43 57 52 59 68 60 45 61 34 62 35 63 39 64 36 65 38 66
REMARK SMILES IDX 37 67 56 68 57 69 61 70 58 71 60 72 59 73 46 74 47 75 51 76
REMARK SMILES IDX 48 77 50 78 49 79
REMARK H PARENT 15 8 22 28 66 47 44 58
REMARK Flexibility Score: inf
ROOT
ATOM      1  C   UNL     1      -9.694  -5.461   3.927  1.00  0.00     0.002 C 
ENDROOT
BRANCH   1   2
ATOM      2  C   UNL     1      -9.612  -3.957   3.653  1.00  0.00     0.002 C 
BRANCH   2   3
ATOM      3  C   UNL     1      -8.213  -3.453   3.288  1.00  0.00     0.021 C 
BRANCH   3   4
ATOM      4  C   UNL     1      -7.687  -3.959   1.937  1.00  0.00     0.116 C 
BRANCH   4   5
ATOM      5  N   UNL     1      -8.061  -3.023   0.898  1.00  0.00    -0.352 N 
ATOM      6  C   UNL     1      -7.390  -2.047   0.214  1.00  0.00     0.252 C 
ATOM      7  O   UNL     1      -8.072  -1.353  -0.546  1.00  0.00    -0.269 OA
ATOM      8  H   UNL     1      -9.003  -3.107   0.624  1.00  0.00     0.163 HD
BRANCH   6   9
ATOM      9  C   UNL     1      -5.916  -1.824   0.218  1.00  0.00     0.058 A 
ATOM     10  C   UNL     1      -3.172  -1.132  -0.143  1.00  0.00    -0.017 A 
ATOM     11  C   UNL     1      -4.051  -1.100  -1.223  1.00  0.00     0.009 A 
ATOM     12  C   UNL     1      -3.673  -1.521   1.105  1.00  0.00     0.030 A 
ATOM     13  C   UNL     1      -5.394  -1.458  -1.046  1.00  0.00     0.016 A 
ATOM     14  C   UNL     1      -5.035  -1.804   1.304  1.00  0.00     0.054 A 
ATOM     15  Cl  UNL     1      -5.483  -1.890   2.963  1.00  0.00    -0.083 Cl
BRANCH  10  16
ATOM     16  C   UNL     1      -1.782  -0.677  -0.241  1.00  0.00    -0.015 A 
ATOM     17  C   UNL     1      -2.450   1.799  -0.060  1.00  0.00     0.045 C 
ATOM     18  C   UNL     1      -1.432   0.690  -0.143  1.00  0.00    -0.042 A 
ATOM     19  C   UNL     1      -0.073   1.056  -0.129  1.00  0.00     0.024 A 
ATOM     20  C   UNL     1       0.924   0.085  -0.193  1.00  0.00     0.041 A 
ATOM     21  C   UNL     1      -0.755  -1.636  -0.327  1.00  0.00     0.010 A 
ATOM     22  Cl  UNL     1       2.578   0.552  -0.122  1.00  0.00    -0.084 Cl
ATOM     23  C   UNL     1       0.589  -1.260  -0.298  1.00  0.00     0.021 A 
ENDBRANCH  10  16
ENDBRANCH   6   9
ENDBRANCH   4   5
ENDBRANCH   3   4
ENDBRANCH   2   3
ENDBRANCH   1   2
BRANCH   1  24
ATOM     24  C   UNL     1      -8.701  -5.987   4.968  1.00  0.00     0.021 C 
BRANCH  24  25
ATOM     25  C   UNL     1      -8.813  -5.330   6.340  1.00  0.00     0.116 C 
BRANCH  25  26
ATOM     26  N   UNL     1     -10.111  -5.579   6.948  1.00  0.00    -0.352 N 
ATOM     27  C   UNL     1     -10.411  -6.227   8.117  1.00  0.00     0.251 C 
ATOM     28  H   UNL     1     -10.884  -5.233   6.448  1.00  0.00     0.163 HD
ATOM     29  O   UNL     1     -11.567  -6.577   8.353  1.00  0.00    -0.269 OA
BRANCH  27  30
ATOM     30  C   UNL     1      -9.345  -6.508   9.099  1.00  0.00     0.039 A 
ATOM     31  C   UNL     1      -9.308  -7.756   9.725  1.00  0.00     0.014 A 
ATOM     32  C   UNL     1      -8.403  -5.528   9.424  1.00  0.00     0.014 A 
ATOM     33  C   UNL     1      -8.298  -8.037  10.646  1.00  0.00     0.010 A 
ATOM     34  C   UNL     1      -7.356  -5.833  10.287  1.00  0.00     0.010 A 
ATOM     35  C   UNL     1      -7.301  -7.085  10.916  1.00  0.00    -0.014 A 
BRANCH  35  36
ATOM     36  C   UNL     1      -6.201  -7.375  11.865  1.00  0.00     0.031 A 
ATOM     37  C   UNL     1      -6.086  -6.601  13.148  1.00  0.00     0.074 A 
ATOM     38  C   UNL     1      -5.273  -8.297  11.547  1.00  0.00     0.049 A 
ATOM     39  N   UNL     1      -5.179  -6.689  14.088  1.00  0.00    -0.248 NA
ATOM     40  C   UNL     1      -7.111  -5.575  13.395  1.00  0.00     0.031 C 
ATOM     41  C   UNL     1      -5.258  -9.094  10.318  1.00  0.00     0.029 A 
ATOM     42  N   UNL     1      -4.165  -8.721  12.234  1.00  0.00    -0.354 N 
ATOM     43  C   UNL     1      -5.516  -5.722  15.027  1.00  0.00     0.074 A 
ATOM     44  C   UNL     1      -6.674  -5.022  14.516  1.00  0.00     0.031 C 
ATOM     45  C   UNL     1      -4.217  -9.940  10.359  1.00  0.00     0.029 A 
ATOM     46  C   UNL     1      -3.471  -9.717  11.594  1.00  0.00     0.049 A 
ATOM     47  H   UNL     1      -3.893  -8.346  13.103  1.00  0.00     0.167 HD
ATOM     48  C   UNL     1      -4.928  -5.452  16.217  1.00  0.00     0.031 A 
ATOM     49  C   UNL     1      -2.360 -10.381  11.963  1.00  0.00     0.031 A 
ATOM     50  C   UNL     1      -3.775  -6.148  16.723  1.00  0.00     0.049 A 
ATOM     51  C   UNL     1      -1.704 -10.043  13.272  1.00  0.00     0.074 A 
ATOM     52  C   UNL     1      -3.132  -5.988  17.939  1.00  0.00     0.029 A 
ATOM     53  N   UNL     1      -3.086  -7.134  16.033  1.00  0.00    -0.354 N 
ATOM     54  N   UNL     1      -2.070  -9.169  14.178  1.00  0.00    -0.248 NA
ATOM     55  C   UNL     1      -0.485 -10.790  13.608  1.00  0.00     0.031 C 
ATOM     56  C   UNL     1      -2.023  -6.841  17.962  1.00  0.00     0.029 A 
ATOM     57  C   UNL     1      -2.008  -7.573  16.785  1.00  0.00     0.049 A 
ATOM     58  H   UNL     1      -3.328  -7.473  15.141  1.00  0.00     0.167 HD
ATOM     59  C   UNL     1      -1.144  -9.281  15.207  1.00  0.00     0.074 A 
ATOM     60  C   UNL     1      -0.206 -10.315  14.814  1.00  0.00     0.031 C 
ATOM     61  C   UNL     1      -1.079  -8.595  16.374  1.00  0.00     0.031 A 
BRANCH  48  62
ATOM     62  C   UNL     1      -5.523  -4.339  17.036  1.00  0.00    -0.014 A 
ATOM     63  C   UNL     1      -6.796  -4.461  17.619  1.00  0.00     0.009 A 
ATOM     64  C   UNL     1      -4.807  -3.146  17.220  1.00  0.00     0.009 A 
ATOM     65  C   UNL     1      -7.361  -3.393  18.320  1.00  0.00     0.001 A 
ATOM     66  C   UNL     1      -5.361  -2.092  17.949  1.00  0.00     0.001 A 
ATOM     67  C   UNL     1      -6.642  -2.211  18.485  1.00  0.00     0.000 A 
ENDBRANCH  48  62
BRANCH  49  68
ATOM     68  C   UNL     1      -1.827 -11.466  11.101  1.00  0.00    -0.014 A 
ATOM     69  C   UNL     1      -1.964 -12.806  11.493  1.00  0.00     0.009 A 
ATOM     70  C   UNL     1      -1.202 -11.175   9.879  1.00  0.00     0.009 A 
ATOM     71  C   UNL     1      -1.471 -13.833  10.686  1.00  0.00     0.001 A 
ATOM     72  C   UNL     1      -0.732 -12.206   9.062  1.00  0.00     0.001 A 
ATOM     73  C   UNL     1      -0.861 -13.533   9.469  1.00  0.00     0.000 A 
ENDBRANCH  49  68
BRANCH  61  74
ATOM     74  C   UNL     1       0.028  -8.962  17.322  1.00  0.00    -0.014 A 
ATOM     75  C   UNL     1       1.362  -8.615  17.057  1.00  0.00     0.009 A 
ATOM     76  C   UNL     1      -0.275  -9.642  18.512  1.00  0.00     0.009 A 
ATOM     77  C   UNL     1       2.374  -8.972  17.950  1.00  0.00     0.001 A 
ATOM     78  C   UNL     1       0.735  -9.971  19.417  1.00  0.00     0.001 A 
ATOM     79  C   UNL     1       2.059  -9.645  19.131  1.00  0.00     0.000 A 
ENDBRANCH  61  74
ENDBRANCH  35  36
ENDBRANCH  27  30
ENDBRANCH  25  26
ENDBRANCH  24  25
ENDBRANCH   1  24
TORSDOF 14
