REMARK SMILES CSCC[C@@H](C(=O)NCCCCCCNC(=O)c1ccc(-c2c3nc(c(-c4ccccc4)c4ccc([nH]4)c(-c4ccccc4)c4nc(c(-c5ccccc5)c5ccc2[nH]5)C=C4)C=C3)cc1)N1C(=O)/C(=C/c2ccc(-c3ccccc3Cl)o2)SC1=S
REMARK SMILES IDX 11 1 10 2 9 3 8 4 6 5 7 6 5 8 4 9 3 10 2 11 1 12 66 13 67 14
REMARK SMILES IDX 84 15 68 16 69 17 83 18 85 19 70 20 71 21 72 22 82 23 73 24
REMARK SMILES IDX 74 25 75 26 76 27 80 28 77 29 79 30 81 31 78 32 12 33 13 34
REMARK SMILES IDX 14 35 15 36 16 37 17 39 18 40 19 41 65 42 20 43 64 44 21 45
REMARK SMILES IDX 22 46 23 47 58 48 24 49 63 50 57 51 59 52 25 53 62 54 56 55
REMARK SMILES IDX 55 56 26 58 48 59 33 60 47 61 34 62 37 63 46 64 60 65 35 66
REMARK SMILES IDX 36 67 45 69 61 70 38 71 27 72 28 73 32 74 29 75 31 76 30 77
REMARK SMILES IDX 49 78 50 79 54 80 51 81 53 82 52 83 39 84 40 85 44 86 41 87
REMARK SMILES IDX 43 88 42 89
REMARK H PARENT 8 7 15 38 59 57 37 68
REMARK Flexibility Score: inf
ROOT
ATOM      1  C   UNL     1       5.008   2.727   1.695  1.00  0.00     0.002 C 
ENDROOT
BRANCH   1   2
ATOM      2  C   UNL     1       3.561   2.312   1.976  1.00  0.00     0.021 C 
BRANCH   2   3
ATOM      3  C   UNL     1       3.284   0.853   1.605  1.00  0.00     0.116 C 
BRANCH   3   4
ATOM      4  N   UNL     1       3.395   0.021   2.779  1.00  0.00    -0.354 N 
ATOM      5  C   UNL     1       2.457  -0.658   3.492  1.00  0.00     0.243 C 
ATOM      6  O   UNL     1       2.853  -1.183   4.538  1.00  0.00    -0.273 OA
ATOM      7  H   UNL     1       4.312  -0.072   3.125  1.00  0.00     0.163 HD
BRANCH   5   8
ATOM      8  C   UNL     1       0.989  -0.811   3.004  1.00  0.00     0.182 C 
BRANCH   8   9
ATOM      9  C   UNL     1       0.063   0.401   3.241  1.00  0.00     0.046 C 
BRANCH   9  10
ATOM     10  C   UNL     1      -0.087   1.515   2.204  1.00  0.00     0.072 C 
BRANCH  10  11
ATOM     11  S   UNL     1      -1.184   1.195   0.781  1.00  0.00    -0.165 SA
ATOM     12  C   UNL     1      -0.194   0.082  -0.239  1.00  0.00     0.085 C 
ENDBRANCH  10  11
ENDBRANCH   9  10
ENDBRANCH   8   9
BRANCH   8  13
ATOM     13  N   UNL     1       0.514  -2.057   3.701  1.00  0.00    -0.280 N 
ATOM     14  C   UNL     1       0.848  -3.279   3.119  1.00  0.00     0.267 C 
ATOM     15  C   UNL     1      -0.029  -2.147   4.975  1.00  0.00     0.149 C 
ATOM     16  O   UNL     1       1.422  -3.424   2.048  1.00  0.00    -0.268 OA
ATOM     17  C   UNL     1       0.407  -4.419   3.974  1.00  0.00     0.084 C 
ATOM     18  S   UNL     1      -0.468  -3.812   5.321  1.00  0.00    -0.054 SA
ATOM     19  S   UNL     1      -0.319  -0.979   6.134  1.00  0.00    -0.052 S 
ATOM     20  C   UNL     1       0.691  -5.705   3.714  1.00  0.00     0.068 C 
BRANCH  20  21
ATOM     21  C   UNL     1       0.122  -6.773   4.471  1.00  0.00     0.128 A 
ATOM     22  C   UNL     1      -1.228  -7.070   4.636  1.00  0.00     0.051 A 
ATOM     23  O   UNL     1       0.844  -7.720   5.174  1.00  0.00    -0.457 OA
ATOM     24  C   UNL     1      -1.331  -8.181   5.494  1.00  0.00     0.051 A 
ATOM     25  C   UNL     1      -0.042  -8.538   5.817  1.00  0.00     0.136 A 
BRANCH  25  26
ATOM     26  C   UNL     1       0.477  -9.606   6.665  1.00  0.00     0.036 A 
ATOM     27  C   UNL     1      -0.023 -10.907   6.457  1.00  0.00     0.013 A 
ATOM     28  C   UNL     1       1.341  -9.393   7.750  1.00  0.00     0.052 A 
ATOM     29  C   UNL     1       0.312 -11.959   7.313  1.00  0.00     0.001 A 
ATOM     30  C   UNL     1       1.675 -10.452   8.608  1.00  0.00     0.021 A 
ATOM     31  Cl  UNL     1       1.977  -7.832   8.143  1.00  0.00    -0.084 Cl
ATOM     32  C   UNL     1       1.155 -11.729   8.394  1.00  0.00     0.002 A 
ENDBRANCH  25  26
ENDBRANCH  20  21
ENDBRANCH   8  13
ENDBRANCH   5   8
ENDBRANCH   3   4
ENDBRANCH   2   3
ENDBRANCH   1   2
BRANCH   1  33
ATOM     33  C   UNL     1       5.334   2.879   0.204  1.00  0.00     0.002 C 
BRANCH  33  34
ATOM     34  C   UNL     1       4.480   3.902  -0.554  1.00  0.00     0.021 C 
BRANCH  34  35
ATOM     35  C   UNL     1       4.468   5.305   0.050  1.00  0.00     0.116 C 
BRANCH  35  36
ATOM     36  N   UNL     1       5.804   5.873   0.135  1.00  0.00    -0.352 N 
ATOM     37  C   UNL     1       6.315   7.008  -0.440  1.00  0.00     0.251 C 
ATOM     38  H   UNL     1       6.439   5.365   0.690  1.00  0.00     0.163 HD
ATOM     39  O   UNL     1       7.524   7.213  -0.433  1.00  0.00    -0.269 OA
BRANCH  37  40
ATOM     40  C   UNL     1       5.409   7.982  -1.084  1.00  0.00     0.039 A 
ATOM     41  C   UNL     1       5.760   8.506  -2.331  1.00  0.00     0.014 A 
ATOM     42  C   UNL     1       4.230   8.390  -0.454  1.00  0.00     0.014 A 
ATOM     43  C   UNL     1       4.893   9.388  -2.978  1.00  0.00     0.010 A 
ATOM     44  C   UNL     1       3.337   9.218  -1.128  1.00  0.00     0.010 A 
ATOM     45  C   UNL     1       3.658   9.720  -2.398  1.00  0.00    -0.014 A 
BRANCH  45  46
ATOM     46  C   UNL     1       2.675  10.564  -3.120  1.00  0.00     0.031 A 
ATOM     47  C   UNL     1       2.291  11.915  -2.589  1.00  0.00     0.074 A 
ATOM     48  C   UNL     1       2.070  10.075  -4.219  1.00  0.00     0.049 A 
ATOM     49  N   UNL     1       1.406  12.762  -3.052  1.00  0.00    -0.248 NA
ATOM     50  C   UNL     1       2.972  12.363  -1.365  1.00  0.00     0.031 C 
ATOM     51  C   UNL     1       2.321   8.757  -4.807  1.00  0.00     0.029 A 
ATOM     52  N   UNL     1       1.108  10.623  -5.028  1.00  0.00    -0.354 N 
ATOM     53  C   UNL     1       1.418  13.837  -2.173  1.00  0.00     0.074 A 
ATOM     54  C   UNL     1       2.359  13.512  -1.122  1.00  0.00     0.031 C 
ATOM     55  C   UNL     1       1.543   8.605  -5.890  1.00  0.00     0.029 A 
ATOM     56  C   UNL     1       0.713   9.795  -6.050  1.00  0.00     0.049 A 
ATOM     57  H   UNL     1       0.735  11.524  -4.890  1.00  0.00     0.167 HD
ATOM     58  C   UNL     1       0.722  14.997  -2.242  1.00  0.00     0.031 A 
ATOM     59  C   UNL     1      -0.222   9.965  -7.003  1.00  0.00     0.031 A 
ATOM     60  C   UNL     1      -0.221  15.314  -3.282  1.00  0.00     0.049 A 
ATOM     61  C   UNL     1      -1.000  11.248  -7.048  1.00  0.00     0.074 A 
ATOM     62  C   UNL     1      -0.936  16.484  -3.472  1.00  0.00     0.029 A 
ATOM     63  N   UNL     1      -0.590  14.451  -4.303  1.00  0.00    -0.354 N 
ATOM     64  N   UNL     1      -0.923  12.287  -6.253  1.00  0.00    -0.248 NA
ATOM     65  C   UNL     1      -1.988  11.384  -8.127  1.00  0.00     0.031 C 
ATOM     66  C   UNL     1      -1.778  16.307  -4.576  1.00  0.00     0.029 A 
ATOM     67  C   UNL     1      -1.546  15.049  -5.107  1.00  0.00     0.049 A 
ATOM     68  H   UNL     1      -0.225  13.546  -4.437  1.00  0.00     0.167 HD
ATOM     69  C   UNL     1      -1.842  13.207  -6.741  1.00  0.00     0.074 A 
ATOM     70  C   UNL     1      -2.447  12.610  -7.915  1.00  0.00     0.031 C 
ATOM     71  C   UNL     1      -2.155  14.434  -6.259  1.00  0.00     0.031 A 
BRANCH  58  72
ATOM     72  C   UNL     1       0.951  16.000  -1.146  1.00  0.00    -0.014 A 
ATOM     73  C   UNL     1       2.173  16.682  -1.027  1.00  0.00     0.009 A 
ATOM     74  C   UNL     1      -0.071  16.278  -0.225  1.00  0.00     0.009 A 
ATOM     75  C   UNL     1       2.384  17.584   0.019  1.00  0.00     0.001 A 
ATOM     76  C   UNL     1       0.131  17.203   0.802  1.00  0.00     0.001 A 
ATOM     77  C   UNL     1       1.362  17.845   0.930  1.00  0.00     0.000 A 
ENDBRANCH  58  72
BRANCH  59  78
ATOM     78  C   UNL     1      -0.467   8.883  -7.990  1.00  0.00    -0.014 A 
ATOM     79  C   UNL     1      -0.045   9.022  -9.321  1.00  0.00     0.009 A 
ATOM     80  C   UNL     1      -1.096   7.691  -7.598  1.00  0.00     0.009 A 
ATOM     81  C   UNL     1      -0.262   7.995 -10.242  1.00  0.00     0.001 A 
ATOM     82  C   UNL     1      -1.288   6.655  -8.514  1.00  0.00     0.001 A 
ATOM     83  C   UNL     1      -0.877   6.811  -9.837  1.00  0.00     0.000 A 
ENDBRANCH  59  78
BRANCH  71  84
ATOM     84  C   UNL     1      -3.198  15.216  -7.007  1.00  0.00    -0.014 A 
ATOM     85  C   UNL     1      -4.555  14.861  -6.943  1.00  0.00     0.009 A 
ATOM     86  C   UNL     1      -2.824  16.344  -7.754  1.00  0.00     0.009 A 
ATOM     87  C   UNL     1      -5.512  15.604  -7.637  1.00  0.00     0.001 A 
ATOM     88  C   UNL     1      -3.786  17.100  -8.424  1.00  0.00     0.001 A 
ATOM     89  C   UNL     1      -5.128  16.725  -8.372  1.00  0.00     0.000 A 
ENDBRANCH  71  84
ENDBRANCH  45  46
ENDBRANCH  37  40
ENDBRANCH  35  36
ENDBRANCH  34  35
ENDBRANCH  33  34
ENDBRANCH   1  33
TORSDOF 19
