REMARK SMILES Cc1c(NC(=O)c2cccc(-c3cc4ccccc4oc3=O)c2)cccc1C(=O)NCCCCCCNC(=O)c1ccc(-c2c3nc(c(-c4ccccc4)c4ccc([nH]4)c(-c4ccccc4)c4nc(c(-c5ccccc5)c5ccc2[nH]5)C=C4)C=C3)cc1
REMARK SMILES IDX 33 1 32 2 31 3 30 4 28 5 29 6 27 8 1 9 2 10 3 11 24 12 26 13
REMARK SMILES IDX 25 14 4 15 5 16 6 18 7 19 8 20 23 21 9 22 11 23 10 24 12 25
REMARK SMILES IDX 13 26 21 27 14 28 20 29 22 30 15 31 19 32 16 33 18 34 17 35
REMARK SMILES IDX 34 36 35 37 36 38 37 39 38 40 39 42 40 43 41 44 87 45 42 46
REMARK SMILES IDX 86 47 43 48 44 49 45 50 80 51 46 52 85 53 79 54 81 55 47 56
REMARK SMILES IDX 84 57 78 58 77 59 48 61 70 62 55 63 69 64 56 65 59 66 68 67
REMARK SMILES IDX 82 68 57 69 58 70 67 72 83 73 60 74 49 75 50 76 54 77 51 78
REMARK SMILES IDX 53 79 52 80 71 81 72 82 76 83 73 84 75 85 74 86 61 87 62 88
REMARK SMILES IDX 66 89 63 90 65 91 64 92
REMARK H PARENT 30 7 4 17 37 41 81 60 59 71
REMARK Flexibility Score: inf
ROOT
ATOM      1  C   UNL     1       5.349   2.873  -0.710  1.00  0.00     0.002 C 
ENDROOT
BRANCH   1   2
ATOM      2  C   UNL     1       4.244   1.839  -0.449  1.00  0.00     0.021 C 
BRANCH   2   3
ATOM      3  C   UNL     1       3.376   2.082   0.799  1.00  0.00     0.116 C 
BRANCH   3   4
ATOM      4  N   UNL     1       2.109   2.671   0.421  1.00  0.00    -0.352 N 
ATOM      5  C   UNL     1       0.807   2.270   0.322  1.00  0.00     0.251 C 
ATOM      6  O   UNL     1       0.051   3.154  -0.104  1.00  0.00    -0.269 OA
ATOM      7  H   UNL     1       2.214   3.616   0.167  1.00  0.00     0.163 HD
BRANCH   5   8
ATOM      8  C   UNL     1       0.184   0.943   0.674  1.00  0.00     0.044 A 
ATOM      9  C   UNL     1       2.074  -0.681   0.049  1.00  0.00     0.047 C 
ATOM     10  C   UNL     1       0.698  -0.371   0.559  1.00  0.00    -0.015 A 
ATOM     11  C   UNL     1      -0.162  -1.482   0.823  1.00  0.00     0.045 A 
ATOM     12  C   UNL     1      -1.509  -1.293   1.141  1.00  0.00     0.026 A 
ATOM     13  C   UNL     1      -1.188   1.079   1.007  1.00  0.00     0.014 A 
ATOM     14  C   UNL     1      -2.026  -0.013   1.221  1.00  0.00     0.003 A 
BRANCH  11  15
ATOM     15  N   UNL     1       0.366  -2.789   0.778  1.00  0.00    -0.322 N 
ATOM     16  C   UNL     1      -0.208  -3.990   0.421  1.00  0.00     0.255 C 
ATOM     17  H   UNL     1       1.310  -2.855   1.050  1.00  0.00     0.170 HD
ATOM     18  O   UNL     1       0.323  -5.036   0.798  1.00  0.00    -0.269 OA
BRANCH  16  19
ATOM     19  C   UNL     1      -1.352  -4.070  -0.534  1.00  0.00     0.040 A 
ATOM     20  C   UNL     1      -2.134  -5.230  -0.548  1.00  0.00     0.014 A 
ATOM     21  C   UNL     1      -1.564  -3.096  -1.518  1.00  0.00     0.022 A 
ATOM     22  C   UNL     1      -3.136  -5.391  -1.507  1.00  0.00     0.001 A 
ATOM     23  C   UNL     1      -2.572  -3.239  -2.485  1.00  0.00    -0.010 A 
ATOM     24  C   UNL     1      -3.357  -4.399  -2.465  1.00  0.00     0.009 A 
BRANCH  23  25
ATOM     25  C   UNL     1      -2.753  -2.283  -3.611  1.00  0.00     0.068 A 
ATOM     26  C   UNL     1      -2.625  -0.945  -3.461  1.00  0.00     0.028 A 
ATOM     27  C   UNL     1      -2.124  -2.734  -4.894  1.00  0.00     0.344 A 
ATOM     28  C   UNL     1      -1.218  -0.489  -3.538  1.00  0.00     0.018 A 
ATOM     29  O   UNL     1      -0.778  -2.377  -5.011  1.00  0.00    -0.422 OA
ATOM     30  O   UNL     1      -2.711  -3.435  -5.707  1.00  0.00    -0.246 OA
ATOM     31  C   UNL     1      -0.767   0.661  -2.901  1.00  0.00     0.012 A 
ATOM     32  C   UNL     1      -0.311  -1.287  -4.247  1.00  0.00     0.138 A 
ATOM     33  C   UNL     1       0.596   0.970  -2.936  1.00  0.00     0.001 A 
ATOM     34  C   UNL     1       1.051  -1.015  -4.245  1.00  0.00     0.048 A 
ATOM     35  C   UNL     1       1.505   0.118  -3.574  1.00  0.00     0.004 A 
ENDBRANCH  23  25
ENDBRANCH  16  19
ENDBRANCH  11  15
ENDBRANCH   5   8
ENDBRANCH   3   4
ENDBRANCH   2   3
ENDBRANCH   1   2
BRANCH   1  36
ATOM     36  C   UNL     1       6.373   3.083   0.417  1.00  0.00     0.002 C 
BRANCH  36  37
ATOM     37  C   UNL     1       6.926   1.810   1.062  1.00  0.00     0.021 C 
BRANCH  37  38
ATOM     38  C   UNL     1       7.920   1.057   0.184  1.00  0.00     0.116 C 
BRANCH  38  39
ATOM     39  N   UNL     1       9.312   1.363   0.492  1.00  0.00    -0.352 N 
ATOM     40  C   UNL     1      10.460   1.022  -0.193  1.00  0.00     0.251 C 
ATOM     41  H   UNL     1       9.454   1.891   1.311  1.00  0.00     0.163 HD
ATOM     42  O   UNL     1      11.560   1.355   0.246  1.00  0.00    -0.269 OA
BRANCH  40  43
ATOM     43  C   UNL     1      10.361   0.367  -1.516  1.00  0.00     0.039 A 
ATOM     44  C   UNL     1      11.139   0.879  -2.560  1.00  0.00     0.014 A 
ATOM     45  C   UNL     1       9.398  -0.608  -1.772  1.00  0.00     0.014 A 
ATOM     46  C   UNL     1      10.792   0.591  -3.877  1.00  0.00     0.010 A 
ATOM     47  C   UNL     1       9.000  -0.831  -3.075  1.00  0.00     0.010 A 
ATOM     48  C   UNL     1       9.655  -0.178  -4.123  1.00  0.00    -0.014 A 
BRANCH  48  49
ATOM     49  C   UNL     1       9.018  -0.251  -5.431  1.00  0.00     0.031 A 
ATOM     50  C   UNL     1       9.204  -1.428  -6.296  1.00  0.00     0.074 A 
ATOM     51  C   UNL     1       8.242   0.770  -5.854  1.00  0.00     0.049 A 
ATOM     52  N   UNL     1       9.088  -1.401  -7.581  1.00  0.00    -0.248 NA
ATOM     53  C   UNL     1       9.595  -2.731  -5.774  1.00  0.00     0.031 C 
ATOM     54  C   UNL     1       7.353   0.802  -7.011  1.00  0.00     0.029 A 
ATOM     55  N   UNL     1       8.309   2.096  -5.431  1.00  0.00    -0.354 N 
ATOM     56  C   UNL     1       9.119  -2.699  -8.025  1.00  0.00     0.074 A 
ATOM     57  C   UNL     1       9.507  -3.485  -6.875  1.00  0.00     0.031 C 
ATOM     58  C   UNL     1       7.159   2.082  -7.369  1.00  0.00     0.029 A 
ATOM     59  C   UNL     1       8.035   2.902  -6.549  1.00  0.00     0.049 A 
ATOM     60  H   UNL     1       8.511   2.409  -4.519  1.00  0.00     0.167 HD
ATOM     61  C   UNL     1       8.698  -2.990  -9.287  1.00  0.00     0.031 A 
ATOM     62  C   UNL     1       8.983   3.763  -7.027  1.00  0.00     0.031 A 
ATOM     63  C   UNL     1       8.341  -1.796 -10.050  1.00  0.00     0.049 A 
ATOM     64  C   UNL     1       9.447   3.469  -8.441  1.00  0.00     0.074 A 
ATOM     65  C   UNL     1       7.146  -1.199 -10.415  1.00  0.00     0.029 A 
ATOM     66  N   UNL     1       9.332  -0.868 -10.326  1.00  0.00    -0.354 N 
ATOM     67  N   UNL     1       9.076   2.436  -9.145  1.00  0.00    -0.248 NA
ATOM     68  C   UNL     1      10.466   4.270  -9.126  1.00  0.00     0.031 C 
ATOM     69  C   UNL     1       7.434   0.102 -10.919  1.00  0.00     0.029 A 
ATOM     70  C   UNL     1       8.803   0.286 -10.868  1.00  0.00     0.049 A 
ATOM     71  H   UNL     1      10.291  -1.013 -10.157  1.00  0.00     0.167 HD
ATOM     72  C   UNL     1       9.805   2.392 -10.303  1.00  0.00     0.074 A 
ATOM     73  C   UNL     1      10.659   3.563 -10.252  1.00  0.00     0.031 C 
ATOM     74  C   UNL     1       9.701   1.375 -11.203  1.00  0.00     0.031 A 
BRANCH  61  75
ATOM     75  C   UNL     1       8.394  -4.392  -9.747  1.00  0.00    -0.014 A 
ATOM     76  C   UNL     1       7.395  -4.606 -10.714  1.00  0.00     0.009 A 
ATOM     77  C   UNL     1       9.024  -5.543  -9.244  1.00  0.00     0.009 A 
ATOM     78  C   UNL     1       6.977  -5.893 -11.076  1.00  0.00     0.001 A 
ATOM     79  C   UNL     1       8.582  -6.833  -9.567  1.00  0.00     0.001 A 
ATOM     80  C   UNL     1       7.548  -7.007 -10.476  1.00  0.00     0.000 A 
ENDBRANCH  61  75
BRANCH  62  81
ATOM     81  C   UNL     1       9.859   4.326  -5.960  1.00  0.00    -0.014 A 
ATOM     82  C   UNL     1       9.271   5.125  -4.958  1.00  0.00     0.009 A 
ATOM     83  C   UNL     1      11.146   3.816  -5.741  1.00  0.00     0.009 A 
ATOM     84  C   UNL     1       9.903   5.305  -3.725  1.00  0.00     0.001 A 
ATOM     85  C   UNL     1      11.784   4.017  -4.511  1.00  0.00     0.001 A 
ATOM     86  C   UNL     1      11.148   4.728  -3.493  1.00  0.00     0.000 A 
ENDBRANCH  62  81
BRANCH  74  87
ATOM     87  C   UNL     1      10.482   1.317 -12.483  1.00  0.00    -0.014 A 
ATOM     88  C   UNL     1      10.635   2.432 -13.318  1.00  0.00     0.009 A 
ATOM     89  C   UNL     1      10.987   0.087 -12.947  1.00  0.00     0.009 A 
ATOM     90  C   UNL     1      11.310   2.331 -14.541  1.00  0.00     0.001 A 
ATOM     91  C   UNL     1      11.641  -0.023 -14.176  1.00  0.00     0.001 A 
ATOM     92  C   UNL     1      11.812   1.104 -14.969  1.00  0.00     0.000 A 
ENDBRANCH  74  87
ENDBRANCH  48  49
ENDBRANCH  40  43
ENDBRANCH  38  39
ENDBRANCH  37  38
ENDBRANCH  36  37
ENDBRANCH   1  36
TORSDOF 16
