REMARK SMILES Cc1nc(C(=O)NCCCCCCNC(=O)c2ccc(-c3c4nc(c(-c5ccccc5)c5ccc([nH]5)c(-c5ccccc5)c5nc(c(-c6ccccc6)c6ccc3[nH]6)C=C5)C=C4)cc2)nn1-c1cccc(C(F)(F)F)c1
REMARK SMILES IDX 10 1 9 2 8 3 7 4 5 5 6 6 4 8 1 9 2 10 3 11 66 12 65 13 67 14
REMARK SMILES IDX 68 15 76 16 69 17 71 18 70 19 72 20 73 21 74 22 75 23 11 24
REMARK SMILES IDX 12 25 13 26 14 27 15 28 16 30 17 31 18 32 64 33 19 34 63 35
REMARK SMILES IDX 20 36 21 37 22 38 57 39 23 40 62 41 56 42 58 43 24 44 61 45
REMARK SMILES IDX 55 46 54 47 25 49 47 50 32 51 46 52 33 53 36 54 45 55 59 56
REMARK SMILES IDX 34 57 35 58 44 60 60 61 37 62 26 63 27 64 31 65 28 66 30 67
REMARK SMILES IDX 29 68 48 69 49 70 53 71 50 72 52 73 51 74 38 75 39 76 43 77
REMARK SMILES IDX 40 78 42 79 41 80
REMARK H PARENT 7 7 14 29 58 48 36 59
REMARK Flexibility Score: inf
ROOT
ATOM      1  C   UNL     1      -0.352   3.042  -8.184  1.00  0.00     0.002 C 
ENDROOT
BRANCH   1   2
ATOM      2  C   UNL     1       0.289   3.046  -6.796  1.00  0.00     0.021 C 
BRANCH   2   3
ATOM      3  C   UNL     1      -0.602   2.549  -5.660  1.00  0.00     0.116 C 
BRANCH   3   4
ATOM      4  N   UNL     1      -0.890   1.128  -5.756  1.00  0.00    -0.349 N 
ATOM      5  C   UNL     1      -0.788   0.140  -4.792  1.00  0.00     0.290 C 
ATOM      6  O   UNL     1      -1.004  -1.023  -5.151  1.00  0.00    -0.266 OA
ATOM      7  H   UNL     1      -1.205   0.823  -6.637  1.00  0.00     0.163 HD
BRANCH   5   8
ATOM      8  C   UNL     1      -0.393   0.485  -3.409  1.00  0.00     0.239 A 
ATOM      9  C   UNL     1       1.069  -0.151  -0.209  1.00  0.00     0.090 C 
ATOM     10  C   UNL     1       0.550   0.338  -1.506  1.00  0.00     0.130 A 
ATOM     11  N   UNL     1       0.228  -0.401  -2.549  1.00  0.00    -0.207 NA
ATOM     12  N   UNL     1       0.230   1.652  -1.780  1.00  0.00    -0.217 N 
ATOM     13  N   UNL     1      -0.596   1.691  -2.846  1.00  0.00    -0.140 NA
BRANCH  12  14
ATOM     14  C   UNL     1       0.738   2.864  -1.250  1.00  0.00     0.067 A 
ATOM     15  C   UNL     1      -0.030   4.031  -1.373  1.00  0.00     0.028 A 
ATOM     16  C   UNL     1       2.041   2.935  -0.740  1.00  0.00     0.041 A 
ATOM     17  C   UNL     1       0.484   5.256  -0.952  1.00  0.00     0.003 A 
ATOM     18  C   UNL     1       2.583   4.178  -0.364  1.00  0.00     0.058 A 
ATOM     19  C   UNL     1       1.784   5.330  -0.455  1.00  0.00     0.013 A 
BRANCH  18  20
ATOM     20  C   UNL     1       4.022   4.305   0.080  1.00  0.00     0.416 C 
ATOM     21  F   UNL     1       4.733   5.153  -0.715  1.00  0.00    -0.166 F 
ATOM     22  F   UNL     1       4.138   4.788   1.346  1.00  0.00    -0.166 F 
ATOM     23  F   UNL     1       4.700   3.124   0.062  1.00  0.00    -0.166 F 
ENDBRANCH  18  20
ENDBRANCH  12  14
ENDBRANCH   5   8
ENDBRANCH   3   4
ENDBRANCH   2   3
ENDBRANCH   1   2
BRANCH   1  24
ATOM     24  C   UNL     1      -1.695   3.778  -8.321  1.00  0.00     0.002 C 
BRANCH  24  25
ATOM     25  C   UNL     1      -1.763   5.223  -7.803  1.00  0.00     0.021 C 
BRANCH  25  26
ATOM     26  C   UNL     1      -0.801   6.178  -8.489  1.00  0.00     0.116 C 
BRANCH  26  27
ATOM     27  N   UNL     1      -1.117   6.441  -9.903  1.00  0.00    -0.352 N 
ATOM     28  C   UNL     1      -0.460   7.280 -10.786  1.00  0.00     0.251 C 
ATOM     29  H   UNL     1      -1.894   5.958 -10.267  1.00  0.00     0.163 HD
ATOM     30  O   UNL     1      -1.022   7.699 -11.815  1.00  0.00    -0.269 OA
BRANCH  28  31
ATOM     31  C   UNL     1       0.939   7.642 -10.529  1.00  0.00     0.039 A 
ATOM     32  C   UNL     1       1.546   8.862 -10.852  1.00  0.00     0.014 A 
ATOM     33  C   UNL     1       1.678   6.673  -9.889  1.00  0.00     0.014 A 
ATOM     34  C   UNL     1       2.890   9.043 -10.502  1.00  0.00     0.010 A 
ATOM     35  C   UNL     1       2.685   7.129  -9.117  1.00  0.00     0.010 A 
ATOM     36  C   UNL     1       3.477   8.107  -9.651  1.00  0.00    -0.014 A 
BRANCH  36  37
ATOM     37  C   UNL     1       4.818   8.148  -9.103  1.00  0.00     0.031 A 
ATOM     38  C   UNL     1       5.047   9.346  -8.277  1.00  0.00     0.074 A 
ATOM     39  C   UNL     1       5.644   7.072  -9.121  1.00  0.00     0.049 A 
ATOM     40  N   UNL     1       5.624  10.436  -8.650  1.00  0.00    -0.248 NA
ATOM     41  C   UNL     1       4.351   9.449  -6.981  1.00  0.00     0.031 C 
ATOM     42  C   UNL     1       5.375   5.704  -9.603  1.00  0.00     0.029 A 
ATOM     43  N   UNL     1       6.904   6.950  -8.620  1.00  0.00    -0.354 N 
ATOM     44  C   UNL     1       5.611  11.254  -7.530  1.00  0.00     0.074 A 
ATOM     45  C   UNL     1       4.598  10.721  -6.659  1.00  0.00     0.031 C 
ATOM     46  C   UNL     1       6.348   4.861  -9.177  1.00  0.00     0.029 A 
ATOM     47  C   UNL     1       7.392   5.646  -8.548  1.00  0.00     0.049 A 
ATOM     48  H   UNL     1       7.433   7.728  -8.330  1.00  0.00     0.167 HD
ATOM     49  C   UNL     1       6.681  12.049  -7.253  1.00  0.00     0.031 A 
ATOM     50  C   UNL     1       8.578   5.259  -8.013  1.00  0.00     0.031 A 
ATOM     51  C   UNL     1       7.604  12.059  -8.364  1.00  0.00     0.049 A 
ATOM     52  C   UNL     1       9.444   6.458  -8.002  1.00  0.00     0.074 A 
ATOM     53  C   UNL     1       7.604  12.530  -9.659  1.00  0.00     0.029 A 
ATOM     54  N   UNL     1       8.556  11.070  -8.291  1.00  0.00    -0.354 N 
ATOM     55  N   UNL     1       9.848   7.050  -9.090  1.00  0.00    -0.248 NA
ATOM     56  C   UNL     1       9.507   7.264  -6.793  1.00  0.00     0.031 C 
ATOM     57  C   UNL     1       8.374  11.587 -10.409  1.00  0.00     0.029 A 
ATOM     58  C   UNL     1       8.885  10.620  -9.540  1.00  0.00     0.049 A 
ATOM     59  H   UNL     1       8.947  10.732  -7.453  1.00  0.00     0.167 HD
ATOM     60  C   UNL     1       9.777   8.402  -8.797  1.00  0.00     0.074 A 
ATOM     61  C   UNL     1       9.725   8.466  -7.337  1.00  0.00     0.031 C 
ATOM     62  C   UNL     1       9.456   9.307  -9.770  1.00  0.00     0.031 A 
BRANCH  49  63
ATOM     63  C   UNL     1       7.170  12.341  -5.851  1.00  0.00    -0.014 A 
ATOM     64  C   UNL     1       8.282  13.189  -5.701  1.00  0.00     0.009 A 
ATOM     65  C   UNL     1       6.784  11.605  -4.714  1.00  0.00     0.009 A 
ATOM     66  C   UNL     1       9.001  13.246  -4.501  1.00  0.00     0.001 A 
ATOM     67  C   UNL     1       7.479  11.685  -3.504  1.00  0.00     0.001 A 
ATOM     68  C   UNL     1       8.603  12.489  -3.405  1.00  0.00     0.000 A 
ENDBRANCH  49  63
BRANCH  50  69
ATOM     69  C   UNL     1       8.916   4.049  -7.226  1.00  0.00    -0.014 A 
ATOM     70  C   UNL     1      10.252   3.646  -7.048  1.00  0.00     0.009 A 
ATOM     71  C   UNL     1       7.947   3.479  -6.382  1.00  0.00     0.009 A 
ATOM     72  C   UNL     1      10.606   2.741  -6.034  1.00  0.00     0.001 A 
ATOM     73  C   UNL     1       8.301   2.581  -5.367  1.00  0.00     0.001 A 
ATOM     74  C   UNL     1       9.633   2.224  -5.182  1.00  0.00     0.000 A 
ENDBRANCH  50  69
BRANCH  62  75
ATOM     75  C   UNL     1       9.557   8.846 -11.203  1.00  0.00    -0.014 A 
ATOM     76  C   UNL     1       8.731   7.863 -11.779  1.00  0.00     0.009 A 
ATOM     77  C   UNL     1      10.471   9.512 -12.031  1.00  0.00     0.009 A 
ATOM     78  C   UNL     1       8.841   7.545 -13.139  1.00  0.00     0.001 A 
ATOM     79  C   UNL     1      10.567   9.209 -13.390  1.00  0.00     0.001 A 
ATOM     80  C   UNL     1       9.757   8.221 -13.943  1.00  0.00     0.000 A 
ENDBRANCH  62  75
ENDBRANCH  36  37
ENDBRANCH  28  31
ENDBRANCH  26  27
ENDBRANCH  25  26
ENDBRANCH  24  25
ENDBRANCH   1  24
TORSDOF 15
