REMARK SMILES [NH3+][C@H]1CCCC[C@@H]1C(=O)N1CC(C(=O)NCCCCCCNC(=O)c2ccc(-c3c4nc(c(-c5ccccc5)c5ccc([nH]5)c(-c5ccccc5)c5nc(c(-c6ccccc6)c6ccc3[nH]6)C=C5)C=C4)cc2)C1
REMARK SMILES IDX 18 1 17 2 16 3 15 4 13 5 14 6 12 8 8 9 9 10 10 11 11 12
REMARK SMILES IDX 73 13 7 14 2 15 3 16 4 17 6 18 5 19 1 20 19 24 20 25 21 26
REMARK SMILES IDX 22 27 23 28 24 30 25 31 26 32 72 33 27 34 71 35 28 36 29 37
REMARK SMILES IDX 30 38 65 39 31 40 70 41 64 42 66 43 32 44 69 45 63 46 62 47
REMARK SMILES IDX 33 49 55 50 40 51 54 52 41 53 44 54 53 55 67 56 42 57 43 58
REMARK SMILES IDX 52 60 68 61 45 62 34 63 35 64 39 65 36 66 38 67 37 68 56 69
REMARK SMILES IDX 57 70 61 71 58 72 60 73 59 74 46 75 47 76 51 77 48 78 50 79
REMARK SMILES IDX 49 80
REMARK H PARENT 15 7 1 21 1 22 1 23 22 29 66 48 44 59
REMARK Flexibility Score: inf
ROOT
ATOM      1  C   UNL     1      -2.408   1.826  -6.265  1.00  0.00     0.002 C 
ENDROOT
BRANCH   1   2
ATOM      2  C   UNL     1      -1.735   1.056  -5.122  1.00  0.00     0.021 C 
BRANCH   2   3
ATOM      3  C   UNL     1      -2.705   0.293  -4.221  1.00  0.00     0.116 C 
BRANCH   3   4
ATOM      4  N   UNL     1      -3.340  -0.793  -4.939  1.00  0.00    -0.356 N 
ATOM      5  C   UNL     1      -3.331  -2.150  -4.729  1.00  0.00     0.226 C 
ATOM      6  O   UNL     1      -3.927  -2.823  -5.583  1.00  0.00    -0.275 OA
ATOM      7  H   UNL     1      -3.873  -0.508  -5.716  1.00  0.00     0.163 HD
BRANCH   5   8
ATOM      8  C   UNL     1      -2.667  -2.800  -3.511  1.00  0.00     0.117 C 
ATOM      9  C   UNL     1      -1.039  -2.345  -0.663  1.00  0.00     0.231 C 
ATOM     10  O   UNL     1      -0.952  -3.501  -0.253  1.00  0.00    -0.274 OA
ATOM     11  N   UNL     1      -1.636  -2.019  -1.863  1.00  0.00    -0.341 N 
ATOM     12  C   UNL     1      -3.051  -2.338  -2.115  1.00  0.00     0.134 C 
ATOM     13  C   UNL     1      -1.207  -2.558  -3.161  1.00  0.00     0.134 C 
BRANCH   9  14
ATOM     14  C   UNL     1      -0.367  -1.174   0.052  1.00  0.00     0.136 C 
ATOM     15  C   UNL     1      -1.011   0.200  -0.248  1.00  0.00     0.193 C 
ATOM     16  C   UNL     1      -0.193   1.361   0.333  1.00  0.00     0.066 C 
ATOM     17  C   UNL     1       1.260   1.302  -0.126  1.00  0.00     0.006 C 
ATOM     18  C   UNL     1       1.123  -1.200  -0.325  1.00  0.00     0.020 C 
ATOM     19  C   UNL     1       1.897  -0.025   0.261  1.00  0.00     0.001 C 
BRANCH  15  20
ATOM     20  N   UNL     1      -2.386   0.281   0.262  1.00  0.00    -0.354 N 
ATOM     21  H   UNL     1      -2.775   1.199   0.045  1.00  0.00     0.344 HD
ATOM     22  H   UNL     1      -2.382   0.144   1.273  1.00  0.00     0.344 HD
ATOM     23  H   UNL     1      -2.955  -0.442  -0.177  1.00  0.00     0.344 HD
ENDBRANCH  15  20
ENDBRANCH   9  14
ENDBRANCH   5   8
ENDBRANCH   3   4
ENDBRANCH   2   3
ENDBRANCH   1   2
BRANCH   1  24
ATOM     24  C   UNL     1      -3.429   2.883  -5.828  1.00  0.00     0.002 C 
BRANCH  24  25
ATOM     25  C   UNL     1      -2.898   3.934  -4.852  1.00  0.00     0.021 C 
BRANCH  25  26
ATOM     26  C   UNL     1      -1.697   4.726  -5.360  1.00  0.00     0.116 C 
BRANCH  26  27
ATOM     27  N   UNL     1      -2.019   5.531  -6.529  1.00  0.00    -0.352 N 
ATOM     28  C   UNL     1      -1.873   6.882  -6.721  1.00  0.00     0.251 C 
ATOM     29  H   UNL     1      -2.397   5.035  -7.291  1.00  0.00     0.163 HD
ATOM     30  O   UNL     1      -2.368   7.428  -7.704  1.00  0.00    -0.269 OA
BRANCH  28  31
ATOM     31  C   UNL     1      -1.137   7.687  -5.725  1.00  0.00     0.039 A 
ATOM     32  C   UNL     1      -1.701   8.882  -5.269  1.00  0.00     0.014 A 
ATOM     33  C   UNL     1       0.096   7.256  -5.230  1.00  0.00     0.014 A 
ATOM     34  C   UNL     1      -1.065   9.602  -4.255  1.00  0.00     0.010 A 
ATOM     35  C   UNL     1       0.692   7.937  -4.172  1.00  0.00     0.010 A 
ATOM     36  C   UNL     1       0.112   9.111  -3.667  1.00  0.00    -0.014 A 
BRANCH  36  37
ATOM     37  C   UNL     1       0.742   9.792  -2.507  1.00  0.00     0.031 A 
ATOM     38  C   UNL     1       2.123  10.374  -2.629  1.00  0.00     0.074 A 
ATOM     39  C   UNL     1       0.098   9.824  -1.323  1.00  0.00     0.049 A 
ATOM     40  N   UNL     1       2.878  10.907  -1.703  1.00  0.00    -0.248 NA
ATOM     41  C   UNL     1       2.743  10.335  -3.964  1.00  0.00     0.031 C 
ATOM     42  C   UNL     1      -1.239   9.283  -1.066  1.00  0.00     0.029 A 
ATOM     43  N   UNL     1       0.489  10.327  -0.106  1.00  0.00    -0.354 N 
ATOM     44  C   UNL     1       4.059  11.267  -2.340  1.00  0.00     0.074 A 
ATOM     45  C   UNL     1       3.943  10.839  -3.718  1.00  0.00     0.031 C 
ATOM     46  C   UNL     1      -1.564   9.502   0.219  1.00  0.00     0.029 A 
ATOM     47  C   UNL     1      -0.442  10.149   0.890  1.00  0.00     0.049 A 
ATOM     48  H   UNL     1       1.354  10.774   0.039  1.00  0.00     0.167 HD
ATOM     49  C   UNL     1       5.133  11.916  -1.832  1.00  0.00     0.031 A 
ATOM     50  C   UNL     1      -0.389  10.453   2.200  1.00  0.00     0.031 A 
ATOM     51  C   UNL     1       5.254  12.335  -0.461  1.00  0.00     0.049 A 
ATOM     52  C   UNL     1       0.852  11.102   2.753  1.00  0.00     0.074 A 
ATOM     53  C   UNL     1       6.299  13.012   0.144  1.00  0.00     0.029 A 
ATOM     54  N   UNL     1       4.297  12.118   0.518  1.00  0.00    -0.354 N 
ATOM     55  N   UNL     1       1.941  11.474   2.126  1.00  0.00    -0.248 NA
ATOM     56  C   UNL     1       0.865  11.377   4.197  1.00  0.00     0.031 C 
ATOM     57  C   UNL     1       5.997  13.159   1.502  1.00  0.00     0.029 A 
ATOM     58  C   UNL     1       4.738  12.628   1.728  1.00  0.00     0.049 A 
ATOM     59  H   UNL     1       3.433  11.669   0.374  1.00  0.00     0.167 HD
ATOM     60  C   UNL     1       2.752  12.056   3.092  1.00  0.00     0.074 A 
ATOM     61  C   UNL     1       2.021  12.008   4.340  1.00  0.00     0.031 C 
ATOM     62  C   UNL     1       3.994  12.582   2.959  1.00  0.00     0.031 A 
BRANCH  49  63
ATOM     63  C   UNL     1       6.269  12.220  -2.770  1.00  0.00    -0.014 A 
ATOM     64  C   UNL     1       6.132  13.187  -3.778  1.00  0.00     0.009 A 
ATOM     65  C   UNL     1       7.506  11.577  -2.610  1.00  0.00     0.009 A 
ATOM     66  C   UNL     1       7.202  13.485  -4.624  1.00  0.00     0.001 A 
ATOM     67  C   UNL     1       8.583  11.898  -3.438  1.00  0.00     0.001 A 
ATOM     68  C   UNL     1       8.428  12.845  -4.449  1.00  0.00     0.000 A 
ENDBRANCH  49  63
BRANCH  50  69
ATOM     69  C   UNL     1      -1.531  10.136   3.101  1.00  0.00    -0.014 A 
ATOM     70  C   UNL     1      -2.264  11.165   3.712  1.00  0.00     0.009 A 
ATOM     71  C   UNL     1      -1.859   8.804   3.399  1.00  0.00     0.009 A 
ATOM     72  C   UNL     1      -3.267  10.868   4.638  1.00  0.00     0.001 A 
ATOM     73  C   UNL     1      -2.887   8.509   4.297  1.00  0.00     0.001 A 
ATOM     74  C   UNL     1      -3.579   9.541   4.928  1.00  0.00     0.000 A 
ENDBRANCH  50  69
BRANCH  62  75
ATOM     75  C   UNL     1       4.621  13.186   4.184  1.00  0.00    -0.014 A 
ATOM     76  C   UNL     1       5.067  12.387   5.248  1.00  0.00     0.009 A 
ATOM     77  C   UNL     1       4.799  14.577   4.258  1.00  0.00     0.009 A 
ATOM     78  C   UNL     1       5.647  12.972   6.376  1.00  0.00     0.001 A 
ATOM     79  C   UNL     1       5.409  15.156   5.372  1.00  0.00     0.001 A 
ATOM     80  C   UNL     1       5.823  14.354   6.434  1.00  0.00     0.000 A 
ENDBRANCH  62  75
ENDBRANCH  36  37
ENDBRANCH  28  31
ENDBRANCH  26  27
ENDBRANCH  25  26
ENDBRANCH  24  25
ENDBRANCH   1  24
TORSDOF 15
