REMARK SMILES COc1ccccc1-n1nnc(C(=O)NCCCCCCNC(=O)c2ccc(-c3c4nc(c(-c5ccccc5)c5ccc([nH]5)c(-c5ccccc5)c5nc(c(-c6ccccc6)c6ccc3[nH]6)C=C5)C=C4)cc2)c1-c1ccc(Cl)cc1
REMARK SMILES IDX 18 1 17 2 16 3 15 4 13 5 14 6 12 8 9 9 10 10 73 11 11 12
REMARK SMILES IDX 8 13 3 14 4 15 5 16 7 17 6 18 2 19 1 20 74 21 75 22 80 23
REMARK SMILES IDX 76 24 79 25 77 26 78 27 19 28 20 29 21 30 22 31 23 32 24 34
REMARK SMILES IDX 25 35 26 36 72 37 27 38 71 39 28 40 29 41 30 42 65 43 31 44
REMARK SMILES IDX 70 45 64 46 66 47 32 48 69 49 63 50 62 51 33 53 55 54 40 55
REMARK SMILES IDX 54 56 41 57 44 58 53 59 67 60 42 61 43 62 52 64 68 65 45 66
REMARK SMILES IDX 34 67 35 68 39 69 36 70 38 71 37 72 56 73 57 74 61 75 58 76
REMARK SMILES IDX 60 77 59 78 46 79 47 80 51 81 48 82 50 83 49 84
REMARK H PARENT 15 7 22 33 66 52 44 63
REMARK Flexibility Score: inf
ROOT
ATOM      1  C   UNL     1       5.396  -4.884   4.204  1.00  0.00     0.002 C 
ENDROOT
BRANCH   1   2
ATOM      2  C   UNL     1       5.419  -4.517   2.724  1.00  0.00     0.021 C 
BRANCH   2   3
ATOM      3  C   UNL     1       4.749  -3.229   2.281  1.00  0.00     0.116 C 
BRANCH   3   4
ATOM      4  N   UNL     1       5.428  -1.979   2.451  1.00  0.00    -0.351 N 
ATOM      5  C   UNL     1       5.326  -0.837   1.671  1.00  0.00     0.274 C 
ATOM      6  O   UNL     1       5.979   0.132   2.072  1.00  0.00    -0.267 OA
ATOM      7  H   UNL     1       6.044  -1.924   3.217  1.00  0.00     0.163 HD
BRANCH   5   8
ATOM      8  C   UNL     1       4.535  -0.736   0.423  1.00  0.00     0.178 A 
ATOM      9  N   UNL     1       3.193  -0.743  -1.323  1.00  0.00    -0.208 N 
ATOM     10  N   UNL     1       4.179   0.130  -1.586  1.00  0.00    -0.061 NA
ATOM     11  C   UNL     1       3.443  -1.415  -0.124  1.00  0.00     0.108 A 
ATOM     12  N   UNL     1       4.924   0.229  -0.498  1.00  0.00    -0.124 NA
BRANCH   9  13
ATOM     13  C   UNL     1       2.175  -1.031  -2.261  1.00  0.00     0.109 A 
ATOM     14  C   UNL     1       0.841  -1.198  -1.857  1.00  0.00     0.144 A 
ATOM     15  C   UNL     1      -0.043  -1.876  -2.699  1.00  0.00     0.049 A 
ATOM     16  C   UNL     1       0.376  -2.330  -3.950  1.00  0.00     0.004 A 
ATOM     17  C   UNL     1       2.580  -1.415  -3.550  1.00  0.00     0.032 A 
ATOM     18  C   UNL     1       1.678  -2.080  -4.384  1.00  0.00     0.003 A 
BRANCH  14  19
ATOM     19  O   UNL     1       0.312  -0.835  -0.647  1.00  0.00    -0.494 OA
ATOM     20  C   UNL     1       0.540   0.522  -0.267  1.00  0.00     0.278 C 
ENDBRANCH  14  19
ENDBRANCH   9  13
BRANCH  11  21
ATOM     21  C   UNL     1       2.695  -2.629   0.199  1.00  0.00     0.003 A 
ATOM     22  C   UNL     1       1.732  -2.659   1.211  1.00  0.00     0.012 A 
ATOM     23  C   UNL     1       2.939  -3.792  -0.558  1.00  0.00     0.012 A 
ATOM     24  C   UNL     1       1.026  -3.838   1.464  1.00  0.00     0.021 A 
ATOM     25  C   UNL     1       2.253  -4.973  -0.288  1.00  0.00     0.021 A 
ATOM     26  C   UNL     1       1.296  -4.989   0.722  1.00  0.00     0.041 A 
ATOM     27  Cl  UNL     1       0.459  -6.450   1.065  1.00  0.00    -0.084 Cl
ENDBRANCH  11  21
ENDBRANCH   5   8
ENDBRANCH   3   4
ENDBRANCH   2   3
ENDBRANCH   1   2
BRANCH   1  28
ATOM     28  C   UNL     1       4.081  -4.775   4.992  1.00  0.00     0.002 C 
BRANCH  28  29
ATOM     29  C   UNL     1       2.808  -5.440   4.452  1.00  0.00     0.021 C 
BRANCH  29  30
ATOM     30  C   UNL     1       2.904  -6.909   4.078  1.00  0.00     0.116 C 
BRANCH  30  31
ATOM     31  N   UNL     1       3.161  -7.802   5.203  1.00  0.00    -0.352 N 
ATOM     32  C   UNL     1       3.247  -9.186   5.183  1.00  0.00     0.251 C 
ATOM     33  H   UNL     1       3.289  -7.371   6.079  1.00  0.00     0.163 HD
ATOM     34  O   UNL     1       3.077  -9.840   6.200  1.00  0.00    -0.269 OA
BRANCH  32  35
ATOM     35  C   UNL     1       3.562  -9.868   3.909  1.00  0.00     0.039 A 
ATOM     36  C   UNL     1       3.019 -11.118   3.589  1.00  0.00     0.014 A 
ATOM     37  C   UNL     1       4.446  -9.244   3.035  1.00  0.00     0.014 A 
ATOM     38  C   UNL     1       3.330 -11.698   2.357  1.00  0.00     0.010 A 
ATOM     39  C   UNL     1       4.614  -9.726   1.765  1.00  0.00     0.010 A 
ATOM     40  C   UNL     1       4.125 -10.988   1.448  1.00  0.00    -0.014 A 
BRANCH  40  41
ATOM     41  C   UNL     1       4.429 -11.505   0.120  1.00  0.00     0.031 A 
ATOM     42  C   UNL     1       3.257 -11.771  -0.750  1.00  0.00     0.074 A 
ATOM     43  C   UNL     1       5.685 -11.499  -0.378  1.00  0.00     0.049 A 
ATOM     44  N   UNL     1       2.904 -12.906  -1.251  1.00  0.00    -0.248 NA
ATOM     45  C   UNL     1       2.316 -10.675  -1.030  1.00  0.00     0.031 C 
ATOM     46  C   UNL     1       6.909 -10.993   0.260  1.00  0.00     0.029 A 
ATOM     47  N   UNL     1       6.111 -11.808  -1.633  1.00  0.00    -0.354 N 
ATOM     48  C   UNL     1       1.801 -12.651  -2.057  1.00  0.00     0.074 A 
ATOM     49  C   UNL     1       1.392 -11.299  -1.764  1.00  0.00     0.031 C 
ATOM     50  C   UNL     1       7.856 -10.789  -0.681  1.00  0.00     0.029 A 
ATOM     51  C   UNL     1       7.368 -11.304  -1.947  1.00  0.00     0.049 A 
ATOM     52  H   UNL     1       5.575 -12.341  -2.263  1.00  0.00     0.167 HD
ATOM     53  C   UNL     1       1.454 -13.494  -3.069  1.00  0.00     0.031 A 
ATOM     54  C   UNL     1       7.955 -11.280  -3.168  1.00  0.00     0.031 A 
ATOM     55  C   UNL     1       2.148 -14.754  -2.975  1.00  0.00     0.049 A 
ATOM     56  C   UNL     1       7.280 -12.300  -4.002  1.00  0.00     0.074 A 
ATOM     57  C   UNL     1       2.230 -15.751  -2.022  1.00  0.00     0.029 A 
ATOM     58  N   UNL     1       3.230 -14.937  -3.805  1.00  0.00    -0.354 N 
ATOM     59  N   UNL     1       7.387 -13.578  -3.781  1.00  0.00    -0.248 NA
ATOM     60  C   UNL     1       6.129 -11.901  -4.796  1.00  0.00     0.031 C 
ATOM     61  C   UNL     1       3.597 -16.156  -2.035  1.00  0.00     0.029 A 
ATOM     62  C   UNL     1       4.250 -15.444  -3.042  1.00  0.00     0.049 A 
ATOM     63  H   UNL     1       3.265 -14.741  -4.769  1.00  0.00     0.167 HD
ATOM     64  C   UNL     1       6.106 -14.072  -3.977  1.00  0.00     0.074 A 
ATOM     65  C   UNL     1       5.409 -13.025  -4.724  1.00  0.00     0.031 C 
ATOM     66  C   UNL     1       5.647 -15.141  -3.259  1.00  0.00     0.031 A 
BRANCH  53  67
ATOM     67  C   UNL     1       0.808 -13.048  -4.355  1.00  0.00    -0.014 A 
ATOM     68  C   UNL     1       0.426 -14.026  -5.293  1.00  0.00     0.009 A 
ATOM     69  C   UNL     1       0.823 -11.714  -4.801  1.00  0.00     0.009 A 
ATOM     70  C   UNL     1       0.154 -13.691  -6.624  1.00  0.00     0.001 A 
ATOM     71  C   UNL     1       0.510 -11.372  -6.119  1.00  0.00     0.001 A 
ATOM     72  C   UNL     1       0.205 -12.365  -7.039  1.00  0.00     0.000 A 
ENDBRANCH  53  67
BRANCH  54  73
ATOM     73  C   UNL     1       8.922 -10.310  -3.723  1.00  0.00    -0.014 A 
ATOM     74  C   UNL     1       9.649 -10.606  -4.887  1.00  0.00     0.009 A 
ATOM     75  C   UNL     1       8.942  -8.981  -3.262  1.00  0.00     0.009 A 
ATOM     76  C   UNL     1      10.328  -9.600  -5.588  1.00  0.00     0.001 A 
ATOM     77  C   UNL     1       9.624  -7.978  -3.958  1.00  0.00     0.001 A 
ATOM     78  C   UNL     1      10.302  -8.284  -5.132  1.00  0.00     0.000 A 
ENDBRANCH  54  73
BRANCH  66  79
ATOM     79  C   UNL     1       6.645 -15.898  -2.411  1.00  0.00    -0.014 A 
ATOM     80  C   UNL     1       7.394 -15.295  -1.383  1.00  0.00     0.009 A 
ATOM     81  C   UNL     1       6.734 -17.288  -2.561  1.00  0.00     0.009 A 
ATOM     82  C   UNL     1       8.239 -16.052  -0.565  1.00  0.00     0.001 A 
ATOM     83  C   UNL     1       7.559 -18.049  -1.728  1.00  0.00     0.001 A 
ATOM     84  C   UNL     1       8.318 -17.430  -0.738  1.00  0.00     0.000 A 
ENDBRANCH  66  79
ENDBRANCH  40  41
ENDBRANCH  32  35
ENDBRANCH  30  31
ENDBRANCH  29  30
ENDBRANCH  28  29
ENDBRANCH   1  28
TORSDOF 16
