REMARK SMILES C[C@@H](NC(=O)/C(=C/c1ccc(Cl)cc1)NC(=O)c1ccc(C(C)(C)C)cc1)C(=O)NCCCCCCNC(=O)c1ccc(-c2c3nc(c(-c4ccccc4)c4ccc([nH]4)c(-c4ccccc4)c4nc(c(-c5ccccc5)c5ccc2[nH]5)C=C4)C=C3)cc1
REMARK SMILES IDX 32 1 31 2 30 3 28 4 29 5 2 7 1 8 3 9 4 10 5 12 6 13 7 14
REMARK SMILES IDX 15 15 16 16 17 18 18 19 19 20 27 21 20 22 26 23 21 24 22 25
REMARK SMILES IDX 23 26 24 27 25 28 8 29 9 30 14 31 10 32 13 33 11 34 12 35
REMARK SMILES IDX 33 36 34 37 35 38 36 39 37 40 38 41 39 43 40 44 41 45 87 46
REMARK SMILES IDX 42 47 86 48 43 49 44 50 45 51 80 52 46 53 85 54 79 55 81 56
REMARK SMILES IDX 47 57 84 58 78 59 77 60 48 62 70 63 55 64 69 65 56 66 59 67
REMARK SMILES IDX 68 68 82 69 57 70 58 71 67 73 83 74 60 75 49 76 50 77 54 78
REMARK SMILES IDX 51 79 53 80 52 81 71 82 72 83 76 84 73 85 75 86 74 87 61 88
REMARK SMILES IDX 62 89 66 90 63 91 65 92 64 93
REMARK H PARENT 30 6 3 11 15 17 37 42 81 61 59 72
REMARK Flexibility Score: inf
ROOT
ATOM      1  C   UNL     1      -1.514   2.782  -0.813  1.00  0.00     0.021 C 
ENDROOT
BRANCH   1   2
ATOM      2  C   UNL     1      -0.919   1.922   0.294  1.00  0.00     0.116 C 
BRANCH   2   3
ATOM      3  N   UNL     1      -1.261   0.533   0.084  1.00  0.00    -0.354 N 
ATOM      4  C   UNL     1      -0.633  -0.584   0.532  1.00  0.00     0.242 C 
ATOM      5  O   UNL     1      -1.048  -1.676   0.134  1.00  0.00    -0.273 OA
ATOM      6  H   UNL     1      -2.065   0.374  -0.462  1.00  0.00     0.163 HD
BRANCH   4   7
ATOM      7  C   UNL     1       0.632  -0.503   1.403  1.00  0.00     0.168 C 
ATOM      8  C   UNL     1       1.820  -0.260   0.463  1.00  0.00     0.041 C 
BRANCH   7   9
ATOM      9  N   UNL     1       0.652   0.446   2.533  1.00  0.00    -0.339 N 
ATOM     10  C   UNL     1      -0.076   0.297   3.697  1.00  0.00     0.268 C 
ATOM     11  H   UNL     1       1.225   1.242   2.451  1.00  0.00     0.164 HD
ATOM     12  O   UNL     1       0.511   0.146   4.765  1.00  0.00    -0.268 OA
BRANCH  10  13
ATOM     13  C   UNL     1      -1.563   0.523   3.647  1.00  0.00     0.107 C 
ATOM     14  C   UNL     1      -2.291  -0.420   3.017  1.00  0.00     0.040 C 
BRANCH  13  15
ATOM     15  N   UNL     1      -2.166   1.587   4.290  1.00  0.00    -0.317 N 
ATOM     16  C   UNL     1      -1.728   2.686   4.987  1.00  0.00     0.255 C 
ATOM     17  H   UNL     1      -3.148   1.547   4.235  1.00  0.00     0.170 HD
ATOM     18  O   UNL     1      -2.558   3.428   5.513  1.00  0.00    -0.269 OA
BRANCH  16  19
ATOM     19  C   UNL     1      -0.310   3.014   5.146  1.00  0.00     0.040 A 
ATOM     20  C   UNL     1       0.230   2.976   6.429  1.00  0.00     0.014 A 
ATOM     21  C   UNL     1       0.469   3.409   4.062  1.00  0.00     0.014 A 
ATOM     22  C   UNL     1       1.590   3.223   6.609  1.00  0.00     0.005 A 
ATOM     23  C   UNL     1       1.834   3.647   4.249  1.00  0.00     0.005 A 
ATOM     24  C   UNL     1       2.432   3.513   5.517  1.00  0.00    -0.043 A 
BRANCH  24  25
ATOM     25  C   UNL     1       3.948   3.647   5.740  1.00  0.00    -0.013 C 
ATOM     26  C   UNL     1       4.237   4.913   6.570  1.00  0.00     0.016 C 
ATOM     27  C   UNL     1       4.479   2.408   6.499  1.00  0.00     0.016 C 
ATOM     28  C   UNL     1       4.757   3.742   4.427  1.00  0.00     0.016 C 
ENDBRANCH  24  25
ENDBRANCH  16  19
ENDBRANCH  13  15
BRANCH  14  29
ATOM     29  C   UNL     1      -3.710  -0.414   2.593  1.00  0.00    -0.023 A 
ATOM     30  C   UNL     1      -4.450   0.756   2.362  1.00  0.00     0.010 A 
ATOM     31  C   UNL     1      -4.298  -1.637   2.236  1.00  0.00     0.010 A 
ATOM     32  C   UNL     1      -5.749   0.709   1.847  1.00  0.00     0.021 A 
ATOM     33  C   UNL     1      -5.591  -1.690   1.702  1.00  0.00     0.021 A 
ATOM     34  C   UNL     1      -6.314  -0.516   1.517  1.00  0.00     0.041 A 
ATOM     35  Cl  UNL     1      -7.897  -0.575   0.850  1.00  0.00    -0.084 Cl
ENDBRANCH  14  29
ENDBRANCH  10  13
ENDBRANCH   7   9
ENDBRANCH   4   7
ENDBRANCH   2   3
ENDBRANCH   1   2
BRANCH   1  36
ATOM     36  C   UNL     1      -3.018   3.021  -0.642  1.00  0.00     0.002 C 
BRANCH  36  37
ATOM     37  C   UNL     1      -3.385   3.917   0.546  1.00  0.00     0.002 C 
BRANCH  37  38
ATOM     38  C   UNL     1      -2.712   5.288   0.561  1.00  0.00     0.021 C 
BRANCH  38  39
ATOM     39  C   UNL     1      -2.836   6.069  -0.739  1.00  0.00     0.116 C 
BRANCH  39  40
ATOM     40  N   UNL     1      -4.217   6.335  -1.099  1.00  0.00    -0.352 N 
ATOM     41  C   UNL     1      -4.777   7.513  -1.532  1.00  0.00     0.251 C 
ATOM     42  H   UNL     1      -4.834   5.571  -1.023  1.00  0.00     0.163 HD
ATOM     43  O   UNL     1      -5.984   7.628  -1.654  1.00  0.00    -0.269 OA
BRANCH  41  44
ATOM     44  C   UNL     1      -3.883   8.655  -1.820  1.00  0.00     0.039 A 
ATOM     45  C   UNL     1      -4.178   9.899  -1.260  1.00  0.00     0.014 A 
ATOM     46  C   UNL     1      -2.740   8.478  -2.604  1.00  0.00     0.014 A 
ATOM     47  C   UNL     1      -3.290  10.959  -1.444  1.00  0.00     0.010 A 
ATOM     48  C   UNL     1      -1.819   9.511  -2.717  1.00  0.00     0.010 A 
ATOM     49  C   UNL     1      -2.089  10.764  -2.146  1.00  0.00    -0.014 A 
BRANCH  49  50
ATOM     50  C   UNL     1      -1.107  11.864  -2.309  1.00  0.00     0.031 A 
ATOM     51  C   UNL     1      -0.790  12.389  -3.682  1.00  0.00     0.074 A 
ATOM     52  C   UNL     1      -0.458  12.347  -1.232  1.00  0.00     0.049 A 
ATOM     53  N   UNL     1       0.078  13.302  -4.036  1.00  0.00    -0.248 NA
ATOM     54  C   UNL     1      -1.525  11.789  -4.808  1.00  0.00     0.031 C 
ATOM     55  C   UNL     1      -0.648  11.895   0.148  1.00  0.00     0.029 A 
ATOM     56  N   UNL     1       0.498  13.325  -1.132  1.00  0.00    -0.354 N 
ATOM     57  C   UNL     1       0.005  13.371  -5.422  1.00  0.00     0.074 A 
ATOM     58  C   UNL     1      -0.948  12.372  -5.848  1.00  0.00     0.031 C 
ATOM     59  C   UNL     1       0.143  12.616   0.959  1.00  0.00     0.029 A 
ATOM     60  C   UNL     1       0.925  13.549   0.155  1.00  0.00     0.049 A 
ATOM     61  H   UNL     1       0.846  13.821  -1.908  1.00  0.00     0.167 HD
ATOM     62  C   UNL     1       0.657  14.208  -6.264  1.00  0.00     0.031 A 
ATOM     63  C   UNL     1       1.847  14.406   0.632  1.00  0.00     0.031 A 
ATOM     64  C   UNL     1       1.595  15.210  -5.838  1.00  0.00     0.049 A 
ATOM     65  C   UNL     1       2.569  15.313  -0.326  1.00  0.00     0.074 A 
ATOM     66  C   UNL     1       2.267  16.144  -6.607  1.00  0.00     0.029 A 
ATOM     67  N   UNL     1       1.996  15.408  -4.526  1.00  0.00    -0.354 N 
ATOM     68  N   UNL     1       2.439  15.413  -1.626  1.00  0.00    -0.248 NA
ATOM     69  C   UNL     1       3.557  16.234   0.255  1.00  0.00     0.031 C 
ATOM     70  C   UNL     1       3.115  16.872  -5.766  1.00  0.00     0.029 A 
ATOM     71  C   UNL     1       2.926  16.432  -4.466  1.00  0.00     0.049 A 
ATOM     72  H   UNL     1       1.668  14.896  -3.751  1.00  0.00     0.167 HD
ATOM     73  C   UNL     1       3.304  16.428  -2.016  1.00  0.00     0.074 A 
ATOM     74  C   UNL     1       3.941  16.921  -0.812  1.00  0.00     0.031 C 
ATOM     75  C   UNL     1       3.549  16.910  -3.259  1.00  0.00     0.031 A 
BRANCH  62  76
ATOM     76  C   UNL     1       0.377  14.065  -7.734  1.00  0.00    -0.014 A 
ATOM     77  C   UNL     1      -0.868  14.420  -8.278  1.00  0.00     0.009 A 
ATOM     78  C   UNL     1       1.383  13.596  -8.594  1.00  0.00     0.009 A 
ATOM     79  C   UNL     1      -1.113  14.271  -9.645  1.00  0.00     0.001 A 
ATOM     80  C   UNL     1       1.145  13.478  -9.965  1.00  0.00     0.001 A 
ATOM     81  C   UNL     1      -0.105  13.805 -10.487  1.00  0.00     0.000 A 
ENDBRANCH  62  76
BRANCH  63  82
ATOM     82  C   UNL     1       2.132  14.460   2.090  1.00  0.00    -0.014 A 
ATOM     83  C   UNL     1       1.754  15.579   2.849  1.00  0.00     0.009 A 
ATOM     84  C   UNL     1       2.793  13.400   2.730  1.00  0.00     0.009 A 
ATOM     85  C   UNL     1       2.057  15.647   4.210  1.00  0.00     0.001 A 
ATOM     86  C   UNL     1       3.068  13.458   4.098  1.00  0.00     0.001 A 
ATOM     87  C   UNL     1       2.710  14.585   4.835  1.00  0.00     0.000 A 
ENDBRANCH  63  82
BRANCH  75  88
ATOM     88  C   UNL     1       4.517  18.054  -3.376  1.00  0.00    -0.014 A 
ATOM     89  C   UNL     1       5.894  17.868  -3.185  1.00  0.00     0.009 A 
ATOM     90  C   UNL     1       4.043  19.328  -3.726  1.00  0.00     0.009 A 
ATOM     91  C   UNL     1       6.774  18.945  -3.310  1.00  0.00     0.001 A 
ATOM     92  C   UNL     1       4.928  20.395  -3.880  1.00  0.00     0.001 A 
ATOM     93  C   UNL     1       6.292  20.205  -3.662  1.00  0.00     0.000 A 
ENDBRANCH  75  88
ENDBRANCH  49  50
ENDBRANCH  41  44
ENDBRANCH  39  40
ENDBRANCH  38  39
ENDBRANCH  37  38
ENDBRANCH  36  37
ENDBRANCH   1  36
TORSDOF 19
