REMARK SMILES CN(Cc1ccc(Cl)cc1Cl)S(=O)(=O)CCCC(=O)NCCCCCCNC(=O)c1ccc(-c2c3nc(c(-c4ccccc4)c4ccc([nH]4)c(-c4ccccc4)c4nc(c(-c5ccccc5)c5ccc2[nH]5)C=C4)C=C3)cc1
REMARK SMILES IDX 21 1 20 2 18 3 19 4 17 6 16 7 15 8 12 9 13 10 14 11 2 12
REMARK SMILES IDX 1 13 3 14 4 15 5 16 10 17 6 18 9 19 11 20 7 21 8 22 22 23
REMARK SMILES IDX 23 24 24 25 25 26 26 27 27 28 28 29 29 31 30 32 31 33 77 34
REMARK SMILES IDX 32 35 76 36 33 37 34 38 35 39 70 40 36 41 75 42 69 43 71 44
REMARK SMILES IDX 37 45 74 46 68 47 67 48 38 50 60 51 45 52 59 53 46 54 49 55
REMARK SMILES IDX 58 56 72 57 47 58 48 59 57 61 73 62 50 63 39 64 40 65 44 66
REMARK SMILES IDX 41 67 43 68 42 69 61 70 62 71 66 72 63 73 65 74 64 75 51 76
REMARK SMILES IDX 52 77 56 78 53 79 55 80 54 81
REMARK H PARENT 20 5 27 30 71 49 49 60
REMARK Flexibility Score: inf
ROOT
ATOM      1  C   UNL     1      -1.822   3.321   1.764  1.00  0.00     0.116 C 
ENDROOT
BRANCH   1   2
ATOM      2  N   UNL     1      -1.809   4.451   0.869  1.00  0.00    -0.356 N 
ATOM      3  C   UNL     1      -0.955   4.797  -0.125  1.00  0.00     0.220 C 
ATOM      4  O   UNL     1      -1.314   5.706  -0.879  1.00  0.00    -0.275 OA
ATOM      5  H   UNL     1      -2.553   5.082   1.002  1.00  0.00     0.163 HD
BRANCH   3   6
ATOM      6  C   UNL     1       0.361   4.076  -0.377  1.00  0.00     0.101 C 
BRANCH   6   7
ATOM      7  C   UNL     1       1.474   4.179   0.658  1.00  0.00     0.027 C 
BRANCH   7   8
ATOM      8  C   UNL     1       1.492   3.273   1.875  1.00  0.00     0.155 C 
BRANCH   8   9
ATOM      9  S   UNL     1       1.633   1.482   1.750  1.00  0.00     0.214 S 
ATOM     10  O   UNL     1       0.721   0.937   2.726  1.00  0.00    -0.212 OA
ATOM     11  O   UNL     1       3.058   1.202   1.856  1.00  0.00    -0.212 OA
BRANCH   9  12
ATOM     12  N   UNL     1       1.155   0.944   0.228  1.00  0.00    -0.201 NA
ATOM     13  C   UNL     1       2.154   0.130  -0.506  1.00  0.00     0.124 C 
BRANCH  12  14
ATOM     14  C   UNL     1      -0.262   0.575  -0.094  1.00  0.00     0.138 C 
BRANCH  14  15
ATOM     15  C   UNL     1      -0.959  -0.523   0.683  1.00  0.00    -0.014 A 
ATOM     16  C   UNL     1      -0.252  -1.600   1.235  1.00  0.00     0.008 A 
ATOM     17  C   UNL     1      -2.359  -0.512   0.856  1.00  0.00     0.047 A 
ATOM     18  C   UNL     1      -0.888  -2.531   2.062  1.00  0.00     0.021 A 
ATOM     19  C   UNL     1      -2.990  -1.409   1.721  1.00  0.00     0.041 A 
ATOM     20  Cl  UNL     1      -3.386   0.549  -0.049  1.00  0.00    -0.084 Cl
ATOM     21  C   UNL     1      -2.242  -2.398   2.345  1.00  0.00     0.042 A 
ATOM     22  Cl  UNL     1      -2.995  -3.469   3.459  1.00  0.00    -0.084 Cl
ENDBRANCH  14  15
ENDBRANCH  12  14
ENDBRANCH   9  12
ENDBRANCH   8   9
ENDBRANCH   7   8
ENDBRANCH   6   7
ENDBRANCH   3   6
ENDBRANCH   1   2
BRANCH   1  23
ATOM     23  C   UNL     1      -1.987   3.725   3.227  1.00  0.00     0.021 C 
BRANCH  23  24
ATOM     24  C   UNL     1      -3.400   3.458   3.754  1.00  0.00     0.002 C 
BRANCH  24  25
ATOM     25  C   UNL     1      -3.835   1.986   3.714  1.00  0.00     0.002 C 
BRANCH  25  26
ATOM     26  C   UNL     1      -2.942   1.020   4.493  1.00  0.00     0.021 C 
BRANCH  26  27
ATOM     27  C   UNL     1      -2.963   1.249   5.997  1.00  0.00     0.116 C 
BRANCH  27  28
ATOM     28  N   UNL     1      -4.300   1.031   6.533  1.00  0.00    -0.352 N 
ATOM     29  C   UNL     1      -4.794  -0.012   7.273  1.00  0.00     0.251 C 
ATOM     30  H   UNL     1      -4.950   1.743   6.333  1.00  0.00     0.163 HD
ATOM     31  O   UNL     1      -6.006  -0.214   7.297  1.00  0.00    -0.269 OA
BRANCH  29  32
ATOM     32  C   UNL     1      -3.889  -0.872   8.066  1.00  0.00     0.039 A 
ATOM     33  C   UNL     1      -4.255  -2.198   8.315  1.00  0.00     0.014 A 
ATOM     34  C   UNL     1      -2.724  -0.356   8.640  1.00  0.00     0.014 A 
ATOM     35  C   UNL     1      -3.444  -3.002   9.119  1.00  0.00     0.010 A 
ATOM     36  C   UNL     1      -1.860  -1.188   9.339  1.00  0.00     0.010 A 
ATOM     37  C   UNL     1      -2.229  -2.509   9.621  1.00  0.00    -0.014 A 
BRANCH  37  38
ATOM     38  C   UNL     1      -1.348  -3.345  10.472  1.00  0.00     0.031 A 
ATOM     39  C   UNL     1      -1.024  -2.919  11.881  1.00  0.00     0.074 A 
ATOM     40  C   UNL     1      -0.796  -4.460   9.957  1.00  0.00     0.049 A 
ATOM     41  N   UNL     1      -0.261  -3.506  12.768  1.00  0.00    -0.248 NA
ATOM     42  C   UNL     1      -1.605  -1.647  12.345  1.00  0.00     0.031 C 
ATOM     43  C   UNL     1      -0.988  -4.946   8.588  1.00  0.00     0.029 A 
ATOM     44  N   UNL     1       0.032  -5.391  10.527  1.00  0.00    -0.354 N 
ATOM     45  C   UNL     1      -0.243  -2.660  13.872  1.00  0.00     0.074 A 
ATOM     46  C   UNL     1      -1.023  -1.495  13.524  1.00  0.00     0.031 C 
ATOM     47  C   UNL     1      -0.347  -6.116   8.444  1.00  0.00     0.029 A 
ATOM     48  C   UNL     1       0.337  -6.437   9.692  1.00  0.00     0.049 A 
ATOM     49  H   UNL     1       0.375  -5.317  11.447  1.00  0.00     0.167 HD
ATOM     50  C   UNL     1       0.349  -2.846  15.076  1.00  0.00     0.031 A 
ATOM     51  C   UNL     1       1.077  -7.538   9.912  1.00  0.00     0.031 A 
ATOM     52  C   UNL     1       1.103  -4.021  15.425  1.00  0.00     0.049 A 
ATOM     53  C   UNL     1       1.708  -7.732  11.261  1.00  0.00     0.074 A 
ATOM     54  C   UNL     1       1.676  -4.351  16.640  1.00  0.00     0.029 A 
ATOM     55  N   UNL     1       1.388  -5.059  14.551  1.00  0.00    -0.354 N 
ATOM     56  N   UNL     1       1.645  -6.964  12.322  1.00  0.00    -0.248 NA
ATOM     57  C   UNL     1       2.500  -8.954  11.444  1.00  0.00     0.031 C 
ATOM     58  C   UNL     1       2.359  -5.562  16.484  1.00  0.00     0.029 A 
ATOM     59  C   UNL     1       2.157  -6.017  15.190  1.00  0.00     0.049 A 
ATOM     60  H   UNL     1       1.089  -5.107  13.614  1.00  0.00     0.167 HD
ATOM     61  C   UNL     1       2.371  -7.621  13.307  1.00  0.00     0.074 A 
ATOM     62  C   UNL     1       2.840  -8.861  12.721  1.00  0.00     0.031 C 
ATOM     63  C   UNL     1       2.629  -7.235  14.581  1.00  0.00     0.031 A 
BRANCH  50  64
ATOM     64  C   UNL     1       0.215  -1.742  16.093  1.00  0.00    -0.014 A 
ATOM     65  C   UNL     1      -1.023  -1.422  16.674  1.00  0.00     0.009 A 
ATOM     66  C   UNL     1       1.351  -1.016  16.485  1.00  0.00     0.009 A 
ATOM     67  C   UNL     1      -1.129  -0.367  17.584  1.00  0.00     0.001 A 
ATOM     68  C   UNL     1       1.248   0.015  17.421  1.00  0.00     0.001 A 
ATOM     69  C   UNL     1       0.006   0.348  17.960  1.00  0.00     0.000 A 
ENDBRANCH  50  64
BRANCH  51  70
ATOM     70  C   UNL     1       1.220  -8.563   8.845  1.00  0.00    -0.014 A 
ATOM     71  C   UNL     1       0.591  -9.811   8.976  1.00  0.00     0.009 A 
ATOM     72  C   UNL     1       1.972  -8.300   7.689  1.00  0.00     0.009 A 
ATOM     73  C   UNL     1       0.731 -10.783   7.983  1.00  0.00     0.001 A 
ATOM     74  C   UNL     1       2.085  -9.263   6.684  1.00  0.00     0.001 A 
ATOM     75  C   UNL     1       1.473 -10.506   6.835  1.00  0.00     0.000 A 
ENDBRANCH  51  70
BRANCH  63  76
ATOM     76  C   UNL     1       3.438  -8.181  15.424  1.00  0.00    -0.014 A 
ATOM     77  C   UNL     1       4.802  -8.398  15.172  1.00  0.00     0.009 A 
ATOM     78  C   UNL     1       2.826  -8.861  16.488  1.00  0.00     0.009 A 
ATOM     79  C   UNL     1       5.523  -9.316  15.938  1.00  0.00     0.001 A 
ATOM     80  C   UNL     1       3.558  -9.751  17.274  1.00  0.00     0.001 A 
ATOM     81  C   UNL     1       4.902  -9.989  16.989  1.00  0.00     0.000 A 
ENDBRANCH  63  76
ENDBRANCH  37  38
ENDBRANCH  29  32
ENDBRANCH  27  28
ENDBRANCH  26  27
ENDBRANCH  25  26
ENDBRANCH  24  25
ENDBRANCH  23  24
ENDBRANCH   1  23
TORSDOF 19
