REMARK SMILES Cc1ccc(C(=O)NCCCCCCNC(=O)c2ccc(-c3c4nc(c(-c5ccccc5)c5ccc([nH]5)c(-c5ccccc5)c5nc(c(-c6ccccc6)c6ccc3[nH]6)C=C5)C=C4)cc2)c2c1N[C@H](c1ccccc1F)[C@H]1CC=C[C@@H]21
REMARK SMILES IDX 12 1 11 2 10 3 9 4 8 5 6 6 7 7 5 9 1 10 2 11 3 12 67 13 4 14
REMARK SMILES IDX 66 15 68 16 81 17 69 18 77 20 80 21 78 22 79 23 70 24 71 25
REMARK SMILES IDX 75 26 72 27 74 28 76 29 73 30 13 31 14 32 15 33 16 34 17 36
REMARK SMILES IDX 18 37 19 38 65 39 20 40 64 41 21 42 22 43 23 44 58 45 24 46
REMARK SMILES IDX 63 47 57 48 59 49 25 50 62 51 56 52 55 53 26 55 48 56 33 57
REMARK SMILES IDX 47 58 34 59 37 60 46 61 60 62 35 63 36 64 45 66 61 67 38 68
REMARK SMILES IDX 27 69 28 70 32 71 29 72 31 73 30 74 49 75 50 76 54 77 51 78
REMARK SMILES IDX 53 79 52 80 39 81 40 82 44 83 41 84 43 85 42 86
REMARK H PARENT 8 8 68 19 15 35 59 54 37 65
REMARK Flexibility Score: inf
ROOT
ATOM      1  C   UNL     1      -0.469  -9.435   1.021  1.00  0.00     0.002 C 
ENDROOT
BRANCH   1   2
ATOM      2  C   UNL     1      -1.444  -8.256   0.913  1.00  0.00     0.002 C 
BRANCH   2   3
ATOM      3  C   UNL     1      -0.819  -6.872   1.161  1.00  0.00     0.021 C 
BRANCH   3   4
ATOM      4  C   UNL     1       0.263  -6.503   0.139  1.00  0.00     0.116 C 
BRANCH   4   5
ATOM      5  N   UNL     1      -0.368  -6.232  -1.135  1.00  0.00    -0.352 N 
ATOM      6  C   UNL     1      -0.919  -5.114  -1.706  1.00  0.00     0.251 C 
ATOM      7  O   UNL     1      -1.711  -5.357  -2.616  1.00  0.00    -0.269 OA
ATOM      8  H   UNL     1      -0.411  -7.023  -1.719  1.00  0.00     0.163 HD
BRANCH   6   9
ATOM      9  C   UNL     1      -0.576  -3.697  -1.320  1.00  0.00     0.045 A 
ATOM     10  C   UNL     1       0.736   0.269  -0.160  1.00  0.00     0.046 C 
ATOM     11  C   UNL     1       0.164  -1.057  -0.594  1.00  0.00    -0.028 A 
ATOM     12  C   UNL     1       0.163  -2.091   0.347  1.00  0.00     0.006 A 
ATOM     13  C   UNL     1      -0.290  -1.312  -1.906  1.00  0.00     0.042 A 
ATOM     14  C   UNL     1      -0.249  -3.375  -0.001  1.00  0.00     0.014 A 
ATOM     15  C   UNL     1      -0.625  -2.640  -2.282  1.00  0.00    -0.005 A 
ATOM     16  N   UNL     1      -0.382  -0.271  -2.816  1.00  0.00    -0.377 N 
ATOM     17  C   UNL     1      -1.114  -2.889  -3.694  1.00  0.00     0.050 C 
ATOM     18  C   UNL     1      -0.510  -0.483  -4.249  1.00  0.00     0.117 C 
ATOM     19  H   UNL     1      -0.359   0.653  -2.477  1.00  0.00     0.161 HD
ATOM     20  C   UNL     1      -1.477  -1.643  -4.521  1.00  0.00     0.031 C 
ATOM     21  C   UNL     1      -0.150  -3.595  -4.612  1.00  0.00    -0.023 C 
ATOM     22  C   UNL     1      -1.367  -2.138  -5.976  1.00  0.00     0.034 C 
ATOM     23  C   UNL     1      -0.311  -3.194  -5.879  1.00  0.00    -0.030 C 
BRANCH  18  24
ATOM     24  C   UNL     1      -0.844   0.855  -4.907  1.00  0.00     0.010 A 
ATOM     25  C   UNL     1       0.156   1.848  -4.944  1.00  0.00     0.009 A 
ATOM     26  C   UNL     1      -2.081   1.173  -5.484  1.00  0.00     0.128 A 
ATOM     27  C   UNL     1      -0.076   3.092  -5.541  1.00  0.00     0.001 A 
ATOM     28  C   UNL     1      -2.316   2.409  -6.084  1.00  0.00     0.039 A 
ATOM     29  F   UNL     1      -3.092   0.295  -5.501  1.00  0.00    -0.207 F 
ATOM     30  C   UNL     1      -1.313   3.372  -6.115  1.00  0.00     0.003 A 
ENDBRANCH  18  24
ENDBRANCH   6   9
ENDBRANCH   4   5
ENDBRANCH   3   4
ENDBRANCH   2   3
ENDBRANCH   1   2
BRANCH   1  31
ATOM     31  C   UNL     1       0.359  -9.460   2.307  1.00  0.00     0.021 C 
BRANCH  31  32
ATOM     32  C   UNL     1      -0.482  -9.532   3.576  1.00  0.00     0.116 C 
BRANCH  32  33
ATOM     33  N   UNL     1      -1.087 -10.844   3.734  1.00  0.00    -0.352 N 
ATOM     34  C   UNL     1      -0.873 -11.759   4.736  1.00  0.00     0.251 C 
ATOM     35  H   UNL     1      -1.730 -11.109   3.037  1.00  0.00     0.163 HD
ATOM     36  O   UNL     1      -1.261 -12.912   4.638  1.00  0.00    -0.269 OA
BRANCH  34  37
ATOM     37  C   UNL     1      -0.149 -11.317   5.943  1.00  0.00     0.039 A 
ATOM     38  C   UNL     1       0.983 -12.021   6.355  1.00  0.00     0.014 A 
ATOM     39  C   UNL     1      -0.592 -10.191   6.647  1.00  0.00     0.014 A 
ATOM     40  C   UNL     1       1.698 -11.573   7.465  1.00  0.00     0.010 A 
ATOM     41  C   UNL     1       0.150  -9.718   7.722  1.00  0.00     0.010 A 
ATOM     42  C   UNL     1       1.292 -10.414   8.148  1.00  0.00    -0.014 A 
BRANCH  42  43
ATOM     43  C   UNL     1       2.019  -9.953   9.351  1.00  0.00     0.031 A 
ATOM     44  C   UNL     1       1.381 -10.105  10.701  1.00  0.00     0.074 A 
ATOM     45  C   UNL     1       3.235  -9.389   9.230  1.00  0.00     0.049 A 
ATOM     46  N   UNL     1       1.851  -9.768  11.874  1.00  0.00    -0.248 NA
ATOM     47  C   UNL     1       0.035 -10.703  10.740  1.00  0.00     0.031 C 
ATOM     48  C   UNL     1       3.948  -9.173   7.969  1.00  0.00     0.029 A 
ATOM     49  N   UNL     1       4.090  -8.902  10.186  1.00  0.00    -0.354 N 
ATOM     50  C   UNL     1       0.863 -10.114  12.785  1.00  0.00     0.074 A 
ATOM     51  C   UNL     1      -0.252 -10.641  12.031  1.00  0.00     0.031 C 
ATOM     52  C   UNL     1       5.147  -8.628   8.234  1.00  0.00     0.029 A 
ATOM     53  C   UNL     1       5.276  -8.434   9.676  1.00  0.00     0.049 A 
ATOM     54  H   UNL     1       3.873  -8.888  11.146  1.00  0.00     0.167 HD
ATOM     55  C   UNL     1       0.894 -10.027  14.134  1.00  0.00     0.031 A 
ATOM     56  C   UNL     1       6.350  -7.919  10.303  1.00  0.00     0.031 A 
ATOM     57  C   UNL     1       2.007  -9.524  14.886  1.00  0.00     0.049 A 
ATOM     58  C   UNL     1       6.347  -7.802  11.801  1.00  0.00     0.074 A 
ATOM     59  C   UNL     1       2.144  -9.436  16.260  1.00  0.00     0.029 A 
ATOM     60  N   UNL     1       3.175  -9.031  14.328  1.00  0.00    -0.354 N 
ATOM     61  N   UNL     1       5.419  -8.167  12.651  1.00  0.00    -0.248 NA
ATOM     62  C   UNL     1       7.538  -7.208  12.426  1.00  0.00     0.031 C 
ATOM     63  C   UNL     1       3.386  -8.857  16.534  1.00  0.00     0.029 A 
ATOM     64  C   UNL     1       4.033  -8.620  15.331  1.00  0.00     0.049 A 
ATOM     65  H   UNL     1       3.364  -8.980  13.364  1.00  0.00     0.167 HD
ATOM     66  C   UNL     1       5.919  -7.865  13.910  1.00  0.00     0.074 A 
ATOM     67  C   UNL     1       7.234  -7.291  13.716  1.00  0.00     0.031 C 
ATOM     68  C   UNL     1       5.337  -8.052  15.118  1.00  0.00     0.031 A 
BRANCH  55  69
ATOM     69  C   UNL     1      -0.307 -10.510  14.889  1.00  0.00    -0.014 A 
ATOM     70  C   UNL     1      -0.541 -11.883  15.056  1.00  0.00     0.009 A 
ATOM     71  C   UNL     1      -1.171  -9.588  15.499  1.00  0.00     0.009 A 
ATOM     72  C   UNL     1      -1.628 -12.326  15.811  1.00  0.00     0.001 A 
ATOM     73  C   UNL     1      -2.246 -10.034  16.269  1.00  0.00     0.001 A 
ATOM     74  C   UNL     1      -2.475 -11.402  16.422  1.00  0.00     0.000 A 
ENDBRANCH  55  69
BRANCH  56  75
ATOM     75  C   UNL     1       7.536  -7.512   9.509  1.00  0.00    -0.014 A 
ATOM     76  C   UNL     1       8.678  -8.326   9.481  1.00  0.00     0.009 A 
ATOM     77  C   UNL     1       7.521  -6.333   8.749  1.00  0.00     0.009 A 
ATOM     78  C   UNL     1       9.786  -7.964   8.712  1.00  0.00     0.001 A 
ATOM     79  C   UNL     1       8.624  -5.982   7.967  1.00  0.00     0.001 A 
ATOM     80  C   UNL     1       9.756  -6.795   7.952  1.00  0.00     0.000 A 
ENDBRANCH  56  75
BRANCH  68  81
ATOM     81  C   UNL     1       6.106  -7.647  16.340  1.00  0.00    -0.014 A 
ATOM     82  C   UNL     1       6.144  -6.306  16.747  1.00  0.00     0.009 A 
ATOM     83  C   UNL     1       6.677  -8.632  17.161  1.00  0.00     0.009 A 
ATOM     84  C   UNL     1       6.741  -5.958  17.959  1.00  0.00     0.001 A 
ATOM     85  C   UNL     1       7.257  -8.282  18.380  1.00  0.00     0.001 A 
ATOM     86  C   UNL     1       7.288  -6.946  18.779  1.00  0.00     0.000 A 
ENDBRANCH  68  81
ENDBRANCH  42  43
ENDBRANCH  34  37
ENDBRANCH  32  33
ENDBRANCH  31  32
ENDBRANCH   1  31
TORSDOF 14
