REMARK SMILES O=C(C[C@@H]1CN(c2nc3ccccc3s2)CCO1)NCCCCCCNC(=O)c1ccc(-c2c3nc(c(-c4ccccc4)c4ccc([nH]4)c(-c4ccccc4)c4nc(c(-c5ccccc5)c5ccc2[nH]5)C=C4)C=C3)cc1
REMARK SMILES IDX 22 1 21 2 20 3 19 4 1 5 2 6 3 8 4 9 5 10 18 11 6 12 17 13
REMARK SMILES IDX 16 14 7 15 8 16 15 17 9 18 14 19 10 20 13 21 11 22 12 23
REMARK SMILES IDX 23 24 24 25 25 26 26 27 27 28 28 30 29 31 30 32 76 33 31 34
REMARK SMILES IDX 75 35 32 36 33 37 34 38 69 39 35 40 74 41 68 42 70 43 36 44
REMARK SMILES IDX 73 45 67 46 66 47 37 49 59 50 44 51 58 52 45 53 48 54 57 55
REMARK SMILES IDX 71 56 46 57 47 58 56 60 72 61 49 62 38 63 39 64 43 65 40 66
REMARK SMILES IDX 42 67 41 68 60 69 61 70 65 71 62 72 64 73 63 74 50 75 51 76
REMARK SMILES IDX 55 77 52 78 54 79 53 80
REMARK H PARENT 19 7 26 29 70 48 48 59
REMARK Flexibility Score: inf
ROOT
ATOM      1  C   UNL     1       4.240  -3.495   1.188  1.00  0.00     0.002 C 
ENDROOT
BRANCH   1   2
ATOM      2  C   UNL     1       2.736  -3.365   0.904  1.00  0.00     0.021 C 
BRANCH   2   3
ATOM      3  C   UNL     1       2.155  -1.971   1.131  1.00  0.00     0.116 C 
BRANCH   3   4
ATOM      4  N   UNL     1       2.770  -0.986   0.266  1.00  0.00    -0.356 N 
ATOM      5  O   UNL     1       0.980   0.453   0.205  1.00  0.00    -0.275 OA
ATOM      6  C   UNL     1       2.140   0.189  -0.086  1.00  0.00     0.222 C 
ATOM      7  H   UNL     1       3.672  -1.163  -0.085  1.00  0.00     0.163 HD
BRANCH   6   8
ATOM      8  C   UNL     1       3.054   1.155  -0.812  1.00  0.00     0.133 C 
BRANCH   8   9
ATOM      9  C   UNL     1       3.875   2.042   0.133  1.00  0.00     0.147 C 
ATOM     10  C   UNL     1       4.159   1.424   1.521  1.00  0.00     0.151 C 
ATOM     11  O   UNL     1       3.214   3.321   0.278  1.00  0.00    -0.374 OA
ATOM     12  N   UNL     1       4.944   2.372   2.308  1.00  0.00    -0.343 N 
ATOM     13  C   UNL     1       4.016   4.230   1.060  1.00  0.00     0.182 C 
ATOM     14  C   UNL     1       4.307   3.675   2.468  1.00  0.00     0.147 C 
BRANCH  12  15
ATOM     15  C   UNL     1       5.859   1.927   3.201  1.00  0.00     0.186 A 
ATOM     16  N   UNL     1       5.832   2.166   4.491  1.00  0.00    -0.220 NA
ATOM     17  S   UNL     1       7.231   1.026   2.659  1.00  0.00    -0.097 S 
ATOM     18  C   UNL     1       6.920   1.575   5.115  1.00  0.00     0.084 A 
ATOM     19  C   UNL     1       7.826   0.944   4.263  1.00  0.00     0.056 A 
ATOM     20  C   UNL     1       7.185   1.567   6.500  1.00  0.00     0.030 A 
ATOM     21  C   UNL     1       9.009   0.350   4.732  1.00  0.00     0.021 A 
ATOM     22  C   UNL     1       8.351   0.959   6.983  1.00  0.00     0.002 A 
ATOM     23  C   UNL     1       9.256   0.370   6.106  1.00  0.00     0.002 A 
ENDBRANCH  12  15
ENDBRANCH   8   9
ENDBRANCH   6   8
ENDBRANCH   3   4
ENDBRANCH   2   3
ENDBRANCH   1   2
BRANCH   1  24
ATOM     24  C   UNL     1       4.665  -3.223   2.634  1.00  0.00     0.002 C 
BRANCH  24  25
ATOM     25  C   UNL     1       4.010  -4.120   3.686  1.00  0.00     0.021 C 
BRANCH  25  26
ATOM     26  C   UNL     1       4.165  -5.618   3.446  1.00  0.00     0.116 C 
BRANCH  26  27
ATOM     27  N   UNL     1       5.551  -6.057   3.492  1.00  0.00    -0.352 N 
ATOM     28  C   UNL     1       6.088  -7.153   4.120  1.00  0.00     0.251 C 
ATOM     29  H   UNL     1       6.192  -5.490   3.005  1.00  0.00     0.163 HD
ATOM     30  O   UNL     1       7.309  -7.297   4.177  1.00  0.00    -0.269 OA
BRANCH  28  31
ATOM     31  C   UNL     1       5.201  -8.152   4.753  1.00  0.00     0.039 A 
ATOM     32  C   UNL     1       5.523  -8.634   6.024  1.00  0.00     0.014 A 
ATOM     33  C   UNL     1       4.061  -8.622   4.095  1.00  0.00     0.014 A 
ATOM     34  C   UNL     1       4.677  -9.549   6.656  1.00  0.00     0.010 A 
ATOM     35  C   UNL     1       3.180  -9.475   4.755  1.00  0.00     0.010 A 
ATOM     36  C   UNL     1       3.484  -9.958   6.037  1.00  0.00    -0.014 A 
BRANCH  36  37
ATOM     37  C   UNL     1       2.562 -10.918   6.699  1.00  0.00     0.031 A 
ATOM     38  C   UNL     1       2.314 -12.268   6.080  1.00  0.00     0.074 A 
ATOM     39  C   UNL     1       1.916 -10.565   7.827  1.00  0.00     0.049 A 
ATOM     40  N   UNL     1       1.499 -13.217   6.467  1.00  0.00    -0.248 NA
ATOM     41  C   UNL     1       3.065 -12.586   4.854  1.00  0.00     0.031 C 
ATOM     42  C   UNL     1       2.042  -9.277   8.514  1.00  0.00     0.029 A 
ATOM     43  N   UNL     1       1.015 -11.262   8.595  1.00  0.00    -0.354 N 
ATOM     44  C   UNL     1       1.634 -14.235   5.531  1.00  0.00     0.074 A 
ATOM     45  C   UNL     1       2.561 -13.766   4.525  1.00  0.00     0.031 C 
ATOM     46  C   UNL     1       1.264  -9.285   9.609  1.00  0.00     0.029 A 
ATOM     47  C   UNL     1       0.556 -10.558   9.683  1.00  0.00     0.049 A 
ATOM     48  H   UNL     1       0.725 -12.179   8.385  1.00  0.00     0.167 HD
ATOM     49  C   UNL     1       1.061 -15.462   5.520  1.00  0.00     0.031 A 
ATOM     50  C   UNL     1      -0.342 -10.898  10.628  1.00  0.00     0.031 A 
ATOM     51  C   UNL     1       0.144 -15.937   6.521  1.00  0.00     0.049 A 
ATOM     52  C   UNL     1      -0.982 -12.260  10.578  1.00  0.00     0.074 A 
ATOM     53  C   UNL     1      -0.475 -17.172   6.607  1.00  0.00     0.029 A 
ATOM     54  N   UNL     1      -0.278 -15.199   7.615  1.00  0.00    -0.354 N 
ATOM     55  N   UNL     1      -0.806 -13.226   9.710  1.00  0.00    -0.248 NA
ATOM     56  C   UNL     1      -1.930 -12.584  11.653  1.00  0.00     0.031 C 
ATOM     57  C   UNL     1      -1.303 -17.168   7.733  1.00  0.00     0.029 A 
ATOM     58  C   UNL     1      -1.153 -15.951   8.379  1.00  0.00     0.049 A 
ATOM     59  H   UNL     1       0.002 -14.277   7.818  1.00  0.00     0.167 HD
ATOM     60  C   UNL     1      -1.589 -14.284  10.157  1.00  0.00     0.074 A 
ATOM     61  C   UNL     1      -2.226 -13.846  11.381  1.00  0.00     0.031 C 
ATOM     62  C   UNL     1      -1.763 -15.509   9.605  1.00  0.00     0.031 A 
BRANCH  49  63
ATOM     63  C   UNL     1       1.425 -16.388   4.392  1.00  0.00    -0.014 A 
ATOM     64  C   UNL     1       2.706 -16.956   4.310  1.00  0.00     0.009 A 
ATOM     65  C   UNL     1       0.465 -16.737   3.430  1.00  0.00     0.009 A 
ATOM     66  C   UNL     1       3.028 -17.832   3.271  1.00  0.00     0.001 A 
ATOM     67  C   UNL     1       0.780 -17.637   2.410  1.00  0.00     0.001 A 
ATOM     68  C   UNL     1       2.062 -18.177   2.327  1.00  0.00     0.000 A 
ENDBRANCH  49  63
BRANCH  50  69
ATOM     69  C   UNL     1      -0.697  -9.942  11.711  1.00  0.00    -0.014 A 
ATOM     70  C   UNL     1      -0.345 -10.206  13.044  1.00  0.00     0.009 A 
ATOM     71  C   UNL     1      -1.433  -8.782  11.424  1.00  0.00     0.009 A 
ATOM     72  C   UNL     1      -0.763  -9.355  14.070  1.00  0.00     0.001 A 
ATOM     73  C   UNL     1      -1.820  -7.915  12.448  1.00  0.00     0.001 A 
ATOM     74  C   UNL     1      -1.499  -8.210  13.771  1.00  0.00     0.000 A 
ENDBRANCH  50  69
BRANCH  62  75
ATOM     75  C   UNL     1      -2.624 -16.487  10.355  1.00  0.00    -0.014 A 
ATOM     76  C   UNL     1      -4.015 -16.328  10.443  1.00  0.00     0.009 A 
ATOM     77  C   UNL     1      -2.028 -17.608  10.956  1.00  0.00     0.009 A 
ATOM     78  C   UNL     1      -4.787 -17.250  11.153  1.00  0.00     0.001 A 
ATOM     79  C   UNL     1      -2.806 -18.545  11.636  1.00  0.00     0.001 A 
ATOM     80  C   UNL     1      -4.183 -18.360  11.744  1.00  0.00     0.000 A 
ENDBRANCH  62  75
ENDBRANCH  36  37
ENDBRANCH  28  31
ENDBRANCH  26  27
ENDBRANCH  25  26
ENDBRANCH  24  25
ENDBRANCH   1  24
TORSDOF 15
