REMARK SMILES Cc1ccc(S(=O)(=O)n2cc(C(=O)C(=O)N[C@@H](Cc3c[nH]c4ccccc34)C(=O)NCCCCCCNC(=O)c3ccc(-c4c5nc(c(-c6ccccc6)c6ccc([nH]6)c(-c6ccccc6)c6nc(c(-c7ccccc7)c7ccc4[nH]7)C=C6)C=C5)cc3)c3ccccc32)cc1
REMARK SMILES IDX 32 1 31 2 30 3 28 4 29 5 17 7 16 8 14 9 15 10 12 12 13 13
REMARK SMILES IDX 11 14 9 15 10 16 93 17 88 18 92 19 89 20 91 21 90 22 6 23
REMARK SMILES IDX 7 24 8 25 5 26 1 27 2 28 3 29 95 30 4 31 94 32 18 33 19 34
REMARK SMILES IDX 20 35 27 36 21 37 22 38 26 39 23 41 25 42 24 43 33 44 34 45
REMARK SMILES IDX 35 46 36 47 37 48 38 49 39 51 40 52 41 53 87 54 42 55 86 56
REMARK SMILES IDX 43 57 44 58 45 59 80 60 46 61 85 62 79 63 81 64 47 65 84 66
REMARK SMILES IDX 78 67 77 68 48 70 70 71 55 72 69 73 56 74 59 75 68 76 82 77
REMARK SMILES IDX 57 78 58 79 67 81 83 82 60 83 49 84 50 85 54 86 51 87 53 88
REMARK SMILES IDX 52 89 71 90 72 91 76 92 73 93 75 94 74 95 61 96 62 97 66 98
REMARK SMILES IDX 63 99 65 100 64 101
REMARK H PARENT 30 6 16 11 21 40 37 50 81 69 59 80
REMARK Flexibility Score: inf
ROOT
ATOM      1  C   UNL     1     -12.260   5.393  -2.493  1.00  0.00     0.021 C 
ENDROOT
BRANCH   1   2
ATOM      2  C   UNL     1     -12.273   4.221  -1.519  1.00  0.00     0.116 C 
BRANCH   2   3
ATOM      3  N   UNL     1     -12.054   2.908  -2.077  1.00  0.00    -0.354 N 
ATOM      4  C   UNL     1     -11.600   1.792  -1.421  1.00  0.00     0.242 C 
ATOM      5  O   UNL     1     -12.063   0.710  -1.803  1.00  0.00    -0.273 OA
ATOM      6  H   UNL     1     -12.252   2.802  -3.035  1.00  0.00     0.163 HD
BRANCH   4   7
ATOM      7  C   UNL     1     -10.675   1.836  -0.164  1.00  0.00     0.176 C 
BRANCH   7   8
ATOM      8  N   UNL     1      -9.535   2.779  -0.210  1.00  0.00    -0.337 N 
ATOM      9  C   UNL     1      -8.188   2.556  -0.476  1.00  0.00     0.293 C 
ATOM     10  O   UNL     1      -7.368   3.455  -0.309  1.00  0.00    -0.265 OA
ATOM     11  H   UNL     1      -9.768   3.717  -0.022  1.00  0.00     0.164 HD
BRANCH   9  12
ATOM     12  C   UNL     1      -7.711   1.202  -1.015  1.00  0.00     0.252 C 
ATOM     13  O   UNL     1      -8.390   0.729  -1.927  1.00  0.00    -0.283 OA
BRANCH  12  14
ATOM     14  C   UNL     1      -6.591   0.442  -0.419  1.00  0.00     0.054 A 
ATOM     15  N   UNL     1      -4.638  -0.297   0.483  1.00  0.00    -0.240 N 
ATOM     16  C   UNL     1      -5.290   0.821  -0.049  1.00  0.00     0.117 A 
ATOM     17  C   UNL     1      -5.602  -1.309   0.636  1.00  0.00     0.065 A 
ATOM     18  C   UNL     1      -6.646  -0.974  -0.222  1.00  0.00     0.012 A 
ATOM     19  C   UNL     1      -5.513  -2.589   1.219  1.00  0.00     0.028 A 
ATOM     20  C   UNL     1      -7.506  -2.002  -0.666  1.00  0.00     0.011 A 
ATOM     21  C   UNL     1      -6.331  -3.598   0.715  1.00  0.00     0.002 A 
ATOM     22  C   UNL     1      -7.287  -3.318  -0.250  1.00  0.00     0.001 A 
BRANCH  15  23
ATOM     23  S   UNL     1      -3.102  -0.956  -0.049  1.00  0.00     0.268 S 
ATOM     24  O   UNL     1      -3.364  -1.330  -1.429  1.00  0.00    -0.201 OA
ATOM     25  O   UNL     1      -2.830  -1.967   0.965  1.00  0.00    -0.201 OA
BRANCH  23  26
ATOM     26  C   UNL     1      -1.562  -0.108  -0.085  1.00  0.00     0.088 A 
ATOM     27  C   UNL     1       2.614   1.016  -0.030  1.00  0.00     0.044 C 
ATOM     28  C   UNL     1       1.153   0.670  -0.088  1.00  0.00    -0.051 A 
ATOM     29  C   UNL     1       0.821  -0.649  -0.360  1.00  0.00     0.005 A 
ATOM     30  C   UNL     1       0.116   1.595   0.170  1.00  0.00     0.005 A 
ATOM     31  C   UNL     1      -0.513  -1.020  -0.369  1.00  0.00     0.022 A 
ATOM     32  C   UNL     1      -1.252   1.214   0.179  1.00  0.00     0.022 A 
ENDBRANCH  23  26
ENDBRANCH  15  23
ENDBRANCH  12  14
ENDBRANCH   9  12
ENDBRANCH   7   8
BRANCH   7  33
ATOM     33  C   UNL     1     -11.475   1.882   1.177  1.00  0.00     0.072 C 
BRANCH  33  34
ATOM     34  C   UNL     1     -12.267   3.124   1.510  1.00  0.00    -0.020 A 
ATOM     35  C   UNL     1     -13.649   3.203   1.584  1.00  0.00     0.087 A 
ATOM     36  C   UNL     1     -11.778   4.442   1.811  1.00  0.00     0.003 A 
ATOM     37  N   UNL     1     -14.004   4.507   1.812  1.00  0.00    -0.361 N 
ATOM     38  C   UNL     1     -12.881   5.299   1.852  1.00  0.00     0.046 A 
ATOM     39  C   UNL     1     -10.496   5.009   1.963  1.00  0.00     0.010 A 
ATOM     40  H   UNL     1     -14.927   4.829   1.931  1.00  0.00     0.166 HD
ATOM     41  C   UNL     1     -12.760   6.693   1.917  1.00  0.00     0.026 A 
ATOM     42  C   UNL     1     -10.354   6.400   1.999  1.00  0.00     0.001 A 
ATOM     43  C   UNL     1     -11.470   7.229   1.953  1.00  0.00     0.002 A 
ENDBRANCH  33  34
ENDBRANCH   7  33
ENDBRANCH   4   7
ENDBRANCH   2   3
ENDBRANCH   1   2
BRANCH   1  44
ATOM     44  C   UNL     1     -13.451   5.553  -3.446  1.00  0.00     0.002 C 
BRANCH  44  45
ATOM     45  C   UNL     1     -14.876   5.481  -2.873  1.00  0.00     0.002 C 
BRANCH  45  46
ATOM     46  C   UNL     1     -15.172   6.249  -1.585  1.00  0.00     0.021 C 
BRANCH  46  47
ATOM     47  C   UNL     1     -15.028   7.762  -1.660  1.00  0.00     0.116 C 
BRANCH  47  48
ATOM     48  N   UNL     1     -16.249   8.475  -2.016  1.00  0.00    -0.352 N 
ATOM     49  C   UNL     1     -16.448   9.840  -2.188  1.00  0.00     0.251 C 
ATOM     50  H   UNL     1     -17.044   7.911  -2.153  1.00  0.00     0.163 HD
ATOM     51  O   UNL     1     -17.544  10.275  -2.479  1.00  0.00    -0.269 OA
BRANCH  49  52
ATOM     52  C   UNL     1     -15.270  10.746  -2.151  1.00  0.00     0.039 A 
ATOM     53  C   UNL     1     -15.101  11.629  -3.223  1.00  0.00     0.014 A 
ATOM     54  C   UNL     1     -14.247  10.560  -1.226  1.00  0.00     0.014 A 
ATOM     55  C   UNL     1     -13.825  12.097  -3.521  1.00  0.00     0.010 A 
ATOM     56  C   UNL     1     -12.965  10.934  -1.575  1.00  0.00     0.010 A 
ATOM     57  C   UNL     1     -12.748  11.634  -2.764  1.00  0.00    -0.014 A 
BRANCH  57  58
ATOM     58  C   UNL     1     -11.369  11.709  -3.223  1.00  0.00     0.031 A 
ATOM     59  C   UNL     1     -10.432  12.690  -2.645  1.00  0.00     0.074 A 
ATOM     60  C   UNL     1     -10.927  10.869  -4.185  1.00  0.00     0.049 A 
ATOM     61  N   UNL     1      -9.418  13.174  -3.280  1.00  0.00    -0.248 NA
ATOM     62  C   UNL     1     -10.598  13.246  -1.308  1.00  0.00     0.031 C 
ATOM     63  C   UNL     1      -9.545  10.627  -4.592  1.00  0.00     0.029 A 
ATOM     64  N   UNL     1     -11.658  10.185  -5.135  1.00  0.00    -0.354 N 
ATOM     65  C   UNL     1      -8.640  13.834  -2.361  1.00  0.00     0.074 A 
ATOM     66  C   UNL     1      -9.463  13.940  -1.177  1.00  0.00     0.031 C 
ATOM     67  C   UNL     1      -9.541  10.081  -5.820  1.00  0.00     0.029 A 
ATOM     68  C   UNL     1     -10.910  10.093  -6.306  1.00  0.00     0.049 A 
ATOM     69  H   UNL     1     -12.564   9.820  -5.006  1.00  0.00     0.167 HD
ATOM     70  C   UNL     1      -7.330  14.079  -2.643  1.00  0.00     0.031 A 
ATOM     71  C   UNL     1     -11.313  10.672  -7.476  1.00  0.00     0.031 A 
ATOM     72  C   UNL     1      -6.958  13.629  -3.984  1.00  0.00     0.049 A 
ATOM     73  C   UNL     1     -10.348  11.712  -8.013  1.00  0.00     0.074 A 
ATOM     74  C   UNL     1      -6.265  12.524  -4.453  1.00  0.00     0.029 A 
ATOM     75  N   UNL     1      -7.554  14.214  -5.094  1.00  0.00    -0.354 N 
ATOM     76  N   UNL     1      -9.392  12.260  -7.316  1.00  0.00    -0.248 NA
ATOM     77  C   UNL     1     -10.427  12.260  -9.364  1.00  0.00     0.031 C 
ATOM     78  C   UNL     1      -6.456  12.443  -5.857  1.00  0.00     0.029 A 
ATOM     79  C   UNL     1      -7.252  13.507  -6.241  1.00  0.00     0.049 A 
ATOM     80  H   UNL     1      -8.115  15.023  -5.066  1.00  0.00     0.167 HD
ATOM     81  C   UNL     1      -8.751  13.214  -8.068  1.00  0.00     0.074 A 
ATOM     82  C   UNL     1      -9.429  13.163  -9.350  1.00  0.00     0.031 C 
ATOM     83  C   UNL     1      -7.738  13.968  -7.539  1.00  0.00     0.031 A 
BRANCH  70  84
ATOM     84  C   UNL     1      -6.318  14.452  -1.585  1.00  0.00    -0.014 A 
ATOM     85  C   UNL     1      -4.971  14.074  -1.745  1.00  0.00     0.009 A 
ATOM     86  C   UNL     1      -6.629  15.125  -0.392  1.00  0.00     0.009 A 
ATOM     87  C   UNL     1      -4.022  14.255  -0.731  1.00  0.00     0.001 A 
ATOM     88  C   UNL     1      -5.696  15.273   0.644  1.00  0.00     0.001 A 
ATOM     89  C   UNL     1      -4.393  14.825   0.479  1.00  0.00     0.000 A 
ENDBRANCH  70  84
BRANCH  71  90
ATOM     90  C   UNL     1     -12.791  10.748  -7.635  1.00  0.00    -0.014 A 
ATOM     91  C   UNL     1     -13.512   9.547  -7.779  1.00  0.00     0.009 A 
ATOM     92  C   UNL     1     -13.491  11.913  -7.287  1.00  0.00     0.009 A 
ATOM     93  C   UNL     1     -14.872   9.487  -7.465  1.00  0.00     0.001 A 
ATOM     94  C   UNL     1     -14.857  11.850  -6.986  1.00  0.00     0.001 A 
ATOM     95  C   UNL     1     -15.537  10.633  -7.039  1.00  0.00     0.000 A 
ENDBRANCH  71  90
BRANCH  83  96
ATOM     96  C   UNL     1      -7.053  15.179  -8.150  1.00  0.00    -0.014 A 
ATOM     97  C   UNL     1      -7.407  15.799  -9.353  1.00  0.00     0.009 A 
ATOM     98  C   UNL     1      -6.003  15.801  -7.426  1.00  0.00     0.009 A 
ATOM     99  C   UNL     1      -6.753  16.957  -9.808  1.00  0.00     0.001 A 
ATOM    100  C   UNL     1      -5.373  16.972  -7.854  1.00  0.00     0.001 A 
ATOM    101  C   UNL     1      -5.747  17.550  -9.055  1.00  0.00     0.000 A 
ENDBRANCH  83  96
ENDBRANCH  57  58
ENDBRANCH  49  52
ENDBRANCH  47  48
ENDBRANCH  46  47
ENDBRANCH  45  46
ENDBRANCH  44  45
ENDBRANCH   1  44
TORSDOF 20
