REMARK SMILES CC1(C)S[C@@H](c2cccc3c2sc2ccccc23)[NH2+][C@@H]1C(=O)NCCCCCCNC(=O)c1ccc(-c2c3nc(c(-c4ccccc4)c4ccc([nH]4)c(-c4ccccc4)c4nc(c(-c5ccccc5)c5ccc2[nH]5)C=C4)C=C3)cc1
REMARK SMILES IDX 27 1 26 2 25 3 24 4 23 5 21 6 22 7 20 9 1 10 2 11 3 12 4 13
REMARK SMILES IDX 5 14 19 15 6 18 7 19 11 20 8 21 10 22 12 23 9 24 18 25 13 26
REMARK SMILES IDX 17 27 14 28 16 29 15 30 28 31 29 32 30 33 31 34 32 36 33 37
REMARK SMILES IDX 34 38 80 39 35 40 79 41 36 42 37 43 38 44 73 45 39 46 78 47
REMARK SMILES IDX 72 48 74 49 40 50 77 51 71 52 70 53 41 55 63 56 48 57 62 58
REMARK SMILES IDX 49 59 52 60 61 61 75 62 50 63 51 64 60 66 76 67 53 68 42 69
REMARK SMILES IDX 43 70 47 71 44 72 46 73 45 74 64 75 65 76 69 77 66 78 68 79
REMARK SMILES IDX 67 80 54 81 55 82 59 83 56 84 58 85 57 86
REMARK H PARENT 23 8 19 16 19 17 30 35 74 54 52 65
REMARK Flexibility Score: inf
ROOT
ATOM      1  C   UNL     1      -4.389   2.135  -4.472  1.00  0.00     0.002 C 
ENDROOT
BRANCH   1   2
ATOM      2  C   UNL     1      -3.353   3.246  -4.282  1.00  0.00     0.002 C 
BRANCH   2   3
ATOM      3  C   UNL     1      -2.962   3.565  -2.835  1.00  0.00     0.021 C 
BRANCH   3   4
ATOM      4  C   UNL     1      -2.457   2.392  -1.997  1.00  0.00     0.116 C 
BRANCH   4   5
ATOM      5  N   UNL     1      -1.326   1.723  -2.607  1.00  0.00    -0.351 N 
ATOM      6  C   UNL     1      -0.249   1.103  -2.042  1.00  0.00     0.279 C 
ATOM      7  O   UNL     1       0.548   0.605  -2.840  1.00  0.00    -0.268 OA
ATOM      8  H   UNL     1      -1.335   1.714  -3.591  1.00  0.00     0.163 HD
BRANCH   6   9
ATOM      9  C   UNL     1       0.007   1.155  -0.506  1.00  0.00     0.289 C 
ATOM     10  C   UNL     1       1.579   0.623   1.433  1.00  0.00     0.030 C 
ATOM     11  C   UNL     1       1.029   0.133   0.076  1.00  0.00     0.077 C 
ATOM     12  C   UNL     1       2.223  -0.246  -0.801  1.00  0.00     0.030 C 
ATOM     13  S   UNL     1       0.006  -1.351   0.410  1.00  0.00    -0.081 SA
ATOM     14  C   UNL     1      -1.568  -0.459   0.257  1.00  0.00     0.276 C 
ATOM     15  N   UNL     1      -1.260   0.976   0.265  1.00  0.00    -0.320 N 
ATOM     16  H   UNL     1      -1.136   1.302   1.223  1.00  0.00     0.348 HD
ATOM     17  H   UNL     1      -2.019   1.514  -0.153  1.00  0.00     0.348 HD
BRANCH  14  18
ATOM     18  C   UNL     1      -2.577  -0.804   1.340  1.00  0.00     0.038 A 
ATOM     19  C   UNL     1      -2.214  -0.722   2.707  1.00  0.00     0.012 A 
ATOM     20  C   UNL     1      -3.925  -1.179   1.063  1.00  0.00     0.046 A 
ATOM     21  C   UNL     1      -3.105  -1.010   3.728  1.00  0.00     0.001 A 
ATOM     22  C   UNL     1      -4.840  -1.490   2.076  1.00  0.00     0.001 A 
ATOM     23  S   UNL     1      -4.681  -1.313  -0.483  1.00  0.00    -0.135 S 
ATOM     24  C   UNL     1      -4.404  -1.398   3.422  1.00  0.00     0.010 A 
ATOM     25  C   UNL     1      -6.138  -1.882   1.554  1.00  0.00     0.000 A 
ATOM     26  C   UNL     1      -6.180  -1.823   0.164  1.00  0.00     0.036 A 
ATOM     27  C   UNL     1      -7.314  -2.300   2.234  1.00  0.00     0.010 A 
ATOM     28  C   UNL     1      -7.344  -2.158  -0.557  1.00  0.00     0.019 A 
ATOM     29  C   UNL     1      -8.468  -2.642   1.525  1.00  0.00     0.001 A 
ATOM     30  C   UNL     1      -8.482  -2.569   0.140  1.00  0.00     0.002 A 
ENDBRANCH  14  18
ENDBRANCH   6   9
ENDBRANCH   4   5
ENDBRANCH   3   4
ENDBRANCH   2   3
ENDBRANCH   1   2
BRANCH   1  31
ATOM     31  C   UNL     1      -5.710   2.315  -3.721  1.00  0.00     0.021 C 
BRANCH  31  32
ATOM     32  C   UNL     1      -6.410   3.655  -3.922  1.00  0.00     0.116 C 
BRANCH  32  33
ATOM     33  N   UNL     1      -6.743   3.925  -5.309  1.00  0.00    -0.352 N 
ATOM     34  C   UNL     1      -7.874   4.488  -5.840  1.00  0.00     0.251 C 
ATOM     35  H   UNL     1      -6.056   3.664  -5.965  1.00  0.00     0.163 HD
ATOM     36  O   UNL     1      -8.016   4.536  -7.062  1.00  0.00    -0.269 OA
BRANCH  34  37
ATOM     37  C   UNL     1      -8.943   5.017  -4.963  1.00  0.00     0.039 A 
ATOM     38  C   UNL     1     -10.274   4.773  -5.316  1.00  0.00     0.014 A 
ATOM     39  C   UNL     1      -8.655   5.784  -3.830  1.00  0.00     0.014 A 
ATOM     40  C   UNL     1     -11.310   5.265  -4.520  1.00  0.00     0.010 A 
ATOM     41  C   UNL     1      -9.688   6.220  -3.000  1.00  0.00     0.010 A 
ATOM     42  C   UNL     1     -11.026   5.981  -3.346  1.00  0.00    -0.014 A 
BRANCH  42  43
ATOM     43  C   UNL     1     -12.124   6.512  -2.500  1.00  0.00     0.031 A 
ATOM     44  C   UNL     1     -12.338   7.996  -2.378  1.00  0.00     0.074 A 
ATOM     45  C   UNL     1     -12.919   5.662  -1.822  1.00  0.00     0.049 A 
ATOM     46  N   UNL     1     -13.251   8.646  -1.701  1.00  0.00    -0.248 NA
ATOM     47  C   UNL     1     -11.389   8.865  -3.092  1.00  0.00     0.031 C 
ATOM     48  C   UNL     1     -12.793   4.203  -1.819  1.00  0.00     0.029 A 
ATOM     49  N   UNL     1     -13.996   5.905  -1.008  1.00  0.00    -0.354 N 
ATOM     50  C   UNL     1     -12.977   9.995  -1.895  1.00  0.00     0.074 A 
ATOM     51  C   UNL     1     -11.786  10.070  -2.712  1.00  0.00     0.031 C 
ATOM     52  C   UNL     1     -13.775   3.680  -1.066  1.00  0.00     0.029 A 
ATOM     53  C   UNL     1     -14.582   4.765  -0.516  1.00  0.00     0.049 A 
ATOM     54  H   UNL     1     -14.317   6.811  -0.795  1.00  0.00     0.167 HD
ATOM     55  C   UNL     1     -13.665  11.075  -1.454  1.00  0.00     0.031 A 
ATOM     56  C   UNL     1     -15.657   4.609   0.280  1.00  0.00     0.031 A 
ATOM     57  C   UNL     1     -14.861  11.005  -0.657  1.00  0.00     0.049 A 
ATOM     58  C   UNL     1     -16.414   5.822   0.743  1.00  0.00     0.074 A 
ATOM     59  C   UNL     1     -15.661  12.042  -0.208  1.00  0.00     0.029 A 
ATOM     60  N   UNL     1     -15.428   9.831  -0.190  1.00  0.00    -0.354 N 
ATOM     61  N   UNL     1     -16.181   7.087   0.492  1.00  0.00    -0.248 NA
ATOM     62  C   UNL     1     -17.593   5.580   1.585  1.00  0.00     0.031 C 
ATOM     63  C   UNL     1     -16.693  11.495   0.563  1.00  0.00     0.029 A 
ATOM     64  C   UNL     1     -16.559  10.116   0.556  1.00  0.00     0.049 A 
ATOM     65  H   UNL     1     -15.079   8.927  -0.363  1.00  0.00     0.167 HD
ATOM     66  C   UNL     1     -17.197   7.791   1.126  1.00  0.00     0.074 A 
ATOM     67  C   UNL     1     -18.057   6.810   1.756  1.00  0.00     0.031 C 
ATOM     68  C   UNL     1     -17.399   9.130   1.182  1.00  0.00     0.031 A 
BRANCH  55  69
ATOM     69  C   UNL     1     -13.132  12.429  -1.827  1.00  0.00    -0.014 A 
ATOM     70  C   UNL     1     -13.213  12.903  -3.147  1.00  0.00     0.009 A 
ATOM     71  C   UNL     1     -12.560  13.252  -0.844  1.00  0.00     0.009 A 
ATOM     72  C   UNL     1     -12.697  14.156  -3.482  1.00  0.00     0.001 A 
ATOM     73  C   UNL     1     -12.069  14.516  -1.177  1.00  0.00     0.001 A 
ATOM     74  C   UNL     1     -12.128  14.963  -2.496  1.00  0.00     0.000 A 
ENDBRANCH  55  69
BRANCH  56  75
ATOM     75  C   UNL     1     -16.106   3.247   0.664  1.00  0.00    -0.014 A 
ATOM     76  C   UNL     1     -17.273   2.701   0.110  1.00  0.00     0.009 A 
ATOM     77  C   UNL     1     -15.375   2.490   1.593  1.00  0.00     0.009 A 
ATOM     78  C   UNL     1     -17.715   1.435   0.497  1.00  0.00     0.001 A 
ATOM     79  C   UNL     1     -15.806   1.214   1.960  1.00  0.00     0.001 A 
ATOM     80  C   UNL     1     -16.980   0.691   1.419  1.00  0.00     0.000 A 
ENDBRANCH  56  75
BRANCH  68  81
ATOM     81  C   UNL     1     -18.611   9.605   1.932  1.00  0.00    -0.014 A 
ATOM     82  C   UNL     1     -18.662   9.556   3.334  1.00  0.00     0.009 A 
ATOM     83  C   UNL     1     -19.706  10.126   1.227  1.00  0.00     0.009 A 
ATOM     84  C   UNL     1     -19.805   9.985   4.013  1.00  0.00     0.001 A 
ATOM     85  C   UNL     1     -20.836  10.579   1.910  1.00  0.00     0.001 A 
ATOM     86  C   UNL     1     -20.888  10.498   3.301  1.00  0.00     0.000 A 
ENDBRANCH  68  81
ENDBRANCH  42  43
ENDBRANCH  34  37
ENDBRANCH  32  33
ENDBRANCH  31  32
ENDBRANCH   1  31
TORSDOF 14
