REMARK SMILES CC(C)[C@@H](CNC(=O)NCC1C(C)(C)C1(C)C)C(=O)NCCCCCCNC(=O)c1ccc(-c2c3nc(c(-c4ccccc4)c4ccc([nH]4)c(-c4ccccc4)c4nc(c(-c5ccccc5)c5ccc2[nH]5)C=C4)C=C3)cc1
REMARK SMILES IDX 22 1 21 2 20 3 18 4 19 5 4 7 2 8 1 9 3 10 5 11 6 12 7 13
REMARK SMILES IDX 8 15 9 16 10 18 11 19 12 20 15 21 13 22 14 23 16 24 17 25
REMARK SMILES IDX 23 26 24 27 25 28 26 29 27 30 28 31 29 33 30 34 31 35 77 36
REMARK SMILES IDX 32 37 76 38 33 39 34 40 35 41 70 42 36 43 75 44 69 45 71 46
REMARK SMILES IDX 37 47 74 48 68 49 67 50 38 52 60 53 45 54 59 55 46 56 49 57
REMARK SMILES IDX 58 58 72 59 47 60 48 61 57 63 73 64 50 65 39 66 40 67 44 68
REMARK SMILES IDX 41 69 43 70 42 71 61 72 62 73 66 74 63 75 65 76 64 77 51 78
REMARK SMILES IDX 52 79 56 80 53 81 55 82 54 83
REMARK H PARENT 20 6 6 14 9 17 27 32 71 51 49 62
REMARK Flexibility Score: inf
ROOT
ATOM      1  C   UNL     1       0.955   4.408  -2.334  1.00  0.00     0.021 C 
ENDROOT
BRANCH   1   2
ATOM      2  C   UNL     1      -0.121   3.781  -1.455  1.00  0.00     0.116 C 
BRANCH   2   3
ATOM      3  N   UNL     1      -1.024   2.927  -2.198  1.00  0.00    -0.356 N 
ATOM      4  C   UNL     1      -1.430   1.650  -1.964  1.00  0.00     0.225 C 
ATOM      5  O   UNL     1      -2.365   1.221  -2.648  1.00  0.00    -0.275 OA
ATOM      6  H   UNL     1      -1.408   3.338  -3.006  1.00  0.00     0.163 HD
BRANCH   4   7
ATOM      7  C   UNL     1      -0.776   0.744  -0.919  1.00  0.00     0.100 C 
BRANCH   7   8
ATOM      8  C   UNL     1       0.769   0.606  -1.080  1.00  0.00    -0.003 C 
ATOM      9  C   UNL     1       1.384  -0.383  -0.085  1.00  0.00     0.008 C 
ATOM     10  C   UNL     1       1.129   0.154  -2.506  1.00  0.00     0.008 C 
ENDBRANCH   7   8
BRANCH   7  11
ATOM     11  C   UNL     1      -1.337   0.964   0.505  1.00  0.00     0.131 C 
BRANCH  11  12
ATOM     12  N   UNL     1      -1.241   2.302   1.052  1.00  0.00    -0.337 N 
ATOM     13  C   UNL     1      -2.056   3.364   1.076  1.00  0.00     0.314 C 
ATOM     14  H   UNL     1      -0.385   2.467   1.507  1.00  0.00     0.165 HD
ATOM     15  O   UNL     1      -1.604   4.412   1.544  1.00  0.00    -0.249 OA
ATOM     16  N   UNL     1      -3.303   3.380   0.602  1.00  0.00    -0.338 N 
ATOM     17  H   UNL     1      -3.675   4.290   0.555  1.00  0.00     0.165 HD
BRANCH  16  18
ATOM     18  C   UNL     1      -4.240   2.375   0.139  1.00  0.00     0.122 C 
BRANCH  18  19
ATOM     19  C   UNL     1      -5.046   1.884   1.308  1.00  0.00     0.021 C 
ATOM     20  C   UNL     1      -6.572   1.813   1.257  1.00  0.00    -0.025 C 
ATOM     21  C   UNL     1      -5.737   0.522   1.367  1.00  0.00    -0.025 C 
ATOM     22  C   UNL     1      -7.302   2.365   2.464  1.00  0.00     0.012 C 
ATOM     23  C   UNL     1      -7.332   2.091  -0.023  1.00  0.00     0.012 C 
ATOM     24  C   UNL     1      -5.643  -0.427   0.193  1.00  0.00     0.012 C 
ATOM     25  C   UNL     1      -5.721  -0.216   2.692  1.00  0.00     0.012 C 
ENDBRANCH  18  19
ENDBRANCH  16  18
ENDBRANCH  11  12
ENDBRANCH   7  11
ENDBRANCH   4   7
ENDBRANCH   2   3
ENDBRANCH   1   2
BRANCH   1  26
ATOM     26  C   UNL     1       0.452   5.558  -3.212  1.00  0.00     0.002 C 
BRANCH  26  27
ATOM     27  C   UNL     1      -0.300   6.673  -2.473  1.00  0.00     0.002 C 
BRANCH  27  28
ATOM     28  C   UNL     1       0.413   7.255  -1.249  1.00  0.00     0.021 C 
BRANCH  28  29
ATOM     29  C   UNL     1       1.802   7.817  -1.525  1.00  0.00     0.116 C 
BRANCH  29  30
ATOM     30  N   UNL     1       1.775   8.896  -2.497  1.00  0.00    -0.352 N 
ATOM     31  C   UNL     1       2.303  10.159  -2.415  1.00  0.00     0.251 C 
ATOM     32  H   UNL     1       1.308   8.691  -3.339  1.00  0.00     0.163 HD
ATOM     33  O   UNL     1       2.020  11.002  -3.260  1.00  0.00    -0.269 OA
BRANCH  31  34
ATOM     34  C   UNL     1       3.204  10.511  -1.298  1.00  0.00     0.039 A 
ATOM     35  C   UNL     1       3.041  11.746  -0.667  1.00  0.00     0.014 A 
ATOM     36  C   UNL     1       4.218   9.640  -0.887  1.00  0.00     0.014 A 
ATOM     37  C   UNL     1       3.864  12.088   0.407  1.00  0.00     0.010 A 
ATOM     38  C   UNL     1       4.985   9.949   0.232  1.00  0.00     0.010 A 
ATOM     39  C   UNL     1       4.824  11.181   0.884  1.00  0.00    -0.014 A 
BRANCH  39  40
ATOM     40  C   UNL     1       5.671  11.510   2.057  1.00  0.00     0.031 A 
ATOM     41  C   UNL     1       7.162  11.642   1.903  1.00  0.00     0.074 A 
ATOM     42  C   UNL     1       5.104  11.645   3.271  1.00  0.00     0.049 A 
ATOM     43  N   UNL     1       8.067  11.894   2.815  1.00  0.00    -0.248 NA
ATOM     44  C   UNL     1       7.711  11.443   0.552  1.00  0.00     0.031 C 
ATOM     45  C   UNL     1       3.675  11.504   3.560  1.00  0.00     0.029 A 
ATOM     46  N   UNL     1       5.662  11.930   4.492  1.00  0.00    -0.354 N 
ATOM     47  C   UNL     1       9.288  11.868   2.152  1.00  0.00     0.074 A 
ATOM     48  C   UNL     1       9.014  11.523   0.775  1.00  0.00     0.031 C 
ATOM     49  C   UNL     1       3.466  11.735   4.865  1.00  0.00     0.029 A 
ATOM     50  C   UNL     1       4.747  11.997   5.513  1.00  0.00     0.049 A 
ATOM     51  H   UNL     1       6.628  12.072   4.623  1.00  0.00     0.167 HD
ATOM     52  C   UNL     1      10.524  12.129   2.640  1.00  0.00     0.031 A 
ATOM     53  C   UNL     1       4.919  12.237   6.827  1.00  0.00     0.031 A 
ATOM     54  C   UNL     1      10.795  12.476   4.011  1.00  0.00     0.049 A 
ATOM     55  C   UNL     1       6.305  12.502   7.348  1.00  0.00     0.074 A 
ATOM     56  C   UNL     1      12.007  12.807   4.592  1.00  0.00     0.029 A 
ATOM     57  N   UNL     1       9.840  12.531   5.014  1.00  0.00    -0.354 N 
ATOM     58  N   UNL     1       7.441  12.542   6.695  1.00  0.00    -0.248 NA
ATOM     59  C   UNL     1       6.428  12.768   8.788  1.00  0.00     0.031 C 
ATOM     60  C   UNL     1      11.794  13.006   5.960  1.00  0.00     0.029 A 
ATOM     61  C   UNL     1      10.440  12.865   6.217  1.00  0.00     0.049 A 
ATOM     62  H   UNL     1       8.879  12.359   4.890  1.00  0.00     0.167 HD
ATOM     63  C   UNL     1       8.408  12.870   7.636  1.00  0.00     0.074 A 
ATOM     64  C   UNL     1       7.721  13.034   8.901  1.00  0.00     0.031 C 
ATOM     65  C   UNL     1       9.744  13.024   7.469  1.00  0.00     0.031 A 
BRANCH  52  66
ATOM     66  C   UNL     1      11.681  12.037   1.683  1.00  0.00    -0.014 A 
ATOM     67  C   UNL     1      11.844  12.967   0.643  1.00  0.00     0.009 A 
ATOM     68  C   UNL     1      12.642  11.026   1.843  1.00  0.00     0.009 A 
ATOM     69  C   UNL     1      12.921  12.861  -0.241  1.00  0.00     0.001 A 
ATOM     70  C   UNL     1      13.735  10.942   0.978  1.00  0.00     0.001 A 
ATOM     71  C   UNL     1      13.868  11.853  -0.069  1.00  0.00     0.000 A 
ENDBRANCH  52  66
BRANCH  53  72
ATOM     72  C   UNL     1       3.748  12.255   7.742  1.00  0.00    -0.014 A 
ATOM     73  C   UNL     1       3.320  13.456   8.331  1.00  0.00     0.009 A 
ATOM     74  C   UNL     1       3.057  11.070   8.042  1.00  0.00     0.009 A 
ATOM     75  C   UNL     1       2.246  13.464   9.224  1.00  0.00     0.001 A 
ATOM     76  C   UNL     1       1.963  11.087   8.910  1.00  0.00     0.001 A 
ATOM     77  C   UNL     1       1.566  12.281   9.509  1.00  0.00     0.000 A 
ENDBRANCH  53  72
BRANCH  65  78
ATOM     78  C   UNL     1      10.546  13.430   8.674  1.00  0.00    -0.014 A 
ATOM     79  C   UNL     1      10.766  12.546   9.742  1.00  0.00     0.009 A 
ATOM     80  C   UNL     1      11.116  14.712   8.725  1.00  0.00     0.009 A 
ATOM     81  C   UNL     1      11.508  12.953  10.854  1.00  0.00     0.001 A 
ATOM     82  C   UNL     1      11.885  15.104   9.821  1.00  0.00     0.001 A 
ATOM     83  C   UNL     1      12.070  14.229  10.889  1.00  0.00     0.000 A 
ENDBRANCH  65  78
ENDBRANCH  39  40
ENDBRANCH  31  34
ENDBRANCH  29  30
ENDBRANCH  28  29
ENDBRANCH  27  28
ENDBRANCH  26  27
ENDBRANCH   1  26
TORSDOF 18
