REMARK SMILES Cc1ncnc(OCCC(=O)NCCCCCCNC(=O)c2ccc(-c3c4nc(c(-c5ccccc5)c5ccc([nH]5)c(-c5ccccc5)c5nc(c(-c6ccccc6)c6ccc3[nH]6)C=C5)C=C4)cc2)c1C
REMARK SMILES IDX 15 1 14 2 13 3 12 4 10 5 11 6 9 8 8 9 7 10 6 11 1 12 2 13
REMARK SMILES IDX 3 14 70 15 4 16 71 17 5 18 16 19 17 20 18 21 19 22 20 23
REMARK SMILES IDX 21 25 22 26 23 27 69 28 24 29 68 30 25 31 26 32 27 33 62 34
REMARK SMILES IDX 28 35 67 36 61 37 63 38 29 39 66 40 60 41 59 42 30 44 52 45
REMARK SMILES IDX 37 46 51 47 38 48 41 49 50 50 64 51 39 52 40 53 49 55 65 56
REMARK SMILES IDX 42 57 31 58 32 59 36 60 33 61 35 62 34 63 53 64 54 65 58 66
REMARK SMILES IDX 55 67 57 68 56 69 43 70 44 71 48 72 45 73 47 74 46 75
REMARK H PARENT 12 7 19 24 63 43 41 54
REMARK Flexibility Score: inf
ROOT
ATOM      1  C   UNL     1       1.153  -0.412   3.825  1.00  0.00     0.002 C 
ENDROOT
BRANCH   1   2
ATOM      2  C   UNL     1       1.297   0.984   4.441  1.00  0.00     0.021 C 
BRANCH   2   3
ATOM      3  C   UNL     1       2.680   1.590   4.237  1.00  0.00     0.116 C 
BRANCH   3   4
ATOM      4  N   UNL     1       2.912   1.956   2.853  1.00  0.00    -0.356 N 
ATOM      5  C   UNL     1       2.487   3.062   2.180  1.00  0.00     0.223 C 
ATOM      6  O   UNL     1       2.874   3.219   1.022  1.00  0.00    -0.275 OA
ATOM      7  H   UNL     1       3.449   1.319   2.329  1.00  0.00     0.163 HD
BRANCH   5   8
ATOM      8  C   UNL     1       1.630   4.095   2.884  1.00  0.00     0.141 C 
BRANCH   8   9
ATOM      9  C   UNL     1       0.452   4.586   2.042  1.00  0.00     0.241 C 
BRANCH   9  10
ATOM     10  O   UNL     1      -0.788   3.898   2.228  1.00  0.00    -0.477 OA
BRANCH  10  11
ATOM     11  C   UNL     1      -0.968   2.615   1.812  1.00  0.00     0.219 A 
ATOM     12  C   UNL     1      -0.027  -0.154  -0.534  1.00  0.00     0.067 C 
ATOM     13  C   UNL     1      -0.701   0.668   0.529  1.00  0.00     0.047 A 
ATOM     14  N   UNL     1      -1.472  -0.029   1.388  1.00  0.00    -0.241 NA
ATOM     15  C   UNL     1      -0.513   2.048   0.631  1.00  0.00     0.032 A 
ATOM     16  C   UNL     1      -2.011   0.664   2.392  1.00  0.00     0.226 A 
ATOM     17  C   UNL     1       0.026   2.837  -0.519  1.00  0.00     0.052 C 
ATOM     18  N   UNL     1      -1.749   1.940   2.681  1.00  0.00    -0.202 NA
ENDBRANCH  10  11
ENDBRANCH   9  10
ENDBRANCH   8   9
ENDBRANCH   5   8
ENDBRANCH   3   4
ENDBRANCH   2   3
ENDBRANCH   1   2
BRANCH   1  19
ATOM     19  C   UNL     1       1.536  -1.567   4.753  1.00  0.00     0.002 C 
BRANCH  19  20
ATOM     20  C   UNL     1       0.758  -1.628   6.072  1.00  0.00     0.021 C 
BRANCH  20  21
ATOM     21  C   UNL     1      -0.763  -1.594   5.927  1.00  0.00     0.116 C 
BRANCH  21  22
ATOM     22  N   UNL     1      -1.299  -2.865   5.464  1.00  0.00    -0.352 N 
ATOM     23  C   UNL     1      -1.935  -3.845   6.187  1.00  0.00     0.251 C 
ATOM     24  H   UNL     1      -1.192  -3.047   4.502  1.00  0.00     0.163 HD
ATOM     25  O   UNL     1      -2.146  -4.952   5.700  1.00  0.00    -0.269 OA
BRANCH  23  26
ATOM     26  C   UNL     1      -2.343  -3.567   7.580  1.00  0.00     0.039 A 
ATOM     27  C   UNL     1      -1.946  -4.443   8.592  1.00  0.00     0.014 A 
ATOM     28  C   UNL     1      -3.096  -2.429   7.886  1.00  0.00     0.014 A 
ATOM     29  C   UNL     1      -2.238  -4.136   9.922  1.00  0.00     0.010 A 
ATOM     30  C   UNL     1      -3.326  -2.089   9.216  1.00  0.00     0.010 A 
ATOM     31  C   UNL     1      -2.896  -2.936  10.248  1.00  0.00    -0.014 A 
BRANCH  31  32
ATOM     32  C   UNL     1      -3.123  -2.555  11.664  1.00  0.00     0.031 A 
ATOM     33  C   UNL     1      -4.516  -2.483  12.220  1.00  0.00     0.074 A 
ATOM     34  C   UNL     1      -2.070  -2.239  12.444  1.00  0.00     0.049 A 
ATOM     35  N   UNL     1      -4.902  -2.186  13.436  1.00  0.00    -0.248 NA
ATOM     36  C   UNL     1      -5.621  -2.766  11.291  1.00  0.00     0.031 C 
ATOM     37  C   UNL     1      -0.670  -2.228  12.016  1.00  0.00     0.029 A 
ATOM     38  N   UNL     1      -2.015  -1.873  13.767  1.00  0.00    -0.354 N 
ATOM     39  C   UNL     1      -6.289  -2.245  13.415  1.00  0.00     0.074 A 
ATOM     40  C   UNL     1      -6.681  -2.552  12.057  1.00  0.00     0.031 C 
ATOM     41  C   UNL     1       0.108  -1.919  13.066  1.00  0.00     0.029 A 
ATOM     42  C   UNL     1      -0.737  -1.679  14.231  1.00  0.00     0.049 A 
ATOM     43  H   UNL     1      -2.816  -1.761  14.329  1.00  0.00     0.167 HD
ATOM     44  C   UNL     1      -7.159  -2.084  14.440  1.00  0.00     0.031 A 
ATOM     45  C   UNL     1      -0.292  -1.355  15.460  1.00  0.00     0.031 A 
ATOM     46  C   UNL     1      -6.775  -1.788  15.793  1.00  0.00     0.049 A 
ATOM     47  C   UNL     1      -1.279  -1.157  16.576  1.00  0.00     0.074 A 
ATOM     48  C   UNL     1      -7.585  -1.658  16.908  1.00  0.00     0.029 A 
ATOM     49  N   UNL     1      -5.473  -1.575  16.214  1.00  0.00    -0.354 N 
ATOM     50  N   UNL     1      -2.584  -1.281  16.553  1.00  0.00    -0.248 NA
ATOM     51  C   UNL     1      -0.732  -0.781  17.888  1.00  0.00     0.031 C 
ATOM     52  C   UNL     1      -6.775  -1.323  17.997  1.00  0.00     0.029 A 
ATOM     53  C   UNL     1      -5.458  -1.290  17.568  1.00  0.00     0.049 A 
ATOM     54  H   UNL     1      -4.677  -1.619  15.636  1.00  0.00     0.167 HD
ATOM     55  C   UNL     1      -3.012  -1.019  17.847  1.00  0.00     0.074 A 
ATOM     56  C   UNL     1      -1.828  -0.740  18.634  1.00  0.00     0.031 C 
ATOM     57  C   UNL     1      -4.274  -1.012  18.337  1.00  0.00     0.031 A 
BRANCH  44  58
ATOM     58  C   UNL     1      -8.621  -2.241  14.136  1.00  0.00    -0.014 A 
ATOM     59  C   UNL     1      -9.171  -3.508  13.881  1.00  0.00     0.009 A 
ATOM     60  C   UNL     1      -9.467  -1.122  14.153  1.00  0.00     0.009 A 
ATOM     61  C   UNL     1     -10.535  -3.647  13.621  1.00  0.00     0.001 A 
ATOM     62  C   UNL     1     -10.836  -1.268  13.917  1.00  0.00     0.001 A 
ATOM     63  C   UNL     1     -11.367  -2.528  13.645  1.00  0.00     0.000 A 
ENDBRANCH  44  58
BRANCH  45  64
ATOM     64  C   UNL     1       1.167  -1.239  15.710  1.00  0.00    -0.014 A 
ATOM     65  C   UNL     1       1.840  -2.236  16.432  1.00  0.00     0.009 A 
ATOM     66  C   UNL     1       1.896  -0.145  15.218  1.00  0.00     0.009 A 
ATOM     67  C   UNL     1       3.213  -2.133  16.668  1.00  0.00     0.001 A 
ATOM     68  C   UNL     1       3.272  -0.057  15.436  1.00  0.00     0.001 A 
ATOM     69  C   UNL     1       3.928  -1.048  16.166  1.00  0.00     0.000 A 
ENDBRANCH  45  64
BRANCH  57  70
ATOM     70  C   UNL     1      -4.452  -0.705  19.796  1.00  0.00    -0.014 A 
ATOM     71  C   UNL     1      -4.348   0.610  20.273  1.00  0.00     0.009 A 
ATOM     72  C   UNL     1      -4.811  -1.730  20.685  1.00  0.00     0.009 A 
ATOM     73  C   UNL     1      -4.589   0.890  21.620  1.00  0.00     0.001 A 
ATOM     74  C   UNL     1      -5.072  -1.443  22.025  1.00  0.00     0.001 A 
ATOM     75  C   UNL     1      -4.958  -0.134  22.492  1.00  0.00     0.000 A 
ENDBRANCH  57  70
ENDBRANCH  31  32
ENDBRANCH  23  26
ENDBRANCH  21  22
ENDBRANCH  20  21
ENDBRANCH  19  20
ENDBRANCH   1  19
TORSDOF 16
