REMARK SMILES Cc1c(C(=O)NCCCCCCNC(=O)c2ccc(-c3c4nc(c(-c5ccccc5)c5ccc([nH]5)c(-c5ccccc5)c5nc(c(-c6ccccc6)c6ccc3[nH]6)C=C5)C=C4)cc2)cccc1-n1c(C)cc(/C=C2/C(=O)NC(=S)N=C2O)c1C
REMARK SMILES IDX 9 1 8 2 7 3 6 4 4 5 5 6 3 8 1 9 2 10 67 11 64 12 66 13 65 14
REMARK SMILES IDX 68 15 69 16 83 17 70 18 71 19 72 20 84 21 73 22 74 23 75 24
REMARK SMILES IDX 81 25 76 26 77 27 80 28 78 29 79 31 82 32 10 34 11 35 12 36
REMARK SMILES IDX 13 37 14 38 15 40 16 41 17 42 63 43 18 44 62 45 19 46 20 47
REMARK SMILES IDX 21 48 56 49 22 50 61 51 55 52 57 53 23 54 60 55 54 56 53 57
REMARK SMILES IDX 24 59 46 60 31 61 45 62 32 63 35 64 44 65 58 66 33 67 34 68
REMARK SMILES IDX 43 70 59 71 36 72 25 73 26 74 30 75 27 76 29 77 28 78 47 79
REMARK SMILES IDX 48 80 52 81 49 82 51 83 50 84 37 85 38 86 42 87 39 88 41 89
REMARK SMILES IDX 40 90
REMARK H PARENT 6 7 77 30 82 33 13 39 57 58 35 69
REMARK Flexibility Score: inf
ROOT
ATOM      1  C   UNL     1       5.476  -3.220   0.965  1.00  0.00     0.002 C 
ENDROOT
BRANCH   1   2
ATOM      2  C   UNL     1       4.242  -2.311   0.938  1.00  0.00     0.021 C 
BRANCH   2   3
ATOM      3  C   UNL     1       3.264  -2.553  -0.228  1.00  0.00     0.116 C 
BRANCH   3   4
ATOM      4  N   UNL     1       1.981  -2.998   0.280  1.00  0.00    -0.352 N 
ATOM      5  C   UNL     1       0.724  -2.481   0.398  1.00  0.00     0.251 C 
ATOM      6  O   UNL     1      -0.108  -3.257   0.884  1.00  0.00    -0.269 OA
ATOM      7  H   UNL     1       2.030  -3.916   0.632  1.00  0.00     0.163 HD
BRANCH   5   8
ATOM      8  C   UNL     1       0.236  -1.129  -0.035  1.00  0.00     0.044 A 
ATOM      9  C   UNL     1       2.271   0.293   0.608  1.00  0.00     0.047 C 
ATOM     10  C   UNL     1       0.881   0.122   0.075  1.00  0.00    -0.014 A 
ATOM     11  C   UNL     1       0.144   1.280  -0.297  1.00  0.00     0.049 A 
ATOM     12  C   UNL     1      -1.124  -1.148  -0.444  1.00  0.00     0.014 A 
ATOM     13  C   UNL     1      -1.198   1.235  -0.693  1.00  0.00     0.027 A 
ATOM     14  C   UNL     1      -1.837   0.011  -0.756  1.00  0.00     0.003 A 
BRANCH  11  15
ATOM     15  N   UNL     1       0.704   2.572  -0.159  1.00  0.00    -0.318 N 
ATOM     16  C   UNL     1       1.398   3.249  -1.142  1.00  0.00     0.020 A 
ATOM     17  C   UNL     1       0.702   3.322   1.014  1.00  0.00     0.027 A 
ATOM     18  C   UNL     1       1.720   2.665  -2.473  1.00  0.00     0.065 C 
ATOM     19  C   UNL     1       1.721   4.489  -0.632  1.00  0.00     0.031 A 
ATOM     20  C   UNL     1       1.272   4.550   0.716  1.00  0.00    -0.003 A 
ATOM     21  C   UNL     1       0.185   2.740   2.291  1.00  0.00     0.065 C 
BRANCH  20  22
ATOM     22  C   UNL     1       1.570   5.649   1.580  1.00  0.00     0.029 C 
ATOM     23  C   UNL     1       0.914   6.194   2.620  1.00  0.00     0.102 C 
ATOM     24  C   UNL     1       1.658   7.231   3.383  1.00  0.00     0.262 C 
ATOM     25  C   UNL     1      -0.394   5.877   3.194  1.00  0.00     0.226 C 
ATOM     26  O   UNL     1       2.655   7.812   2.971  1.00  0.00    -0.269 OA
ATOM     27  N   UNL     1       1.159   7.459   4.637  1.00  0.00    -0.297 N 
ATOM     28  N   UNL     1      -0.814   6.186   4.365  1.00  0.00    -0.184 NA
ATOM     29  C   UNL     1       0.017   6.917   5.173  1.00  0.00     0.203 C 
ATOM     30  H   UNL     1       1.670   8.073   5.212  1.00  0.00     0.172 HD
ATOM     31  S   UNL     1      -0.314   7.241   6.784  1.00  0.00    -0.038 S 
BRANCH  25  32
ATOM     32  O   UNL     1      -1.264   5.264   2.388  1.00  0.00    -0.493 OA
ATOM     33  H   UNL     1      -1.006   5.017   1.522  1.00  0.00     0.295 HD
ENDBRANCH  25  32
ENDBRANCH  20  22
ENDBRANCH  11  15
ENDBRANCH   5   8
ENDBRANCH   3   4
ENDBRANCH   2   3
ENDBRANCH   1   2
BRANCH   1  34
ATOM     34  C   UNL     1       6.335  -3.232  -0.307  1.00  0.00     0.002 C 
BRANCH  34  35
ATOM     35  C   UNL     1       6.701  -1.857  -0.868  1.00  0.00     0.021 C 
BRANCH  35  36
ATOM     36  C   UNL     1       7.800  -1.150  -0.086  1.00  0.00     0.116 C 
BRANCH  36  37
ATOM     37  N   UNL     1       9.139  -1.475  -0.565  1.00  0.00    -0.352 N 
ATOM     38  C   UNL     1      10.381  -1.099  -0.075  1.00  0.00     0.251 C 
ATOM     39  H   UNL     1       9.166  -2.054  -1.361  1.00  0.00     0.163 HD
ATOM     40  O   UNL     1      11.396  -1.457  -0.630  1.00  0.00    -0.269 OA
BRANCH  38  41
ATOM     41  C   UNL     1      10.448  -0.386   1.225  1.00  0.00     0.039 A 
ATOM     42  C   UNL     1      11.306  -0.919   2.194  1.00  0.00     0.014 A 
ATOM     43  C   UNL     1       9.515   0.589   1.563  1.00  0.00     0.014 A 
ATOM     44  C   UNL     1      11.032  -0.691   3.537  1.00  0.00     0.010 A 
ATOM     45  C   UNL     1       9.183   0.744   2.892  1.00  0.00     0.010 A 
ATOM     46  C   UNL     1       9.888   0.032   3.867  1.00  0.00    -0.014 A 
BRANCH  46  47
ATOM     47  C   UNL     1       9.266  -0.039   5.181  1.00  0.00     0.031 A 
ATOM     48  C   UNL     1       9.386   1.083   6.126  1.00  0.00     0.074 A 
ATOM     49  C   UNL     1       8.546  -1.132   5.514  1.00  0.00     0.049 A 
ATOM     50  N   UNL     1       9.259   0.972   7.405  1.00  0.00    -0.248 NA
ATOM     51  C   UNL     1       9.744   2.428   5.694  1.00  0.00     0.031 C 
ATOM     52  C   UNL     1       7.633  -1.293   6.641  1.00  0.00     0.029 A 
ATOM     53  N   UNL     1       8.653  -2.412   4.997  1.00  0.00    -0.354 N 
ATOM     54  C   UNL     1       9.195   2.245   7.919  1.00  0.00     0.074 A 
ATOM     55  C   UNL     1       9.627   3.103   6.841  1.00  0.00     0.031 C 
ATOM     56  C   UNL     1       7.451  -2.605   6.870  1.00  0.00     0.029 A 
ATOM     57  C   UNL     1       8.365  -3.333   6.004  1.00  0.00     0.049 A 
ATOM     58  H   UNL     1       8.893  -2.635   4.069  1.00  0.00     0.167 HD
ATOM     59  C   UNL     1       8.624   2.439   9.142  1.00  0.00     0.031 A 
ATOM     60  C   UNL     1       9.314  -4.210   6.451  1.00  0.00     0.031 A 
ATOM     61  C   UNL     1       8.333   1.168   9.811  1.00  0.00     0.049 A 
ATOM     62  C   UNL     1       9.700  -4.003   7.904  1.00  0.00     0.074 A 
ATOM     63  C   UNL     1       7.168   0.442  10.001  1.00  0.00     0.029 A 
ATOM     64  N   UNL     1       9.383   0.316  10.137  1.00  0.00    -0.354 N 
ATOM     65  N   UNL     1       9.433  -2.922   8.584  1.00  0.00    -0.248 NA
ATOM     66  C   UNL     1      10.451  -4.979   8.691  1.00  0.00     0.031 C 
ATOM     67  C   UNL     1       7.532  -0.884  10.360  1.00  0.00     0.029 A 
ATOM     68  C   UNL     1       8.912  -0.952  10.422  1.00  0.00     0.049 A 
ATOM     69  H   UNL     1      10.332   0.579  10.162  1.00  0.00     0.167 HD
ATOM     70  C   UNL     1       9.953  -3.030   9.847  1.00  0.00     0.074 A 
ATOM     71  C   UNL     1      10.570  -4.343   9.870  1.00  0.00     0.031 C 
ATOM     72  C   UNL     1       9.842  -2.022  10.761  1.00  0.00     0.031 A 
BRANCH  59  73
ATOM     73  C   UNL     1       8.045   3.767   9.586  1.00  0.00    -0.014 A 
ATOM     74  C   UNL     1       7.033   3.790  10.565  1.00  0.00     0.009 A 
ATOM     75  C   UNL     1       8.376   5.015   9.031  1.00  0.00     0.009 A 
ATOM     76  C   UNL     1       6.333   4.962  10.890  1.00  0.00     0.001 A 
ATOM     77  C   UNL     1       7.665   6.187   9.328  1.00  0.00     0.001 A 
ATOM     78  C   UNL     1       6.631   6.157  10.250  1.00  0.00     0.000 A 
ENDBRANCH  59  73
BRANCH  60  79
ATOM     79  C   UNL     1      10.250  -4.676   5.390  1.00  0.00    -0.014 A 
ATOM     80  C   UNL     1       9.743  -5.511   4.375  1.00  0.00     0.009 A 
ATOM     81  C   UNL     1      11.478  -4.034   5.176  1.00  0.00     0.009 A 
ATOM     82  C   UNL     1      10.388  -5.609   3.138  1.00  0.00     0.001 A 
ATOM     83  C   UNL     1      12.125  -4.142   3.938  1.00  0.00     0.001 A 
ATOM     84  C   UNL     1      11.563  -4.899   2.910  1.00  0.00     0.000 A 
ENDBRANCH  60  79
BRANCH  72  85
ATOM     85  C   UNL     1      10.548  -1.953  12.093  1.00  0.00    -0.014 A 
ATOM     86  C   UNL     1      11.747  -2.615  12.387  1.00  0.00     0.009 A 
ATOM     87  C   UNL     1      10.060  -1.060  13.074  1.00  0.00     0.009 A 
ATOM     88  C   UNL     1      12.402  -2.426  13.613  1.00  0.00     0.001 A 
ATOM     89  C   UNL     1      10.732  -0.834  14.277  1.00  0.00     0.001 A 
ATOM     90  C   UNL     1      11.901  -1.528  14.552  1.00  0.00     0.000 A 
ENDBRANCH  72  85
ENDBRANCH  46  47
ENDBRANCH  38  41
ENDBRANCH  36  37
ENDBRANCH  35  36
ENDBRANCH  34  35
ENDBRANCH   1  34
TORSDOF 16
