REMARK SMILES O=C1[NH+]=C(Nc2ccc(C(=O)NCCCCCCNC(=O)c3ccc(-c4c5nc(c(-c6ccccc6)c6ccc([nH]6)c(-c6ccccc6)c6nc(c(-c7ccccc7)c7ccc4[nH]7)C=C6)C=C5)cc3)c(O)c2)S/C1=C\c1ccc[nH]1
REMARK SMILES IDX 15 1 14 2 13 3 12 4 10 5 11 6 9 8 6 9 7 10 72 11 8 12 70 13
REMARK SMILES IDX 5 14 1 15 2 16 3 17 74 18 4 19 73 21 75 22 76 24 77 25 80 26
REMARK SMILES IDX 78 27 79 28 71 30 16 32 17 33 18 34 19 35 20 36 21 38 22 39
REMARK SMILES IDX 23 40 69 41 24 42 68 43 25 44 26 45 27 46 62 47 28 48 67 49
REMARK SMILES IDX 61 50 63 51 29 52 66 53 60 54 59 55 30 57 52 58 37 59 51 60
REMARK SMILES IDX 38 61 41 62 50 63 64 64 39 65 40 66 49 68 65 69 42 70 31 71
REMARK SMILES IDX 32 72 36 73 33 74 35 75 34 76 53 77 54 78 58 79 55 80 57 81
REMARK SMILES IDX 56 82 43 83 44 84 48 85 45 86 47 87 46 88
REMARK H PARENT 12 7 3 20 5 23 80 29 71 31 19 37 63 56 41 67
REMARK Flexibility Score: inf
ROOT
ATOM      1  C   UNL     1      -1.518  10.228  -3.535  1.00  0.00     0.002 C 
ENDROOT
BRANCH   1   2
ATOM      2  C   UNL     1      -1.327   8.709  -3.478  1.00  0.00     0.021 C 
BRANCH   2   3
ATOM      3  C   UNL     1      -0.383   8.183  -2.401  1.00  0.00     0.116 C 
BRANCH   3   4
ATOM      4  N   UNL     1      -0.775   8.521  -1.045  1.00  0.00    -0.352 N 
ATOM      5  C   UNL     1      -0.606   7.826   0.129  1.00  0.00     0.255 C 
ATOM      6  O   UNL     1      -1.047   8.309   1.170  1.00  0.00    -0.269 OA
ATOM      7  H   UNL     1      -1.235   9.386  -0.951  1.00  0.00     0.163 HD
BRANCH   5   8
ATOM      8  C   UNL     1       0.047   6.494   0.171  1.00  0.00     0.081 A 
ATOM      9  C   UNL     1       1.022   3.839   0.245  1.00  0.00     0.129 A 
ATOM     10  C   UNL     1      -0.088   4.215   1.007  1.00  0.00     0.053 A 
ATOM     11  C   UNL     1       1.673   4.823  -0.508  1.00  0.00     0.098 A 
ATOM     12  C   UNL     1      -0.568   5.528   0.978  1.00  0.00     0.022 A 
ATOM     13  C   UNL     1       1.215   6.143  -0.512  1.00  0.00     0.132 A 
BRANCH   9  14
ATOM     14  N   UNL     1       1.447   2.510   0.147  1.00  0.00    -0.234 N 
ATOM     15  O   UNL     1      -2.279  -0.291  -0.046  1.00  0.00    -0.240 OA
ATOM     16  C   UNL     1      -1.100   0.029   0.042  1.00  0.00     0.346 C 
ATOM     17  N   UNL     1      -0.637   1.323   0.106  1.00  0.00    -0.199 N 
ATOM     18  C   UNL     1       0.016  -0.959   0.078  1.00  0.00     0.111 C 
ATOM     19  C   UNL     1       0.651   1.404   0.143  1.00  0.00     0.322 C 
ATOM     20  H   UNL     1      -1.230   2.109   0.123  1.00  0.00     0.316 HD
ATOM     21  S   UNL     1       1.514  -0.117   0.136  1.00  0.00     0.006 SA
ATOM     22  C   UNL     1      -0.200  -2.281   0.039  1.00  0.00     0.050 C 
ATOM     23  H   UNL     1       2.417   2.358   0.075  1.00  0.00     0.313 HD
BRANCH  22  24
ATOM     24  C   UNL     1       0.848  -3.226   0.136  1.00  0.00     0.039 A 
ATOM     25  C   UNL     1       1.851  -3.446   1.060  1.00  0.00     0.027 A 
ATOM     26  N   UNL     1       0.981  -4.172  -0.851  1.00  0.00    -0.362 N 
ATOM     27  C   UNL     1       2.633  -4.529   0.596  1.00  0.00     0.020 A 
ATOM     28  C   UNL     1       2.080  -4.952  -0.591  1.00  0.00     0.083 A 
ATOM     29  H   UNL     1       0.380  -4.275  -1.624  1.00  0.00     0.166 HD
ENDBRANCH  22  24
ENDBRANCH   9  14
BRANCH  13  30
ATOM     30  O   UNL     1       2.003   7.035  -1.185  1.00  0.00    -0.507 OA
ATOM     31  H   UNL     1       1.757   7.938  -1.229  1.00  0.00     0.293 HD
ENDBRANCH  13  30
ENDBRANCH   5   8
ENDBRANCH   3   4
ENDBRANCH   2   3
ENDBRANCH   1   2
BRANCH   1  32
ATOM     32  C   UNL     1      -0.249  11.084  -3.566  1.00  0.00     0.002 C 
BRANCH  32  33
ATOM     33  C   UNL     1       0.779  10.742  -4.646  1.00  0.00     0.021 C 
BRANCH  33  34
ATOM     34  C   UNL     1       0.243  10.662  -6.071  1.00  0.00     0.116 C 
BRANCH  34  35
ATOM     35  N   UNL     1      -0.357  11.905  -6.524  1.00  0.00    -0.352 N 
ATOM     36  C   UNL     1      -0.101  12.642  -7.654  1.00  0.00     0.251 C 
ATOM     37  H   UNL     1      -1.052  12.274  -5.932  1.00  0.00     0.163 HD
ATOM     38  O   UNL     1      -0.615  13.747  -7.799  1.00  0.00    -0.269 OA
BRANCH  36  39
ATOM     39  C   UNL     1       0.825  12.122  -8.684  1.00  0.00     0.039 A 
ATOM     40  C   UNL     1       1.799  12.978  -9.204  1.00  0.00     0.014 A 
ATOM     41  C   UNL     1       0.742  10.801  -9.131  1.00  0.00     0.014 A 
ATOM     42  C   UNL     1       2.739  12.487 -10.112  1.00  0.00     0.010 A 
ATOM     43  C   UNL     1       1.724  10.293  -9.978  1.00  0.00     0.010 A 
ATOM     44  C   UNL     1       2.739  11.129 -10.471  1.00  0.00    -0.014 A 
BRANCH  44  45
ATOM     45  C   UNL     1       3.810  10.561 -11.329  1.00  0.00     0.031 A 
ATOM     46  C   UNL     1       3.481   9.976 -12.675  1.00  0.00     0.074 A 
ATOM     47  C   UNL     1       5.075  10.514 -10.866  1.00  0.00     0.049 A 
ATOM     48  N   UNL     1       4.275   9.384 -13.532  1.00  0.00    -0.248 NA
ATOM     49  C   UNL     1       2.076  10.046 -13.105  1.00  0.00     0.031 C 
ATOM     50  C   UNL     1       5.520  11.018  -9.564  1.00  0.00     0.029 A 
ATOM     51  N   UNL     1       6.219  10.012 -11.434  1.00  0.00    -0.354 N 
ATOM     52  C   UNL     1       3.465   9.002 -14.595  1.00  0.00     0.074 A 
ATOM     53  C   UNL     1       2.112   9.384 -14.253  1.00  0.00     0.031 C 
ATOM     54  C   UNL     1       6.843  10.824  -9.446  1.00  0.00     0.029 A 
ATOM     55  C   UNL     1       7.332  10.138 -10.637  1.00  0.00     0.049 A 
ATOM     56  H   UNL     1       6.241   9.601 -12.329  1.00  0.00     0.167 HD
ATOM     57  C   UNL     1       3.818   8.402 -15.757  1.00  0.00     0.031 A 
ATOM     58  C   UNL     1       8.601   9.732 -10.833  1.00  0.00     0.031 A 
ATOM     59  C   UNL     1       5.164   8.020 -16.094  1.00  0.00     0.049 A 
ATOM     60  C   UNL     1       8.957   9.027 -12.113  1.00  0.00     0.074 A 
ATOM     61  C   UNL     1       5.629   7.454 -17.269  1.00  0.00     0.029 A 
ATOM     62  N   UNL     1       6.259   8.153 -15.254  1.00  0.00    -0.354 N 
ATOM     63  N   UNL     1       8.192   8.741 -13.139  1.00  0.00    -0.248 NA
ATOM     64  C   UNL     1      10.353   8.595 -12.264  1.00  0.00     0.031 C 
ATOM     65  C   UNL     1       6.992   7.182 -17.114  1.00  0.00     0.029 A 
ATOM     66  C   UNL     1       7.391   7.645 -15.870  1.00  0.00     0.049 A 
ATOM     67  H   UNL     1       6.236   8.551 -14.354  1.00  0.00     0.167 HD
ATOM     68  C   UNL     1       9.020   8.121 -14.066  1.00  0.00     0.074 A 
ATOM     69  C   UNL     1      10.348   8.092 -13.490  1.00  0.00     0.031 C 
ATOM     70  C   UNL     1       8.707   7.619 -15.285  1.00  0.00     0.031 A 
BRANCH  57  71
ATOM     71  C   UNL     1       2.726   8.106 -16.748  1.00  0.00    -0.014 A 
ATOM     72  C   UNL     1       2.065   9.136 -17.437  1.00  0.00     0.009 A 
ATOM     73  C   UNL     1       2.388   6.774 -17.037  1.00  0.00     0.009 A 
ATOM     74  C   UNL     1       1.065   8.839 -18.366  1.00  0.00     0.001 A 
ATOM     75  C   UNL     1       1.411   6.479 -17.989  1.00  0.00     0.001 A 
ATOM     76  C   UNL     1       0.744   7.512 -18.645  1.00  0.00     0.000 A 
ENDBRANCH  57  71
BRANCH  58  77
ATOM     77  C   UNL     1       9.634   9.973  -9.789  1.00  0.00    -0.014 A 
ATOM     78  C   UNL     1      10.694  10.863 -10.023  1.00  0.00     0.009 A 
ATOM     79  C   UNL     1       9.576   9.300  -8.559  1.00  0.00     0.009 A 
ATOM     80  C   UNL     1      11.690  11.047  -9.061  1.00  0.00     0.001 A 
ATOM     81  C   UNL     1      10.554   9.512  -7.585  1.00  0.00     0.001 A 
ATOM     82  C   UNL     1      11.617  10.376  -7.842  1.00  0.00     0.000 A 
ENDBRANCH  58  77
BRANCH  70  83
ATOM     83  C   UNL     1       9.825   7.022 -16.095  1.00  0.00    -0.014 A 
ATOM     84  C   UNL     1      10.420   5.803 -15.733  1.00  0.00     0.009 A 
ATOM     85  C   UNL     1      10.258   7.668 -17.264  1.00  0.00     0.009 A 
ATOM     86  C   UNL     1      11.447   5.261 -16.509  1.00  0.00     0.001 A 
ATOM     87  C   UNL     1      11.260   7.107 -18.055  1.00  0.00     0.001 A 
ATOM     88  C   UNL     1      11.861   5.909 -17.672  1.00  0.00     0.000 A 
ENDBRANCH  70  83
ENDBRANCH  44  45
ENDBRANCH  36  39
ENDBRANCH  34  35
ENDBRANCH  33  34
ENDBRANCH  32  33
ENDBRANCH   1  32
TORSDOF 16
