REMARK SMILES O=C(Cc1cccc(-c2ccn(C(F)F)c(=O)c2)c1)NCCCCCCNC(=O)c1ccc(-c2c3nc(c(-c4ccccc4)c4ccc([nH]4)c(-c4ccccc4)c4nc(c(-c5ccccc5)c5ccc2[nH]5)C=C4)C=C3)cc1
REMARK SMILES IDX 23 1 22 2 21 3 20 4 1 5 2 6 3 8 4 9 5 10 19 11 6 12 8 13
REMARK SMILES IDX 7 14 9 15 10 16 18 17 11 18 16 19 12 20 17 21 13 22 14 23
REMARK SMILES IDX 15 24 24 25 25 26 26 27 27 28 28 29 29 31 30 32 31 33 77 34
REMARK SMILES IDX 32 35 76 36 33 37 34 38 35 39 70 40 36 41 75 42 69 43 71 44
REMARK SMILES IDX 37 45 74 46 68 47 67 48 38 50 60 51 45 52 59 53 46 54 49 55
REMARK SMILES IDX 58 56 72 57 47 58 48 59 57 61 73 62 50 63 39 64 40 65 44 66
REMARK SMILES IDX 41 67 43 68 42 69 61 70 62 71 66 72 63 73 65 74 64 75 51 76
REMARK SMILES IDX 52 77 56 78 53 79 55 80 54 81
REMARK H PARENT 20 7 27 30 71 49 49 60
REMARK Flexibility Score: inf
ROOT
ATOM      1  C   UNL     1       4.103  -1.897   3.207  1.00  0.00     0.002 C 
ENDROOT
BRANCH   1   2
ATOM      2  C   UNL     1       2.597  -1.893   2.903  1.00  0.00     0.021 C 
BRANCH   2   3
ATOM      3  C   UNL     1       2.054  -0.562   2.382  1.00  0.00     0.116 C 
BRANCH   3   4
ATOM      4  N   UNL     1       2.730  -0.163   1.167  1.00  0.00    -0.356 N 
ATOM      5  O   UNL     1       0.898  -0.227  -0.215  1.00  0.00    -0.275 OA
ATOM      6  C   UNL     1       2.101  -0.044  -0.052  1.00  0.00     0.224 C 
ATOM      7  H   UNL     1       3.693   0.035   1.215  1.00  0.00     0.163 HD
BRANCH   6   8
ATOM      8  C   UNL     1       3.039   0.255  -1.212  1.00  0.00     0.135 C 
BRANCH   8   9
ATOM      9  C   UNL     1       3.872   1.497  -1.003  1.00  0.00    -0.038 A 
ATOM     10  C   UNL     1       5.202   1.412  -0.569  1.00  0.00     0.004 A 
ATOM     11  C   UNL     1       3.300   2.761  -1.203  1.00  0.00     0.013 A 
ATOM     12  C   UNL     1       5.939   2.571  -0.323  1.00  0.00     0.001 A 
ATOM     13  C   UNL     1       4.038   3.930  -0.972  1.00  0.00    -0.018 A 
ATOM     14  C   UNL     1       5.359   3.826  -0.521  1.00  0.00     0.009 A 
BRANCH  13  15
ATOM     15  C   UNL     1       3.402   5.239  -1.212  1.00  0.00    -0.011 A 
ATOM     16  C   UNL     1       2.211   5.668  -0.503  1.00  0.00     0.027 A 
ATOM     17  C   UNL     1       3.911   6.030  -2.172  1.00  0.00     0.080 A 
ATOM     18  C   UNL     1       1.603   6.814  -0.827  1.00  0.00     0.095 A 
ATOM     19  C   UNL     1       3.256   7.319  -2.530  1.00  0.00     0.255 A 
ATOM     20  N   UNL     1       2.103   7.627  -1.827  1.00  0.00    -0.258 N 
ATOM     21  O   UNL     1       3.760   8.005  -3.414  1.00  0.00    -0.269 OA
BRANCH  20  22
ATOM     22  C   UNL     1       1.414   8.835  -2.200  1.00  0.00     0.451 C 
ATOM     23  F   UNL     1       2.212   9.921  -2.061  1.00  0.00    -0.185 F 
ATOM     24  F   UNL     1       1.001   8.778  -3.490  1.00  0.00    -0.185 F 
ENDBRANCH  20  22
ENDBRANCH  13  15
ENDBRANCH   8   9
ENDBRANCH   6   8
ENDBRANCH   3   4
ENDBRANCH   2   3
ENDBRANCH   1   2
BRANCH   1  25
ATOM     25  C   UNL     1       4.572  -0.862   4.233  1.00  0.00     0.002 C 
BRANCH  25  26
ATOM     26  C   UNL     1       3.897  -0.950   5.603  1.00  0.00     0.021 C 
BRANCH  26  27
ATOM     27  C   UNL     1       4.038  -2.296   6.308  1.00  0.00     0.116 C 
BRANCH  27  28
ATOM     28  N   UNL     1       5.419  -2.616   6.633  1.00  0.00    -0.352 N 
ATOM     29  C   UNL     1       5.961  -3.024   7.826  1.00  0.00     0.251 C 
ATOM     30  H   UNL     1       6.058  -2.526   5.890  1.00  0.00     0.163 HD
ATOM     31  O   UNL     1       7.183  -3.096   7.954  1.00  0.00    -0.269 OA
BRANCH  29  32
ATOM     32  C   UNL     1       5.084  -3.354   8.970  1.00  0.00     0.039 A 
ATOM     33  C   UNL     1       5.425  -2.880  10.240  1.00  0.00     0.014 A 
ATOM     34  C   UNL     1       3.935  -4.131   8.799  1.00  0.00     0.014 A 
ATOM     35  C   UNL     1       4.581  -3.132  11.324  1.00  0.00     0.010 A 
ATOM     36  C   UNL     1       3.058  -4.318   9.865  1.00  0.00     0.010 A 
ATOM     37  C   UNL     1       3.372  -3.823  11.139  1.00  0.00    -0.014 A 
BRANCH  37  38
ATOM     38  C   UNL     1       2.425  -4.028  12.265  1.00  0.00     0.031 A 
ATOM     39  C   UNL     1       2.108  -5.417  12.750  1.00  0.00     0.074 A 
ATOM     40  C   UNL     1       1.800  -2.967  12.813  1.00  0.00     0.049 A 
ATOM     41  N   UNL     1       1.273  -5.793  13.686  1.00  0.00    -0.248 NA
ATOM     42  C   UNL     1       2.801  -6.529  12.081  1.00  0.00     0.031 C 
ATOM     43  C   UNL     1       1.986  -1.572  12.409  1.00  0.00     0.029 A 
ATOM     44  N   UNL     1       0.876  -2.899  13.826  1.00  0.00    -0.354 N 
ATOM     45  C   UNL     1       1.327  -7.181  13.705  1.00  0.00     0.074 A 
ATOM     46  C   UNL     1       2.240  -7.582  12.656  1.00  0.00     0.031 C 
ATOM     47  C   UNL     1       1.224  -0.785  13.185  1.00  0.00     0.029 A 
ATOM     48  C   UNL     1       0.465  -1.619  14.111  1.00  0.00     0.049 A 
ATOM     49  H   UNL     1       0.540  -3.692  14.303  1.00  0.00     0.167 HD
ATOM     50  C   UNL     1       0.690  -8.045  14.531  1.00  0.00     0.031 A 
ATOM     51  C   UNL     1      -0.428  -1.167  15.011  1.00  0.00     0.031 A 
ATOM     52  C   UNL     1      -0.211  -7.648  15.581  1.00  0.00     0.049 A 
ATOM     53  C   UNL     1      -1.132  -2.147  15.908  1.00  0.00     0.074 A 
ATOM     54  C   UNL     1      -0.858  -8.447  16.508  1.00  0.00     0.029 A 
ATOM     55  N   UNL     1      -0.597  -6.343  15.838  1.00  0.00    -0.354 N 
ATOM     56  N   UNL     1      -1.014  -3.451  15.960  1.00  0.00    -0.248 NA
ATOM     57  C   UNL     1      -2.083  -1.588  16.879  1.00  0.00     0.031 C 
ATOM     58  C   UNL     1      -1.679  -7.630  17.291  1.00  0.00     0.029 A 
ATOM     59  C   UNL     1      -1.494  -6.316  16.893  1.00  0.00     0.049 A 
ATOM     60  H   UNL     1      -0.280  -5.551  15.345  1.00  0.00     0.167 HD
ATOM     61  C   UNL     1      -1.852  -3.866  16.987  1.00  0.00     0.074 A 
ATOM     62  C   UNL     1      -2.459  -2.673  17.541  1.00  0.00     0.031 C 
ATOM     63  C   UNL     1      -2.095  -5.123  17.433  1.00  0.00     0.031 A 
BRANCH  50  64
ATOM     64  C   UNL     1       0.938  -9.515  14.324  1.00  0.00    -0.014 A 
ATOM     65  C   UNL     1       2.181 -10.095  14.625  1.00  0.00     0.009 A 
ATOM     66  C   UNL     1      -0.099 -10.338  13.857  1.00  0.00     0.009 A 
ATOM     67  C   UNL     1       2.391 -11.461  14.427  1.00  0.00     0.001 A 
ATOM     68  C   UNL     1       0.105 -11.709  13.690  1.00  0.00     0.001 A 
ATOM     69  C   UNL     1       1.352 -12.268  13.965  1.00  0.00     0.000 A 
ENDBRANCH  50  64
BRANCH  51  70
ATOM     70  C   UNL     1      -0.698   0.291  15.123  1.00  0.00    -0.014 A 
ATOM     71  C   UNL     1      -0.269   1.011  16.249  1.00  0.00     0.009 A 
ATOM     72  C   UNL     1      -1.389   0.970  14.108  1.00  0.00     0.009 A 
ATOM     73  C   UNL     1      -0.552   2.373  16.369  1.00  0.00     0.001 A 
ATOM     74  C   UNL     1      -1.643   2.339  14.216  1.00  0.00     0.001 A 
ATOM     75  C   UNL     1      -1.233   3.037  15.350  1.00  0.00     0.000 A 
ENDBRANCH  51  70
BRANCH  63  76
ATOM     76  C   UNL     1      -3.030  -5.271  18.600  1.00  0.00    -0.014 A 
ATOM     77  C   UNL     1      -4.410  -5.053  18.465  1.00  0.00     0.009 A 
ATOM     78  C   UNL     1      -2.524  -5.672  19.847  1.00  0.00     0.009 A 
ATOM     79  C   UNL     1      -5.259  -5.199  19.565  1.00  0.00     0.001 A 
ATOM     80  C   UNL     1      -3.379  -5.848  20.936  1.00  0.00     0.001 A 
ATOM     81  C   UNL     1      -4.743  -5.602  20.797  1.00  0.00     0.000 A 
ENDBRANCH  63  76
ENDBRANCH  37  38
ENDBRANCH  29  32
ENDBRANCH  27  28
ENDBRANCH  26  27
ENDBRANCH  25  26
ENDBRANCH   1  25
TORSDOF 16
