REMARK SMILES C=CCN(CC(=O)NCCCCCCNC(=O)c1ccc(-c2c3nc(c(-c4ccccc4)c4ccc([nH]4)c(-c4ccccc4)c4nc(c(-c5ccccc5)c5ccc2[nH]5)C=C4)C=C3)cc1)c1nc2ccccc2s1
REMARK SMILES IDX 11 1 10 2 9 3 8 4 6 5 7 6 5 8 4 9 3 10 2 11 1 12 66 13 67 14
REMARK SMILES IDX 74 15 68 16 73 17 69 18 72 19 70 20 71 21 12 22 13 23 14 24
REMARK SMILES IDX 15 25 16 26 17 28 18 29 19 30 65 31 20 32 64 33 21 34 22 35
REMARK SMILES IDX 23 36 58 37 24 38 63 39 57 40 59 41 25 42 62 43 56 44 55 45
REMARK SMILES IDX 26 47 48 48 33 49 47 50 34 51 37 52 46 53 60 54 35 55 36 56
REMARK SMILES IDX 45 58 61 59 38 60 27 61 28 62 32 63 29 64 31 65 30 66 49 67
REMARK SMILES IDX 50 68 54 69 51 70 53 71 52 72 39 73 40 74 44 75 41 76 43 77
REMARK SMILES IDX 42 78
REMARK H PARENT 8 7 15 27 59 46 37 57
REMARK Flexibility Score: inf
ROOT
ATOM      1  C   UNL     1      -5.624   1.412  -0.698  1.00  0.00     0.002 C 
ENDROOT
BRANCH   1   2
ATOM      2  C   UNL     1      -4.264   0.726  -0.514  1.00  0.00     0.021 C 
BRANCH   2   3
ATOM      3  C   UNL     1      -4.313  -0.791  -0.680  1.00  0.00     0.116 C 
BRANCH   3   4
ATOM      4  N   UNL     1      -4.556  -1.173  -2.049  1.00  0.00    -0.355 N 
ATOM      5  C   UNL     1      -3.704  -1.730  -2.960  1.00  0.00     0.239 C 
ATOM      6  O   UNL     1      -4.182  -2.051  -4.054  1.00  0.00    -0.273 OA
ATOM      7  H   UNL     1      -5.470  -1.007  -2.375  1.00  0.00     0.163 HD
BRANCH   5   8
ATOM      8  C   UNL     1      -2.253  -2.075  -2.583  1.00  0.00     0.219 C 
BRANCH   8   9
ATOM      9  N   UNL     1      -1.380  -0.938  -2.229  1.00  0.00    -0.335 N 
BRANCH   9  10
ATOM     10  C   UNL     1      -0.891  -0.837  -0.863  1.00  0.00     0.146 C 
BRANCH  10  11
ATOM     11  C   UNL     1       0.597  -0.965  -0.757  1.00  0.00    -0.014 C 
ATOM     12  C   UNL     1       1.363  -0.101  -0.073  1.00  0.00     0.006 C 
ENDBRANCH  10  11
ENDBRANCH   9  10
BRANCH   9  13
ATOM     13  C   UNL     1      -1.199   0.043  -3.165  1.00  0.00     0.187 A 
ATOM     14  N   UNL     1      -2.082   0.293  -4.105  1.00  0.00    -0.220 NA
ATOM     15  S   UNL     1       0.212   1.038  -3.273  1.00  0.00    -0.097 S 
ATOM     16  C   UNL     1      -1.645   1.278  -4.970  1.00  0.00     0.084 A 
ATOM     17  C   UNL     1      -0.373   1.774  -4.706  1.00  0.00     0.056 A 
ATOM     18  C   UNL     1      -2.360   1.791  -6.070  1.00  0.00     0.030 A 
ATOM     19  C   UNL     1       0.241   2.728  -5.533  1.00  0.00     0.021 A 
ATOM     20  C   UNL     1      -1.769   2.756  -6.892  1.00  0.00     0.002 A 
ATOM     21  C   UNL     1      -0.478   3.208  -6.632  1.00  0.00     0.002 A 
ENDBRANCH   9  13
ENDBRANCH   8   9
ENDBRANCH   5   8
ENDBRANCH   3   4
ENDBRANCH   2   3
ENDBRANCH   1   2
BRANCH   1  22
ATOM     22  C   UNL     1      -6.737   0.911   0.231  1.00  0.00     0.002 C 
BRANCH  22  23
ATOM     23  C   UNL     1      -6.412   0.973   1.725  1.00  0.00     0.021 C 
BRANCH  23  24
ATOM     24  C   UNL     1      -6.120   2.375   2.249  1.00  0.00     0.116 C 
BRANCH  24  25
ATOM     25  N   UNL     1      -7.277   3.250   2.141  1.00  0.00    -0.352 N 
ATOM     26  C   UNL     1      -7.906   3.990   3.111  1.00  0.00     0.251 C 
ATOM     27  H   UNL     1      -7.666   3.322   1.240  1.00  0.00     0.163 HD
ATOM     28  O   UNL     1      -8.991   4.513   2.884  1.00  0.00    -0.269 OA
BRANCH  26  29
ATOM     29  C   UNL     1      -7.281   4.141   4.443  1.00  0.00     0.039 A 
ATOM     30  C   UNL     1      -8.080   4.015   5.582  1.00  0.00     0.014 A 
ATOM     31  C   UNL     1      -5.917   4.417   4.569  1.00  0.00     0.014 A 
ATOM     32  C   UNL     1      -7.499   4.106   6.848  1.00  0.00     0.010 A 
ATOM     33  C   UNL     1      -5.327   4.431   5.829  1.00  0.00     0.010 A 
ATOM     34  C   UNL     1      -6.112   4.280   6.982  1.00  0.00    -0.014 A 
BRANCH  34  35
ATOM     35  C   UNL     1      -5.466   4.301   8.319  1.00  0.00     0.031 A 
ATOM     36  C   UNL     1      -4.759   5.538   8.801  1.00  0.00     0.074 A 
ATOM     37  C   UNL     1      -5.463   3.185   9.075  1.00  0.00     0.049 A 
ATOM     38  N   UNL     1      -4.096   5.729   9.914  1.00  0.00    -0.248 NA
ATOM     39  C   UNL     1      -4.778   6.707   7.907  1.00  0.00     0.031 C 
ATOM     40  C   UNL     1      -6.080   1.909   8.705  1.00  0.00     0.029 A 
ATOM     41  N   UNL     1      -4.918   2.944  10.311  1.00  0.00    -0.354 N 
ATOM     42  C   UNL     1      -3.608   7.027   9.845  1.00  0.00     0.074 A 
ATOM     43  C   UNL     1      -4.006   7.561   8.561  1.00  0.00     0.031 C 
ATOM     44  C   UNL     1      -5.903   1.030   9.705  1.00  0.00     0.029 A 
ATOM     45  C   UNL     1      -5.123   1.663  10.763  1.00  0.00     0.049 A 
ATOM     46  H   UNL     1      -4.426   3.625  10.825  1.00  0.00     0.167 HD
ATOM     47  C   UNL     1      -2.908   7.721  10.774  1.00  0.00     0.031 A 
ATOM     48  C   UNL     1      -4.722   1.061  11.899  1.00  0.00     0.031 A 
ATOM     49  C   UNL     1      -2.517   7.192  12.054  1.00  0.00     0.049 A 
ATOM     50  C   UNL     1      -3.925   1.847  12.903  1.00  0.00     0.074 A 
ATOM     51  C   UNL     1      -1.857   7.835  13.087  1.00  0.00     0.029 A 
ATOM     52  N   UNL     1      -2.746   5.891  12.474  1.00  0.00    -0.354 N 
ATOM     53  N   UNL     1      -3.536   3.098  12.855  1.00  0.00    -0.248 NA
ATOM     54  C   UNL     1      -3.521   1.138  14.126  1.00  0.00     0.031 C 
ATOM     55  C   UNL     1      -1.630   6.905  14.106  1.00  0.00     0.029 A 
ATOM     56  C   UNL     1      -2.211   5.702  13.737  1.00  0.00     0.049 A 
ATOM     57  H   UNL     1      -3.218   5.203  11.952  1.00  0.00     0.167 HD
ATOM     58  C   UNL     1      -2.870   3.334  14.051  1.00  0.00     0.074 A 
ATOM     59  C   UNL     1      -2.924   2.103  14.811  1.00  0.00     0.031 C 
ATOM     60  C   UNL     1      -2.270   4.470  14.482  1.00  0.00     0.031 A 
BRANCH  47  61
ATOM     61  C   UNL     1      -2.505   9.130  10.433  1.00  0.00    -0.014 A 
ATOM     62  C   UNL     1      -3.457  10.157  10.324  1.00  0.00     0.009 A 
ATOM     63  C   UNL     1      -1.148   9.444  10.256  1.00  0.00     0.009 A 
ATOM     64  C   UNL     1      -3.062  11.459  10.008  1.00  0.00     0.001 A 
ATOM     65  C   UNL     1      -0.753  10.752   9.973  1.00  0.00     0.001 A 
ATOM     66  C   UNL     1      -1.710  11.756   9.839  1.00  0.00     0.000 A 
ENDBRANCH  47  61
BRANCH  48  67
ATOM     67  C   UNL     1      -5.070  -0.362  12.153  1.00  0.00    -0.014 A 
ATOM     68  C   UNL     1      -5.973  -0.706  13.171  1.00  0.00     0.009 A 
ATOM     69  C   UNL     1      -4.489  -1.387  11.389  1.00  0.00     0.009 A 
ATOM     70  C   UNL     1      -6.263  -2.046  13.438  1.00  0.00     0.001 A 
ATOM     71  C   UNL     1      -4.805  -2.724  11.637  1.00  0.00     0.001 A 
ATOM     72  C   UNL     1      -5.682  -3.053  12.669  1.00  0.00     0.000 A 
ENDBRANCH  48  67
BRANCH  60  73
ATOM     73  C   UNL     1      -1.656   4.447  15.854  1.00  0.00    -0.014 A 
ATOM     74  C   UNL     1      -0.488   3.717  16.123  1.00  0.00     0.009 A 
ATOM     75  C   UNL     1      -2.237   5.203  16.885  1.00  0.00     0.009 A 
ATOM     76  C   UNL     1       0.064   3.715  17.406  1.00  0.00     0.001 A 
ATOM     77  C   UNL     1      -1.664   5.226  18.157  1.00  0.00     0.001 A 
ATOM     78  C   UNL     1      -0.521   4.474  18.420  1.00  0.00     0.000 A 
ENDBRANCH  60  73
ENDBRANCH  34  35
ENDBRANCH  26  29
ENDBRANCH  24  25
ENDBRANCH  23  24
ENDBRANCH  22  23
ENDBRANCH   1  22
TORSDOF 17
