REMARK SMILES O=C(NCCCCCCNC(=O)c1ccc(S(=O)(=O)NCC[NH+]2CCCC2)c(F)c1)c1ccc(-c2c3nc(c(-c4ccccc4)c4ccc([nH]4)c(-c4ccccc4)c4nc(c(-c5ccccc5)c5ccc2[nH]5)C=C4)C=C3)cc1
REMARK SMILES IDX 8 1 7 2 6 3 5 4 4 5 3 6 1 7 2 8 31 10 32 11 78 12 33 13
REMARK SMILES IDX 77 14 34 15 35 16 36 17 71 18 37 19 76 20 70 21 72 22 38 23
REMARK SMILES IDX 75 24 69 25 68 26 39 28 61 29 46 30 60 31 47 32 50 33 59 34
REMARK SMILES IDX 73 35 48 36 49 37 58 39 74 40 51 41 40 42 41 43 45 44 42 45
REMARK SMILES IDX 44 46 43 47 62 48 63 49 67 50 64 51 66 52 65 53 52 54 53 55
REMARK SMILES IDX 57 56 54 57 56 58 55 59 9 60 10 61 11 62 12 64 13 65 14 66
REMARK SMILES IDX 30 67 15 68 28 69 16 70 29 71 17 72 18 73 19 74 20 75 21 77
REMARK SMILES IDX 22 78 23 79 24 80 27 81 25 83 26 84
REMARK H PARENT 3 9 72 27 50 38 10 63 20 76 23 82
REMARK Flexibility Score: inf
ROOT
ATOM      1  C   UNL     1       6.145  -2.838   3.428  1.00  0.00     0.021 C 
ENDROOT
BRANCH   1   2
ATOM      2  C   UNL     1       4.622  -2.683   3.492  1.00  0.00     0.002 C 
BRANCH   2   3
ATOM      3  C   UNL     1       4.105  -1.254   3.671  1.00  0.00     0.002 C 
BRANCH   3   4
ATOM      4  C   UNL     1       4.598  -0.235   2.642  1.00  0.00     0.021 C 
BRANCH   4   5
ATOM      5  C   UNL     1       4.361  -0.611   1.182  1.00  0.00     0.116 C 
BRANCH   5   6
ATOM      6  N   UNL     1       2.952  -0.766   0.871  1.00  0.00    -0.352 N 
ATOM      7  O   UNL     1       0.982  -0.298  -0.115  1.00  0.00    -0.269 OA
ATOM      8  C   UNL     1       2.201  -0.161  -0.104  1.00  0.00     0.251 C 
ATOM      9  H   UNL     1       2.463  -1.400   1.444  1.00  0.00     0.163 HD
BRANCH   8  10
ATOM     10  C   UNL     1       2.853   0.676  -1.134  1.00  0.00     0.039 A 
ATOM     11  C   UNL     1       3.992   0.233  -1.814  1.00  0.00     0.014 A 
ATOM     12  C   UNL     1       2.280   1.910  -1.452  1.00  0.00     0.014 A 
ATOM     13  C   UNL     1       4.612   1.064  -2.745  1.00  0.00     0.010 A 
ATOM     14  C   UNL     1       2.871   2.719  -2.424  1.00  0.00     0.010 A 
ATOM     15  C   UNL     1       4.051   2.310  -3.064  1.00  0.00    -0.014 A 
BRANCH  15  16
ATOM     16  C   UNL     1       4.662   3.163  -4.110  1.00  0.00     0.031 A 
ATOM     17  C   UNL     1       5.295   4.477  -3.757  1.00  0.00     0.074 A 
ATOM     18  C   UNL     1       4.600   2.767  -5.395  1.00  0.00     0.049 A 
ATOM     19  N   UNL     1       5.800   5.387  -4.550  1.00  0.00    -0.248 NA
ATOM     20  C   UNL     1       5.360   4.818  -2.328  1.00  0.00     0.031 C 
ATOM     21  C   UNL     1       4.003   1.515  -5.863  1.00  0.00     0.029 A 
ATOM     22  N   UNL     1       5.031   3.384  -6.541  1.00  0.00    -0.354 N 
ATOM     23  C   UNL     1       6.221   6.419  -3.722  1.00  0.00     0.074 A 
ATOM     24  C   UNL     1       5.899   6.029  -2.365  1.00  0.00     0.031 C 
ATOM     25  C   UNL     1       4.106   1.455  -7.199  1.00  0.00     0.029 A 
ATOM     26  C   UNL     1       4.731   2.683  -7.682  1.00  0.00     0.049 A 
ATOM     27  H   UNL     1       5.508   4.245  -6.545  1.00  0.00     0.167 HD
ATOM     28  C   UNL     1       6.818   7.586  -4.063  1.00  0.00     0.031 A 
ATOM     29  C   UNL     1       4.906   3.002  -8.977  1.00  0.00     0.031 A 
ATOM     30  C   UNL     1       7.136   7.972  -5.412  1.00  0.00     0.049 A 
ATOM     31  C   UNL     1       5.542   4.312  -9.333  1.00  0.00     0.074 A 
ATOM     32  C   UNL     1       7.787   9.112  -5.853  1.00  0.00     0.029 A 
ATOM     33  N   UNL     1       6.815   7.233  -6.540  1.00  0.00    -0.354 N 
ATOM     34  N   UNL     1       5.976   5.258  -8.536  1.00  0.00    -0.248 NA
ATOM     35  C   UNL     1       5.715   4.598 -10.764  1.00  0.00     0.031 C 
ATOM     36  C   UNL     1       7.819   9.084  -7.251  1.00  0.00     0.029 A 
ATOM     37  C   UNL     1       7.229   7.905  -7.678  1.00  0.00     0.049 A 
ATOM     38  H   UNL     1       6.360   6.360  -6.533  1.00  0.00     0.167 HD
ATOM     39  C   UNL     1       6.487   6.246  -9.366  1.00  0.00     0.074 A 
ATOM     40  C   UNL     1       6.318   5.780 -10.728  1.00  0.00     0.031 C 
ATOM     41  C   UNL     1       7.049   7.431  -9.026  1.00  0.00     0.031 A 
BRANCH  28  42
ATOM     42  C   UNL     1       7.136   8.547  -2.952  1.00  0.00    -0.014 A 
ATOM     43  C   UNL     1       8.189   8.306  -2.057  1.00  0.00     0.009 A 
ATOM     44  C   UNL     1       6.382   9.723  -2.816  1.00  0.00     0.009 A 
ATOM     45  C   UNL     1       8.457   9.207  -1.024  1.00  0.00     0.001 A 
ATOM     46  C   UNL     1       6.668  10.633  -1.797  1.00  0.00     0.001 A 
ATOM     47  C   UNL     1       7.698  10.370  -0.896  1.00  0.00     0.000 A 
ENDBRANCH  28  42
BRANCH  29  48
ATOM     48  C   UNL     1       4.444   2.057 -10.023  1.00  0.00    -0.014 A 
ATOM     49  C   UNL     1       5.364   1.271 -10.731  1.00  0.00     0.009 A 
ATOM     50  C   UNL     1       3.072   1.894 -10.272  1.00  0.00     0.009 A 
ATOM     51  C   UNL     1       4.917   0.341 -11.672  1.00  0.00     0.001 A 
ATOM     52  C   UNL     1       2.628   0.948 -11.197  1.00  0.00     0.001 A 
ATOM     53  C   UNL     1       3.551   0.175 -11.899  1.00  0.00     0.000 A 
ENDBRANCH  29  48
BRANCH  41  54
ATOM     54  C   UNL     1       7.547   8.299 -10.144  1.00  0.00    -0.014 A 
ATOM     55  C   UNL     1       6.659   9.055 -10.923  1.00  0.00     0.009 A 
ATOM     56  C   UNL     1       8.926   8.403 -10.380  1.00  0.00     0.009 A 
ATOM     57  C   UNL     1       7.145   9.888 -11.933  1.00  0.00     0.001 A 
ATOM     58  C   UNL     1       9.409   9.252 -11.377  1.00  0.00     0.001 A 
ATOM     59  C   UNL     1       8.518   9.990 -12.155  1.00  0.00     0.000 A 
ENDBRANCH  41  54
ENDBRANCH  15  16
ENDBRANCH   8  10
ENDBRANCH   5   6
ENDBRANCH   4   5
ENDBRANCH   3   4
ENDBRANCH   2   3
ENDBRANCH   1   2
BRANCH   1  60
ATOM     60  C   UNL     1       6.919  -2.231   4.596  1.00  0.00     0.116 C 
BRANCH  60  61
ATOM     61  N   UNL     1       6.553  -2.816   5.875  1.00  0.00    -0.352 N 
ATOM     62  C   UNL     1       7.354  -3.325   6.865  1.00  0.00     0.251 C 
ATOM     63  H   UNL     1       5.586  -2.852   6.058  1.00  0.00     0.163 HD
ATOM     64  O   UNL     1       6.863  -3.906   7.826  1.00  0.00    -0.269 OA
BRANCH  62  65
ATOM     65  C   UNL     1       8.823  -3.206   6.761  1.00  0.00     0.042 A 
ATOM     66  C   UNL     1       9.434  -1.976   6.497  1.00  0.00     0.015 A 
ATOM     67  C   UNL     1       9.598  -4.353   6.954  1.00  0.00     0.054 A 
ATOM     68  C   UNL     1      10.816  -1.917   6.320  1.00  0.00     0.026 A 
ATOM     69  C   UNL     1      10.981  -4.282   6.804  1.00  0.00     0.144 A 
ATOM     70  C   UNL     1      11.585  -3.082   6.455  1.00  0.00     0.118 A 
ATOM     71  F   UNL     1      11.692  -5.402   6.982  1.00  0.00    -0.205 F 
BRANCH  70  72
ATOM     72  S   UNL     1      13.310  -2.976   6.117  1.00  0.00     0.243 S 
ATOM     73  O   UNL     1      13.450  -2.085   4.986  1.00  0.00    -0.207 OA
ATOM     74  O   UNL     1      13.966  -2.706   7.377  1.00  0.00    -0.207 OA
BRANCH  72  75
ATOM     75  N   UNL     1      13.814  -4.484   5.631  1.00  0.00    -0.205 NA
ATOM     76  H   UNL     1      13.566  -5.119   6.390  1.00  0.00     0.141 HD
BRANCH  75  77
ATOM     77  C   UNL     1      13.357  -5.132   4.404  1.00  0.00     0.160 C 
BRANCH  77  78
ATOM     78  C   UNL     1      14.088  -4.664   3.130  1.00  0.00     0.278 C 
BRANCH  78  79
ATOM     79  N   UNL     1      15.524  -4.910   2.951  1.00  0.00    -0.334 N 
ATOM     80  C   UNL     1      15.939  -6.308   2.988  1.00  0.00     0.262 C 
ATOM     81  C   UNL     1      16.398  -4.173   3.862  1.00  0.00     0.262 C 
ATOM     82  H   UNL     1      15.642  -4.556   2.001  1.00  0.00     0.348 HD
ATOM     83  C   UNL     1      16.480  -6.543   4.384  1.00  0.00     0.067 C 
ATOM     84  C   UNL     1      16.987  -5.185   4.837  1.00  0.00     0.067 C 
ENDBRANCH  78  79
ENDBRANCH  77  78
ENDBRANCH  75  77
ENDBRANCH  72  75
ENDBRANCH  70  72
ENDBRANCH  62  65
ENDBRANCH  60  61
ENDBRANCH   1  60
TORSDOF 18
