REMARK SMILES COc1ccc2c(c1)c(CC(=O)NCCCCCCNC(=O)c1ccc(-c3c4nc(c(-c5ccccc5)c5ccc([nH]5)c(-c5ccccc5)c5nc(c(-c6ccccc6)c6ccc3[nH]6)C=C5)C=C4)cc1)c(C)n2C(=O)c1ccc(Cl)cc1
REMARK SMILES IDX 16 1 15 2 14 3 13 4 11 5 12 6 10 8 9 9 3 10 4 11 8 12 5 13
REMARK SMILES IDX 7 14 6 15 73 16 71 17 72 18 2 19 1 20 74 21 75 22 76 23
REMARK SMILES IDX 77 24 82 25 78 26 81 27 79 28 80 29 17 30 18 31 19 32 20 33
REMARK SMILES IDX 21 34 22 36 23 37 24 38 70 39 25 40 69 41 26 42 27 43 28 44
REMARK SMILES IDX 63 45 29 46 68 47 62 48 64 49 30 50 67 51 61 52 60 53 31 55
REMARK SMILES IDX 53 56 38 57 52 58 39 59 42 60 51 61 65 62 40 63 41 64 50 66
REMARK SMILES IDX 66 67 43 68 32 69 33 70 37 71 34 72 36 73 35 74 54 75 55 76
REMARK SMILES IDX 59 77 56 78 58 79 57 80 44 81 45 82 49 83 46 84 48 85 47 86
REMARK H PARENT 13 7 20 35 64 54 42 65
REMARK Flexibility Score: inf
ROOT
ATOM      1  C   UNL     1       0.198  -8.425  -0.698  1.00  0.00     0.002 C 
ENDROOT
BRANCH   1   2
ATOM      2  C   UNL     1       0.180  -7.548  -1.956  1.00  0.00     0.021 C 
BRANCH   2   3
ATOM      3  C   UNL     1      -1.202  -7.408  -2.595  1.00  0.00     0.116 C 
BRANCH   3   4
ATOM      4  N   UNL     1      -2.049  -6.502  -1.845  1.00  0.00    -0.356 N 
ATOM      5  C   UNL     1      -2.447  -5.237  -2.172  1.00  0.00     0.224 C 
ATOM      6  O   UNL     1      -3.156  -4.621  -1.373  1.00  0.00    -0.275 OA
ATOM      7  H   UNL     1      -2.383  -6.844  -0.984  1.00  0.00     0.163 HD
BRANCH   5   8
ATOM      8  C   UNL     1      -2.073  -4.640  -3.521  1.00  0.00     0.138 C 
BRANCH   8   9
ATOM      9  C   UNL     1      -0.604  -4.361  -3.677  1.00  0.00    -0.009 A 
ATOM     10  C   UNL     1       0.866  -1.978  -1.083  1.00  0.00     0.119 A 
ATOM     11  C   UNL     1       2.139  -1.924  -1.628  1.00  0.00     0.048 A 
ATOM     12  C   UNL     1      -0.108  -2.789  -1.666  1.00  0.00     0.057 A 
ATOM     13  C   UNL     1       2.456  -2.660  -2.773  1.00  0.00     0.031 A 
ATOM     14  C   UNL     1       0.188  -3.539  -2.827  1.00  0.00     0.008 A 
ATOM     15  C   UNL     1       1.483  -3.500  -3.356  1.00  0.00     0.057 A 
ATOM     16  N   UNL     1       1.536  -4.413  -4.421  1.00  0.00    -0.280 N 
ATOM     17  C   UNL     1       0.216  -4.776  -4.720  1.00  0.00     0.028 A 
ATOM     18  C   UNL     1      -0.191  -5.518  -5.955  1.00  0.00     0.065 C 
BRANCH  10  19
ATOM     19  O   UNL     1       0.491  -1.295   0.041  1.00  0.00    -0.497 OA
ATOM     20  C   UNL     1       0.950   0.054   0.070  1.00  0.00     0.278 C 
ENDBRANCH  10  19
BRANCH  16  21
ATOM     21  C   UNL     1       2.705  -4.902  -5.077  1.00  0.00     0.262 C 
ATOM     22  O   UNL     1       2.592  -5.753  -5.947  1.00  0.00    -0.268 OA
BRANCH  21  23
ATOM     23  C   UNL     1       4.083  -4.478  -4.770  1.00  0.00     0.040 A 
ATOM     24  C   UNL     1       4.699  -4.869  -3.576  1.00  0.00     0.015 A 
ATOM     25  C   UNL     1       4.749  -3.660  -5.689  1.00  0.00     0.015 A 
ATOM     26  C   UNL     1       5.967  -4.370  -3.267  1.00  0.00     0.021 A 
ATOM     27  C   UNL     1       6.019  -3.172  -5.377  1.00  0.00     0.021 A 
ATOM     28  C   UNL     1       6.615  -3.515  -4.162  1.00  0.00     0.041 A 
ATOM     29  Cl  UNL     1       8.153  -2.861  -3.755  1.00  0.00    -0.084 Cl
ENDBRANCH  21  23
ENDBRANCH  16  21
ENDBRANCH   8   9
ENDBRANCH   5   8
ENDBRANCH   3   4
ENDBRANCH   2   3
ENDBRANCH   1   2
BRANCH   1  30
ATOM     30  C   UNL     1      -0.218  -9.885  -0.913  1.00  0.00     0.002 C 
BRANCH  30  31
ATOM     31  C   UNL     1       0.599 -10.663  -1.952  1.00  0.00     0.021 C 
BRANCH  31  32
ATOM     32  C   UNL     1       2.096 -10.760  -1.647  1.00  0.00     0.116 C 
BRANCH  32  33
ATOM     33  N   UNL     1       2.385 -11.330  -0.346  1.00  0.00    -0.352 N 
ATOM     34  C   UNL     1       2.515 -12.595   0.157  1.00  0.00     0.251 C 
ATOM     35  H   UNL     1       2.519 -10.639   0.342  1.00  0.00     0.163 HD
ATOM     36  O   UNL     1       2.849 -12.670   1.343  1.00  0.00    -0.269 OA
BRANCH  34  37
ATOM     37  C   UNL     1       2.261 -13.863  -0.588  1.00  0.00     0.039 A 
ATOM     38  C   UNL     1       1.871 -13.960  -1.921  1.00  0.00     0.014 A 
ATOM     39  C   UNL     1       2.400 -15.059   0.148  1.00  0.00     0.014 A 
ATOM     40  C   UNL     1       1.573 -15.203  -2.481  1.00  0.00     0.010 A 
ATOM     41  C   UNL     1       2.120 -16.307  -0.413  1.00  0.00     0.010 A 
ATOM     42  C   UNL     1       1.677 -16.380  -1.728  1.00  0.00    -0.014 A 
BRANCH  42  43
ATOM     43  C   UNL     1       1.376 -17.641  -2.412  1.00  0.00     0.031 A 
ATOM     44  C   UNL     1       2.171 -17.912  -3.641  1.00  0.00     0.074 A 
ATOM     45  C   UNL     1       0.490 -18.576  -2.015  1.00  0.00     0.049 A 
ATOM     46  N   UNL     1       1.742 -17.967  -4.860  1.00  0.00    -0.248 NA
ATOM     47  C   UNL     1       3.623 -18.086  -3.502  1.00  0.00     0.031 C 
ATOM     48  C   UNL     1      -0.173 -18.705  -0.717  1.00  0.00     0.029 A 
ATOM     49  N   UNL     1       0.044 -19.672  -2.707  1.00  0.00    -0.354 N 
ATOM     50  C   UNL     1       2.840 -18.315  -5.641  1.00  0.00     0.074 A 
ATOM     51  C   UNL     1       3.989 -18.290  -4.769  1.00  0.00     0.031 C 
ATOM     52  C   UNL     1      -0.765 -19.920  -0.639  1.00  0.00     0.029 A 
ATOM     53  C   UNL     1      -0.676 -20.569  -1.938  1.00  0.00     0.049 A 
ATOM     54  H   UNL     1       0.221 -19.809  -3.665  1.00  0.00     0.167 HD
ATOM     55  C   UNL     1       2.701 -18.766  -6.917  1.00  0.00     0.031 A 
ATOM     56  C   UNL     1      -1.169 -21.766  -2.327  1.00  0.00     0.031 A 
ATOM     57  C   UNL     1       1.376 -18.561  -7.431  1.00  0.00     0.049 A 
ATOM     58  C   UNL     1      -1.359 -21.764  -3.792  1.00  0.00     0.074 A 
ATOM     59  C   UNL     1       0.671 -17.535  -8.015  1.00  0.00     0.029 A 
ATOM     60  N   UNL     1       0.477 -19.531  -7.082  1.00  0.00    -0.354 N 
ATOM     61  N   UNL     1      -2.232 -21.017  -4.403  1.00  0.00    -0.248 NA
ATOM     62  C   UNL     1      -0.412 -22.455  -4.659  1.00  0.00     0.031 C 
ATOM     63  C   UNL     1      -0.710 -17.838  -7.818  1.00  0.00     0.029 A 
ATOM     64  C   UNL     1      -0.805 -19.044  -7.127  1.00  0.00     0.049 A 
ATOM     65  H   UNL     1       0.716 -20.453  -6.833  1.00  0.00     0.167 HD
ATOM     66  C   UNL     1      -1.691 -20.813  -5.655  1.00  0.00     0.074 A 
ATOM     67  C   UNL     1      -0.695 -21.861  -5.820  1.00  0.00     0.031 C 
ATOM     68  C   UNL     1      -1.847 -19.626  -6.305  1.00  0.00     0.031 A 
BRANCH  55  69
ATOM     69  C   UNL     1       3.642 -19.730  -7.592  1.00  0.00    -0.014 A 
ATOM     70  C   UNL     1       4.509 -20.578  -6.878  1.00  0.00     0.009 A 
ATOM     71  C   UNL     1       3.468 -20.010  -8.961  1.00  0.00     0.009 A 
ATOM     72  C   UNL     1       5.174 -21.643  -7.495  1.00  0.00     0.001 A 
ATOM     73  C   UNL     1       4.105 -21.097  -9.574  1.00  0.00     0.001 A 
ATOM     74  C   UNL     1       4.958 -21.914  -8.839  1.00  0.00     0.000 A 
ENDBRANCH  55  69
BRANCH  56  75
ATOM     75  C   UNL     1      -1.322 -23.004  -1.539  1.00  0.00    -0.014 A 
ATOM     76  C   UNL     1      -0.355 -23.332  -0.574  1.00  0.00     0.009 A 
ATOM     77  C   UNL     1      -2.226 -24.001  -1.939  1.00  0.00     0.009 A 
ATOM     78  C   UNL     1      -0.257 -24.631  -0.066  1.00  0.00     0.001 A 
ATOM     79  C   UNL     1      -2.126 -25.301  -1.430  1.00  0.00     0.001 A 
ATOM     80  C   UNL     1      -1.130 -25.619  -0.509  1.00  0.00     0.000 A 
ENDBRANCH  56  75
BRANCH  68  81
ATOM     81  C   UNL     1      -3.031 -18.771  -5.948  1.00  0.00    -0.014 A 
ATOM     82  C   UNL     1      -3.919 -18.410  -6.973  1.00  0.00     0.009 A 
ATOM     83  C   UNL     1      -3.251 -18.253  -4.662  1.00  0.00     0.009 A 
ATOM     84  C   UNL     1      -4.993 -17.553  -6.724  1.00  0.00     0.001 A 
ATOM     85  C   UNL     1      -4.342 -17.416  -4.406  1.00  0.00     0.001 A 
ATOM     86  C   UNL     1      -5.207 -17.061  -5.439  1.00  0.00     0.000 A 
ENDBRANCH  68  81
ENDBRANCH  42  43
ENDBRANCH  34  37
ENDBRANCH  32  33
ENDBRANCH  31  32
ENDBRANCH  30  31
ENDBRANCH   1  30
TORSDOF 17
