REMARK SMILES COc1ccc(-c2noc(CC(=O)NCCCCCCNC(=O)c3ccc(-c4c5nc(c(-c6ccccc6)c6ccc([nH]6)c(-c6ccccc6)c6nc(c(-c7ccccc7)c7ccc4[nH]7)C=C6)C=C5)cc3)c2-c2ccc(OC)cc2)cc1
REMARK SMILES IDX 17 1 16 2 15 3 14 4 12 5 13 6 11 8 10 9 7 10 8 11 72 12 9 13
REMARK SMILES IDX 6 14 3 15 4 16 82 17 5 18 81 19 2 20 1 21 73 22 74 23 80 24
REMARK SMILES IDX 75 25 79 26 76 27 77 28 78 29 18 30 19 31 20 32 21 33 22 34
REMARK SMILES IDX 23 36 24 37 25 38 71 39 26 40 70 41 27 42 28 43 29 44 64 45
REMARK SMILES IDX 30 46 69 47 63 48 65 49 31 50 68 51 62 52 61 53 32 55 54 56
REMARK SMILES IDX 39 57 53 58 40 59 43 60 52 61 66 62 41 63 42 64 51 66 67 67
REMARK SMILES IDX 44 68 33 69 34 70 38 71 35 72 37 73 36 74 55 75 56 76 60 77
REMARK SMILES IDX 57 78 59 79 58 80 45 81 46 82 50 83 47 84 49 85 48 86
REMARK H PARENT 14 7 21 35 65 54 43 65
REMARK Flexibility Score: inf
ROOT
ATOM      1  C   UNL     1       0.252  10.022  -3.359  1.00  0.00     0.002 C 
ENDROOT
BRANCH   1   2
ATOM      2  C   UNL     1       1.248   9.065  -2.693  1.00  0.00     0.021 C 
BRANCH   2   3
ATOM      3  C   UNL     1       2.697   9.551  -2.764  1.00  0.00     0.116 C 
BRANCH   3   4
ATOM      4  N   UNL     1       2.927  10.622  -1.818  1.00  0.00    -0.356 N 
ATOM      5  C   UNL     1       3.552  10.577  -0.605  1.00  0.00     0.227 C 
ATOM      6  O   UNL     1       3.547  11.597   0.088  1.00  0.00    -0.275 OA
ATOM      7  H   UNL     1       2.586  11.506  -2.086  1.00  0.00     0.163 HD
BRANCH   5   8
ATOM      8  C   UNL     1       4.328   9.344  -0.183  1.00  0.00     0.179 C 
BRANCH   8   9
ATOM      9  C   UNL     1       3.457   8.173   0.083  1.00  0.00     0.154 A 
ATOM     10  C   UNL     1       2.290   6.297   0.283  1.00  0.00     0.122 A 
ATOM     11  N   UNL     1       1.710   7.191   1.096  1.00  0.00    -0.079 NA
ATOM     12  C   UNL     1       3.407   6.877  -0.388  1.00  0.00     0.053 A 
ATOM     13  O   UNL     1       2.455   8.351   0.987  1.00  0.00    -0.360 OA
BRANCH  10  14
ATOM     14  C   UNL     1       1.783   4.939   0.136  1.00  0.00     0.005 A 
ATOM     15  C   UNL     1       0.876   2.321  -0.323  1.00  0.00     0.118 A 
ATOM     16  C   UNL     1       0.007   3.407  -0.461  1.00  0.00     0.047 A 
ATOM     17  C   UNL     1       2.202   2.545   0.043  1.00  0.00     0.047 A 
ATOM     18  C   UNL     1       0.451   4.710  -0.220  1.00  0.00     0.014 A 
ATOM     19  C   UNL     1       2.653   3.848   0.273  1.00  0.00     0.014 A 
BRANCH  15  20
ATOM     20  O   UNL     1       0.331   1.099  -0.607  1.00  0.00    -0.497 OA
ATOM     21  C   UNL     1       0.979  -0.021  -0.013  1.00  0.00     0.278 C 
ENDBRANCH  15  20
ENDBRANCH  10  14
BRANCH  12  22
ATOM     22  C   UNL     1       4.252   6.335  -1.436  1.00  0.00    -0.012 A 
ATOM     23  C   UNL     1       3.663   5.822  -2.599  1.00  0.00     0.013 A 
ATOM     24  C   UNL     1       5.644   6.316  -1.312  1.00  0.00     0.013 A 
ATOM     25  C   UNL     1       4.460   5.321  -3.629  1.00  0.00     0.047 A 
ATOM     26  C   UNL     1       6.440   5.809  -2.348  1.00  0.00     0.047 A 
ATOM     27  C   UNL     1       5.850   5.316  -3.513  1.00  0.00     0.118 A 
BRANCH  27  28
ATOM     28  O   UNL     1       6.506   4.807  -4.598  1.00  0.00    -0.497 OA
ATOM     29  C   UNL     1       7.926   4.804  -4.551  1.00  0.00     0.278 C 
ENDBRANCH  27  28
ENDBRANCH  12  22
ENDBRANCH   8   9
ENDBRANCH   5   8
ENDBRANCH   3   4
ENDBRANCH   2   3
ENDBRANCH   1   2
BRANCH   1  30
ATOM     30  C   UNL     1       0.470  10.240  -4.861  1.00  0.00     0.002 C 
BRANCH  30  31
ATOM     31  C   UNL     1       0.464   8.965  -5.709  1.00  0.00     0.021 C 
BRANCH  31  32
ATOM     32  C   UNL     1      -0.844   8.180  -5.662  1.00  0.00     0.116 C 
BRANCH  32  33
ATOM     33  N   UNL     1      -1.954   8.938  -6.219  1.00  0.00    -0.352 N 
ATOM     34  C   UNL     1      -2.829   8.597  -7.217  1.00  0.00     0.251 C 
ATOM     35  H   UNL     1      -2.098   9.826  -5.820  1.00  0.00     0.163 HD
ATOM     36  O   UNL     1      -3.580   9.445  -7.698  1.00  0.00    -0.269 OA
BRANCH  34  37
ATOM     37  C   UNL     1      -2.865   7.213  -7.732  1.00  0.00     0.039 A 
ATOM     38  C   UNL     1      -2.929   7.006  -9.113  1.00  0.00     0.014 A 
ATOM     39  C   UNL     1      -2.856   6.122  -6.858  1.00  0.00     0.014 A 
ATOM     40  C   UNL     1      -2.924   5.705  -9.620  1.00  0.00     0.010 A 
ATOM     41  C   UNL     1      -2.787   4.828  -7.366  1.00  0.00     0.010 A 
ATOM     42  C   UNL     1      -2.821   4.607  -8.751  1.00  0.00    -0.014 A 
BRANCH  42  43
ATOM     43  C   UNL     1      -2.742   3.220  -9.272  1.00  0.00     0.031 A 
ATOM     44  C   UNL     1      -3.842   2.237  -8.983  1.00  0.00     0.074 A 
ATOM     45  C   UNL     1      -1.645   2.825  -9.947  1.00  0.00     0.049 A 
ATOM     46  N   UNL     1      -3.916   0.967  -9.292  1.00  0.00    -0.248 NA
ATOM     47  C   UNL     1      -5.001   2.742  -8.229  1.00  0.00     0.031 C 
ATOM     48  C   UNL     1      -0.492   3.671 -10.262  1.00  0.00     0.029 A 
ATOM     49  N   UNL     1      -1.317   1.604 -10.481  1.00  0.00    -0.354 N 
ATOM     50  C   UNL     1      -5.116   0.518  -8.755  1.00  0.00     0.074 A 
ATOM     51  C   UNL     1      -5.717   1.639  -8.065  1.00  0.00     0.031 C 
ATOM     52  C   UNL     1       0.406   2.950 -10.952  1.00  0.00     0.029 A 
ATOM     53  C   UNL     1      -0.088   1.584 -11.093  1.00  0.00     0.049 A 
ATOM     54  H   UNL     1      -1.907   0.818 -10.430  1.00  0.00     0.167 HD
ATOM     55  C   UNL     1      -5.675  -0.713  -8.841  1.00  0.00     0.031 A 
ATOM     56  C   UNL     1       0.573   0.577 -11.692  1.00  0.00     0.031 A 
ATOM     57  C   UNL     1      -5.084  -1.826  -9.535  1.00  0.00     0.049 A 
ATOM     58  C   UNL     1      -0.062  -0.783 -11.760  1.00  0.00     0.074 A 
ATOM     59  C   UNL     1      -5.601  -3.095  -9.728  1.00  0.00     0.029 A 
ATOM     60  N   UNL     1      -3.840  -1.803 -10.145  1.00  0.00    -0.354 N 
ATOM     61  N   UNL     1      -1.226  -1.175 -11.304  1.00  0.00    -0.248 NA
ATOM     62  C   UNL     1       0.708  -1.838 -12.434  1.00  0.00     0.031 C 
ATOM     63  C   UNL     1      -4.648  -3.856 -10.414  1.00  0.00     0.029 A 
ATOM     64  C   UNL     1      -3.561  -3.044 -10.693  1.00  0.00     0.049 A 
ATOM     65  H   UNL     1      -3.243  -1.021 -10.183  1.00  0.00     0.167 HD
ATOM     66  C   UNL     1      -1.340  -2.513 -11.655  1.00  0.00     0.074 A 
ATOM     67  C   UNL     1      -0.133  -2.861 -12.377  1.00  0.00     0.031 C 
ATOM     68  C   UNL     1      -2.353  -3.377 -11.402  1.00  0.00     0.031 A 
BRANCH  55  69
ATOM     69  C   UNL     1      -6.997  -0.920  -8.155  1.00  0.00    -0.014 A 
ATOM     70  C   UNL     1      -8.173  -0.334  -8.650  1.00  0.00     0.009 A 
ATOM     71  C   UNL     1      -7.073  -1.738  -7.018  1.00  0.00     0.009 A 
ATOM     72  C   UNL     1      -9.391  -0.533  -7.996  1.00  0.00     0.001 A 
ATOM     73  C   UNL     1      -8.297  -1.958  -6.383  1.00  0.00     0.001 A 
ATOM     74  C   UNL     1      -9.453  -1.348  -6.867  1.00  0.00     0.000 A 
ENDBRANCH  55  69
BRANCH  56  75
ATOM     75  C   UNL     1       1.913   0.818 -12.287  1.00  0.00    -0.014 A 
ATOM     76  C   UNL     1       2.079   0.836 -13.681  1.00  0.00     0.009 A 
ATOM     77  C   UNL     1       3.032   1.030 -11.467  1.00  0.00     0.009 A 
ATOM     78  C   UNL     1       3.342   1.036 -14.240  1.00  0.00     0.001 A 
ATOM     79  C   UNL     1       4.289   1.258 -12.030  1.00  0.00     0.001 A 
ATOM     80  C   UNL     1       4.445   1.252 -13.415  1.00  0.00     0.000 A 
ENDBRANCH  56  75
BRANCH  68  81
ATOM     81  C   UNL     1      -2.210  -4.775 -11.934  1.00  0.00    -0.014 A 
ATOM     82  C   UNL     1      -1.318  -5.687 -11.349  1.00  0.00     0.009 A 
ATOM     83  C   UNL     1      -3.005  -5.194 -13.011  1.00  0.00     0.009 A 
ATOM     84  C   UNL     1      -1.203  -6.983 -11.855  1.00  0.00     0.001 A 
ATOM     85  C   UNL     1      -2.908  -6.499 -13.497  1.00  0.00     0.001 A 
ATOM     86  C   UNL     1      -2.001  -7.389 -12.924  1.00  0.00     0.000 A 
ENDBRANCH  68  81
ENDBRANCH  42  43
ENDBRANCH  34  37
ENDBRANCH  32  33
ENDBRANCH  31  32
ENDBRANCH  30  31
ENDBRANCH   1  30
TORSDOF 18
