REMARK SMILES C[C@@H]1[C@H](C(=O)NCCCCCCNC(=O)c2ccc(-c3c4nc(c(-c5ccccc5)c5ccc([nH]5)c(-c5ccccc5)c5nc(c(-c6ccccc6)c6ccc3[nH]6)C=C5)C=C4)cc2)CC[N@@H+]1CCOc1c(Cl)cccc1Cl
REMARK SMILES IDX 8 1 7 2 6 3 4 4 5 5 3 7 1 8 2 9 66 10 64 11 65 12 67 14
REMARK SMILES IDX 68 15 69 16 70 17 71 18 76 19 72 20 73 21 75 22 77 23 74 24
REMARK SMILES IDX 9 25 10 26 11 27 12 28 13 29 14 30 15 32 16 33 17 34 63 35
REMARK SMILES IDX 18 36 62 37 19 38 20 39 21 40 56 41 22 42 61 43 55 44 57 45
REMARK SMILES IDX 23 46 60 47 54 48 53 49 24 51 46 52 31 53 45 54 32 55 35 56
REMARK SMILES IDX 44 57 58 58 33 59 34 60 43 62 59 63 36 64 25 65 26 66 30 67
REMARK SMILES IDX 27 68 29 69 28 70 47 71 48 72 52 73 49 74 51 75 50 76 37 77
REMARK SMILES IDX 38 78 42 79 39 80 41 81 40 82
REMARK H PARENT 6 6 66 13 13 31 57 50 35 61
REMARK Flexibility Score: inf
ROOT
ATOM      1  C   UNL     1       3.085   1.766   2.445  1.00  0.00     0.021 C 
ENDROOT
BRANCH   1   2
ATOM      2  C   UNL     1       1.695   2.029   1.870  1.00  0.00     0.116 C 
BRANCH   2   3
ATOM      3  N   UNL     1       1.774   2.764   0.634  1.00  0.00    -0.356 N 
ATOM      4  C   UNL     1       1.558   2.385  -0.647  1.00  0.00     0.229 C 
ATOM      5  O   UNL     1       1.855   3.222  -1.509  1.00  0.00    -0.275 OA
ATOM      6  H   UNL     1       2.031   3.709   0.740  1.00  0.00     0.163 HD
BRANCH   4   7
ATOM      7  C   UNL     1       0.902   1.076  -1.077  1.00  0.00     0.142 C 
ATOM      8  C   UNL     1       2.752  -0.506  -0.024  1.00  0.00     0.076 C 
ATOM      9  C   UNL     1       1.503  -0.332  -0.865  1.00  0.00     0.193 C 
ATOM     10  N   UNL     1       0.355  -1.233  -0.613  1.00  0.00    -0.329 N 
ATOM     11  C   UNL     1      -0.557   0.933  -0.673  1.00  0.00     0.081 C 
ATOM     12  C   UNL     1      -0.839  -0.514  -1.035  1.00  0.00     0.263 C 
ATOM     13  H   UNL     1       0.555  -2.063  -1.171  1.00  0.00     0.348 HD
BRANCH  10  14
ATOM     14  C   UNL     1       0.228  -2.050   0.603  1.00  0.00     0.304 C 
BRANCH  14  15
ATOM     15  C   UNL     1      -0.254  -1.433   1.941  1.00  0.00     0.291 C 
BRANCH  15  16
ATOM     16  O   UNL     1      -1.651  -1.643   2.229  1.00  0.00    -0.485 OA
BRANCH  16  17
ATOM     17  C   UNL     1      -2.457  -0.545   2.045  1.00  0.00     0.156 A 
ATOM     18  C   UNL     1      -2.268   0.692   2.680  1.00  0.00     0.084 A 
ATOM     19  C   UNL     1      -3.542  -0.680   1.165  1.00  0.00     0.084 A 
ATOM     20  Cl  UNL     1      -1.178   0.901   4.009  1.00  0.00    -0.080 Cl
ATOM     21  C   UNL     1      -3.006   1.812   2.277  1.00  0.00     0.024 A 
ATOM     22  C   UNL     1      -4.274   0.440   0.758  1.00  0.00     0.024 A 
ATOM     23  Cl  UNL     1      -3.982  -2.218   0.503  1.00  0.00    -0.080 Cl
ATOM     24  C   UNL     1      -3.979   1.694   1.285  1.00  0.00     0.003 A 
ENDBRANCH  16  17
ENDBRANCH  15  16
ENDBRANCH  14  15
ENDBRANCH  10  14
ENDBRANCH   4   7
ENDBRANCH   2   3
ENDBRANCH   1   2
BRANCH   1  25
ATOM     25  C   UNL     1       3.687   2.946   3.208  1.00  0.00     0.002 C 
BRANCH  25  26
ATOM     26  C   UNL     1       2.998   3.279   4.533  1.00  0.00     0.002 C 
BRANCH  26  27
ATOM     27  C   UNL     1       2.849   2.115   5.517  1.00  0.00     0.021 C 
BRANCH  27  28
ATOM     28  C   UNL     1       4.120   1.317   5.798  1.00  0.00     0.116 C 
BRANCH  28  29
ATOM     29  N   UNL     1       5.207   2.148   6.284  1.00  0.00    -0.352 N 
ATOM     30  C   UNL     1       5.980   2.013   7.404  1.00  0.00     0.251 C 
ATOM     31  H   UNL     1       5.419   2.928   5.722  1.00  0.00     0.163 HD
ATOM     32  O   UNL     1       6.760   2.914   7.723  1.00  0.00    -0.269 OA
BRANCH  30  33
ATOM     33  C   UNL     1       5.879   0.806   8.248  1.00  0.00     0.039 A 
ATOM     34  C   UNL     1       5.845   0.964   9.636  1.00  0.00     0.014 A 
ATOM     35  C   UNL     1       5.860  -0.476   7.687  1.00  0.00     0.014 A 
ATOM     36  C   UNL     1       5.751  -0.158  10.460  1.00  0.00     0.010 A 
ATOM     37  C   UNL     1       5.703  -1.591   8.509  1.00  0.00     0.010 A 
ATOM     38  C   UNL     1       5.660  -1.443   9.903  1.00  0.00    -0.014 A 
BRANCH  38  39
ATOM     39  C   UNL     1       5.542  -2.638  10.775  1.00  0.00     0.031 A 
ATOM     40  C   UNL     1       6.660  -3.641  10.843  1.00  0.00     0.074 A 
ATOM     41  C   UNL     1       4.415  -2.834  11.486  1.00  0.00     0.049 A 
ATOM     42  N   UNL     1       6.739  -4.742  11.546  1.00  0.00    -0.248 NA
ATOM     43  C   UNL     1       7.836  -3.385   9.995  1.00  0.00     0.031 C 
ATOM     44  C   UNL     1       3.244  -1.955  11.479  1.00  0.00     0.029 A 
ATOM     45  N   UNL     1       4.073  -3.838  12.356  1.00  0.00    -0.354 N 
ATOM     46  C   UNL     1       7.961  -5.314  11.218  1.00  0.00     0.074 A 
ATOM     47  C   UNL     1       8.570  -4.465  10.217  1.00  0.00     0.031 C 
ATOM     48  C   UNL     1       2.326  -2.442  12.329  1.00  0.00     0.029 A 
ATOM     49  C   UNL     1       2.829  -3.680  12.916  1.00  0.00     0.049 A 
ATOM     50  H   UNL     1       4.663  -4.600  12.560  1.00  0.00     0.167 HD
ATOM     51  C   UNL     1       8.536  -6.434  11.717  1.00  0.00     0.031 A 
ATOM     52  C   UNL     1       2.169  -4.445  13.806  1.00  0.00     0.031 A 
ATOM     53  C   UNL     1       7.939  -7.272  12.722  1.00  0.00     0.049 A 
ATOM     54  C   UNL     1       2.826  -5.685  14.341  1.00  0.00     0.074 A 
ATOM     55  C   UNL     1       8.467  -8.397  13.332  1.00  0.00     0.029 A 
ATOM     56  N   UNL     1       6.678  -7.078  13.261  1.00  0.00    -0.354 N 
ATOM     57  N   UNL     1       4.013  -6.173  14.071  1.00  0.00    -0.248 NA
ATOM     58  C   UNL     1       2.057  -6.472  15.315  1.00  0.00     0.031 C 
ATOM     59  C   UNL     1       7.506  -8.909  14.211  1.00  0.00     0.029 A 
ATOM     60  C   UNL     1       6.400  -8.075  14.181  1.00  0.00     0.049 A 
ATOM     61  H   UNL     1       6.069  -6.341  13.025  1.00  0.00     0.167 HD
ATOM     62  C   UNL     1       4.141  -7.311  14.857  1.00  0.00     0.074 A 
ATOM     63  C   UNL     1       2.920  -7.429  15.627  1.00  0.00     0.031 C 
ATOM     64  C   UNL     1       5.178  -8.180  14.934  1.00  0.00     0.031 A 
BRANCH  51  65
ATOM     65  C   UNL     1       9.886  -6.816  11.177  1.00  0.00    -0.014 A 
ATOM     66  C   UNL     1      11.033  -6.072  11.494  1.00  0.00     0.009 A 
ATOM     67  C   UNL     1      10.018  -7.953  10.364  1.00  0.00     0.009 A 
ATOM     68  C   UNL     1      12.279  -6.436  10.979  1.00  0.00     0.001 A 
ATOM     69  C   UNL     1      11.268  -8.331   9.873  1.00  0.00     0.001 A 
ATOM     70  C   UNL     1      12.396  -7.568  10.172  1.00  0.00     0.000 A 
ENDBRANCH  51  65
BRANCH  52  71
ATOM     71  C   UNL     1       0.814  -4.047  14.267  1.00  0.00    -0.014 A 
ATOM     72  C   UNL     1       0.619  -3.567  15.571  1.00  0.00     0.009 A 
ATOM     73  C   UNL     1      -0.292  -4.149  13.408  1.00  0.00     0.009 A 
ATOM     74  C   UNL     1      -0.659  -3.222  16.015  1.00  0.00     0.001 A 
ATOM     75  C   UNL     1      -1.565  -3.778  13.846  1.00  0.00     0.001 A 
ATOM     76  C   UNL     1      -1.749  -3.324  15.151  1.00  0.00     0.000 A 
ENDBRANCH  52  71
BRANCH  64  77
ATOM     77  C   UNL     1       5.042  -9.321  15.902  1.00  0.00    -0.014 A 
ATOM     78  C   UNL     1       4.189 -10.402  15.635  1.00  0.00     0.009 A 
ATOM     79  C   UNL     1       5.805  -9.328  17.080  1.00  0.00     0.009 A 
ATOM     80  C   UNL     1       4.077 -11.454  16.546  1.00  0.00     0.001 A 
ATOM     81  C   UNL     1       5.711 -10.393  17.977  1.00  0.00     0.001 A 
ATOM     82  C   UNL     1       4.841 -11.450  17.713  1.00  0.00     0.000 A 
ENDBRANCH  64  77
ENDBRANCH  38  39
ENDBRANCH  30  33
ENDBRANCH  28  29
ENDBRANCH  27  28
ENDBRANCH  26  27
ENDBRANCH  25  26
ENDBRANCH   1  25
TORSDOF 17
