REMARK SMILES CCCC(=O)Nc1cccc(C(=O)N[C@@H](C(=O)NCCCCCCNC(=O)c2ccc(-c3c4nc(c(-c5ccccc5)c5ccc([nH]5)c(-c5ccccc5)c5nc(c(-c6ccccc6)c6ccc3[nH]6)C=C5)C=C4)cc2)C2=C(C)N=N[C@@H]2C)c1
REMARK SMILES IDX 20 1 19 2 18 3 16 4 17 5 15 7 14 8 12 9 13 10 11 12 7 13
REMARK SMILES IDX 8 14 83 15 9 16 10 17 6 18 4 19 5 20 3 22 2 23 1 24 76 25
REMARK SMILES IDX 77 26 81 27 78 28 79 29 80 30 82 31 21 32 22 33 23 34 24 35
REMARK SMILES IDX 25 36 26 37 27 39 28 40 29 41 75 42 30 43 74 44 31 45 32 46
REMARK SMILES IDX 33 47 68 48 34 49 73 50 67 51 69 52 35 53 72 54 66 55 65 56
REMARK SMILES IDX 36 58 58 59 43 60 57 61 44 62 47 63 56 64 70 65 45 66 46 67
REMARK SMILES IDX 55 69 71 70 48 71 37 72 38 73 42 74 39 75 41 76 40 77 59 78
REMARK SMILES IDX 60 79 64 80 61 81 63 82 62 83 49 84 50 85 54 86 51 87 53 88
REMARK SMILES IDX 52 89
REMARK H PARENT 18 6 14 11 6 21 25 38 69 57 47 68
REMARK Flexibility Score: inf
ROOT
ATOM      1  C   UNL     1      -1.859   0.166   3.648  1.00  0.00     0.021 C 
ENDROOT
BRANCH   1   2
ATOM      2  C   UNL     1      -1.707  -0.195   2.177  1.00  0.00     0.116 C 
BRANCH   2   3
ATOM      3  N   UNL     1      -2.384   0.760   1.338  1.00  0.00    -0.354 N 
ATOM      4  C   UNL     1      -1.890   1.692   0.479  1.00  0.00     0.247 C 
ATOM      5  O   UNL     1      -2.742   2.354  -0.124  1.00  0.00    -0.272 OA
ATOM      6  H   UNL     1      -3.366   0.735   1.396  1.00  0.00     0.163 HD
BRANCH   4   7
ATOM      7  C   UNL     1      -0.362   1.775   0.136  1.00  0.00     0.202 C 
BRANCH   7   8
ATOM      8  N   UNL     1       0.544   1.841   1.290  1.00  0.00    -0.337 N 
ATOM      9  C   UNL     1       1.468   1.043   1.918  1.00  0.00     0.252 C 
ATOM     10  O   UNL     1       1.933   1.509   2.964  1.00  0.00    -0.269 OA
ATOM     11  H   UNL     1       0.467   2.711   1.745  1.00  0.00     0.165 HD
BRANCH   9  12
ATOM     12  C   UNL     1       1.948  -0.317   1.498  1.00  0.00     0.041 A 
ATOM     13  C   UNL     1       1.955  -2.342   0.141  1.00  0.00     0.041 A 
ATOM     14  C   UNL     1       2.967  -2.903   0.906  1.00  0.00     0.026 A 
ATOM     15  C   UNL     1       1.416  -1.091   0.469  1.00  0.00     0.040 A 
ATOM     16  C   UNL     1       3.512  -2.157   1.946  1.00  0.00     0.003 A 
ATOM     17  C   UNL     1       3.015  -0.877   2.230  1.00  0.00     0.014 A 
BRANCH  13  18
ATOM     18  N   UNL     1       1.413  -3.056  -0.932  1.00  0.00    -0.326 N 
ATOM     19  C   UNL     1       1.222  -2.558  -2.198  1.00  0.00     0.224 C 
ATOM     20  O   UNL     1       0.279  -2.947  -2.884  1.00  0.00    -0.275 OA
ATOM     21  H   UNL     1       1.147  -3.990  -0.767  1.00  0.00     0.169 HD
BRANCH  19  22
ATOM     22  C   UNL     1       2.298  -1.631  -2.755  1.00  0.00     0.100 C 
BRANCH  22  23
ATOM     23  C   UNL     1       1.999  -0.141  -2.663  1.00  0.00     0.006 C 
ATOM     24  C   UNL     1       2.988   0.640  -1.798  1.00  0.00     0.004 C 
ENDBRANCH  22  23
ENDBRANCH  19  22
ENDBRANCH  13  18
ENDBRANCH   9  12
ENDBRANCH   7   8
BRANCH   7  25
ATOM     25  C   UNL     1      -0.145   2.959  -0.758  1.00  0.00     0.011 C 
ATOM     26  C   UNL     1      -0.155   4.283  -0.553  1.00  0.00     0.064 C 
ATOM     27  C   UNL     1      -0.028   2.813  -2.244  1.00  0.00     0.156 C 
ATOM     28  C   UNL     1      -0.376   5.050   0.703  1.00  0.00     0.069 C 
ATOM     29  N   UNL     1      -0.029   4.997  -1.720  1.00  0.00    -0.160 NA
ATOM     30  N   UNL     1       0.018   4.221  -2.711  1.00  0.00    -0.181 NA
ATOM     31  C   UNL     1      -1.181   2.093  -2.930  1.00  0.00     0.040 C 
ENDBRANCH   7  25
ENDBRANCH   4   7
ENDBRANCH   2   3
ENDBRANCH   1   2
BRANCH   1  32
ATOM     32  C   UNL     1      -3.240  -0.196   4.203  1.00  0.00     0.002 C 
BRANCH  32  33
ATOM     33  C   UNL     1      -3.586  -1.688   4.113  1.00  0.00     0.002 C 
BRANCH  33  34
ATOM     34  C   UNL     1      -2.573  -2.623   4.780  1.00  0.00     0.021 C 
BRANCH  34  35
ATOM     35  C   UNL     1      -2.331  -2.332   6.258  1.00  0.00     0.116 C 
BRANCH  35  36
ATOM     36  N   UNL     1      -3.566  -2.382   7.024  1.00  0.00    -0.352 N 
ATOM     37  C   UNL     1      -3.869  -3.102   8.149  1.00  0.00     0.251 C 
ATOM     38  H   UNL     1      -4.294  -1.813   6.682  1.00  0.00     0.163 HD
ATOM     39  O   UNL     1      -5.030  -3.196   8.528  1.00  0.00    -0.269 OA
BRANCH  37  40
ATOM     40  C   UNL     1      -2.790  -3.771   8.901  1.00  0.00     0.039 A 
ATOM     41  C   UNL     1      -3.001  -5.071   9.365  1.00  0.00     0.014 A 
ATOM     42  C   UNL     1      -1.589  -3.108   9.172  1.00  0.00     0.014 A 
ATOM     43  C   UNL     1      -1.988  -5.724  10.066  1.00  0.00     0.010 A 
ATOM     44  C   UNL     1      -0.555  -3.784   9.811  1.00  0.00     0.010 A 
ATOM     45  C   UNL     1      -0.749  -5.094  10.272  1.00  0.00    -0.014 A 
BRANCH  45  46
ATOM     46  C   UNL     1       0.352  -5.798  10.969  1.00  0.00     0.031 A 
ATOM     47  C   UNL     1       0.839  -5.312  12.305  1.00  0.00     0.074 A 
ATOM     48  C   UNL     1       0.945  -6.848  10.371  1.00  0.00     0.049 A 
ATOM     49  N   UNL     1       1.792  -5.798  13.060  1.00  0.00    -0.248 NA
ATOM     50  C   UNL     1       0.190  -4.111  12.853  1.00  0.00     0.031 C 
ATOM     51  C   UNL     1       0.589  -7.386   9.056  1.00  0.00     0.029 A 
ATOM     52  N   UNL     1       1.969  -7.654  10.795  1.00  0.00    -0.354 N 
ATOM     53  C   UNL     1       1.867  -4.953  14.160  1.00  0.00     0.074 A 
ATOM     54  C   UNL     1       0.898  -3.899  13.953  1.00  0.00     0.031 C 
ATOM     55  C   UNL     1       1.356  -8.458   8.799  1.00  0.00     0.029 A 
ATOM     56  C   UNL     1       2.278  -8.660   9.912  1.00  0.00     0.049 A 
ATOM     57  H   UNL     1       2.439  -7.525  11.650  1.00  0.00     0.167 HD
ATOM     58  C   UNL     1       2.661  -5.054  15.253  1.00  0.00     0.031 A 
ATOM     59  C   UNL     1       3.197  -9.639   9.994  1.00  0.00     0.031 A 
ATOM     60  C   UNL     1       3.615  -6.110  15.463  1.00  0.00     0.049 A 
ATOM     61  C   UNL     1       4.066  -9.728  11.215  1.00  0.00     0.074 A 
ATOM     62  C   UNL     1       4.412  -6.345  16.569  1.00  0.00     0.029 A 
ATOM     63  N   UNL     1       3.904  -7.105  14.542  1.00  0.00    -0.354 N 
ATOM     64  N   UNL     1       4.069  -8.970  12.285  1.00  0.00    -0.248 NA
ATOM     65  C   UNL     1       5.051 -10.817  11.243  1.00  0.00     0.031 C 
ATOM     66  C   UNL     1       5.222  -7.453  16.296  1.00  0.00     0.029 A 
ATOM     67  C   UNL     1       4.890  -7.939  15.042  1.00  0.00     0.049 A 
ATOM     68  H   UNL     1       3.471  -7.205  13.663  1.00  0.00     0.167 HD
ATOM     69  C   UNL     1       5.037  -9.504  13.124  1.00  0.00     0.074 A 
ATOM     70  C   UNL     1       5.588 -10.660  12.445  1.00  0.00     0.031 C 
ATOM     71  C   UNL     1       5.434  -9.077  14.348  1.00  0.00     0.031 A 
BRANCH  58  72
ATOM     72  C   UNL     1       2.538  -3.980  16.298  1.00  0.00    -0.014 A 
ATOM     73  C   UNL     1       1.395  -3.877  17.108  1.00  0.00     0.009 A 
ATOM     74  C   UNL     1       3.590  -3.072  16.491  1.00  0.00     0.009 A 
ATOM     75  C   UNL     1       1.293  -2.862  18.062  1.00  0.00     0.001 A 
ATOM     76  C   UNL     1       3.497  -2.076  17.465  1.00  0.00     0.001 A 
ATOM     77  C   UNL     1       2.345  -1.965  18.242  1.00  0.00     0.000 A 
ENDBRANCH  58  72
BRANCH  59  78
ATOM     78  C   UNL     1       3.319 -10.636   8.900  1.00  0.00    -0.014 A 
ATOM     79  C   UNL     1       2.886 -11.957   9.097  1.00  0.00     0.009 A 
ATOM     80  C   UNL     1       3.863 -10.276   7.658  1.00  0.00     0.009 A 
ATOM     81  C   UNL     1       3.019 -12.903   8.079  1.00  0.00     0.001 A 
ATOM     82  C   UNL     1       3.971 -11.219   6.633  1.00  0.00     0.001 A 
ATOM     83  C   UNL     1       3.557 -12.533   6.847  1.00  0.00     0.000 A 
ENDBRANCH  59  78
BRANCH  71  84
ATOM     84  C   UNL     1       6.500  -9.882  15.035  1.00  0.00    -0.014 A 
ATOM     85  C   UNL     1       7.833  -9.848  14.598  1.00  0.00     0.009 A 
ATOM     86  C   UNL     1       6.168 -10.667  16.150  1.00  0.00     0.009 A 
ATOM     87  C   UNL     1       8.806 -10.616  15.241  1.00  0.00     0.001 A 
ATOM     88  C   UNL     1       7.148 -11.411  16.808  1.00  0.00     0.001 A 
ATOM     89  C   UNL     1       8.463 -11.393  16.347  1.00  0.00     0.000 A 
ENDBRANCH  71  84
ENDBRANCH  45  46
ENDBRANCH  37  40
ENDBRANCH  35  36
ENDBRANCH  34  35
ENDBRANCH  33  34
ENDBRANCH  32  33
ENDBRANCH   1  32
TORSDOF 19
