REMARK SMILES COCCCNC(=O)/C(C#N)=C/c1ccc(C(=O)NCCCCCCNC(=O)c2ccc(-c3c4nc(c(-c5ccccc5)c5ccc([nH]5)c(-c5ccccc5)c5nc(c(-c6ccccc6)c6ccc3[nH]6)C=C5)C=C4)cc2)cc1
REMARK SMILES IDX 20 1 19 2 17 3 18 4 16 6 13 7 14 8 78 9 15 10 77 11 12 12
REMARK SMILES IDX 9 13 7 14 6 15 8 17 5 18 4 19 3 20 2 21 1 22 10 23 11 24
REMARK SMILES IDX 21 25 22 26 23 27 24 28 25 29 26 30 27 31 28 33 29 34 30 35
REMARK SMILES IDX 76 36 31 37 75 38 32 39 33 40 34 41 69 42 35 43 74 44 68 45
REMARK SMILES IDX 70 46 36 47 73 48 67 49 66 50 37 52 59 53 44 54 58 55 45 56
REMARK SMILES IDX 48 57 57 58 71 59 46 60 47 61 56 63 72 64 49 65 38 66 39 67
REMARK SMILES IDX 43 68 40 69 42 70 41 71 60 72 61 73 65 74 62 75 64 76 63 77
REMARK SMILES IDX 50 78 51 79 55 80 52 81 54 82 53 83
REMARK H PARENT 19 5 6 16 26 32 70 51 48 62
REMARK Flexibility Score: inf
ROOT
ATOM      1  C   UNL     1      -1.420  -9.492   3.894  1.00  0.00     0.116 C 
ENDROOT
BRANCH   1   2
ATOM      2  N   UNL     1      -0.648 -10.002   5.012  1.00  0.00    -0.352 N 
ATOM      3  C   UNL     1       0.607  -9.704   5.476  1.00  0.00     0.251 C 
ATOM      4  O   UNL     1       1.020 -10.311   6.463  1.00  0.00    -0.269 OA
ATOM      5  H   UNL     1      -1.114 -10.693   5.537  1.00  0.00     0.163 HD
BRANCH   3   6
ATOM      6  C   UNL     1       1.444  -8.627   4.885  1.00  0.00     0.039 A 
ATOM      7  C   UNL     1       2.822  -6.354   3.994  1.00  0.00    -0.024 A 
ATOM      8  C   UNL     1       2.956  -6.768   5.319  1.00  0.00     0.009 A 
ATOM      9  C   UNL     1       2.116  -7.156   3.089  1.00  0.00     0.009 A 
ATOM     10  C   UNL     1       2.266  -7.900   5.761  1.00  0.00     0.014 A 
ATOM     11  C   UNL     1       1.444  -8.294   3.531  1.00  0.00     0.014 A 
BRANCH   7  12
ATOM     12  C   UNL     1       3.299  -5.032   3.568  1.00  0.00     0.033 C 
ATOM     13  C   UNL     1       2.445  -4.043   3.212  1.00  0.00     0.117 C 
BRANCH  13  14
ATOM     14  C   UNL     1       3.055  -2.771   2.713  1.00  0.00     0.261 C 
ATOM     15  N   UNL     1       2.332  -1.682   2.331  1.00  0.00    -0.351 N 
ATOM     16  H   UNL     1       2.890  -0.921   2.050  1.00  0.00     0.163 HD
ATOM     17  O   UNL     1       4.281  -2.671   2.605  1.00  0.00    -0.268 OA
BRANCH  15  18
ATOM     18  C   UNL     1       0.903  -1.409   2.251  1.00  0.00     0.118 C 
BRANCH  18  19
ATOM     19  C   UNL     1       0.524   0.009   2.662  1.00  0.00     0.050 C 
BRANCH  19  20
ATOM     20  C   UNL     1       1.112   1.144   1.833  1.00  0.00     0.161 C 
BRANCH  20  21
ATOM     21  O   UNL     1       0.492   1.297   0.561  1.00  0.00    -0.385 OA
ATOM     22  C   UNL     1       0.997   0.448  -0.456  1.00  0.00     0.194 C 
ENDBRANCH  20  21
ENDBRANCH  19  20
ENDBRANCH  18  19
ENDBRANCH  15  18
ENDBRANCH  13  14
BRANCH  13  23
ATOM     23  C   UNL     1       1.038  -4.254   3.274  1.00  0.00     0.105 C 
ATOM     24  N   UNL     1      -0.101  -4.468   3.319  1.00  0.00    -0.192 NA
ENDBRANCH  13  23
ENDBRANCH   7  12
ENDBRANCH   3   6
ENDBRANCH   1   2
BRANCH   1  25
ATOM     25  C   UNL     1      -1.373 -10.493   2.736  1.00  0.00     0.021 C 
BRANCH  25  26
ATOM     26  C   UNL     1      -2.273 -11.715   2.966  1.00  0.00     0.002 C 
BRANCH  26  27
ATOM     27  C   UNL     1      -3.765 -11.387   3.093  1.00  0.00     0.002 C 
BRANCH  27  28
ATOM     28  C   UNL     1      -4.346 -10.620   1.903  1.00  0.00     0.021 C 
BRANCH  28  29
ATOM     29  C   UNL     1      -4.255 -11.378   0.584  1.00  0.00     0.116 C 
BRANCH  29  30
ATOM     30  N   UNL     1      -5.033 -12.607   0.624  1.00  0.00    -0.352 N 
ATOM     31  C   UNL     1      -6.091 -12.990  -0.159  1.00  0.00     0.251 C 
ATOM     32  H   UNL     1      -4.760 -13.257   1.311  1.00  0.00     0.163 HD
ATOM     33  O   UNL     1      -6.805 -13.929   0.179  1.00  0.00    -0.269 OA
BRANCH  31  34
ATOM     34  C   UNL     1      -6.373 -12.259  -1.410  1.00  0.00     0.039 A 
ATOM     35  C   UNL     1      -7.697 -11.955  -1.732  1.00  0.00     0.014 A 
ATOM     36  C   UNL     1      -5.332 -11.881  -2.263  1.00  0.00     0.014 A 
ATOM     37  C   UNL     1      -7.970 -11.221  -2.886  1.00  0.00     0.010 A 
ATOM     38  C   UNL     1      -5.599 -11.073  -3.363  1.00  0.00     0.010 A 
ATOM     39  C   UNL     1      -6.922 -10.741  -3.689  1.00  0.00    -0.014 A 
BRANCH  39  40
ATOM     40  C   UNL     1      -7.196  -9.879  -4.864  1.00  0.00     0.031 A 
ATOM     41  C   UNL     1      -6.827 -10.334  -6.249  1.00  0.00     0.074 A 
ATOM     42  C   UNL     1      -7.740  -8.661  -4.676  1.00  0.00     0.049 A 
ATOM     43  N   UNL     1      -6.980  -9.709  -7.389  1.00  0.00    -0.248 NA
ATOM     44  C   UNL     1      -6.181 -11.650  -6.368  1.00  0.00     0.031 C 
ATOM     45  C   UNL     1      -8.108  -8.090  -3.378  1.00  0.00     0.029 A 
ATOM     46  N   UNL     1      -8.083  -7.685  -5.576  1.00  0.00    -0.354 N 
ATOM     47  C   UNL     1      -6.445 -10.551  -8.355  1.00  0.00     0.074 A 
ATOM     48  C   UNL     1      -5.907 -11.701  -7.663  1.00  0.00     0.031 C 
ATOM     49  C   UNL     1      -8.665  -6.885  -3.570  1.00  0.00     0.029 A 
ATOM     50  C   UNL     1      -8.645  -6.574  -4.995  1.00  0.00     0.049 A 
ATOM     51  H   UNL     1      -7.941  -7.772  -6.547  1.00  0.00     0.167 HD
ATOM     52  C   UNL     1      -6.420 -10.391  -9.700  1.00  0.00     0.031 A 
ATOM     53  C   UNL     1      -9.087  -5.428  -5.546  1.00  0.00     0.031 A 
ATOM     54  C   UNL     1      -6.945  -9.238 -10.385  1.00  0.00     0.049 A 
ATOM     55  C   UNL     1      -9.005  -5.255  -7.037  1.00  0.00     0.074 A 
ATOM     56  C   UNL     1      -7.009  -9.001 -11.747  1.00  0.00     0.029 A 
ATOM     57  N   UNL     1      -7.482  -8.123  -9.759  1.00  0.00    -0.354 N 
ATOM     58  N   UNL     1      -8.564  -6.093  -7.944  1.00  0.00    -0.248 NA
ATOM     59  C   UNL     1      -9.493  -3.980  -7.580  1.00  0.00     0.031 C 
ATOM     60  C   UNL     1      -7.513  -7.712 -11.941  1.00  0.00     0.029 A 
ATOM     61  C   UNL     1      -7.843  -7.178 -10.706  1.00  0.00     0.049 A 
ATOM     62  H   UNL     1      -7.591  -8.019  -8.786  1.00  0.00     0.167 HD
ATOM     63  C   UNL     1      -8.749  -5.459  -9.167  1.00  0.00     0.074 A 
ATOM     64  C   UNL     1      -9.363  -4.178  -8.884  1.00  0.00     0.031 C 
ATOM     65  C   UNL     1      -8.442  -5.901 -10.411  1.00  0.00     0.031 A 
BRANCH  52  66
ATOM     66  C   UNL     1      -5.780 -11.483 -10.517  1.00  0.00    -0.014 A 
ATOM     67  C   UNL     1      -6.348 -12.765 -10.602  1.00  0.00     0.009 A 
ATOM     68  C   UNL     1      -4.605 -11.216 -11.237  1.00  0.00     0.009 A 
ATOM     69  C   UNL     1      -5.728 -13.767 -11.351  1.00  0.00     0.001 A 
ATOM     70  C   UNL     1      -4.008 -12.209 -12.017  1.00  0.00     0.001 A 
ATOM     71  C   UNL     1      -4.562 -13.487 -12.062  1.00  0.00     0.000 A 
ENDBRANCH  52  66
BRANCH  53  72
ATOM     72  C   UNL     1      -9.652  -4.357  -4.683  1.00  0.00    -0.014 A 
ATOM     73  C   UNL     1     -11.013  -4.023  -4.755  1.00  0.00     0.009 A 
ATOM     74  C   UNL     1      -8.832  -3.659  -3.782  1.00  0.00     0.009 A 
ATOM     75  C   UNL     1     -11.533  -2.994  -3.967  1.00  0.00     0.001 A 
ATOM     76  C   UNL     1      -9.362  -2.656  -2.969  1.00  0.00     0.001 A 
ATOM     77  C   UNL     1     -10.709  -2.316  -3.071  1.00  0.00     0.000 A 
ENDBRANCH  53  72
BRANCH  65  78
ATOM     78  C   UNL     1      -8.797  -5.005 -11.567  1.00  0.00    -0.014 A 
ATOM     79  C   UNL     1      -8.134  -3.787 -11.787  1.00  0.00     0.009 A 
ATOM     80  C   UNL     1      -9.794  -5.405 -12.473  1.00  0.00     0.009 A 
ATOM     81  C   UNL     1      -8.491  -2.971 -12.862  1.00  0.00     0.001 A 
ATOM     82  C   UNL     1     -10.121  -4.607 -13.569  1.00  0.00     0.001 A 
ATOM     83  C   UNL     1      -9.479  -3.384 -13.755  1.00  0.00     0.000 A 
ENDBRANCH  65  78
ENDBRANCH  39  40
ENDBRANCH  31  34
ENDBRANCH  29  30
ENDBRANCH  28  29
ENDBRANCH  27  28
ENDBRANCH  26  27
ENDBRANCH  25  26
ENDBRANCH   1  25
TORSDOF 20
