REMARK SMILES CC[C@@H](C)[C@H](C(=O)NCCCCCCNC(=O)c1ccc(-c2c3nc(c(-c4ccccc4)c4ccc([nH]4)c(-c4ccccc4)c4nc(c(-c5ccccc5)c5ccc2[nH]5)C=C4)C=C3)cc1)N1C(=O)/C(=C/c2ccc3c(c2)OCO3)SC1=S
REMARK SMILES IDX 11 1 10 2 9 3 8 4 6 5 7 6 5 8 3 9 4 10 2 11 1 12 66 13 67 14
REMARK SMILES IDX 81 15 68 16 69 17 80 18 82 19 70 20 71 21 72 22 76 23 73 24
REMARK SMILES IDX 75 25 74 26 77 27 79 28 78 29 12 30 13 31 14 32 15 33 16 34
REMARK SMILES IDX 17 36 18 37 19 38 65 39 20 40 64 41 21 42 22 43 23 44 58 45
REMARK SMILES IDX 24 46 63 47 57 48 59 49 25 50 62 51 56 52 55 53 26 55 48 56
REMARK SMILES IDX 33 57 47 58 34 59 37 60 46 61 60 62 35 63 36 64 45 66 61 67
REMARK SMILES IDX 38 68 27 69 28 70 32 71 29 72 31 73 30 74 49 75 50 76 54 77
REMARK SMILES IDX 51 78 53 79 52 80 39 81 40 82 44 83 41 84 43 85 42 86
REMARK H PARENT 8 7 15 35 59 54 37 65
REMARK Flexibility Score: inf
ROOT
ATOM      1  C   UNL     1       3.717   1.298  -1.725  1.00  0.00     0.002 C 
ENDROOT
BRANCH   1   2
ATOM      2  C   UNL     1       2.674   0.390  -2.371  1.00  0.00     0.021 C 
BRANCH   2   3
ATOM      3  C   UNL     1       2.715  -1.052  -1.875  1.00  0.00     0.116 C 
BRANCH   3   4
ATOM      4  N   UNL     1       1.748  -1.294  -0.827  1.00  0.00    -0.354 N 
ATOM      5  C   UNL     1       0.835  -2.279  -0.629  1.00  0.00     0.243 C 
ATOM      6  O   UNL     1       0.261  -2.261   0.471  1.00  0.00    -0.273 OA
ATOM      7  H   UNL     1       1.754  -0.612  -0.118  1.00  0.00     0.163 HD
BRANCH   5   8
ATOM      8  C   UNL     1       0.520  -3.449  -1.610  1.00  0.00     0.184 C 
BRANCH   8   9
ATOM      9  C   UNL     1       0.774  -3.410  -3.147  1.00  0.00     0.018 C 
ATOM     10  C   UNL     1       2.165  -3.912  -3.572  1.00  0.00     0.010 C 
BRANCH   9  11
ATOM     11  C   UNL     1       0.217  -2.101  -3.769  1.00  0.00     0.002 C 
ATOM     12  C   UNL     1       0.755  -1.711  -5.135  1.00  0.00     0.004 C 
ENDBRANCH   9  11
ENDBRANCH   8   9
BRANCH   8  13
ATOM     13  N   UNL     1       0.895  -4.739  -0.982  1.00  0.00    -0.280 N 
ATOM     14  C   UNL     1       2.135  -4.873  -0.379  1.00  0.00     0.266 C 
ATOM     15  C   UNL     1       0.138  -5.892  -1.078  1.00  0.00     0.149 C 
ATOM     16  O   UNL     1       3.011  -4.014  -0.306  1.00  0.00    -0.268 OA
ATOM     17  C   UNL     1       2.345  -6.264   0.086  1.00  0.00     0.081 C 
ATOM     18  S   UNL     1       1.014  -7.244  -0.383  1.00  0.00    -0.054 SA
ATOM     19  S   UNL     1      -1.367  -6.108  -1.770  1.00  0.00    -0.052 S 
ATOM     20  C   UNL     1       3.493  -6.661   0.659  1.00  0.00     0.029 C 
BRANCH  20  21
ATOM     21  C   UNL     1       3.858  -8.079   0.704  1.00  0.00    -0.020 A 
ATOM     22  C   UNL     1       3.494  -8.932   1.764  1.00  0.00     0.012 A 
ATOM     23  C   UNL     1       4.419  -8.601  -0.471  1.00  0.00     0.058 A 
ATOM     24  C   UNL     1       3.629 -10.320   1.627  1.00  0.00     0.051 A 
ATOM     25  C   UNL     1       4.487  -9.965  -0.594  1.00  0.00     0.166 A 
ATOM     26  C   UNL     1       4.090 -10.804   0.419  1.00  0.00     0.165 A 
ATOM     27  O   UNL     1       4.852 -10.635  -1.719  1.00  0.00    -0.454 OA
ATOM     28  O   UNL     1       4.154 -12.112   0.046  1.00  0.00    -0.454 OA
ATOM     29  C   UNL     1       4.416 -11.963  -1.367  1.00  0.00     0.468 C 
ENDBRANCH  20  21
ENDBRANCH   8  13
ENDBRANCH   5   8
ENDBRANCH   3   4
ENDBRANCH   2   3
ENDBRANCH   1   2
BRANCH   1  30
ATOM     30  C   UNL     1       5.172   0.852  -1.909  1.00  0.00     0.002 C 
BRANCH  30  31
ATOM     31  C   UNL     1       5.599   0.548  -3.349  1.00  0.00     0.021 C 
BRANCH  31  32
ATOM     32  C   UNL     1       5.364   1.677  -4.349  1.00  0.00     0.116 C 
BRANCH  32  33
ATOM     33  N   UNL     1       5.958   2.927  -3.910  1.00  0.00    -0.352 N 
ATOM     34  C   UNL     1       6.874   3.739  -4.524  1.00  0.00     0.251 C 
ATOM     35  H   UNL     1       5.654   3.242  -3.029  1.00  0.00     0.163 HD
ATOM     36  O   UNL     1       7.412   4.638  -3.887  1.00  0.00    -0.269 OA
BRANCH  34  37
ATOM     37  C   UNL     1       7.226   3.537  -5.945  1.00  0.00     0.039 A 
ATOM     38  C   UNL     1       8.561   3.691  -6.325  1.00  0.00     0.014 A 
ATOM     39  C   UNL     1       6.251   3.254  -6.908  1.00  0.00     0.014 A 
ATOM     40  C   UNL     1       8.924   3.522  -7.661  1.00  0.00     0.010 A 
ATOM     41  C   UNL     1       6.626   3.013  -8.228  1.00  0.00     0.010 A 
ATOM     42  C   UNL     1       7.965   3.155  -8.619  1.00  0.00    -0.014 A 
BRANCH  42  43
ATOM     43  C   UNL     1       8.372   2.904 -10.024  1.00  0.00     0.031 A 
ATOM     44  C   UNL     1       7.888   3.789 -11.138  1.00  0.00     0.074 A 
ATOM     45  C   UNL     1       9.174   1.855 -10.293  1.00  0.00     0.049 A 
ATOM     46  N   UNL     1       8.192   3.748 -12.412  1.00  0.00    -0.248 NA
ATOM     47  C   UNL     1       6.922   4.841 -10.786  1.00  0.00     0.031 C 
ATOM     48  C   UNL     1       9.665   0.891  -9.305  1.00  0.00     0.029 A 
ATOM     49  N   UNL     1       9.726   1.432 -11.475  1.00  0.00    -0.354 N 
ATOM     50  C   UNL     1       7.453   4.761 -13.010  1.00  0.00     0.074 A 
ATOM     51  C   UNL     1       6.644   5.362 -11.972  1.00  0.00     0.031 C 
ATOM     52  C   UNL     1      10.481   0.018  -9.914  1.00  0.00     0.029 A 
ATOM     53  C   UNL     1      10.543   0.336 -11.336  1.00  0.00     0.049 A 
ATOM     54  H   UNL     1       9.555   1.871 -12.339  1.00  0.00     0.167 HD
ATOM     55  C   UNL     1       7.460   5.166 -14.303  1.00  0.00     0.031 A 
ATOM     56  C   UNL     1      11.268  -0.334 -12.250  1.00  0.00     0.031 A 
ATOM     57  C   UNL     1       8.265   4.564 -15.334  1.00  0.00     0.049 A 
ATOM     58  C   UNL     1      11.261   0.137 -13.676  1.00  0.00     0.074 A 
ATOM     59  C   UNL     1       8.391   4.941 -16.660  1.00  0.00     0.029 A 
ATOM     60  N   UNL     1       9.073   3.451 -15.156  1.00  0.00    -0.354 N 
ATOM     61  N   UNL     1      10.626   1.153 -14.208  1.00  0.00    -0.248 NA
ATOM     62  C   UNL     1      12.086  -0.624 -14.624  1.00  0.00     0.031 C 
ATOM     63  C   UNL     1       9.227   4.019 -17.299  1.00  0.00     0.029 A 
ATOM     64  C   UNL     1       9.674   3.107 -16.356  1.00  0.00     0.049 A 
ATOM     65  H   UNL     1       9.200   2.976 -14.304  1.00  0.00     0.167 HD
ATOM     66  C   UNL     1      10.988   1.166 -15.548  1.00  0.00     0.074 A 
ATOM     67  C   UNL     1      11.922   0.074 -15.739  1.00  0.00     0.031 C 
ATOM     68  C   UNL     1      10.583   2.003 -16.535  1.00  0.00     0.031 A 
BRANCH  55  69
ATOM     69  C   UNL     1       6.556   6.310 -14.676  1.00  0.00    -0.014 A 
ATOM     70  C   UNL     1       6.802   7.616 -14.219  1.00  0.00     0.009 A 
ATOM     71  C   UNL     1       5.462   6.087 -15.527  1.00  0.00     0.009 A 
ATOM     72  C   UNL     1       5.949   8.664 -14.573  1.00  0.00     0.001 A 
ATOM     73  C   UNL     1       4.629   7.142 -15.905  1.00  0.00     0.001 A 
ATOM     74  C   UNL     1       4.866   8.427 -15.419  1.00  0.00     0.000 A 
ENDBRANCH  55  69
BRANCH  56  75
ATOM     75  C   UNL     1      12.077  -1.510 -11.837  1.00  0.00    -0.014 A 
ATOM     76  C   UNL     1      13.479  -1.448 -11.830  1.00  0.00     0.009 A 
ATOM     77  C   UNL     1      11.450  -2.702 -11.442  1.00  0.00     0.009 A 
ATOM     78  C   UNL     1      14.235  -2.564 -11.463  1.00  0.00     0.001 A 
ATOM     79  C   UNL     1      12.207  -3.805 -11.045  1.00  0.00     0.001 A 
ATOM     80  C   UNL     1      13.599  -3.739 -11.065  1.00  0.00     0.000 A 
ENDBRANCH  56  75
BRANCH  68  81
ATOM     81  C   UNL     1      11.162   1.772 -17.903  1.00  0.00    -0.014 A 
ATOM     82  C   UNL     1      10.811   0.643 -18.662  1.00  0.00     0.009 A 
ATOM     83  C   UNL     1      12.064   2.701 -18.445  1.00  0.00     0.009 A 
ATOM     84  C   UNL     1      11.389   0.426 -19.914  1.00  0.00     0.001 A 
ATOM     85  C   UNL     1      12.614   2.499 -19.712  1.00  0.00     0.001 A 
ATOM     86  C   UNL     1      12.287   1.355 -20.439  1.00  0.00     0.000 A 
ENDBRANCH  68  81
ENDBRANCH  42  43
ENDBRANCH  34  37
ENDBRANCH  32  33
ENDBRANCH  31  32
ENDBRANCH  30  31
ENDBRANCH   1  30
TORSDOF 17
