REMARK SMILES CCCc1cc(OCC(=O)NCCCCCCNC(=O)c2ccc(-c3c4nc(c(-c5ccccc5)c5ccc([nH]5)c(-c5ccccc5)c5nc(c(-c6ccccc6)c6ccc3[nH]6)C=C5)C=C4)cc2)nc(Nc2ccc(C#N)cc2)n1
REMARK SMILES IDX 13 1 12 2 11 3 9 4 10 5 8 7 7 8 6 9 4 10 5 11 80 12 70 13
REMARK SMILES IDX 69 14 3 15 2 16 1 17 71 18 72 20 73 21 79 22 74 23 78 24
REMARK SMILES IDX 75 25 76 26 77 27 14 28 15 29 16 30 17 31 18 32 19 33 20 35
REMARK SMILES IDX 21 36 22 37 68 38 23 39 67 40 24 41 25 42 26 43 61 44 27 45
REMARK SMILES IDX 66 46 60 47 62 48 28 49 65 50 59 51 58 52 29 54 51 55 36 56
REMARK SMILES IDX 50 57 37 58 40 59 49 60 63 61 38 62 39 63 48 65 64 66 41 67
REMARK SMILES IDX 30 68 31 69 35 70 32 71 34 72 33 73 52 74 53 75 57 76 54 77
REMARK SMILES IDX 56 78 55 79 42 80 43 81 47 82 44 83 46 84 45 85
REMARK H PARENT 11 6 71 19 18 34 62 53 40 64
REMARK Flexibility Score: inf
ROOT
ATOM      1  C   UNL     1       1.763   3.262  -4.013  1.00  0.00     0.021 C 
ENDROOT
BRANCH   1   2
ATOM      2  C   UNL     1       0.465   2.550  -4.388  1.00  0.00     0.116 C 
BRANCH   2   3
ATOM      3  N   UNL     1       0.276   1.331  -3.629  1.00  0.00    -0.353 N 
ATOM      4  C   UNL     1      -0.719   1.034  -2.747  1.00  0.00     0.258 C 
ATOM      5  O   UNL     1      -0.751  -0.091  -2.245  1.00  0.00    -0.271 OA
ATOM      6  H   UNL     1       0.951   0.629  -3.768  1.00  0.00     0.163 HD
BRANCH   4   7
ATOM      7  C   UNL     1      -1.792   2.084  -2.412  1.00  0.00     0.331 C 
BRANCH   7   8
ATOM      8  O   UNL     1      -1.382   3.353  -1.929  1.00  0.00    -0.467 OA
BRANCH   8   9
ATOM      9  C   UNL     1      -0.664   3.402  -0.767  1.00  0.00     0.218 A 
ATOM     10  C   UNL     1       0.465   2.509   1.079  1.00  0.00     0.050 A 
ATOM     11  C   UNL     1      -0.434   2.325   0.055  1.00  0.00     0.092 A 
ATOM     12  N   UNL     1       0.988   3.720   1.332  1.00  0.00    -0.218 NA
ATOM     13  C   UNL     1       0.619   4.755   0.562  1.00  0.00     0.230 A 
ATOM     14  N   UNL     1      -0.175   4.628  -0.508  1.00  0.00    -0.177 NA
BRANCH  10  15
ATOM     15  C   UNL     1       0.919   1.402   1.998  1.00  0.00     0.056 C 
BRANCH  15  16
ATOM     16  C   UNL     1       0.643  -0.041   1.559  1.00  0.00     0.003 C 
ATOM     17  C   UNL     1       1.418  -0.455   0.314  1.00  0.00     0.004 C 
ENDBRANCH  15  16
ENDBRANCH  10  15
BRANCH  13  18
ATOM     18  N   UNL     1       0.991   6.048   0.930  1.00  0.00    -0.324 N 
ATOM     19  H   UNL     1       0.630   6.774   0.371  1.00  0.00     0.170 HD
BRANCH  18  20
ATOM     20  C   UNL     1       1.812   6.444   1.990  1.00  0.00     0.041 A 
ATOM     21  C   UNL     1       1.380   7.436   2.878  1.00  0.00     0.027 A 
ATOM     22  C   UNL     1       3.014   5.780   2.272  1.00  0.00     0.027 A 
ATOM     23  C   UNL     1       2.126   7.750   4.022  1.00  0.00     0.021 A 
ATOM     24  C   UNL     1       3.776   6.103   3.398  1.00  0.00     0.021 A 
ATOM     25  C   UNL     1       3.326   7.084   4.283  1.00  0.00     0.052 A 
BRANCH  25  26
ATOM     26  C   UNL     1       4.084   7.386   5.461  1.00  0.00     0.099 C 
ATOM     27  N   UNL     1       4.700   7.627   6.417  1.00  0.00    -0.192 NA
ENDBRANCH  25  26
ENDBRANCH  18  20
ENDBRANCH  13  18
ENDBRANCH   8   9
ENDBRANCH   7   8
ENDBRANCH   4   7
ENDBRANCH   2   3
ENDBRANCH   1   2
BRANCH   1  28
ATOM     28  C   UNL     1       3.042   2.481  -4.347  1.00  0.00     0.002 C 
BRANCH  28  29
ATOM     29  C   UNL     1       3.187   2.051  -5.811  1.00  0.00     0.002 C 
BRANCH  29  30
ATOM     30  C   UNL     1       3.078   3.181  -6.837  1.00  0.00     0.021 C 
BRANCH  30  31
ATOM     31  C   UNL     1       4.101   4.300  -6.663  1.00  0.00     0.116 C 
BRANCH  31  32
ATOM     32  N   UNL     1       5.465   3.836  -6.868  1.00  0.00    -0.352 N 
ATOM     33  C   UNL     1       6.403   4.247  -7.783  1.00  0.00     0.251 C 
ATOM     34  H   UNL     1       5.759   3.119  -6.261  1.00  0.00     0.163 HD
ATOM     35  O   UNL     1       7.436   3.605  -7.941  1.00  0.00    -0.269 OA
BRANCH  33  36
ATOM     36  C   UNL     1       6.152   5.450  -8.605  1.00  0.00     0.039 A 
ATOM     37  C   UNL     1       6.395   5.389  -9.979  1.00  0.00     0.014 A 
ATOM     38  C   UNL     1       5.662   6.625  -8.028  1.00  0.00     0.014 A 
ATOM     39  C   UNL     1       6.056   6.475 -10.789  1.00  0.00     0.010 A 
ATOM     40  C   UNL     1       5.257   7.678  -8.844  1.00  0.00     0.010 A 
ATOM     41  C   UNL     1       5.430   7.604 -10.235  1.00  0.00    -0.014 A 
BRANCH  41  42
ATOM     42  C   UNL     1       4.879   8.678 -11.100  1.00  0.00     0.031 A 
ATOM     43  C   UNL     1       5.406  10.081 -11.016  1.00  0.00     0.074 A 
ATOM     44  C   UNL     1       3.834   8.398 -11.905  1.00  0.00     0.049 A 
ATOM     45  N   UNL     1       4.986  11.156 -11.634  1.00  0.00    -0.248 NA
ATOM     46  C   UNL     1       6.538  10.311 -10.106  1.00  0.00     0.031 C 
ATOM     47  C   UNL     1       3.210   7.081 -12.053  1.00  0.00     0.029 A 
ATOM     48  N   UNL     1       3.103   9.206 -12.739  1.00  0.00    -0.354 N 
ATOM     49  C   UNL     1       5.792  12.192 -11.179  1.00  0.00     0.074 A 
ATOM     50  C   UNL     1       6.697  11.623 -10.203  1.00  0.00     0.031 C 
ATOM     51  C   UNL     1       2.205   7.167 -12.937  1.00  0.00     0.029 A 
ATOM     52  C   UNL     1       2.074   8.553 -13.373  1.00  0.00     0.049 A 
ATOM     53  H   UNL     1       3.298  10.162 -12.871  1.00  0.00     0.167 HD
ATOM     54  C   UNL     1       5.782  13.496 -11.548  1.00  0.00     0.031 A 
ATOM     55  C   UNL     1       1.110   9.017 -14.192  1.00  0.00     0.031 A 
ATOM     56  C   UNL     1       4.868  14.059 -12.508  1.00  0.00     0.049 A 
ATOM     57  C   UNL     1       1.086  10.479 -14.541  1.00  0.00     0.074 A 
ATOM     58  C   UNL     1       4.819  15.355 -12.991  1.00  0.00     0.029 A 
ATOM     59  N   UNL     1       3.831  13.367 -13.116  1.00  0.00    -0.354 N 
ATOM     60  N   UNL     1       1.910  11.429 -14.170  1.00  0.00    -0.248 NA
ATOM     61  C   UNL     1       0.001  10.932 -15.422  1.00  0.00     0.031 C 
ATOM     62  C   UNL     1       3.701  15.470 -13.823  1.00  0.00     0.029 A 
ATOM     63  C   UNL     1       3.102  14.225 -13.925  1.00  0.00     0.049 A 
ATOM     64  H   UNL     1       3.642  12.409 -12.992  1.00  0.00     0.167 HD
ATOM     65  C   UNL     1       1.452  12.588 -14.783  1.00  0.00     0.074 A 
ATOM     66  C   UNL     1       0.296  12.215 -15.573  1.00  0.00     0.031 C 
ATOM     67  C   UNL     1       1.942  13.848 -14.693  1.00  0.00     0.031 A 
BRANCH  54  68
ATOM     68  C   UNL     1       6.768  14.416 -10.880  1.00  0.00    -0.014 A 
ATOM     69  C   UNL     1       8.150  14.305 -11.106  1.00  0.00     0.009 A 
ATOM     70  C   UNL     1       6.302  15.441 -10.041  1.00  0.00     0.009 A 
ATOM     71  C   UNL     1       9.043  15.173 -10.473  1.00  0.00     0.001 A 
ATOM     72  C   UNL     1       7.194  16.330  -9.438  1.00  0.00     0.001 A 
ATOM     73  C   UNL     1       8.565  16.187  -9.645  1.00  0.00     0.000 A 
ENDBRANCH  54  68
BRANCH  55  74
ATOM     74  C   UNL     1       0.070   8.090 -14.713  1.00  0.00    -0.014 A 
ATOM     75  C   UNL     1       0.008   7.773 -16.078  1.00  0.00     0.009 A 
ATOM     76  C   UNL     1      -0.867   7.511 -13.841  1.00  0.00     0.009 A 
ATOM     77  C   UNL     1      -0.984   6.916 -16.561  1.00  0.00     0.001 A 
ATOM     78  C   UNL     1      -1.834   6.626 -14.321  1.00  0.00     0.001 A 
ATOM     79  C   UNL     1      -1.898   6.337 -15.682  1.00  0.00     0.000 A 
ENDBRANCH  55  74
BRANCH  67  80
ATOM     80  C   UNL     1       1.234  14.922 -15.474  1.00  0.00    -0.014 A 
ATOM     81  C   UNL     1      -0.046  15.367 -15.104  1.00  0.00     0.009 A 
ATOM     82  C   UNL     1       1.876  15.535 -16.561  1.00  0.00     0.009 A 
ATOM     83  C   UNL     1      -0.678  16.381 -15.825  1.00  0.00     0.001 A 
ATOM     84  C   UNL     1       1.256  16.573 -17.259  1.00  0.00     0.001 A 
ATOM     85  C   UNL     1      -0.023  16.989 -16.896  1.00  0.00     0.000 A 
ENDBRANCH  67  80
ENDBRANCH  41  42
ENDBRANCH  33  36
ENDBRANCH  31  32
ENDBRANCH  30  31
ENDBRANCH  29  30
ENDBRANCH  28  29
ENDBRANCH   1  28
TORSDOF 20
