REMARK SMILES O=C(NCCCCCCNC(=O)c1cc(-c2cccc(Cl)c2)oc1C(F)(F)F)c1ccc(-c2c3nc(c(-c4ccccc4)c4ccc([nH]4)c(-c4ccccc4)c4nc(c(-c5ccccc5)c5ccc2[nH]5)C=C4)C=C3)cc1
REMARK SMILES IDX 6 1 5 2 4 3 3 4 1 5 2 6 29 8 30 9 76 10 31 11 75 12 32 13
REMARK SMILES IDX 33 14 34 15 69 16 35 17 74 18 68 19 70 20 36 21 73 22 67 23
REMARK SMILES IDX 66 24 37 26 59 27 44 28 58 29 45 30 48 31 57 32 71 33 46 34
REMARK SMILES IDX 47 35 56 37 72 38 49 39 38 40 39 41 43 42 40 43 42 44 41 45
REMARK SMILES IDX 60 46 61 47 65 48 62 49 64 50 63 51 50 52 51 53 55 54 52 55
REMARK SMILES IDX 54 56 53 57 7 58 8 59 9 60 10 61 11 62 12 64 13 65 14 66
REMARK SMILES IDX 24 67 15 68 23 69 25 70 26 71 27 72 28 73 16 74 17 75 22 76
REMARK SMILES IDX 18 77 20 78 19 79 21 80
REMARK H PARENT 3 7 70 25 48 36 10 63
REMARK Flexibility Score: inf
ROOT
ATOM      1  C   UNL     1       4.177   0.797  -3.844  1.00  0.00     0.002 C 
ENDROOT
BRANCH   1   2
ATOM      2  C   UNL     1       4.639  -0.172  -2.757  1.00  0.00     0.021 C 
BRANCH   2   3
ATOM      3  C   UNL     1       4.428   0.308  -1.328  1.00  0.00     0.116 C 
BRANCH   3   4
ATOM      4  N   UNL     1       3.025   0.430  -0.970  1.00  0.00    -0.352 N 
ATOM      5  O   UNL     1       1.146   0.017   0.216  1.00  0.00    -0.269 OA
ATOM      6  C   UNL     1       2.367  -0.065   0.132  1.00  0.00     0.251 C 
ATOM      7  H   UNL     1       2.467   0.936  -1.604  1.00  0.00     0.163 HD
BRANCH   6   8
ATOM      8  C   UNL     1       3.139  -0.725   1.209  1.00  0.00     0.039 A 
ATOM      9  C   UNL     1       4.325  -0.162   1.680  1.00  0.00     0.014 A 
ATOM     10  C   UNL     1       2.671  -1.928   1.750  1.00  0.00     0.014 A 
ATOM     11  C   UNL     1       5.118  -0.871   2.573  1.00  0.00     0.010 A 
ATOM     12  C   UNL     1       3.426  -2.595   2.720  1.00  0.00     0.010 A 
ATOM     13  C   UNL     1       4.672  -2.088   3.117  1.00  0.00    -0.014 A 
BRANCH  13  14
ATOM     14  C   UNL     1       5.507  -2.755   4.148  1.00  0.00     0.031 A 
ATOM     15  C   UNL     1       6.146  -4.093   3.904  1.00  0.00     0.074 A 
ATOM     16  C   UNL     1       5.742  -2.096   5.301  1.00  0.00     0.049 A 
ATOM     17  N   UNL     1       6.978  -4.756   4.669  1.00  0.00    -0.248 NA
ATOM     18  C   UNL     1       5.810  -4.782   2.648  1.00  0.00     0.031 C 
ATOM     19  C   UNL     1       5.162  -0.798   5.661  1.00  0.00     0.029 A 
ATOM     20  N   UNL     1       6.554  -2.402   6.361  1.00  0.00    -0.354 N 
ATOM     21  C   UNL     1       7.257  -5.939   3.996  1.00  0.00     0.074 A 
ATOM     22  C   UNL     1       6.483  -5.918   2.772  1.00  0.00     0.031 C 
ATOM     23  C   UNL     1       5.689  -0.390   6.823  1.00  0.00     0.029 A 
ATOM     24  C   UNL     1       6.594  -1.419   7.320  1.00  0.00     0.049 A 
ATOM     25  H   UNL     1       7.060  -3.244   6.429  1.00  0.00     0.167 HD
ATOM     26  C   UNL     1       8.087  -6.947   4.361  1.00  0.00     0.031 A 
ATOM     27  C   UNL     1       7.277  -1.350   8.476  1.00  0.00     0.031 A 
ATOM     28  C   UNL     1       8.850  -6.971   5.583  1.00  0.00     0.049 A 
ATOM     29  C   UNL     1       8.182  -2.483   8.856  1.00  0.00     0.074 A 
ATOM     30  C   UNL     1       9.720  -7.948   6.037  1.00  0.00     0.029 A 
ATOM     31  N   UNL     1       8.834  -5.973   6.544  1.00  0.00    -0.354 N 
ATOM     32  N   UNL     1       8.449  -3.582   8.194  1.00  0.00    -0.248 NA
ATOM     33  C   UNL     1       8.882  -2.364  10.141  1.00  0.00     0.031 C 
ATOM     34  C   UNL     1      10.201  -7.558   7.293  1.00  0.00     0.029 A 
ATOM     35  C   UNL     1       9.669  -6.316   7.596  1.00  0.00     0.049 A 
ATOM     36  H   UNL     1       8.308  -5.143   6.488  1.00  0.00     0.167 HD
ATOM     37  C   UNL     1       9.350  -4.285   8.980  1.00  0.00     0.074 A 
ATOM     38  C   UNL     1       9.611  -3.470  10.149  1.00  0.00     0.031 C 
ATOM     39  C   UNL     1       9.904  -5.501   8.759  1.00  0.00     0.031 A 
BRANCH  26  40
ATOM     40  C   UNL     1       8.205  -8.122   3.431  1.00  0.00    -0.014 A 
ATOM     41  C   UNL     1       8.915  -8.024   2.224  1.00  0.00     0.009 A 
ATOM     42  C   UNL     1       7.651  -9.361   3.792  1.00  0.00     0.009 A 
ATOM     43  C   UNL     1       9.047  -9.135   1.387  1.00  0.00     0.001 A 
ATOM     44  C   UNL     1       7.804 -10.475   2.965  1.00  0.00     0.001 A 
ATOM     45  C   UNL     1       8.496 -10.360   1.761  1.00  0.00     0.000 A 
ENDBRANCH  26  40
BRANCH  27  46
ATOM     46  C   UNL     1       7.113  -0.169   9.361  1.00  0.00    -0.014 A 
ATOM     47  C   UNL     1       8.160   0.748   9.538  1.00  0.00     0.009 A 
ATOM     48  C   UNL     1       5.896   0.052  10.025  1.00  0.00     0.009 A 
ATOM     49  C   UNL     1       7.997   1.849  10.382  1.00  0.00     0.001 A 
ATOM     50  C   UNL     1       5.726   1.170  10.841  1.00  0.00     0.001 A 
ATOM     51  C   UNL     1       6.780   2.062  11.027  1.00  0.00     0.000 A 
ENDBRANCH  27  46
BRANCH  39  52
ATOM     52  C   UNL     1      10.853  -6.009   9.806  1.00  0.00    -0.014 A 
ATOM     53  C   UNL     1      10.386  -6.451  11.053  1.00  0.00     0.009 A 
ATOM     54  C   UNL     1      12.230  -6.045   9.540  1.00  0.00     0.009 A 
ATOM     55  C   UNL     1      11.285  -6.881  12.031  1.00  0.00     0.001 A 
ATOM     56  C   UNL     1      13.124  -6.501  10.510  1.00  0.00     0.001 A 
ATOM     57  C   UNL     1      12.652  -6.907  11.758  1.00  0.00     0.000 A 
ENDBRANCH  39  52
ENDBRANCH  13  14
ENDBRANCH   6   8
ENDBRANCH   3   4
ENDBRANCH   2   3
ENDBRANCH   1   2
BRANCH   1  58
ATOM     58  C   UNL     1       4.773   2.206  -3.773  1.00  0.00     0.002 C 
BRANCH  58  59
ATOM     59  C   UNL     1       6.301   2.281  -3.700  1.00  0.00     0.021 C 
BRANCH  59  60
ATOM     60  C   UNL     1       7.042   1.547  -4.816  1.00  0.00     0.116 C 
BRANCH  60  61
ATOM     61  N   UNL     1       6.759   2.112  -6.125  1.00  0.00    -0.352 N 
ATOM     62  C   UNL     1       7.635   2.590  -7.061  1.00  0.00     0.255 C 
ATOM     63  H   UNL     1       5.807   2.156  -6.373  1.00  0.00     0.163 HD
ATOM     64  O   UNL     1       7.218   3.184  -8.056  1.00  0.00    -0.269 OA
BRANCH  62  65
ATOM     65  C   UNL     1       9.043   2.372  -6.839  1.00  0.00     0.091 A 
ATOM     66  C   UNL     1       9.722   1.145  -6.597  1.00  0.00     0.065 A 
ATOM     67  C   UNL     1      10.016   3.357  -6.834  1.00  0.00     0.221 A 
ATOM     68  C   UNL     1      11.039   1.464  -6.357  1.00  0.00     0.135 A 
ATOM     69  O   UNL     1      11.230   2.805  -6.503  1.00  0.00    -0.451 OA
BRANCH  67  70
ATOM     70  C   UNL     1       9.973   4.824  -7.058  1.00  0.00     0.450 C 
ATOM     71  F   UNL     1      10.705   5.497  -6.130  1.00  0.00    -0.163 F 
ATOM     72  F   UNL     1      10.467   5.170  -8.273  1.00  0.00    -0.163 F 
ATOM     73  F   UNL     1       8.716   5.330  -6.979  1.00  0.00    -0.163 F 
ENDBRANCH  67  70
BRANCH  68  74
ATOM     74  C   UNL     1      12.190   0.670  -5.974  1.00  0.00     0.019 A 
ATOM     75  C   UNL     1      12.479  -0.521  -6.655  1.00  0.00     0.012 A 
ATOM     76  C   UNL     1      12.971   1.035  -4.871  1.00  0.00     0.032 A 
ATOM     77  C   UNL     1      13.528  -1.342  -6.237  1.00  0.00     0.002 A 
ATOM     78  C   UNL     1      14.007   0.203  -4.448  1.00  0.00     0.041 A 
ATOM     79  C   UNL     1      14.288  -0.983  -5.125  1.00  0.00     0.020 A 
ATOM     80  Cl  UNL     1      14.928   0.628  -3.057  1.00  0.00    -0.084 Cl
ENDBRANCH  68  74
ENDBRANCH  62  65
ENDBRANCH  60  61
ENDBRANCH  59  60
ENDBRANCH  58  59
ENDBRANCH   1  58
TORSDOF 15
