REMARK SMILES Cc1ccc(S(=O)(=O)Nc2cc3c(cc2C(=O)NCCCCCCNC(=O)c2ccc(-c4c5nc(c(-c6ccccc6)c6ccc([nH]6)c(-c6ccccc6)c6nc(c(-c7ccccc7)c7ccc4[nH]7)C=C6)C=C5)cc2)OCCO3)s1
REMARK SMILES IDX 21 1 20 2 19 3 18 4 16 5 17 6 15 8 10 9 11 10 12 11 14 12
REMARK SMILES IDX 13 13 79 14 76 15 78 16 77 17 9 18 6 20 7 21 8 22 5 23 1 24
REMARK SMILES IDX 2 25 3 26 80 27 4 28 22 29 23 30 24 31 25 32 26 33 27 35
REMARK SMILES IDX 28 36 29 37 75 38 30 39 74 40 31 41 32 42 33 43 68 44 34 45
REMARK SMILES IDX 73 46 67 47 69 48 35 49 72 50 66 51 65 52 36 54 58 55 43 56
REMARK SMILES IDX 57 57 44 58 47 59 56 60 70 61 45 62 46 63 55 65 71 66 48 67
REMARK SMILES IDX 37 68 38 69 42 70 39 71 41 72 40 73 59 74 60 75 64 76 61 77
REMARK SMILES IDX 63 78 62 79 49 80 50 81 54 82 51 83 53 84 52 85
REMARK H PARENT 18 7 9 19 25 34 69 53 47 64
REMARK Flexibility Score: inf
ROOT
ATOM      1  C   UNL     1       1.572  -2.017   3.682  1.00  0.00     0.002 C 
ENDROOT
BRANCH   1   2
ATOM      2  C   UNL     1       0.981  -2.719   2.461  1.00  0.00     0.021 C 
BRANCH   2   3
ATOM      3  C   UNL     1      -0.493  -3.105   2.510  1.00  0.00     0.116 C 
BRANCH   3   4
ATOM      4  N   UNL     1      -1.394  -2.037   2.894  1.00  0.00    -0.352 N 
ATOM      5  C   UNL     1      -2.685  -1.767   2.498  1.00  0.00     0.253 C 
ATOM      6  O   UNL     1      -3.306  -0.886   3.086  1.00  0.00    -0.269 OA
ATOM      7  H   UNL     1      -1.022  -1.398   3.544  1.00  0.00     0.163 HD
BRANCH   5   8
ATOM      8  C   UNL     1      -3.321  -2.507   1.375  1.00  0.00     0.067 A 
ATOM      9  C   UNL     1      -4.037  -1.818   0.373  1.00  0.00     0.066 A 
ATOM     10  C   UNL     1      -4.590  -2.527  -0.701  1.00  0.00     0.078 A 
ATOM     11  C   UNL     1      -4.423  -3.910  -0.784  1.00  0.00     0.163 A 
ATOM     12  C   UNL     1      -3.239  -3.904   1.323  1.00  0.00     0.066 A 
ATOM     13  C   UNL     1      -3.734  -4.592   0.220  1.00  0.00     0.162 A 
ATOM     14  O   UNL     1      -4.945  -4.534  -1.888  1.00  0.00    -0.486 OA
ATOM     15  O   UNL     1      -3.488  -5.940   0.183  1.00  0.00    -0.486 OA
ATOM     16  C   UNL     1      -4.953  -5.962  -1.745  1.00  0.00     0.271 C 
ATOM     17  C   UNL     1      -3.646  -6.453  -1.146  1.00  0.00     0.271 C 
BRANCH   9  18
ATOM     18  N   UNL     1      -4.192  -0.395   0.431  1.00  0.00    -0.278 N 
ATOM     19  H   UNL     1      -4.814   0.018   1.073  1.00  0.00     0.180 HD
BRANCH  18  20
ATOM     20  S   UNL     1      -3.285   0.558  -0.626  1.00  0.00     0.271 S 
ATOM     21  O   UNL     1      -3.297   1.908  -0.113  1.00  0.00    -0.200 OA
ATOM     22  O   UNL     1      -3.764   0.276  -1.967  1.00  0.00    -0.200 OA
BRANCH  20  23
ATOM     23  C   UNL     1      -1.600  -0.021  -0.639  1.00  0.00     0.140 A 
ATOM     24  C   UNL     1       2.258   0.179   0.048  1.00  0.00     0.056 C 
ATOM     25  C   UNL     1       0.846  -0.126  -0.322  1.00  0.00     0.003 A 
ATOM     26  C   UNL     1       0.372  -1.194  -1.055  1.00  0.00     0.016 A 
ATOM     27  S   UNL     1      -0.424   0.910   0.175  1.00  0.00    -0.127 S 
ATOM     28  C   UNL     1      -1.036  -1.134  -1.235  1.00  0.00     0.034 A 
ENDBRANCH  20  23
ENDBRANCH  18  20
ENDBRANCH   9  18
ENDBRANCH   5   8
ENDBRANCH   3   4
ENDBRANCH   2   3
ENDBRANCH   1   2
BRANCH   1  29
ATOM     29  C   UNL     1       1.392  -2.712   5.031  1.00  0.00     0.002 C 
BRANCH  29  30
ATOM     30  C   UNL     1       1.807  -4.182   5.101  1.00  0.00     0.021 C 
BRANCH  30  31
ATOM     31  C   UNL     1       3.204  -4.517   4.590  1.00  0.00     0.116 C 
BRANCH  31  32
ATOM     32  N   UNL     1       4.264  -3.869   5.341  1.00  0.00    -0.352 N 
ATOM     33  C   UNL     1       5.400  -4.410   5.893  1.00  0.00     0.251 C 
ATOM     34  H   UNL     1       4.152  -2.900   5.476  1.00  0.00     0.163 HD
ATOM     35  O   UNL     1       6.141  -3.716   6.582  1.00  0.00    -0.269 OA
BRANCH  33  36
ATOM     36  C   UNL     1       5.721  -5.842   5.690  1.00  0.00     0.039 A 
ATOM     37  C   UNL     1       6.092  -6.605   6.800  1.00  0.00     0.014 A 
ATOM     38  C   UNL     1       5.667  -6.430   4.423  1.00  0.00     0.014 A 
ATOM     39  C   UNL     1       6.341  -7.972   6.654  1.00  0.00     0.010 A 
ATOM     40  C   UNL     1       5.860  -7.805   4.287  1.00  0.00     0.010 A 
ATOM     41  C   UNL     1       6.193  -8.590   5.402  1.00  0.00    -0.014 A 
BRANCH  41  42
ATOM     42  C   UNL     1       6.365 -10.056   5.247  1.00  0.00     0.031 A 
ATOM     43  C   UNL     1       7.507 -10.609   4.441  1.00  0.00     0.074 A 
ATOM     44  C   UNL     1       5.456 -10.894   5.782  1.00  0.00     0.049 A 
ATOM     45  N   UNL     1       7.782 -11.855   4.146  1.00  0.00    -0.248 NA
ATOM     46  C   UNL     1       8.452  -9.634   3.875  1.00  0.00     0.031 C 
ATOM     47  C   UNL     1       4.282 -10.488   6.559  1.00  0.00     0.029 A 
ATOM     48  N   UNL     1       5.373 -12.264   5.746  1.00  0.00    -0.354 N 
ATOM     49  C   UNL     1       8.918 -11.813   3.348  1.00  0.00     0.074 A 
ATOM     50  C   UNL     1       9.261 -10.417   3.175  1.00  0.00     0.031 C 
ATOM     51  C   UNL     1       3.609 -11.585   6.941  1.00  0.00     0.029 A 
ATOM     52  C   UNL     1       4.281 -12.767   6.411  1.00  0.00     0.049 A 
ATOM     53  H   UNL     1       6.034 -12.832   5.288  1.00  0.00     0.167 HD
ATOM     54  C   UNL     1       9.621 -12.842   2.818  1.00  0.00     0.031 A 
ATOM     55  C   UNL     1       3.863 -14.036   6.571  1.00  0.00     0.031 A 
ATOM     56  C   UNL     1       9.295 -14.231   2.999  1.00  0.00     0.049 A 
ATOM     57  C   UNL     1       4.659 -15.159   5.970  1.00  0.00     0.074 A 
ATOM     58  C   UNL     1       9.983 -15.344   2.548  1.00  0.00     0.029 A 
ATOM     59  N   UNL     1       8.187 -14.697   3.687  1.00  0.00    -0.354 N 
ATOM     60  N   UNL     1       5.762 -15.103   5.265  1.00  0.00    -0.248 NA
ATOM     61  C   UNL     1       4.154 -16.522   6.195  1.00  0.00     0.031 C 
ATOM     62  C   UNL     1       9.269 -16.485   2.930  1.00  0.00     0.029 A 
ATOM     63  C   UNL     1       8.160 -16.082   3.655  1.00  0.00     0.049 A 
ATOM     64  H   UNL     1       7.517 -14.129   4.133  1.00  0.00     0.167 HD
ATOM     65  C   UNL     1       6.096 -16.421   4.981  1.00  0.00     0.074 A 
ATOM     66  C   UNL     1       5.086 -17.254   5.600  1.00  0.00     0.031 C 
ATOM     67  C   UNL     1       7.147 -16.897   4.271  1.00  0.00     0.031 A 
BRANCH  54  68
ATOM     68  C   UNL     1      10.819 -12.498   1.980  1.00  0.00    -0.014 A 
ATOM     69  C   UNL     1      12.001 -12.018   2.567  1.00  0.00     0.009 A 
ATOM     70  C   UNL     1      10.778 -12.690   0.591  1.00  0.00     0.009 A 
ATOM     71  C   UNL     1      13.107 -11.706   1.774  1.00  0.00     0.001 A 
ATOM     72  C   UNL     1      11.894 -12.400  -0.197  1.00  0.00     0.001 A 
ATOM     73  C   UNL     1      13.054 -11.900   0.394  1.00  0.00     0.000 A 
ENDBRANCH  54  68
BRANCH  55  74
ATOM     74  C   UNL     1       2.630 -14.318   7.349  1.00  0.00    -0.014 A 
ATOM     75  C   UNL     1       2.715 -14.877   8.633  1.00  0.00     0.009 A 
ATOM     76  C   UNL     1       1.366 -14.031   6.812  1.00  0.00     0.009 A 
ATOM     77  C   UNL     1       1.555 -15.164   9.356  1.00  0.00     0.001 A 
ATOM     78  C   UNL     1       0.209 -14.298   7.547  1.00  0.00     0.001 A 
ATOM     79  C   UNL     1       0.304 -14.870   8.814  1.00  0.00     0.000 A 
ENDBRANCH  55  74
BRANCH  67  80
ATOM     80  C   UNL     1       7.270 -18.388   4.149  1.00  0.00    -0.014 A 
ATOM     81  C   UNL     1       6.433 -19.116   3.289  1.00  0.00     0.009 A 
ATOM     82  C   UNL     1       8.258 -19.067   4.878  1.00  0.00     0.009 A 
ATOM     83  C   UNL     1       6.566 -20.502   3.184  1.00  0.00     0.001 A 
ATOM     84  C   UNL     1       8.403 -20.449   4.754  1.00  0.00     0.001 A 
ATOM     85  C   UNL     1       7.553 -21.166   3.913  1.00  0.00     0.000 A 
ENDBRANCH  67  80
ENDBRANCH  41  42
ENDBRANCH  33  36
ENDBRANCH  31  32
ENDBRANCH  30  31
ENDBRANCH  29  30
ENDBRANCH   1  29
TORSDOF 16
