REMARK SMILES C[C@H](CCc1ccco1)NC(=O)c1cccn1CC(=O)NCCCCCCNC(=O)c1ccc(-c2c3nc(c(-c4ccccc4)c4ccc([nH]4)c(-c4ccccc4)c4nc(c(-c5ccccc5)c5ccc2[nH]5)C=C4)C=C3)cc1
REMARK SMILES IDX 22 1 21 2 19 3 20 4 18 6 17 7 13 8 14 9 15 10 16 11 11 12
REMARK SMILES IDX 10 13 12 15 2 16 1 17 3 18 4 19 5 20 6 21 9 22 7 23 8 24
REMARK SMILES IDX 23 25 24 26 25 27 26 28 27 29 28 30 29 31 30 33 31 34 32 35
REMARK SMILES IDX 78 36 33 37 77 38 34 39 35 40 36 41 71 42 37 43 76 44 70 45
REMARK SMILES IDX 72 46 38 47 75 48 69 49 68 50 39 52 61 53 46 54 60 55 47 56
REMARK SMILES IDX 50 57 59 58 73 59 48 60 49 61 58 63 74 64 51 65 40 66 41 67
REMARK SMILES IDX 45 68 42 69 44 70 43 71 62 72 63 73 67 74 64 75 66 76 65 77
REMARK SMILES IDX 52 78 53 79 57 80 54 81 56 82 55 83
REMARK H PARENT 21 5 10 14 28 32 72 51 50 62
REMARK Flexibility Score: inf
ROOT
ATOM      1  C   UNL     1      -0.466  -0.872   3.593  1.00  0.00     0.116 C 
ENDROOT
BRANCH   1   2
ATOM      2  N   UNL     1      -1.042  -0.757   4.915  1.00  0.00    -0.355 N 
ATOM      3  C   UNL     1      -1.806   0.254   5.427  1.00  0.00     0.239 C 
ATOM      4  O   UNL     1      -2.110   0.202   6.621  1.00  0.00    -0.273 OA
ATOM      5  H   UNL     1      -0.860  -1.506   5.527  1.00  0.00     0.163 HD
BRANCH   3   6
ATOM      6  C   UNL     1      -2.334   1.351   4.525  1.00  0.00     0.222 C 
BRANCH   6   7
ATOM      7  N   UNL     1      -1.308   2.249   4.002  1.00  0.00    -0.334 N 
ATOM      8  C   UNL     1      -1.042   2.518   2.662  1.00  0.00     0.107 A 
ATOM      9  C   UNL     1      -0.061   3.500   2.661  1.00  0.00     0.033 A 
ATOM     10  C   UNL     1       0.330   3.756   3.995  1.00  0.00     0.020 A 
ATOM     11  C   UNL     1      -0.461   2.978   4.803  1.00  0.00     0.087 A 
BRANCH   8  12
ATOM     12  C   UNL     1      -1.734   1.863   1.562  1.00  0.00     0.268 C 
ATOM     13  N   UNL     1      -1.019   1.321   0.519  1.00  0.00    -0.348 N 
ATOM     14  H   UNL     1      -1.470   0.584   0.047  1.00  0.00     0.164 HD
ATOM     15  O   UNL     1      -2.940   1.648   1.567  1.00  0.00    -0.268 OA
BRANCH  13  16
ATOM     16  C   UNL     1       0.303   1.663  -0.002  1.00  0.00     0.079 C 
ATOM     17  C   UNL     1       0.072   2.671  -1.127  1.00  0.00     0.031 C 
BRANCH  16  18
ATOM     18  C   UNL     1       1.070   0.393  -0.425  1.00  0.00     0.032 C 
BRANCH  18  19
ATOM     19  C   UNL     1       2.334   0.579  -1.278  1.00  0.00     0.077 C 
BRANCH  19  20
ATOM     20  C   UNL     1       3.162   1.748  -0.893  1.00  0.00     0.103 A 
ATOM     21  C   UNL     1       3.540   2.885  -1.579  1.00  0.00     0.045 A 
ATOM     22  O   UNL     1       3.589   1.815   0.398  1.00  0.00    -0.469 OA
ATOM     23  C   UNL     1       4.161   3.730  -0.632  1.00  0.00     0.042 A 
ATOM     24  C   UNL     1       4.181   3.030   0.551  1.00  0.00     0.195 A 
ENDBRANCH  19  20
ENDBRANCH  18  19
ENDBRANCH  16  18
ENDBRANCH  13  16
ENDBRANCH   8  12
ENDBRANCH   6   7
ENDBRANCH   3   6
ENDBRANCH   1   2
BRANCH   1  25
ATOM     25  C   UNL     1       1.046  -0.660   3.633  1.00  0.00     0.021 C 
BRANCH  25  26
ATOM     26  C   UNL     1       1.823  -1.876   4.147  1.00  0.00     0.002 C 
BRANCH  26  27
ATOM     27  C   UNL     1       1.555  -3.187   3.395  1.00  0.00     0.002 C 
BRANCH  27  28
ATOM     28  C   UNL     1       1.737  -3.124   1.871  1.00  0.00     0.021 C 
BRANCH  28  29
ATOM     29  C   UNL     1       3.181  -2.880   1.442  1.00  0.00     0.116 C 
BRANCH  29  30
ATOM     30  N   UNL     1       4.012  -4.023   1.783  1.00  0.00    -0.352 N 
ATOM     31  C   UNL     1       5.325  -4.275   1.497  1.00  0.00     0.251 C 
ATOM     32  H   UNL     1       3.557  -4.726   2.301  1.00  0.00     0.163 HD
ATOM     33  O   UNL     1       5.739  -5.430   1.554  1.00  0.00    -0.269 OA
BRANCH  31  34
ATOM     34  C   UNL     1       6.252  -3.192   1.115  1.00  0.00     0.039 A 
ATOM     35  C   UNL     1       7.239  -3.483   0.166  1.00  0.00     0.014 A 
ATOM     36  C   UNL     1       6.230  -1.945   1.750  1.00  0.00     0.014 A 
ATOM     37  C   UNL     1       8.170  -2.512  -0.181  1.00  0.00     0.010 A 
ATOM     38  C   UNL     1       7.141  -0.961   1.387  1.00  0.00     0.010 A 
ATOM     39  C   UNL     1       8.105  -1.244   0.416  1.00  0.00    -0.014 A 
BRANCH  39  40
ATOM     40  C   UNL     1       8.964  -0.172  -0.127  1.00  0.00     0.031 A 
ATOM     41  C   UNL     1       8.397   0.374  -1.452  1.00  0.00     0.074 A 
ATOM     42  C   UNL     1      10.114   0.105   0.562  1.00  0.00     0.049 A 
ATOM     43  N   UNL     1       9.014   0.908  -2.459  1.00  0.00    -0.248 NA
ATOM     44  C   UNL     1       6.936   0.259  -1.730  1.00  0.00     0.031 C 
ATOM     45  C   UNL     1      10.467  -0.472   1.882  1.00  0.00     0.029 A 
ATOM     46  N   UNL     1      11.217   0.901   0.319  1.00  0.00    -0.354 N 
ATOM     47  C   UNL     1       8.047   1.299  -3.413  1.00  0.00     0.074 A 
ATOM     48  C   UNL     1       6.789   0.807  -2.940  1.00  0.00     0.031 C 
ATOM     49  C   UNL     1      11.703  -0.085   2.269  1.00  0.00     0.029 A 
ATOM     50  C   UNL     1      12.282   0.768   1.252  1.00  0.00     0.049 A 
ATOM     51  H   UNL     1      11.262   1.518  -0.448  1.00  0.00     0.167 HD
ATOM     52  C   UNL     1       8.340   2.092  -4.486  1.00  0.00     0.031 A 
ATOM     53  C   UNL     1      13.560   1.257   1.183  1.00  0.00     0.031 A 
ATOM     54  C   UNL     1       9.737   2.351  -4.529  1.00  0.00     0.049 A 
ATOM     55  C   UNL     1      13.600   2.096  -0.020  1.00  0.00     0.074 A 
ATOM     56  C   UNL     1      10.807   1.567  -4.870  1.00  0.00     0.029 A 
ATOM     57  N   UNL     1      10.176   3.441  -3.820  1.00  0.00    -0.354 N 
ATOM     58  N   UNL     1      13.068   3.274  -0.120  1.00  0.00    -0.248 NA
ATOM     59  C   UNL     1      14.223   1.560  -1.236  1.00  0.00     0.031 C 
ATOM     60  C   UNL     1      11.777   1.930  -3.914  1.00  0.00     0.029 A 
ATOM     61  C   UNL     1      11.350   3.067  -3.219  1.00  0.00     0.049 A 
ATOM     62  H   UNL     1       9.735   4.319  -3.756  1.00  0.00     0.167 HD
ATOM     63  C   UNL     1      12.937   3.411  -1.478  1.00  0.00     0.074 A 
ATOM     64  C   UNL     1      13.934   2.549  -2.078  1.00  0.00     0.031 C 
ATOM     65  C   UNL     1      11.728   3.740  -2.001  1.00  0.00     0.031 A 
BRANCH  52  66
ATOM     66  C   UNL     1       7.484   2.879  -5.438  1.00  0.00    -0.014 A 
ATOM     67  C   UNL     1       8.107   3.374  -6.612  1.00  0.00     0.009 A 
ATOM     68  C   UNL     1       6.255   3.439  -5.079  1.00  0.00     0.009 A 
ATOM     69  C   UNL     1       7.599   4.468  -7.314  1.00  0.00     0.001 A 
ATOM     70  C   UNL     1       5.725   4.515  -5.809  1.00  0.00     0.001 A 
ATOM     71  C   UNL     1       6.414   5.053  -6.897  1.00  0.00     0.000 A 
ENDBRANCH  52  66
BRANCH  53  72
ATOM     72  C   UNL     1      14.880   1.102   1.901  1.00  0.00    -0.014 A 
ATOM     73  C   UNL     1      15.091   0.456   3.121  1.00  0.00     0.009 A 
ATOM     74  C   UNL     1      16.056   1.603   1.270  1.00  0.00     0.009 A 
ATOM     75  C   UNL     1      16.399   0.243   3.616  1.00  0.00     0.001 A 
ATOM     76  C   UNL     1      17.353   1.355   1.728  1.00  0.00     0.001 A 
ATOM     77  C   UNL     1      17.526   0.656   2.904  1.00  0.00     0.000 A 
ENDBRANCH  53  72
BRANCH  65  78
ATOM     78  C   UNL     1      10.773   4.428  -1.033  1.00  0.00    -0.014 A 
ATOM     79  C   UNL     1      11.164   5.622  -0.404  1.00  0.00     0.009 A 
ATOM     80  C   UNL     1       9.552   3.863  -0.621  1.00  0.00     0.009 A 
ATOM     81  C   UNL     1      10.391   6.207   0.608  1.00  0.00     0.001 A 
ATOM     82  C   UNL     1       8.771   4.447   0.390  1.00  0.00     0.001 A 
ATOM     83  C   UNL     1       9.195   5.618   1.008  1.00  0.00     0.000 A 
ENDBRANCH  65  78
ENDBRANCH  39  40
ENDBRANCH  31  34
ENDBRANCH  29  30
ENDBRANCH  28  29
ENDBRANCH  27  28
ENDBRANCH  26  27
ENDBRANCH  25  26
ENDBRANCH   1  25
TORSDOF 19
