REMARK SMILES CCN1C(=O)CC[C@H](C(=O)NCCCCCCNC(=O)c2ccc(-c3c4nc(c(-c5ccccc5)c5ccc([nH]5)c(-c5ccccc5)c5nc(c(-c6ccccc6)c6ccc3[nH]6)C=C5)C=C4)cc2)[C@@H]1c1ccc(OC)cc1
REMARK SMILES IDX 14 1 13 2 12 3 11 4 9 5 10 6 8 8 3 9 4 10 69 11 5 12 6 13
REMARK SMILES IDX 7 14 2 15 1 16 70 17 71 18 77 19 72 20 76 21 73 22 74 23
REMARK SMILES IDX 75 24 15 25 16 26 17 27 18 28 19 29 20 31 21 32 22 33 68 34
REMARK SMILES IDX 23 35 67 36 24 37 25 38 26 39 61 40 27 41 66 42 60 43 62 44
REMARK SMILES IDX 28 45 65 46 59 47 58 48 29 50 51 51 36 52 50 53 37 54 40 55
REMARK SMILES IDX 49 56 63 57 38 58 39 59 48 61 64 62 41 63 30 64 31 65 35 66
REMARK SMILES IDX 32 67 34 68 33 69 52 70 53 71 57 72 54 73 56 74 55 75 42 76
REMARK SMILES IDX 43 77 47 78 44 79 46 80 45 81
REMARK H PARENT 11 7 18 30 62 49 40 60
REMARK Flexibility Score: inf
ROOT
ATOM      1  C   UNL     1       6.870  -3.910  -4.781  1.00  0.00     0.002 C 
ENDROOT
BRANCH   1   2
ATOM      2  C   UNL     1       5.574  -4.186  -4.012  1.00  0.00     0.021 C 
BRANCH   2   3
ATOM      3  C   UNL     1       4.682  -2.967  -3.834  1.00  0.00     0.116 C 
BRANCH   3   4
ATOM      4  N   UNL     1       3.958  -2.595  -5.030  1.00  0.00    -0.356 N 
ATOM      5  C   UNL     1       2.732  -2.026  -5.172  1.00  0.00     0.225 C 
ATOM      6  O   UNL     1       2.492  -1.483  -6.256  1.00  0.00    -0.275 OA
ATOM      7  H   UNL     1       4.428  -2.785  -5.875  1.00  0.00     0.163 HD
BRANCH   5   8
ATOM      8  C   UNL     1       1.667  -2.021  -4.079  1.00  0.00     0.106 C 
ATOM      9  N   UNL     1       0.693  -0.937  -2.018  1.00  0.00    -0.335 N 
ATOM     10  C   UNL     1       0.011  -2.102  -1.690  1.00  0.00     0.223 C 
ATOM     11  C   UNL     1       1.696  -0.820  -3.110  1.00  0.00     0.128 C 
ATOM     12  O   UNL     1      -0.772  -2.166  -0.739  1.00  0.00    -0.275 OA
ATOM     13  C   UNL     1       0.142  -3.300  -2.605  1.00  0.00     0.101 C 
ATOM     14  C   UNL     1       1.440  -3.351  -3.377  1.00  0.00     0.026 C 
BRANCH   9  15
ATOM     15  C   UNL     1       0.312   0.284  -1.296  1.00  0.00     0.117 C 
ATOM     16  C   UNL     1       0.809   0.351   0.143  1.00  0.00     0.027 C 
ENDBRANCH   9  15
BRANCH  11  17
ATOM     17  C   UNL     1       3.079  -0.416  -2.604  1.00  0.00    -0.024 A 
ATOM     18  C   UNL     1       3.616  -0.886  -1.399  1.00  0.00     0.010 A 
ATOM     19  C   UNL     1       3.873   0.442  -3.389  1.00  0.00     0.010 A 
ATOM     20  C   UNL     1       4.910  -0.520  -1.004  1.00  0.00     0.047 A 
ATOM     21  C   UNL     1       5.176   0.786  -3.005  1.00  0.00     0.047 A 
ATOM     22  C   UNL     1       5.707   0.289  -1.817  1.00  0.00     0.118 A 
BRANCH  22  23
ATOM     23  O   UNL     1       6.974   0.509  -1.355  1.00  0.00    -0.497 OA
ATOM     24  C   UNL     1       7.918   1.008  -2.298  1.00  0.00     0.278 C 
ENDBRANCH  22  23
ENDBRANCH  11  17
ENDBRANCH   5   8
ENDBRANCH   3   4
ENDBRANCH   2   3
ENDBRANCH   1   2
BRANCH   1  25
ATOM     25  C   UNL     1       7.711  -2.730  -4.275  1.00  0.00     0.002 C 
BRANCH  25  26
ATOM     26  C   UNL     1       8.001  -2.712  -2.772  1.00  0.00     0.021 C 
BRANCH  26  27
ATOM     27  C   UNL     1       8.724  -3.940  -2.238  1.00  0.00     0.116 C 
BRANCH  27  28
ATOM     28  N   UNL     1      10.044  -4.089  -2.824  1.00  0.00    -0.352 N 
ATOM     29  C   UNL     1      11.275  -4.149  -2.222  1.00  0.00     0.251 C 
ATOM     30  H   UNL     1      10.057  -4.158  -3.806  1.00  0.00     0.163 HD
ATOM     31  O   UNL     1      12.289  -4.059  -2.908  1.00  0.00    -0.269 OA
BRANCH  29  32
ATOM     32  C   UNL     1      11.393  -4.310  -0.755  1.00  0.00     0.039 A 
ATOM     33  C   UNL     1      12.420  -3.637  -0.086  1.00  0.00     0.014 A 
ATOM     34  C   UNL     1      10.538  -5.155  -0.042  1.00  0.00     0.014 A 
ATOM     35  C   UNL     1      12.563  -3.780   1.296  1.00  0.00     0.010 A 
ATOM     36  C   UNL     1      10.627  -5.229   1.345  1.00  0.00     0.010 A 
ATOM     37  C   UNL     1      11.653  -4.559   2.027  1.00  0.00    -0.014 A 
BRANCH  37  38
ATOM     38  C   UNL     1      11.780  -4.718   3.497  1.00  0.00     0.031 A 
ATOM     39  C   UNL     1      12.050  -6.077   4.088  1.00  0.00     0.074 A 
ATOM     40  C   UNL     1      11.598  -3.656   4.305  1.00  0.00     0.049 A 
ATOM     41  N   UNL     1      12.129  -6.430   5.346  1.00  0.00    -0.248 NA
ATOM     42  C   UNL     1      12.225  -7.190   3.141  1.00  0.00     0.031 C 
ATOM     43  C   UNL     1      11.288  -2.295   3.862  1.00  0.00     0.029 A 
ATOM     44  N   UNL     1      11.643  -3.558   5.673  1.00  0.00    -0.354 N 
ATOM     45  C   UNL     1      12.333  -7.805   5.340  1.00  0.00     0.074 A 
ATOM     46  C   UNL     1      12.317  -8.229   3.957  1.00  0.00     0.031 C 
ATOM     47  C   UNL     1      11.203  -1.493   4.936  1.00  0.00     0.029 A 
ATOM     48  C   UNL     1      11.415  -2.288   6.141  1.00  0.00     0.049 A 
ATOM     49  H   UNL     1      11.822  -4.326   6.262  1.00  0.00     0.167 HD
ATOM     50  C   UNL     1      12.537  -8.639   6.387  1.00  0.00     0.031 A 
ATOM     51  C   UNL     1      11.379  -1.816   7.401  1.00  0.00     0.031 A 
ATOM     52  C   UNL     1      12.582  -8.216   7.760  1.00  0.00     0.049 A 
ATOM     53  C   UNL     1      11.628  -2.757   8.546  1.00  0.00     0.074 A 
ATOM     54  C   UNL     1      12.839  -8.973   8.889  1.00  0.00     0.029 A 
ATOM     55  N   UNL     1      12.371  -6.915   8.189  1.00  0.00    -0.354 N 
ATOM     56  N   UNL     1      11.875  -4.045   8.518  1.00  0.00    -0.248 NA
ATOM     57  C   UNL     1      11.606  -2.175   9.895  1.00  0.00     0.031 C 
ATOM     58  C   UNL     1      12.748  -8.136  10.007  1.00  0.00     0.029 A 
ATOM     59  C   UNL     1      12.480  -6.850   9.568  1.00  0.00     0.049 A 
ATOM     60  H   UNL     1      12.172  -6.151   7.601  1.00  0.00     0.167 HD
ATOM     61  C   UNL     1      12.065  -4.421   9.841  1.00  0.00     0.074 A 
ATOM     62  C   UNL     1      11.920  -3.224  10.643  1.00  0.00     0.031 C 
ATOM     63  C   UNL     1      12.335  -5.649  10.347  1.00  0.00     0.031 A 
BRANCH  50  64
ATOM     64  C   UNL     1      12.727 -10.098   6.079  1.00  0.00    -0.014 A 
ATOM     65  C   UNL     1      13.896 -10.563   5.453  1.00  0.00     0.009 A 
ATOM     66  C   UNL     1      11.736 -11.024   6.439  1.00  0.00     0.009 A 
ATOM     67  C   UNL     1      14.049 -11.919   5.157  1.00  0.00     0.001 A 
ATOM     68  C   UNL     1      11.905 -12.384   6.168  1.00  0.00     0.001 A 
ATOM     69  C   UNL     1      13.056 -12.828   5.518  1.00  0.00     0.000 A 
ENDBRANCH  50  64
BRANCH  51  70
ATOM     70  C   UNL     1      11.126  -0.373   7.648  1.00  0.00    -0.014 A 
ATOM     71  C   UNL     1      12.164   0.464   8.084  1.00  0.00     0.009 A 
ATOM     72  C   UNL     1       9.848   0.173   7.454  1.00  0.00     0.009 A 
ATOM     73  C   UNL     1      11.922   1.814   8.346  1.00  0.00     0.001 A 
ATOM     74  C   UNL     1       9.615   1.530   7.691  1.00  0.00     0.001 A 
ATOM     75  C   UNL     1      10.649   2.347   8.145  1.00  0.00     0.000 A 
ENDBRANCH  51  70
BRANCH  63  76
ATOM     76  C   UNL     1      12.527  -5.747  11.833  1.00  0.00    -0.014 A 
ATOM     77  C   UNL     1      11.440  -5.656  12.716  1.00  0.00     0.009 A 
ATOM     78  C   UNL     1      13.812  -5.965  12.353  1.00  0.00     0.009 A 
ATOM     79  C   UNL     1      11.643  -5.746  14.094  1.00  0.00     0.001 A 
ATOM     80  C   UNL     1      14.008  -6.082  13.729  1.00  0.00     0.001 A 
ATOM     81  C   UNL     1      12.925  -5.963  14.599  1.00  0.00     0.000 A 
ENDBRANCH  63  76
ENDBRANCH  37  38
ENDBRANCH  29  32
ENDBRANCH  27  28
ENDBRANCH  26  27
ENDBRANCH  25  26
ENDBRANCH   1  25
TORSDOF 16
