REMARK SMILES O=C(NCCCCCCNC(=O)c1cccc(NC(=O)c2cc3ccccc3[nH]2)c1)c1ccc(-c2c3nc(c(-c4ccccc4)c4ccc([nH]4)c(-c4ccccc4)c4nc(c(-c5ccccc5)c5ccc2[nH]5)C=C4)C=C3)cc1
REMARK SMILES IDX 6 1 5 2 4 3 3 4 1 5 2 6 31 8 32 9 78 10 33 11 77 12 34 13
REMARK SMILES IDX 35 14 36 15 71 16 37 17 76 18 70 19 72 20 38 21 75 22 69 23
REMARK SMILES IDX 68 24 39 26 61 27 46 28 60 29 47 30 50 31 59 32 73 33 48 34
REMARK SMILES IDX 49 35 58 37 74 38 51 39 40 40 41 41 45 42 42 43 44 44 43 45
REMARK SMILES IDX 62 46 63 47 67 48 64 49 66 50 65 51 52 52 53 53 57 54 54 55
REMARK SMILES IDX 56 56 55 57 7 58 8 59 9 60 10 61 11 62 12 64 13 65 14 66
REMARK SMILES IDX 30 67 15 68 17 69 16 70 18 71 19 72 20 74 21 75 22 76 29 77
REMARK SMILES IDX 23 78 28 79 24 81 27 82 25 83 26 84
REMARK H PARENT 3 7 72 25 50 36 10 63 18 73 29 80
REMARK Flexibility Score: inf
ROOT
ATOM      1  C   UNL     1       4.226  -3.631  -1.519  1.00  0.00     0.002 C 
ENDROOT
BRANCH   1   2
ATOM      2  C   UNL     1       4.699  -2.679  -0.421  1.00  0.00     0.021 C 
BRANCH   2   3
ATOM      3  C   UNL     1       4.482  -1.196  -0.699  1.00  0.00     0.116 C 
BRANCH   3   4
ATOM      4  N   UNL     1       3.078  -0.832  -0.804  1.00  0.00    -0.352 N 
ATOM      5  O   UNL     1       1.159   0.238  -0.281  1.00  0.00    -0.269 OA
ATOM      6  C   UNL     1       2.378   0.155  -0.151  1.00  0.00     0.251 C 
ATOM      7  H   UNL     1       2.550  -1.373  -1.436  1.00  0.00     0.163 HD
BRANCH   6   8
ATOM      8  C   UNL     1       3.087   1.100   0.741  1.00  0.00     0.039 A 
ATOM      9  C   UNL     1       4.292   1.688   0.352  1.00  0.00     0.014 A 
ATOM     10  C   UNL     1       2.540   1.392   1.994  1.00  0.00     0.014 A 
ATOM     11  C   UNL     1       5.029   2.425   1.274  1.00  0.00     0.010 A 
ATOM     12  C   UNL     1       3.242   2.206   2.889  1.00  0.00     0.010 A 
ATOM     13  C   UNL     1       4.515   2.690   2.554  1.00  0.00    -0.014 A 
BRANCH  13  14
ATOM     14  C   UNL     1       5.327   3.486   3.512  1.00  0.00     0.031 A 
ATOM     15  C   UNL     1       5.848   2.877   4.786  1.00  0.00     0.074 A 
ATOM     16  C   UNL     1       5.640   4.760   3.202  1.00  0.00     0.049 A 
ATOM     17  N   UNL     1       6.629   3.409   5.694  1.00  0.00    -0.248 NA
ATOM     18  C   UNL     1       5.437   1.496   5.087  1.00  0.00     0.031 C 
ATOM     19  C   UNL     1       5.193   5.470   2.001  1.00  0.00     0.029 A 
ATOM     20  N   UNL     1       6.431   5.671   3.852  1.00  0.00    -0.354 N 
ATOM     21  C   UNL     1       6.781   2.443   6.681  1.00  0.00     0.074 A 
ATOM     22  C   UNL     1       5.994   1.299   6.274  1.00  0.00     0.031 C 
ATOM     23  C   UNL     1       5.766   6.682   1.970  1.00  0.00     0.029 A 
ATOM     24  C   UNL     1       6.575   6.855   3.171  1.00  0.00     0.049 A 
ATOM     25  H   UNL     1       6.855   5.494   4.723  1.00  0.00     0.167 HD
ATOM     26  C   UNL     1       7.513   2.500   7.821  1.00  0.00     0.031 A 
ATOM     27  C   UNL     1       7.278   7.961   3.475  1.00  0.00     0.031 A 
ATOM     28  C   UNL     1       8.308   3.631   8.223  1.00  0.00     0.049 A 
ATOM     29  C   UNL     1       8.075   7.998   4.746  1.00  0.00     0.074 A 
ATOM     30  C   UNL     1       9.113   3.766   9.342  1.00  0.00     0.029 A 
ATOM     31  N   UNL     1       8.398   4.823   7.521  1.00  0.00    -0.354 N 
ATOM     32  N   UNL     1       8.236   7.061   5.647  1.00  0.00    -0.248 NA
ATOM     33  C   UNL     1       8.792   9.248   5.036  1.00  0.00     0.031 C 
ATOM     34  C   UNL     1       9.655   5.056   9.339  1.00  0.00     0.029 A 
ATOM     35  C   UNL     1       9.229   5.705   8.193  1.00  0.00     0.049 A 
ATOM     36  H   UNL     1       7.940   5.014   6.671  1.00  0.00     0.167 HD
ATOM     37  C   UNL     1       9.090   7.598   6.601  1.00  0.00     0.074 A 
ATOM     38  C   UNL     1       9.426   8.936   6.157  1.00  0.00     0.031 C 
ATOM     39  C   UNL     1       9.554   7.033   7.741  1.00  0.00     0.031 A 
BRANCH  26  40
ATOM     40  C   UNL     1       7.467   1.308   8.736  1.00  0.00    -0.014 A 
ATOM     41  C   UNL     1       8.121   0.110   8.411  1.00  0.00     0.009 A 
ATOM     42  C   UNL     1       6.793   1.401   9.964  1.00  0.00     0.009 A 
ATOM     43  C   UNL     1       8.074  -0.981   9.284  1.00  0.00     0.001 A 
ATOM     44  C   UNL     1       6.769   0.319  10.846  1.00  0.00     0.001 A 
ATOM     45  C   UNL     1       7.402  -0.874  10.501  1.00  0.00     0.000 A 
ENDBRANCH  26  40
BRANCH  27  46
ATOM     46  C   UNL     1       7.268   9.121   2.549  1.00  0.00    -0.014 A 
ATOM     47  C   UNL     1       8.412   9.452   1.808  1.00  0.00     0.009 A 
ATOM     48  C   UNL     1       6.109   9.898   2.395  1.00  0.00     0.009 A 
ATOM     49  C   UNL     1       8.403  10.551   0.947  1.00  0.00     0.001 A 
ATOM     50  C   UNL     1       6.094  10.979   1.512  1.00  0.00     0.001 A 
ATOM     51  C   UNL     1       7.243  11.310   0.796  1.00  0.00     0.000 A 
ENDBRANCH  27  46
BRANCH  39  52
ATOM     52  C   UNL     1      10.505   7.850   8.568  1.00  0.00    -0.014 A 
ATOM     53  C   UNL     1      10.061   8.950   9.317  1.00  0.00     0.009 A 
ATOM     54  C   UNL     1      11.864   7.502   8.607  1.00  0.00     0.009 A 
ATOM     55  C   UNL     1      10.967   9.710  10.059  1.00  0.00     0.001 A 
ATOM     56  C   UNL     1      12.763   8.247   9.371  1.00  0.00     0.001 A 
ATOM     57  C   UNL     1      12.316   9.356  10.088  1.00  0.00     0.000 A 
ENDBRANCH  39  52
ENDBRANCH  13  14
ENDBRANCH   6   8
ENDBRANCH   3   4
ENDBRANCH   2   3
ENDBRANCH   1   2
BRANCH   1  58
ATOM     58  C   UNL     1       4.780  -3.361  -2.921  1.00  0.00     0.002 C 
BRANCH  58  59
ATOM     59  C   UNL     1       6.305  -3.285  -3.038  1.00  0.00     0.021 C 
BRANCH  59  60
ATOM     60  C   UNL     1       7.066  -4.508  -2.532  1.00  0.00     0.116 C 
BRANCH  60  61
ATOM     61  N   UNL     1       6.738  -5.718  -3.273  1.00  0.00    -0.352 N 
ATOM     62  C   UNL     1       7.566  -6.598  -3.932  1.00  0.00     0.251 C 
ATOM     63  H   UNL     1       5.780  -5.941  -3.307  1.00  0.00     0.163 HD
ATOM     64  O   UNL     1       7.094  -7.478  -4.645  1.00  0.00    -0.269 OA
BRANCH  62  65
ATOM     65  C   UNL     1       9.031  -6.486  -3.780  1.00  0.00     0.041 A 
ATOM     66  C   UNL     1       9.855  -6.474  -4.903  1.00  0.00     0.014 A 
ATOM     67  C   UNL     1       9.588  -6.367  -2.508  1.00  0.00     0.040 A 
ATOM     68  C   UNL     1      11.230  -6.276  -4.742  1.00  0.00     0.003 A 
ATOM     69  C   UNL     1      10.950  -6.090  -2.347  1.00  0.00     0.042 A 
ATOM     70  C   UNL     1      11.778  -6.064  -3.467  1.00  0.00     0.026 A 
BRANCH  69  71
ATOM     71  N   UNL     1      11.306  -5.681  -1.059  1.00  0.00    -0.321 N 
ATOM     72  C   UNL     1      12.442  -5.149  -0.532  1.00  0.00     0.272 C 
ATOM     73  H   UNL     1      10.587  -5.803  -0.397  1.00  0.00     0.170 HD
ATOM     74  O   UNL     1      12.288  -4.339   0.384  1.00  0.00    -0.267 OA
BRANCH  72  75
ATOM     75  C   UNL     1      13.748  -5.649  -0.860  1.00  0.00     0.105 A 
ATOM     76  C   UNL     1      14.858  -4.915  -1.250  1.00  0.00     0.042 A 
ATOM     77  N   UNL     1      14.246  -6.813  -0.303  1.00  0.00    -0.351 N 
ATOM     78  C   UNL     1      15.921  -5.356  -0.405  1.00  0.00     0.000 A 
ATOM     79  C   UNL     1      15.483  -6.514   0.235  1.00  0.00     0.046 A 
ATOM     80  H   UNL     1      13.801  -7.691  -0.292  1.00  0.00     0.167 HD
ATOM     81  C   UNL     1      17.142  -4.780  -0.009  1.00  0.00     0.010 A 
ATOM     82  C   UNL     1      16.187  -7.117   1.283  1.00  0.00     0.026 A 
ATOM     83  C   UNL     1      17.827  -5.332   1.080  1.00  0.00     0.001 A 
ATOM     84  C   UNL     1      17.349  -6.475   1.720  1.00  0.00     0.002 A 
ENDBRANCH  72  75
ENDBRANCH  69  71
ENDBRANCH  62  65
ENDBRANCH  60  61
ENDBRANCH  59  60
ENDBRANCH  58  59
ENDBRANCH   1  58
TORSDOF 15
