REMARK SMILES O=C(NCCCCCCNC(=O)[C@H]1CCC[N@@H+]1Cc1ccccc1[N+](=O)[O-])c1ccc(-c2c3nc(c(-c4ccccc4)c4ccc([nH]4)c(-c4ccccc4)c4nc(c(-c5ccccc5)c5ccc2[nH]5)C=C4)C=C3)cc1
REMARK SMILES IDX 7 1 6 2 5 3 4 4 3 5 1 6 2 7 28 9 29 10 75 11 30 12 74 13
REMARK SMILES IDX 31 14 32 15 33 16 68 17 34 18 73 19 67 20 69 21 35 22 72 23
REMARK SMILES IDX 66 24 65 25 36 27 58 28 43 29 57 30 44 31 47 32 56 33 70 34
REMARK SMILES IDX 45 35 46 36 55 38 71 39 48 40 37 41 38 42 42 43 39 44 41 45
REMARK SMILES IDX 40 46 59 47 60 48 64 49 61 50 63 51 62 52 49 53 50 54 54 55
REMARK SMILES IDX 51 56 53 57 52 58 8 59 9 60 10 61 11 62 12 64 13 65 14 66
REMARK SMILES IDX 17 67 15 68 16 69 18 71 19 72 20 73 24 74 21 75 23 76 22 77
REMARK SMILES IDX 25 78 26 79 27 80
REMARK H PARENT 3 8 69 26 47 37 10 63 17 70
REMARK Flexibility Score: inf
ROOT
ATOM      1  C   UNL     1       9.868  10.515  -2.541  1.00  0.00     0.002 C 
ENDROOT
BRANCH   1   2
ATOM      2  C   UNL     1       8.682  10.916  -3.426  1.00  0.00     0.002 C 
BRANCH   2   3
ATOM      3  C   UNL     1       7.938  12.177  -2.988  1.00  0.00     0.021 C 
BRANCH   3   4
ATOM      4  C   UNL     1       8.797  13.431  -2.933  1.00  0.00     0.116 C 
BRANCH   4   5
ATOM      5  N   UNL     1       9.197  13.885  -4.254  1.00  0.00    -0.352 N 
ATOM      6  O   UNL     1       9.272  15.300  -6.012  1.00  0.00    -0.269 OA
ATOM      7  C   UNL     1       9.039  15.126  -4.823  1.00  0.00     0.251 C 
ATOM      8  H   UNL     1       9.642  13.212  -4.818  1.00  0.00     0.163 HD
BRANCH   7   9
ATOM      9  C   UNL     1       8.568  16.255  -3.989  1.00  0.00     0.039 A 
ATOM     10  C   UNL     1       9.114  16.479  -2.723  1.00  0.00     0.014 A 
ATOM     11  C   UNL     1       7.584  17.110  -4.492  1.00  0.00     0.014 A 
ATOM     12  C   UNL     1       8.598  17.485  -1.915  1.00  0.00     0.010 A 
ATOM     13  C   UNL     1       7.121  18.172  -3.709  1.00  0.00     0.010 A 
ATOM     14  C   UNL     1       7.614  18.358  -2.409  1.00  0.00    -0.014 A 
BRANCH  14  15
ATOM     15  C   UNL     1       7.200  19.520  -1.585  1.00  0.00     0.031 A 
ATOM     16  C   UNL     1       5.806  19.640  -1.040  1.00  0.00     0.074 A 
ATOM     17  C   UNL     1       8.118  20.469  -1.318  1.00  0.00     0.049 A 
ATOM     18  N   UNL     1       5.301  20.584  -0.285  1.00  0.00    -0.248 NA
ATOM     19  C   UNL     1       4.854  18.573  -1.385  1.00  0.00     0.031 C 
ATOM     20  C   UNL     1       9.502  20.465  -1.805  1.00  0.00     0.029 A 
ATOM     21  N   UNL     1       8.038  21.610  -0.562  1.00  0.00    -0.354 N 
ATOM     22  C   UNL     1       3.971  20.238  -0.081  1.00  0.00     0.074 A 
ATOM     23  C   UNL     1       3.741  19.005  -0.802  1.00  0.00     0.031 C 
ATOM     24  C   UNL     1      10.149  21.524  -1.300  1.00  0.00     0.029 A 
ATOM     25  C   UNL     1       9.216  22.314  -0.508  1.00  0.00     0.049 A 
ATOM     26  H   UNL     1       7.215  21.896  -0.102  1.00  0.00     0.167 HD
ATOM     27  C   UNL     1       3.032  20.891   0.645  1.00  0.00     0.031 A 
ATOM     28  C   UNL     1       9.511  23.479   0.096  1.00  0.00     0.031 A 
ATOM     29  C   UNL     1       3.267  22.117   1.364  1.00  0.00     0.049 A 
ATOM     30  C   UNL     1       8.441  24.189   0.868  1.00  0.00     0.074 A 
ATOM     31  C   UNL     1       2.387  22.829   2.162  1.00  0.00     0.029 A 
ATOM     32  N   UNL     1       4.464  22.816   1.367  1.00  0.00    -0.354 N 
ATOM     33  N   UNL     1       7.203  23.821   1.091  1.00  0.00    -0.248 NA
ATOM     34  C   UNL     1       8.808  25.478   1.470  1.00  0.00     0.031 C 
ATOM     35  C   UNL     1       3.036  23.985   2.607  1.00  0.00     0.029 A 
ATOM     36  C   UNL     1       4.336  23.966   2.129  1.00  0.00     0.049 A 
ATOM     37  H   UNL     1       5.283  22.536   0.898  1.00  0.00     0.167 HD
ATOM     38  C   UNL     1       6.646  24.825   1.869  1.00  0.00     0.074 A 
ATOM     39  C   UNL     1       7.689  25.804   2.102  1.00  0.00     0.031 C 
ATOM     40  C   UNL     1       5.382  24.931   2.343  1.00  0.00     0.031 A 
BRANCH  27  41
ATOM     41  C   UNL     1       1.646  20.312   0.685  1.00  0.00    -0.014 A 
ATOM     42  C   UNL     1       1.353  19.177   1.456  1.00  0.00     0.009 A 
ATOM     43  C   UNL     1       0.602  20.962   0.008  1.00  0.00     0.009 A 
ATOM     44  C   UNL     1       0.043  18.695   1.534  1.00  0.00     0.001 A 
ATOM     45  C   UNL     1      -0.709  20.491   0.105  1.00  0.00     0.001 A 
ATOM     46  C   UNL     1      -0.987  19.356   0.864  1.00  0.00     0.000 A 
ENDBRANCH  27  41
BRANCH  28  47
ATOM     47  C   UNL     1      10.873  24.056  -0.032  1.00  0.00    -0.014 A 
ATOM     48  C   UNL     1      11.732  24.121   1.076  1.00  0.00     0.009 A 
ATOM     49  C   UNL     1      11.321  24.549  -1.268  1.00  0.00     0.009 A 
ATOM     50  C   UNL     1      13.001  24.691   0.952  1.00  0.00     0.001 A 
ATOM     51  C   UNL     1      12.601  25.088  -1.396  1.00  0.00     0.001 A 
ATOM     52  C   UNL     1      13.436  25.169  -0.283  1.00  0.00     0.000 A 
ENDBRANCH  28  47
BRANCH  40  53
ATOM     53  C   UNL     1       5.071  26.140   3.176  1.00  0.00    -0.014 A 
ATOM     54  C   UNL     1       4.936  27.409   2.590  1.00  0.00     0.009 A 
ATOM     55  C   UNL     1       4.894  26.005   4.561  1.00  0.00     0.009 A 
ATOM     56  C   UNL     1       4.665  28.525   3.383  1.00  0.00     0.001 A 
ATOM     57  C   UNL     1       4.596  27.119   5.347  1.00  0.00     0.001 A 
ATOM     58  C   UNL     1       4.491  28.379   4.759  1.00  0.00     0.000 A 
ENDBRANCH  40  53
ENDBRANCH  14  15
ENDBRANCH   7   9
ENDBRANCH   4   5
ENDBRANCH   3   4
ENDBRANCH   2   3
ENDBRANCH   1   2
BRANCH   1  59
ATOM     59  C   UNL     1       9.568  10.382  -1.039  1.00  0.00     0.021 C 
BRANCH  59  60
ATOM     60  C   UNL     1       8.390   9.465  -0.699  1.00  0.00     0.116 C 
BRANCH  60  61
ATOM     61  N   UNL     1       8.606   8.127  -1.199  1.00  0.00    -0.351 N 
ATOM     62  C   UNL     1       8.943   6.986  -0.537  1.00  0.00     0.278 C 
ATOM     63  H   UNL     1       8.491   8.024  -2.171  1.00  0.00     0.163 HD
ATOM     64  O   UNL     1       9.176   5.997  -1.239  1.00  0.00    -0.268 OA
BRANCH  62  65
ATOM     65  C   UNL     1       8.927   6.920   1.014  1.00  0.00     0.274 C 
ATOM     66  C   UNL     1       9.513   5.585   1.476  1.00  0.00     0.081 C 
ATOM     67  N   UNL     1       9.834   7.925   1.612  1.00  0.00    -0.321 N 
ATOM     68  C   UNL     1      11.014   5.840   1.548  1.00  0.00     0.068 C 
ATOM     69  C   UNL     1      11.178   7.355   1.534  1.00  0.00     0.263 C 
ATOM     70  H   UNL     1       9.785   8.791   1.076  1.00  0.00     0.349 HD
BRANCH  67  71
ATOM     71  C   UNL     1       9.441   8.466   2.924  1.00  0.00     0.307 C 
BRANCH  71  72
ATOM     72  C   UNL     1       9.098   7.505   4.047  1.00  0.00     0.084 A 
ATOM     73  C   UNL     1       7.746   7.145   4.232  1.00  0.00     0.017 A 
ATOM     74  C   UNL     1      10.033   6.917   4.922  1.00  0.00     0.278 A 
ATOM     75  C   UNL     1       7.361   6.213   5.203  1.00  0.00     0.001 A 
ATOM     76  C   UNL     1       9.655   5.963   5.883  1.00  0.00     0.086 A 
ATOM     77  C   UNL     1       8.316   5.609   6.016  1.00  0.00     0.007 A 
BRANCH  74  78
ATOM     78  N   UNL     1      11.437   7.297   4.910  1.00  0.00     0.063 N 
ATOM     79  O   UNL     1      12.270   6.383   4.839  1.00  0.00    -0.258 OA
ATOM     80  O   UNL     1      11.703   8.502   5.010  1.00  0.00    -0.258 OA
ENDBRANCH  74  78
ENDBRANCH  71  72
ENDBRANCH  67  71
ENDBRANCH  62  65
ENDBRANCH  60  61
ENDBRANCH  59  60
ENDBRANCH   1  59
TORSDOF 16
