REMARK SMILES CC(C)C[C@@H](C[NH3+])C(=O)N1CCC(CC(=O)NCCCCCCNC(=O)c2ccc(-c3c4nc(c(-c5ccccc5)c5ccc([nH]5)c(-c5ccccc5)c5nc(c(-c6ccccc6)c6ccc3[nH]6)C=C5)C=C4)cc2)CC1
REMARK SMILES IDX 19 1 18 2 17 3 15 4 16 5 14 7 13 8 8 9 9 10 10 11 11 12
REMARK SMILES IDX 76 13 12 14 75 15 5 16 4 17 2 18 1 19 3 20 6 21 7 22 20 26
REMARK SMILES IDX 21 27 22 28 23 29 24 30 25 31 26 33 27 34 28 35 74 36 29 37
REMARK SMILES IDX 73 38 30 39 31 40 32 41 67 42 33 43 72 44 66 45 68 46 34 47
REMARK SMILES IDX 71 48 65 49 64 50 35 52 57 53 42 54 56 55 43 56 46 57 55 58
REMARK SMILES IDX 69 59 44 60 45 61 54 63 70 64 47 65 36 66 37 67 41 68 38 69
REMARK SMILES IDX 40 70 39 71 58 72 59 73 63 74 60 75 62 76 61 77 48 78 49 79
REMARK SMILES IDX 53 80 50 81 52 82 51 83
REMARK H PARENT 17 6 7 23 7 24 7 25 24 32 68 51 46 62
REMARK Flexibility Score: inf
ROOT
ATOM      1  C   UNL     1      -8.662   2.472  -2.368  1.00  0.00     0.021 C 
ENDROOT
BRANCH   1   2
ATOM      2  C   UNL     1      -9.041   0.988  -2.289  1.00  0.00     0.116 C 
BRANCH   2   3
ATOM      3  N   UNL     1      -9.159   0.417  -3.621  1.00  0.00    -0.356 N 
ATOM      4  C   UNL     1      -8.350  -0.455  -4.288  1.00  0.00     0.220 C 
ATOM      5  O   UNL     1      -8.599  -0.695  -5.471  1.00  0.00    -0.275 OA
ATOM      6  H   UNL     1      -9.954   0.707  -4.124  1.00  0.00     0.163 HD
BRANCH   4   7
ATOM      7  C   UNL     1      -7.178  -1.123  -3.592  1.00  0.00     0.103 C 
BRANCH   7   8
ATOM      8  C   UNL     1      -5.826  -0.414  -3.803  1.00  0.00     0.002 C 
ATOM      9  C   UNL     1      -2.920   1.038  -1.283  1.00  0.00     0.231 C 
ATOM     10  O   UNL     1      -3.614   1.534  -0.388  1.00  0.00    -0.274 OA
ATOM     11  N   UNL     1      -3.474   0.699  -2.501  1.00  0.00    -0.342 N 
ATOM     12  C   UNL     1      -4.440   1.601  -3.083  1.00  0.00     0.120 C 
ATOM     13  C   UNL     1      -3.337  -0.581  -3.178  1.00  0.00     0.120 C 
ATOM     14  C   UNL     1      -5.809   0.959  -3.124  1.00  0.00     0.026 C 
ATOM     15  C   UNL     1      -4.687  -1.300  -3.265  1.00  0.00     0.026 C 
BRANCH   9  16
ATOM     16  C   UNL     1      -1.390   1.081  -1.159  1.00  0.00     0.133 C 
BRANCH  16  17
ATOM     17  C   UNL     1      -0.641  -0.195  -1.556  1.00  0.00     0.022 C 
BRANCH  17  18
ATOM     18  C   UNL     1       0.873  -0.216  -1.273  1.00  0.00    -0.016 C 
ATOM     19  C   UNL     1       1.212   0.000   0.201  1.00  0.00     0.007 C 
ATOM     20  C   UNL     1       1.447  -1.556  -1.746  1.00  0.00     0.007 C 
ENDBRANCH  17  18
ENDBRANCH  16  17
BRANCH  16  21
ATOM     21  C   UNL     1      -0.886   2.369  -1.845  1.00  0.00     0.272 C 
BRANCH  21  22
ATOM     22  N   UNL     1      -0.875   2.329  -3.309  1.00  0.00    -0.357 N 
ATOM     23  H   UNL     1      -0.229   1.605  -3.624  1.00  0.00     0.344 HD
ATOM     24  H   UNL     1      -0.574   3.234  -3.671  1.00  0.00     0.344 HD
ATOM     25  H   UNL     1      -1.813   2.121  -3.650  1.00  0.00     0.344 HD
ENDBRANCH  21  22
ENDBRANCH  16  21
ENDBRANCH   9  16
ENDBRANCH   7   8
ENDBRANCH   4   7
ENDBRANCH   2   3
ENDBRANCH   1   2
BRANCH   1  26
ATOM     26  C   UNL     1      -9.847   3.434  -2.321  1.00  0.00     0.002 C 
BRANCH  26  27
ATOM     27  C   UNL     1     -10.534   3.543  -0.959  1.00  0.00     0.002 C 
BRANCH  27  28
ATOM     28  C   UNL     1      -9.623   3.921   0.214  1.00  0.00     0.021 C 
BRANCH  28  29
ATOM     29  C   UNL     1      -8.782   5.180   0.011  1.00  0.00     0.116 C 
BRANCH  29  30
ATOM     30  N   UNL     1      -9.604   6.354  -0.235  1.00  0.00    -0.352 N 
ATOM     31  C   UNL     1      -9.752   7.496   0.511  1.00  0.00     0.251 C 
ATOM     32  H   UNL     1     -10.135   6.326  -1.063  1.00  0.00     0.163 HD
ATOM     33  O   UNL     1     -10.654   8.286   0.255  1.00  0.00    -0.269 OA
BRANCH  31  34
ATOM     34  C   UNL     1      -8.831   7.776   1.633  1.00  0.00     0.039 A 
ATOM     35  C   UNL     1      -9.361   8.229   2.844  1.00  0.00     0.014 A 
ATOM     36  C   UNL     1      -7.449   7.636   1.481  1.00  0.00     0.014 A 
ATOM     37  C   UNL     1      -8.510   8.493   3.919  1.00  0.00     0.010 A 
ATOM     38  C   UNL     1      -6.606   7.840   2.572  1.00  0.00     0.010 A 
ATOM     39  C   UNL     1      -7.128   8.277   3.799  1.00  0.00    -0.014 A 
BRANCH  39  40
ATOM     40  C   UNL     1      -6.214   8.508   4.947  1.00  0.00     0.031 A 
ATOM     41  C   UNL     1      -5.180   9.599   4.885  1.00  0.00     0.074 A 
ATOM     42  C   UNL     1      -6.270   7.691   6.017  1.00  0.00     0.049 A 
ATOM     43  N   UNL     1      -4.260   9.913   5.763  1.00  0.00    -0.248 NA
ATOM     44  C   UNL     1      -5.159  10.429   3.670  1.00  0.00     0.031 C 
ATOM     45  C   UNL     1      -7.192   6.564   6.177  1.00  0.00     0.029 A 
ATOM     46  N   UNL     1      -5.523   7.675   7.168  1.00  0.00    -0.354 N 
ATOM     47  C   UNL     1      -3.537  10.955   5.195  1.00  0.00     0.074 A 
ATOM     48  C   UNL     1      -4.102  11.200   3.886  1.00  0.00     0.031 C 
ATOM     49  C   UNL     1      -6.964   5.975   7.362  1.00  0.00     0.029 A 
ATOM     50  C   UNL     1      -5.862   6.660   8.030  1.00  0.00     0.049 A 
ATOM     51  H   UNL     1      -4.813   8.329   7.359  1.00  0.00     0.167 HD
ATOM     52  C   UNL     1      -2.503  11.653   5.721  1.00  0.00     0.031 A 
ATOM     53  C   UNL     1      -5.337   6.312   9.220  1.00  0.00     0.031 A 
ATOM     54  C   UNL     1      -1.960  11.432   7.035  1.00  0.00     0.049 A 
ATOM     55  C   UNL     1      -4.206   7.122   9.791  1.00  0.00     0.074 A 
ATOM     56  C   UNL     1      -0.971  12.146   7.689  1.00  0.00     0.029 A 
ATOM     57  N   UNL     1      -2.358  10.420   7.892  1.00  0.00    -0.354 N 
ATOM     58  N   UNL     1      -3.596   8.164   9.280  1.00  0.00    -0.248 NA
ATOM     59  C   UNL     1      -3.702   6.717  11.111  1.00  0.00     0.031 C 
ATOM     60  C   UNL     1      -0.737  11.536   8.925  1.00  0.00     0.029 A 
ATOM     61  C   UNL     1      -1.616  10.474   9.060  1.00  0.00     0.049 A 
ATOM     62  H   UNL     1      -3.063   9.760   7.700  1.00  0.00     0.167 HD
ATOM     63  C   UNL     1      -2.658   8.554  10.226  1.00  0.00     0.074 A 
ATOM     64  C   UNL     1      -2.791   7.650  11.349  1.00  0.00     0.031 C 
ATOM     65  C   UNL     1      -1.765   9.571  10.170  1.00  0.00     0.031 A 
BRANCH  52  66
ATOM     66  C   UNL     1      -1.881  12.727   4.875  1.00  0.00    -0.014 A 
ATOM     67  C   UNL     1      -2.545  13.939   4.629  1.00  0.00     0.009 A 
ATOM     68  C   UNL     1      -0.583  12.549   4.370  1.00  0.00     0.009 A 
ATOM     69  C   UNL     1      -1.932  14.940   3.872  1.00  0.00     0.001 A 
ATOM     70  C   UNL     1       0.037  13.561   3.635  1.00  0.00     0.001 A 
ATOM     71  C   UNL     1      -0.640  14.753   3.382  1.00  0.00     0.000 A 
ENDBRANCH  52  66
BRANCH  53  72
ATOM     72  C   UNL     1      -5.873   5.141   9.961  1.00  0.00    -0.014 A 
ATOM     73  C   UNL     1      -6.606   5.319  11.145  1.00  0.00     0.009 A 
ATOM     74  C   UNL     1      -5.633   3.837   9.501  1.00  0.00     0.009 A 
ATOM     75  C   UNL     1      -7.056   4.214  11.871  1.00  0.00     0.001 A 
ATOM     76  C   UNL     1      -6.110   2.735  10.214  1.00  0.00     0.001 A 
ATOM     77  C   UNL     1      -6.810   2.924  11.404  1.00  0.00     0.000 A 
ENDBRANCH  53  72
BRANCH  65  78
ATOM     78  C   UNL     1      -0.888   9.782  11.371  1.00  0.00    -0.014 A 
ATOM     79  C   UNL     1       0.167   8.905  11.665  1.00  0.00     0.009 A 
ATOM     80  C   UNL     1      -1.099  10.898  12.196  1.00  0.00     0.009 A 
ATOM     81  C   UNL     1       0.974   9.124  12.784  1.00  0.00     0.001 A 
ATOM     82  C   UNL     1      -0.274  11.129  13.297  1.00  0.00     0.001 A 
ATOM     83  C   UNL     1       0.755  10.237  13.595  1.00  0.00     0.000 A 
ENDBRANCH  65  78
ENDBRANCH  39  40
ENDBRANCH  31  34
ENDBRANCH  29  30
ENDBRANCH  28  29
ENDBRANCH  27  28
ENDBRANCH  26  27
ENDBRANCH   1  26
TORSDOF 19
