REMARK SMILES CC(C)CCOCC[N@@H+]1[C@@H](C(=O)NCCCCCCNC(=O)c2ccc(-c3c4nc(c(-c5ccccc5)c5ccc([nH]5)c(-c5ccccc5)c5nc(c(-c6ccccc6)c6ccc3[nH]6)C=C5)C=C4)cc2)CC[C@H]2CCCC[C@H]21
REMARK SMILES IDX 14 1 13 2 11 3 12 4 10 6 9 7 78 8 71 10 73 11 77 12 72 13
REMARK SMILES IDX 74 14 76 15 75 16 8 17 7 18 6 19 5 20 4 21 2 22 1 23 3 24
REMARK SMILES IDX 15 25 16 26 17 27 18 28 19 29 20 30 21 31 22 33 23 34 24 35
REMARK SMILES IDX 70 36 25 37 69 38 26 39 27 40 28 41 63 42 29 43 68 44 62 45
REMARK SMILES IDX 64 46 30 47 67 48 61 49 60 50 31 52 53 53 38 54 52 55 39 56
REMARK SMILES IDX 42 57 51 58 65 59 40 60 41 61 50 63 66 64 43 65 32 66 33 67
REMARK SMILES IDX 37 68 34 69 36 70 35 71 54 72 55 73 59 74 56 75 58 76 57 77
REMARK SMILES IDX 44 78 45 79 49 80 46 81 48 82 47 83
REMARK H PARENT 13 5 9 9 20 32 64 51 42 62
REMARK Flexibility Score: inf
ROOT
ATOM      1  C   UNL     1       2.406  -0.533  -3.743  1.00  0.00     0.116 C 
ENDROOT
BRANCH   1   2
ATOM      2  N   UNL     1       3.118  -0.971  -2.576  1.00  0.00    -0.351 N 
ATOM      3  C   UNL     1       2.790  -0.739  -1.284  1.00  0.00     0.278 C 
ATOM      4  O   UNL     1       3.634  -0.998  -0.420  1.00  0.00    -0.268 OA
ATOM      5  H   UNL     1       3.935  -1.497  -2.733  1.00  0.00     0.163 HD
BRANCH   3   6
ATOM      6  C   UNL     1       1.387  -0.222  -0.900  1.00  0.00     0.274 C 
ATOM      7  N   UNL     1       0.336  -1.227  -1.226  1.00  0.00    -0.320 N 
ATOM      8  C   UNL     1      -1.044  -0.718  -1.231  1.00  0.00     0.187 C 
ATOM      9  H   UNL     1       0.508  -1.462  -2.204  1.00  0.00     0.349 HD
ATOM     10  C   UNL     1       1.131   1.237  -1.331  1.00  0.00     0.076 C 
ATOM     11  C   UNL     1      -1.266   0.643  -1.905  1.00  0.00     0.048 C 
ATOM     12  C   UNL     1      -2.044  -1.697  -1.868  1.00  0.00     0.065 C 
ATOM     13  C   UNL     1      -0.328   1.679  -1.287  1.00  0.00     0.016 C 
ATOM     14  C   UNL     1      -1.230   0.636  -3.440  1.00  0.00     0.010 C 
ATOM     15  C   UNL     1      -1.700  -1.937  -3.330  1.00  0.00     0.006 C 
ATOM     16  C   UNL     1      -1.667  -0.651  -4.150  1.00  0.00     0.001 C 
BRANCH   7  17
ATOM     17  C   UNL     1       0.488  -2.488  -0.425  1.00  0.00     0.291 C 
BRANCH  17  18
ATOM     18  C   UNL     1       0.516  -2.523   1.143  1.00  0.00     0.221 C 
BRANCH  18  19
ATOM     19  O   UNL     1      -0.668  -2.740   1.910  1.00  0.00    -0.376 OA
BRANCH  19  20
ATOM     20  C   UNL     1      -1.680  -1.768   2.091  1.00  0.00     0.160 C 
BRANCH  20  21
ATOM     21  C   UNL     1      -1.506  -0.557   3.051  1.00  0.00     0.031 C 
BRANCH  21  22
ATOM     22  C   UNL     1      -0.117   0.025   3.351  1.00  0.00    -0.015 C 
ATOM     23  C   UNL     1       0.480   0.660   2.119  1.00  0.00     0.007 C 
ATOM     24  C   UNL     1      -0.152   1.135   4.403  1.00  0.00     0.007 C 
ENDBRANCH  21  22
ENDBRANCH  20  21
ENDBRANCH  19  20
ENDBRANCH  18  19
ENDBRANCH  17  18
ENDBRANCH   7  17
ENDBRANCH   3   6
ENDBRANCH   1   2
BRANCH   1  25
ATOM     25  C   UNL     1       3.082   0.716  -4.310  1.00  0.00     0.021 C 
BRANCH  25  26
ATOM     26  C   UNL     1       4.522   0.460  -4.760  1.00  0.00     0.002 C 
BRANCH  26  27
ATOM     27  C   UNL     1       4.676  -0.768  -5.660  1.00  0.00     0.002 C 
BRANCH  27  28
ATOM     28  C   UNL     1       3.708  -0.790  -6.843  1.00  0.00     0.021 C 
BRANCH  28  29
ATOM     29  C   UNL     1       3.761   0.474  -7.682  1.00  0.00     0.116 C 
BRANCH  29  30
ATOM     30  N   UNL     1       5.077   0.651  -8.268  1.00  0.00    -0.352 N 
ATOM     31  C   UNL     1       5.394   0.712  -9.595  1.00  0.00     0.251 C 
ATOM     32  H   UNL     1       5.827   0.736  -7.636  1.00  0.00     0.163 HD
ATOM     33  O   UNL     1       6.553   0.564  -9.980  1.00  0.00    -0.269 OA
BRANCH  31  34
ATOM     34  C   UNL     1       4.307   0.951 -10.558  1.00  0.00     0.039 A 
ATOM     35  C   UNL     1       4.202   0.137 -11.684  1.00  0.00     0.014 A 
ATOM     36  C   UNL     1       3.364   1.954 -10.303  1.00  0.00     0.014 A 
ATOM     37  C   UNL     1       3.125   0.312 -12.549  1.00  0.00     0.010 A 
ATOM     38  C   UNL     1       2.245   2.064 -11.115  1.00  0.00     0.010 A 
ATOM     39  C   UNL     1       2.128   1.260 -12.257  1.00  0.00    -0.014 A 
BRANCH  39  40
ATOM     40  C   UNL     1       0.967   1.447 -13.156  1.00  0.00     0.031 A 
ATOM     41  C   UNL     1       0.772   2.761 -13.858  1.00  0.00     0.074 A 
ATOM     42  C   UNL     1       0.067   0.455 -13.296  1.00  0.00     0.049 A 
ATOM     43  N   UNL     1      -0.197   3.135 -14.654  1.00  0.00    -0.248 NA
ATOM     44  C   UNL     1       1.784   3.804 -13.614  1.00  0.00     0.031 C 
ATOM     45  C   UNL     1       0.128  -0.848 -12.629  1.00  0.00     0.029 A 
ATOM     46  N   UNL     1      -1.079   0.392 -14.045  1.00  0.00    -0.354 N 
ATOM     47  C   UNL     1       0.079   4.455 -14.988  1.00  0.00     0.074 A 
ATOM     48  C   UNL     1       1.272   4.837 -14.266  1.00  0.00     0.031 C 
ATOM     49  C   UNL     1      -0.916  -1.593 -13.026  1.00  0.00     0.029 A 
ATOM     50  C   UNL     1      -1.742  -0.806 -13.936  1.00  0.00     0.049 A 
ATOM     51  H   UNL     1      -1.397   1.135 -14.608  1.00  0.00     0.167 HD
ATOM     52  C   UNL     1      -0.589   5.269 -15.836  1.00  0.00     0.031 A 
ATOM     53  C   UNL     1      -2.891  -1.220 -14.502  1.00  0.00     0.031 A 
ATOM     54  C   UNL     1      -1.768   4.879 -16.560  1.00  0.00     0.049 A 
ATOM     55  C   UNL     1      -3.622  -0.289 -15.429  1.00  0.00     0.074 A 
ATOM     56  C   UNL     1      -2.485   5.606 -17.494  1.00  0.00     0.029 A 
ATOM     57  N   UNL     1      -2.406   3.655 -16.426  1.00  0.00    -0.354 N 
ATOM     58  N   UNL     1      -3.304   0.928 -15.799  1.00  0.00    -0.248 NA
ATOM     59  C   UNL     1      -4.866  -0.795 -16.026  1.00  0.00     0.031 C 
ATOM     60  C   UNL     1      -3.594   4.846 -17.877  1.00  0.00     0.029 A 
ATOM     61  C   UNL     1      -3.529   3.620 -17.235  1.00  0.00     0.049 A 
ATOM     62  H   UNL     1      -2.106   2.922 -15.842  1.00  0.00     0.167 HD
ATOM     63  C   UNL     1      -4.291   1.322 -16.694  1.00  0.00     0.074 A 
ATOM     64  C   UNL     1      -5.206   0.207 -16.824  1.00  0.00     0.031 C 
ATOM     65  C   UNL     1      -4.428   2.500 -17.349  1.00  0.00     0.031 A 
BRANCH  52  66
ATOM     66  C   UNL     1      -0.067   6.668 -16.016  1.00  0.00    -0.014 A 
ATOM     67  C   UNL     1       1.152   6.916 -16.669  1.00  0.00     0.009 A 
ATOM     68  C   UNL     1      -0.824   7.757 -15.557  1.00  0.00     0.009 A 
ATOM     69  C   UNL     1       1.617   8.224 -16.826  1.00  0.00     0.001 A 
ATOM     70  C   UNL     1      -0.372   9.064 -15.745  1.00  0.00     0.001 A 
ATOM     71  C   UNL     1       0.852   9.296 -16.370  1.00  0.00     0.000 A 
ENDBRANCH  52  66
BRANCH  53  72
ATOM     72  C   UNL     1      -3.419  -2.579 -14.213  1.00  0.00    -0.014 A 
ATOM     73  C   UNL     1      -3.447  -3.564 -15.213  1.00  0.00     0.009 A 
ATOM     74  C   UNL     1      -3.909  -2.897 -12.937  1.00  0.00     0.009 A 
ATOM     75  C   UNL     1      -3.987  -4.825 -14.951  1.00  0.00     0.001 A 
ATOM     76  C   UNL     1      -4.417  -4.170 -12.668  1.00  0.00     0.001 A 
ATOM     77  C   UNL     1      -4.467  -5.128 -13.678  1.00  0.00     0.000 A 
ENDBRANCH  53  72
BRANCH  65  78
ATOM     78  C   UNL     1      -5.590   2.631 -18.294  1.00  0.00    -0.014 A 
ATOM     79  C   UNL     1      -6.908   2.729 -17.825  1.00  0.00     0.009 A 
ATOM     80  C   UNL     1      -5.352   2.701 -19.677  1.00  0.00     0.009 A 
ATOM     81  C   UNL     1      -7.969   2.860 -18.723  1.00  0.00     0.001 A 
ATOM     82  C   UNL     1      -6.411   2.866 -20.570  1.00  0.00     0.001 A 
ATOM     83  C   UNL     1      -7.719   2.935 -20.093  1.00  0.00     0.000 A 
ENDBRANCH  65  78
ENDBRANCH  39  40
ENDBRANCH  31  34
ENDBRANCH  29  30
ENDBRANCH  28  29
ENDBRANCH  27  28
ENDBRANCH  26  27
ENDBRANCH  25  26
ENDBRANCH   1  25
TORSDOF 19
