REMARK SMILES CC1(C)C[C@@H]([NH2+]C[C@@H]2CCCC[C@@H]2C(=O)NCCCCCCNC(=O)c2ccc(-c3c4nc(c(-c5ccccc5)c5ccc([nH]5)c(-c5ccccc5)c5nc(c(-c6ccccc6)c6ccc3[nH]6)C=C5)C=C4)cc2)C(C)(C)O1
REMARK SMILES IDX 19 1 18 2 17 3 16 4 14 5 15 6 13 8 8 9 9 10 10 11 12 12
REMARK SMILES IDX 11 13 7 14 6 15 5 18 1 19 2 20 3 21 4 22 77 23 74 24 75 25
REMARK SMILES IDX 76 26 20 27 21 28 22 29 23 30 24 31 25 33 26 34 27 35 73 36
REMARK SMILES IDX 28 37 72 38 29 39 30 40 31 41 66 42 32 43 71 44 65 45 67 46
REMARK SMILES IDX 33 47 70 48 64 49 63 50 34 52 56 53 41 54 55 55 42 56 45 57
REMARK SMILES IDX 54 58 68 59 43 60 44 61 53 63 69 64 46 65 35 66 36 67 40 68
REMARK SMILES IDX 37 69 39 70 38 71 57 72 58 73 62 74 59 75 61 76 60 77 47 78
REMARK SMILES IDX 48 79 52 80 49 81 51 82 50 83
REMARK H PARENT 16 7 6 16 6 17 23 32 67 51 45 62
REMARK Flexibility Score: inf
ROOT
ATOM      1  C   UNL     1      -3.130   0.371   0.551  1.00  0.00     0.002 C 
ENDROOT
BRANCH   1   2
ATOM      2  C   UNL     1      -1.709  -0.146   0.312  1.00  0.00     0.021 C 
BRANCH   2   3
ATOM      3  C   UNL     1      -1.186  -1.105   1.382  1.00  0.00     0.116 C 
BRANCH   3   4
ATOM      4  N   UNL     1      -1.640  -2.477   1.180  1.00  0.00    -0.356 N 
ATOM      5  C   UNL     1      -0.958  -3.590   0.760  1.00  0.00     0.223 C 
ATOM      6  O   UNL     1      -1.585  -4.642   0.644  1.00  0.00    -0.275 OA
ATOM      7  H   UNL     1      -2.593  -2.628   1.378  1.00  0.00     0.163 HD
BRANCH   5   8
ATOM      8  C   UNL     1       0.532  -3.480   0.426  1.00  0.00     0.087 C 
ATOM      9  C   UNL     1       1.121  -4.597  -0.489  1.00  0.00     0.056 C 
ATOM     10  C   UNL     1       1.286  -5.934   0.263  1.00  0.00     0.010 C 
ATOM     11  C   UNL     1       2.096  -5.776   1.544  1.00  0.00     0.001 C 
ATOM     12  C   UNL     1       1.373  -3.363   1.710  1.00  0.00     0.014 C 
ATOM     13  C   UNL     1       1.528  -4.689   2.445  1.00  0.00     0.001 C 
BRANCH   9  14
ATOM     14  C   UNL     1       0.439  -4.851  -1.861  1.00  0.00     0.265 C 
BRANCH  14  15
ATOM     15  N   UNL     1      -0.436  -3.817  -2.362  1.00  0.00    -0.341 N 
ATOM     16  H   UNL     1      -1.212  -4.295  -2.819  1.00  0.00     0.346 HD
ATOM     17  H   UNL     1      -0.618  -3.265  -1.523  1.00  0.00     0.346 HD
BRANCH  15  18
ATOM     18  C   UNL     1       0.028  -2.802  -3.300  1.00  0.00     0.217 C 
ATOM     19  C   UNL     1       1.391   0.064  -1.505  1.00  0.00     0.042 C 
ATOM     20  C   UNL     1       0.947  -0.572  -2.827  1.00  0.00     0.069 C 
ATOM     21  C   UNL     1       1.587   0.244  -3.957  1.00  0.00     0.042 C 
ATOM     22  C   UNL     1       1.306  -2.055  -2.912  1.00  0.00     0.103 C 
ATOM     23  O   UNL     1      -0.484  -0.478  -2.916  1.00  0.00    -0.363 OA
ATOM     24  C   UNL     1      -1.018  -1.667  -3.541  1.00  0.00     0.115 C 
ATOM     25  C   UNL     1      -2.429  -1.917  -2.975  1.00  0.00     0.048 C 
ATOM     26  C   UNL     1      -1.213  -1.389  -5.039  1.00  0.00     0.048 C 
ENDBRANCH  15  18
ENDBRANCH  14  15
ENDBRANCH   9  14
ENDBRANCH   5   8
ENDBRANCH   3   4
ENDBRANCH   2   3
ENDBRANCH   1   2
BRANCH   1  27
ATOM     27  C   UNL     1      -3.203   1.641   1.411  1.00  0.00     0.002 C 
BRANCH  27  28
ATOM     28  C   UNL     1      -2.447   2.868   0.877  1.00  0.00     0.021 C 
BRANCH  28  29
ATOM     29  C   UNL     1      -2.764   3.270  -0.564  1.00  0.00     0.116 C 
BRANCH  29  30
ATOM     30  N   UNL     1      -4.143   3.702  -0.722  1.00  0.00    -0.352 N 
ATOM     31  C   UNL     1      -4.676   4.959  -0.863  1.00  0.00     0.251 C 
ATOM     32  H   UNL     1      -4.804   2.973  -0.729  1.00  0.00     0.163 HD
ATOM     33  O   UNL     1      -5.889   5.119  -0.757  1.00  0.00    -0.269 OA
BRANCH  31  34
ATOM     34  C   UNL     1      -3.814   6.135  -1.127  1.00  0.00     0.039 A 
ATOM     35  C   UNL     1      -4.074   7.321  -0.431  1.00  0.00     0.014 A 
ATOM     36  C   UNL     1      -2.813   6.110  -2.102  1.00  0.00     0.014 A 
ATOM     37  C   UNL     1      -3.299   8.459  -0.672  1.00  0.00     0.010 A 
ATOM     38  C   UNL     1      -2.005   7.233  -2.306  1.00  0.00     0.010 A 
ATOM     39  C   UNL     1      -2.240   8.419  -1.593  1.00  0.00    -0.014 A 
BRANCH  39  40
ATOM     40  C   UNL     1      -1.367   9.605  -1.797  1.00  0.00     0.031 A 
ATOM     41  C   UNL     1      -1.382  10.363  -3.096  1.00  0.00     0.074 A 
ATOM     42  C   UNL     1      -0.526   9.983  -0.815  1.00  0.00     0.049 A 
ATOM     43  N   UNL     1      -0.688  11.420  -3.442  1.00  0.00    -0.248 NA
ATOM     44  C   UNL     1      -2.278   9.862  -4.150  1.00  0.00     0.031 C 
ATOM     45  C   UNL     1      -0.383   9.317   0.481  1.00  0.00     0.029 A 
ATOM     46  N   UNL     1       0.369  11.023  -0.755  1.00  0.00    -0.354 N 
ATOM     47  C   UNL     1      -1.052  11.701  -4.752  1.00  0.00     0.074 A 
ATOM     48  C   UNL     1      -2.001  10.684  -5.153  1.00  0.00     0.031 C 
ATOM     49  C   UNL     1       0.521   9.982   1.218  1.00  0.00     0.029 A 
ATOM     50  C   UNL     1       1.044  11.100   0.439  1.00  0.00     0.049 A 
ATOM     51  H   UNL     1       0.513  11.653  -1.497  1.00  0.00     0.167 HD
ATOM     52  C   UNL     1      -0.645  12.720  -5.548  1.00  0.00     0.031 A 
ATOM     53  C   UNL     1       1.976  11.972   0.863  1.00  0.00     0.031 A 
ATOM     54  C   UNL     1       0.288  13.744  -5.153  1.00  0.00     0.049 A 
ATOM     55  C   UNL     1       2.413  13.090  -0.040  1.00  0.00     0.074 A 
ATOM     56  C   UNL     1       0.705  14.853  -5.870  1.00  0.00     0.029 A 
ATOM     57  N   UNL     1       0.952  13.781  -3.938  1.00  0.00    -0.354 N 
ATOM     58  N   UNL     1       2.002  13.383  -1.249  1.00  0.00    -0.248 NA
ATOM     59  C   UNL     1       3.437  14.004   0.488  1.00  0.00     0.031 C 
ATOM     60  C   UNL     1       1.655  15.538  -5.105  1.00  0.00     0.029 A 
ATOM     61  C   UNL     1       1.795  14.879  -3.895  1.00  0.00     0.049 A 
ATOM     62  H   UNL     1       0.840  13.125  -3.213  1.00  0.00     0.167 HD
ATOM     63  C   UNL     1       2.699  14.526  -1.618  1.00  0.00     0.074 A 
ATOM     64  C   UNL     1       3.546  14.882  -0.499  1.00  0.00     0.031 C 
ATOM     65  C   UNL     1       2.640  15.219  -2.780  1.00  0.00     0.031 A 
BRANCH  52  66
ATOM     66  C   UNL     1      -1.204  12.777  -6.942  1.00  0.00    -0.014 A 
ATOM     67  C   UNL     1      -2.534  13.161  -7.175  1.00  0.00     0.009 A 
ATOM     68  C   UNL     1      -0.377  12.489  -8.038  1.00  0.00     0.009 A 
ATOM     69  C   UNL     1      -3.032  13.224  -8.478  1.00  0.00     0.001 A 
ATOM     70  C   UNL     1      -0.871  12.576  -9.341  1.00  0.00     0.001 A 
ATOM     71  C   UNL     1      -2.200  12.936  -9.559  1.00  0.00     0.000 A 
ENDBRANCH  52  66
BRANCH  53  72
ATOM     72  C   UNL     1       2.550  11.842   2.226  1.00  0.00    -0.014 A 
ATOM     73  C   UNL     1       2.197  12.754   3.233  1.00  0.00     0.009 A 
ATOM     74  C   UNL     1       3.458  10.814   2.525  1.00  0.00     0.009 A 
ATOM     75  C   UNL     1       2.762  12.654   4.506  1.00  0.00     0.001 A 
ATOM     76  C   UNL     1       4.002  10.703   3.806  1.00  0.00     0.001 A 
ATOM     77  C   UNL     1       3.660  11.627   4.792  1.00  0.00     0.000 A 
ENDBRANCH  53  72
BRANCH  65  78
ATOM     78  C   UNL     1       3.501  16.445  -2.888  1.00  0.00    -0.014 A 
ATOM     79  C   UNL     1       4.889  16.342  -3.062  1.00  0.00     0.009 A 
ATOM     80  C   UNL     1       2.912  17.718  -2.835  1.00  0.00     0.009 A 
ATOM     81  C   UNL     1       5.676  17.493  -3.146  1.00  0.00     0.001 A 
ATOM     82  C   UNL     1       3.698  18.865  -2.945  1.00  0.00     0.001 A 
ATOM     83  C   UNL     1       5.080  18.752  -3.091  1.00  0.00     0.000 A 
ENDBRANCH  65  78
ENDBRANCH  39  40
ENDBRANCH  31  34
ENDBRANCH  29  30
ENDBRANCH  28  29
ENDBRANCH  27  28
ENDBRANCH   1  27
TORSDOF 16
