REMARK SMILES CCn1ncc(Br)c1C(=O)N[C@H]1C(=O)N2C(C(=O)NCCCCCCNC(=O)c3ccc(-c4c5nc(c(-c6ccccc6)c6ccc([nH]6)c(-c6ccccc6)c6nc(c(-c7ccccc7)c7ccc4[nH]7)C=C6)C=C5)cc3)=C(COC(C)=O)CS[C@H]12
REMARK SMILES IDX 22 1 21 2 20 3 19 4 17 5 18 6 16 8 12 9 13 10 85 11 14 12
REMARK SMILES IDX 15 13 84 14 83 15 77 16 11 17 9 18 10 19 8 21 3 22 4 23 5 24
REMARK SMILES IDX 6 25 7 26 2 27 1 28 78 29 79 30 80 31 81 32 82 33 23 34
REMARK SMILES IDX 24 35 25 36 26 37 27 38 28 40 29 41 30 42 76 43 31 44 75 45
REMARK SMILES IDX 32 46 33 47 34 48 69 49 35 50 74 51 68 52 70 53 36 54 73 55
REMARK SMILES IDX 67 56 66 57 37 59 59 60 44 61 58 62 45 63 48 64 57 65 71 66
REMARK SMILES IDX 46 67 47 68 56 70 72 71 49 72 38 73 39 74 43 75 40 76 42 77
REMARK SMILES IDX 41 78 60 79 61 80 65 81 62 82 64 83 63 84 50 85 51 86 55 87
REMARK SMILES IDX 52 88 54 89 53 90
REMARK H PARENT 19 7 11 20 26 39 70 58 48 69
REMARK Flexibility Score: inf
ROOT
ATOM      1  C   UNL     1      -4.002   5.896   3.038  1.00  0.00     0.002 C 
ENDROOT
BRANCH   1   2
ATOM      2  C   UNL     1      -3.576   4.424   3.002  1.00  0.00     0.021 C 
BRANCH   2   3
ATOM      3  C   UNL     1      -3.207   3.868   1.615  1.00  0.00     0.116 C 
BRANCH   3   4
ATOM      4  N   UNL     1      -1.829   3.369   1.567  1.00  0.00    -0.351 N 
ATOM      5  C   UNL     1      -1.360   2.277   2.265  1.00  0.00     0.268 C 
ATOM      6  O   UNL     1      -0.674   2.431   3.269  1.00  0.00    -0.268 OA
ATOM      7  H   UNL     1      -1.191   3.851   0.993  1.00  0.00     0.163 HD
BRANCH   5   8
ATOM      8  C   UNL     1      -1.430   0.930   1.582  1.00  0.00     0.114 C 
ATOM      9  C   UNL     1       1.368  -0.459   0.187  1.00  0.00     0.206 C 
ATOM     10  C   UNL     1       1.072   0.656   1.185  1.00  0.00     0.253 C 
ATOM     11  C   UNL     1      -0.176  -0.605   0.083  1.00  0.00     0.181 C 
ATOM     12  O   UNL     1       1.759   1.387   1.875  1.00  0.00    -0.272 OA
ATOM     13  N   UNL     1      -0.259   0.463   1.048  1.00  0.00    -0.290 N 
ATOM     14  S   UNL     1      -0.935  -2.059   0.835  1.00  0.00    -0.129 SA
ATOM     15  C   UNL     1      -2.563  -1.252   0.942  1.00  0.00     0.108 C 
ATOM     16  C   UNL     1      -2.536   0.145   1.560  1.00  0.00     0.007 C 
BRANCH   9  17
ATOM     17  N   UNL     1       2.058  -0.259  -1.102  1.00  0.00    -0.336 N 
ATOM     18  C   UNL     1       2.480   0.681  -2.007  1.00  0.00     0.271 C 
ATOM     19  O   UNL     1       3.017   0.088  -2.956  1.00  0.00    -0.267 OA
ATOM     20  H   UNL     1       2.315  -1.145  -1.446  1.00  0.00     0.164 HD
BRANCH  18  21
ATOM     21  C   UNL     1       2.426   2.133  -2.008  1.00  0.00     0.140 A 
ATOM     22  N   UNL     1       1.865   3.100  -1.185  1.00  0.00    -0.259 N 
ATOM     23  N   UNL     1       2.402   4.334  -1.368  1.00  0.00    -0.180 NA
ATOM     24  C   UNL     1       2.911   4.262  -2.591  1.00  0.00     0.151 A 
ATOM     25  C   UNL     1       2.916   2.942  -3.041  1.00  0.00     0.069 A 
ATOM     26  Br  UNL     1       3.511   2.508  -4.770  1.00  0.00    -0.047 Br
BRANCH  22  27
ATOM     27  C   UNL     1       0.525   3.146  -0.634  1.00  0.00     0.142 C 
ATOM     28  C   UNL     1      -0.523   2.520  -1.533  1.00  0.00     0.029 C 
ENDBRANCH  22  27
ENDBRANCH  18  21
ENDBRANCH   9  17
BRANCH  16  29
ATOM     29  C   UNL     1      -3.858   0.470   2.219  1.00  0.00     0.267 C 
BRANCH  29  30
ATOM     30  O   UNL     1      -3.764   1.379   3.322  1.00  0.00    -0.461 OA
BRANCH  30  31
ATOM     31  C   UNL     1      -3.322   1.047   4.559  1.00  0.00     0.302 C 
ATOM     32  C   UNL     1      -2.665  -0.289   4.740  1.00  0.00     0.139 C 
ATOM     33  O   UNL     1      -3.433   1.845   5.485  1.00  0.00    -0.253 OA
ENDBRANCH  30  31
ENDBRANCH  29  30
ENDBRANCH  16  29
ENDBRANCH   5   8
ENDBRANCH   3   4
ENDBRANCH   2   3
ENDBRANCH   1   2
BRANCH   1  34
ATOM     34  C   UNL     1      -5.264   6.268   2.249  1.00  0.00     0.002 C 
BRANCH  34  35
ATOM     35  C   UNL     1      -6.536   5.468   2.558  1.00  0.00     0.021 C 
BRANCH  35  36
ATOM     36  C   UNL     1      -7.026   5.568   4.000  1.00  0.00     0.116 C 
BRANCH  36  37
ATOM     37  N   UNL     1      -7.433   6.921   4.363  1.00  0.00    -0.352 N 
ATOM     38  C   UNL     1      -7.905   7.388   5.569  1.00  0.00     0.251 C 
ATOM     39  H   UNL     1      -7.361   7.592   3.647  1.00  0.00     0.163 HD
ATOM     40  O   UNL     1      -8.500   8.460   5.624  1.00  0.00    -0.269 OA
BRANCH  38  41
ATOM     41  C   UNL     1      -7.718   6.592   6.798  1.00  0.00     0.039 A 
ATOM     42  C   UNL     1      -8.758   6.504   7.731  1.00  0.00     0.014 A 
ATOM     43  C   UNL     1      -6.504   5.949   7.034  1.00  0.00     0.014 A 
ATOM     44  C   UNL     1      -8.602   5.701   8.859  1.00  0.00     0.010 A 
ATOM     45  C   UNL     1      -6.377   5.090   8.109  1.00  0.00     0.010 A 
ATOM     46  C   UNL     1      -7.416   4.975   9.035  1.00  0.00    -0.014 A 
BRANCH  46  47
ATOM     47  C   UNL     1      -7.325   3.977  10.104  1.00  0.00     0.031 A 
ATOM     48  C   UNL     1      -8.309   2.856  10.022  1.00  0.00     0.074 A 
ATOM     49  C   UNL     1      -6.271   3.881  10.942  1.00  0.00     0.049 A 
ATOM     50  N   UNL     1      -9.154   2.454  10.916  1.00  0.00    -0.248 NA
ATOM     51  C   UNL     1      -8.398   2.126   8.746  1.00  0.00     0.031 C 
ATOM     52  C   UNL     1      -5.040   4.677  10.916  1.00  0.00     0.029 A 
ATOM     53  N   UNL     1      -6.010   2.940  11.896  1.00  0.00    -0.354 N 
ATOM     54  C   UNL     1      -9.766   1.316  10.387  1.00  0.00     0.074 A 
ATOM     55  C   UNL     1      -9.370   1.250   9.003  1.00  0.00     0.031 C 
ATOM     56  C   UNL     1      -4.083   4.037  11.622  1.00  0.00     0.029 A 
ATOM     57  C   UNL     1      -4.672   2.875  12.264  1.00  0.00     0.049 A 
ATOM     58  H   UNL     1      -6.705   2.362  12.287  1.00  0.00     0.167 HD
ATOM     59  C   UNL     1     -10.368   0.383  11.178  1.00  0.00     0.031 A 
ATOM     60  C   UNL     1      -4.068   1.909  12.997  1.00  0.00     0.031 A 
ATOM     61  C   UNL     1     -10.639   0.888  12.498  1.00  0.00     0.049 A 
ATOM     62  C   UNL     1      -5.119   1.137  13.693  1.00  0.00     0.074 A 
ATOM     63  C   UNL     1     -11.352   1.950  13.017  1.00  0.00     0.029 A 
ATOM     64  N   UNL     1      -9.836   0.444  13.520  1.00  0.00    -0.354 N 
ATOM     65  N   UNL     1      -5.824   1.595  14.684  1.00  0.00    -0.248 NA
ATOM     66  C   UNL     1      -5.647  -0.055  13.050  1.00  0.00     0.031 C 
ATOM     67  C   UNL     1     -10.598   2.385  14.147  1.00  0.00     0.029 A 
ATOM     68  C   UNL     1      -9.501   1.532  14.278  1.00  0.00     0.049 A 
ATOM     69  H   UNL     1      -9.555  -0.486  13.678  1.00  0.00     0.167 HD
ATOM     70  C   UNL     1      -7.081   1.039  14.505  1.00  0.00     0.074 A 
ATOM     71  C   UNL     1      -6.873  -0.069  13.578  1.00  0.00     0.031 C 
ATOM     72  C   UNL     1      -8.206   1.709  14.894  1.00  0.00     0.031 A 
BRANCH  59  73
ATOM     73  C   UNL     1     -10.329  -1.107  10.895  1.00  0.00    -0.014 A 
ATOM     74  C   UNL     1     -10.943  -1.985  11.812  1.00  0.00     0.009 A 
ATOM     75  C   UNL     1      -9.472  -1.697   9.948  1.00  0.00     0.009 A 
ATOM     76  C   UNL     1     -10.627  -3.350  11.846  1.00  0.00     0.001 A 
ATOM     77  C   UNL     1      -9.194  -3.068   9.946  1.00  0.00     0.001 A 
ATOM     78  C   UNL     1      -9.743  -3.888  10.919  1.00  0.00     0.000 A 
ENDBRANCH  59  73
BRANCH  60  79
ATOM     79  C   UNL     1      -2.655   1.478  13.011  1.00  0.00    -0.014 A 
ATOM     80  C   UNL     1      -2.149   0.738  14.092  1.00  0.00     0.009 A 
ATOM     81  C   UNL     1      -1.859   1.579  11.856  1.00  0.00     0.009 A 
ATOM     82  C   UNL     1      -0.911   0.089  14.004  1.00  0.00     0.001 A 
ATOM     83  C   UNL     1      -0.618   0.940  11.772  1.00  0.00     0.001 A 
ATOM     84  C   UNL     1      -0.152   0.180  12.840  1.00  0.00     0.000 A 
ENDBRANCH  60  79
BRANCH  72  85
ATOM     85  C   UNL     1      -8.048   2.902  15.802  1.00  0.00    -0.014 A 
ATOM     86  C   UNL     1      -7.264   4.021  15.474  1.00  0.00     0.009 A 
ATOM     87  C   UNL     1      -8.827   2.956  16.968  1.00  0.00     0.009 A 
ATOM     88  C   UNL     1      -7.226   5.140  16.312  1.00  0.00     0.001 A 
ATOM     89  C   UNL     1      -8.810   4.083  17.791  1.00  0.00     0.001 A 
ATOM     90  C   UNL     1      -8.002   5.171  17.468  1.00  0.00     0.000 A 
ENDBRANCH  72  85
ENDBRANCH  46  47
ENDBRANCH  38  41
ENDBRANCH  36  37
ENDBRANCH  35  36
ENDBRANCH  34  35
ENDBRANCH   1  34
TORSDOF 19
