REMARK SMILES Cc1ccc(F)cc1S(=O)(=O)Nc1cc(C(=O)NCCCCCCNC(=O)c2ccc(-c3c4nc(c(-c5ccccc5)c5ccc([nH]5)c(-c5ccccc5)c5nc(c(-c6ccccc6)c6ccc3[nH]6)C=C5)C=C4)cc2)ccc1N(C)Cc1ccccc1
REMARK SMILES IDX 21 1 20 2 19 3 18 4 16 5 17 6 15 8 13 9 14 10 78 11 77 12
REMARK SMILES IDX 76 13 12 14 9 16 10 17 11 18 8 19 1 20 2 21 3 22 4 23 7 24
REMARK SMILES IDX 5 25 6 26 79 27 80 28 81 29 82 30 83 31 87 32 84 33 86 34
REMARK SMILES IDX 85 35 22 36 23 37 24 38 25 39 26 40 27 42 28 43 29 44 75 45
REMARK SMILES IDX 30 46 74 47 31 48 32 49 33 50 68 51 34 52 73 53 67 54 69 55
REMARK SMILES IDX 35 56 72 57 66 58 65 59 36 61 58 62 43 63 57 64 44 65 47 66
REMARK SMILES IDX 56 67 70 68 45 69 46 70 55 72 71 73 48 74 37 75 38 76 42 77
REMARK SMILES IDX 39 78 41 79 40 80 59 81 60 82 64 83 61 84 63 85 62 86 49 87
REMARK SMILES IDX 50 88 54 89 51 90 53 91 52 92
REMARK H PARENT 18 7 12 15 25 41 69 60 47 71
REMARK Flexibility Score: inf
ROOT
ATOM      1  C   UNL     1       9.339   3.910   0.471  1.00  0.00     0.002 C 
ENDROOT
BRANCH   1   2
ATOM      2  C   UNL     1       7.998   3.438   1.063  1.00  0.00     0.021 C 
BRANCH   2   3
ATOM      3  C   UNL     1       6.902   3.159   0.032  1.00  0.00     0.116 C 
BRANCH   3   4
ATOM      4  N   UNL     1       7.145   1.888  -0.611  1.00  0.00    -0.352 N 
ATOM      5  C   UNL     1       6.782   0.589  -0.365  1.00  0.00     0.251 C 
ATOM      6  O   UNL     1       7.426  -0.255  -0.997  1.00  0.00    -0.269 OA
ATOM      7  H   UNL     1       7.704   1.975  -1.416  1.00  0.00     0.163 HD
BRANCH   5   8
ATOM      8  C   UNL     1       5.630   0.115   0.484  1.00  0.00     0.042 A 
ATOM      9  C   UNL     1       3.815  -1.545   0.497  1.00  0.00     0.073 A 
ATOM     10  C   UNL     1       5.111  -1.127   0.104  1.00  0.00     0.042 A 
ATOM     11  C   UNL     1       3.082  -0.948   1.530  1.00  0.00     0.061 A 
ATOM     12  C   UNL     1       3.697   0.249   1.997  1.00  0.00     0.029 A 
ATOM     13  C   UNL     1       4.912   0.797   1.459  1.00  0.00     0.016 A 
BRANCH   9  14
ATOM     14  N   UNL     1       3.064  -2.220  -0.514  1.00  0.00    -0.277 N 
ATOM     15  H   UNL     1       2.865  -3.184  -0.499  1.00  0.00     0.180 HD
BRANCH  14  16
ATOM     16  S   UNL     1       2.546  -1.146  -1.770  1.00  0.00     0.262 S 
ATOM     17  O   UNL     1       1.544  -1.837  -2.542  1.00  0.00    -0.201 OA
ATOM     18  O   UNL     1       3.765  -0.742  -2.451  1.00  0.00    -0.201 OA
BRANCH  16  19
ATOM     19  C   UNL     1       1.765   0.336  -1.063  1.00  0.00     0.093 A 
ATOM     20  C   UNL     1       3.406   2.003  -2.050  1.00  0.00     0.046 C 
ATOM     21  C   UNL     1       2.119   1.647  -1.382  1.00  0.00    -0.030 A 
ATOM     22  C   UNL     1       1.231   2.704  -1.048  1.00  0.00     0.008 A 
ATOM     23  C   UNL     1       0.062   2.490  -0.319  1.00  0.00     0.039 A 
ATOM     24  C   UNL     1       0.651   0.184  -0.248  1.00  0.00     0.061 A 
ATOM     25  C   UNL     1      -0.191   1.219   0.128  1.00  0.00     0.124 A 
ATOM     26  F   UNL     1      -1.238   0.972   0.927  1.00  0.00    -0.207 F 
ENDBRANCH  16  19
ENDBRANCH  14  16
ENDBRANCH   9  14
BRANCH  11  27
ATOM     27  N   UNL     1       1.792  -1.401   1.930  1.00  0.00    -0.369 N 
ATOM     28  C   UNL     1       1.207  -0.683   3.072  1.00  0.00     0.144 C 
BRANCH  27  29
ATOM     29  C   UNL     1       1.205  -2.807   1.720  1.00  0.00     0.151 C 
BRANCH  29  30
ATOM     30  C   UNL     1       0.476  -3.307   0.431  1.00  0.00    -0.029 A 
ATOM     31  C   UNL     1      -0.562  -2.685  -0.295  1.00  0.00     0.005 A 
ATOM     32  C   UNL     1       0.772  -4.615  -0.009  1.00  0.00     0.005 A 
ATOM     33  C   UNL     1      -0.993  -3.158  -1.554  1.00  0.00     0.000 A 
ATOM     34  C   UNL     1       0.253  -5.154  -1.201  1.00  0.00     0.000 A 
ATOM     35  C   UNL     1      -0.564  -4.389  -2.021  1.00  0.00     0.000 A 
ENDBRANCH  29  30
ENDBRANCH  27  29
ENDBRANCH  11  27
ENDBRANCH   5   8
ENDBRANCH   3   4
ENDBRANCH   2   3
ENDBRANCH   1   2
BRANCH   1  36
ATOM     36  C   UNL     1       9.301   5.223  -0.322  1.00  0.00     0.002 C 
BRANCH  36  37
ATOM     37  C   UNL     1       8.594   6.388   0.374  1.00  0.00     0.021 C 
BRANCH  37  38
ATOM     38  C   UNL     1       9.170   6.763   1.736  1.00  0.00     0.116 C 
BRANCH  38  39
ATOM     39  N   UNL     1      10.544   7.225   1.639  1.00  0.00    -0.352 N 
ATOM     40  C   UNL     1      11.103   8.404   2.059  1.00  0.00     0.251 C 
ATOM     41  H   UNL     1      11.167   6.597   1.207  1.00  0.00     0.163 HD
ATOM     42  O   UNL     1      12.232   8.712   1.688  1.00  0.00    -0.269 OA
BRANCH  40  43
ATOM     43  C   UNL     1      10.349   9.316   2.946  1.00  0.00     0.039 A 
ATOM     44  C   UNL     1      10.432  10.691   2.717  1.00  0.00     0.014 A 
ATOM     45  C   UNL     1       9.593   8.830   4.018  1.00  0.00     0.014 A 
ATOM     46  C   UNL     1       9.722  11.573   3.532  1.00  0.00     0.010 A 
ATOM     47  C   UNL     1       8.819   9.705   4.779  1.00  0.00     0.010 A 
ATOM     48  C   UNL     1       8.883  11.086   4.549  1.00  0.00    -0.014 A 
BRANCH  48  49
ATOM     49  C   UNL     1       8.060  12.025   5.353  1.00  0.00     0.031 A 
ATOM     50  C   UNL     1       8.289  12.186   6.830  1.00  0.00     0.074 A 
ATOM     51  C   UNL     1       7.089  12.729   4.741  1.00  0.00     0.049 A 
ATOM     52  N   UNL     1       7.711  13.011   7.667  1.00  0.00    -0.248 NA
ATOM     53  C   UNL     1       9.276  11.292   7.454  1.00  0.00     0.031 C 
ATOM     54  C   UNL     1       6.733  12.623   3.324  1.00  0.00     0.029 A 
ATOM     55  N   UNL     1       6.235  13.686   5.227  1.00  0.00    -0.354 N 
ATOM     56  C   UNL     1       8.263  12.736   8.912  1.00  0.00     0.074 A 
ATOM     57  C   UNL     1       9.173  11.626   8.732  1.00  0.00     0.031 C 
ATOM     58  C   UNL     1       5.777  13.522   3.043  1.00  0.00     0.029 A 
ATOM     59  C   UNL     1       5.424  14.236   4.265  1.00  0.00     0.049 A 
ATOM     60  H   UNL     1       6.207  13.953   6.175  1.00  0.00     0.167 HD
ATOM     61  C   UNL     1       8.050  13.364  10.094  1.00  0.00     0.031 A 
ATOM     62  C   UNL     1       4.506  15.216   4.352  1.00  0.00     0.031 A 
ATOM     63  C   UNL     1       7.134  14.461  10.273  1.00  0.00     0.049 A 
ATOM     64  C   UNL     1       4.276  15.886   5.676  1.00  0.00     0.074 A 
ATOM     65  C   UNL     1       6.881  15.198  11.417  1.00  0.00     0.029 A 
ATOM     66  N   UNL     1       6.310  14.972   9.280  1.00  0.00    -0.354 N 
ATOM     67  N   UNL     1       4.866  15.669   6.827  1.00  0.00    -0.248 NA
ATOM     68  C   UNL     1       3.262  16.948   5.706  1.00  0.00     0.031 C 
ATOM     69  C   UNL     1       5.858  16.110  11.133  1.00  0.00     0.029 A 
ATOM     70  C   UNL     1       5.523  15.991   9.794  1.00  0.00     0.049 A 
ATOM     71  H   UNL     1       6.287  14.657   8.348  1.00  0.00     0.167 HD
ATOM     72  C   UNL     1       4.310  16.582   7.714  1.00  0.00     0.074 A 
ATOM     73  C   UNL     1       3.360  17.373   6.957  1.00  0.00     0.031 C 
ATOM     74  C   UNL     1       4.561  16.751   9.036  1.00  0.00     0.031 A 
BRANCH  61  75
ATOM     75  C   UNL     1       8.815  12.862  11.290  1.00  0.00    -0.014 A 
ATOM     76  C   UNL     1      10.209  13.010  11.382  1.00  0.00     0.009 A 
ATOM     77  C   UNL     1       8.131  12.249  12.351  1.00  0.00     0.009 A 
ATOM     78  C   UNL     1      10.905  12.515  12.487  1.00  0.00     0.001 A 
ATOM     79  C   UNL     1       8.825  11.786  13.471  1.00  0.00     0.001 A 
ATOM     80  C   UNL     1      10.212  11.907  13.533  1.00  0.00     0.000 A 
ENDBRANCH  61  75
BRANCH  62  81
ATOM     81  C   UNL     1       3.757  15.642   3.140  1.00  0.00    -0.014 A 
ATOM     82  C   UNL     1       3.985  16.902   2.567  1.00  0.00     0.009 A 
ATOM     83  C   UNL     1       2.815  14.787   2.547  1.00  0.00     0.009 A 
ATOM     84  C   UNL     1       3.265  17.308   1.440  1.00  0.00     0.001 A 
ATOM     85  C   UNL     1       2.122  15.182   1.401  1.00  0.00     0.001 A 
ATOM     86  C   UNL     1       2.340  16.445   0.855  1.00  0.00     0.000 A 
ENDBRANCH  62  81
BRANCH  74  87
ATOM     87  C   UNL     1       3.801  17.846   9.736  1.00  0.00    -0.014 A 
ATOM     88  C   UNL     1       2.415  17.756   9.945  1.00  0.00     0.009 A 
ATOM     89  C   UNL     1       4.482  18.986  10.190  1.00  0.00     0.009 A 
ATOM     90  C   UNL     1       1.720  18.810  10.542  1.00  0.00     0.001 A 
ATOM     91  C   UNL     1       3.791  20.021  10.820  1.00  0.00     0.001 A 
ATOM     92  C   UNL     1       2.409  19.940  10.981  1.00  0.00     0.000 A 
ENDBRANCH  74  87
ENDBRANCH  48  49
ENDBRANCH  40  43
ENDBRANCH  38  39
ENDBRANCH  37  38
ENDBRANCH  36  37
ENDBRANCH   1  36
TORSDOF 19
