REMARK SMILES O=C(NCCCCCCNC(=O)[C@H](c1c[nH]c2cc(F)ccc12)[NH+]1CCN(c2ccccc2)CC1)c1ccc(-c2c3nc(c(-c4ccccc4)c4ccc([nH]4)c(-c4ccccc4)c4nc(c(-c5ccccc5)c5ccc2[nH]5)C=C4)C=C3)cc1
REMARK SMILES IDX 6 1 5 2 4 3 3 4 1 5 2 6 36 8 37 9 83 10 38 11 82 12 39 13
REMARK SMILES IDX 40 14 41 15 76 16 42 17 81 18 75 19 77 20 43 21 80 22 74 23
REMARK SMILES IDX 73 24 44 26 66 27 51 28 65 29 52 30 55 31 64 32 78 33 53 34
REMARK SMILES IDX 54 35 63 37 79 38 56 39 45 40 46 41 50 42 47 43 49 44 48 45
REMARK SMILES IDX 67 46 68 47 72 48 69 49 71 50 70 51 57 52 58 53 62 54 59 55
REMARK SMILES IDX 61 56 60 57 7 58 8 59 9 60 10 61 11 62 12 64 13 65 24 66
REMARK SMILES IDX 25 67 35 68 26 70 34 71 27 72 28 73 29 74 33 75 30 76 32 77
REMARK SMILES IDX 31 78 14 79 15 80 23 81 16 82 17 83 22 84 18 86 21 87 19 88
REMARK SMILES IDX 20 89
REMARK H PARENT 3 7 77 25 55 36 10 63 24 69 16 85
REMARK Flexibility Score: inf
ROOT
ATOM      1  C   UNL     1       8.636   9.292   0.899  1.00  0.00     0.002 C 
ENDROOT
BRANCH   1   2
ATOM      2  C   UNL     1       8.402  10.761   0.554  1.00  0.00     0.021 C 
BRANCH   2   3
ATOM      3  C   UNL     1       7.007  11.258   0.891  1.00  0.00     0.116 C 
BRANCH   3   4
ATOM      4  N   UNL     1       6.796  11.367   2.324  1.00  0.00    -0.352 N 
ATOM      5  O   UNL     1       6.374  12.471   4.251  1.00  0.00    -0.269 OA
ATOM      6  C   UNL     1       6.331  12.451   3.033  1.00  0.00     0.251 C 
ATOM      7  H   UNL     1       7.013  10.566   2.854  1.00  0.00     0.163 HD
BRANCH   6   8
ATOM      8  C   UNL     1       5.794  13.608   2.283  1.00  0.00     0.039 A 
ATOM      9  C   UNL     1       4.899  13.404   1.229  1.00  0.00     0.014 A 
ATOM     10  C   UNL     1       6.205  14.899   2.623  1.00  0.00     0.014 A 
ATOM     11  C   UNL     1       4.518  14.476   0.436  1.00  0.00     0.010 A 
ATOM     12  C   UNL     1       5.743  15.989   1.881  1.00  0.00     0.010 A 
ATOM     13  C   UNL     1       4.910  15.784   0.771  1.00  0.00    -0.014 A 
BRANCH  13  14
ATOM     14  C   UNL     1       4.340  16.915  -0.001  1.00  0.00     0.031 A 
ATOM     15  C   UNL     1       5.199  17.809  -0.847  1.00  0.00     0.074 A 
ATOM     16  C   UNL     1       3.004  17.093   0.040  1.00  0.00     0.049 A 
ATOM     17  N   UNL     1       4.833  18.801  -1.620  1.00  0.00    -0.248 NA
ATOM     18  C   UNL     1       6.650  17.569  -0.825  1.00  0.00     0.031 C 
ATOM     19  C   UNL     1       2.072  16.290   0.840  1.00  0.00     0.029 A 
ATOM     20  N   UNL     1       2.194  17.975  -0.625  1.00  0.00    -0.354 N 
ATOM     21  C   UNL     1       6.004  19.312  -2.165  1.00  0.00     0.074 A 
ATOM     22  C   UNL     1       7.096  18.535  -1.617  1.00  0.00     0.031 C 
ATOM     23  C   UNL     1       0.817  16.673   0.568  1.00  0.00     0.029 A 
ATOM     24  C   UNL     1       0.858  17.790  -0.366  1.00  0.00     0.049 A 
ATOM     25  H   UNL     1       2.537  18.673  -1.229  1.00  0.00     0.167 HD
ATOM     26  C   UNL     1       6.150  20.333  -3.044  1.00  0.00     0.031 A 
ATOM     27  C   UNL     1      -0.220  18.453  -0.820  1.00  0.00     0.031 A 
ATOM     28  C   UNL     1       5.059  21.105  -3.582  1.00  0.00     0.049 A 
ATOM     29  C   UNL     1      -0.021  19.591  -1.774  1.00  0.00     0.074 A 
ATOM     30  C   UNL     1       5.108  22.152  -4.488  1.00  0.00     0.029 A 
ATOM     31  N   UNL     1       3.723  20.916  -3.263  1.00  0.00    -0.354 N 
ATOM     32  N   UNL     1       1.094  20.044  -2.294  1.00  0.00    -0.248 NA
ATOM     33  C   UNL     1      -1.228  20.310  -2.200  1.00  0.00     0.031 C 
ATOM     34  C   UNL     1       3.805  22.624  -4.683  1.00  0.00     0.029 A 
ATOM     35  C   UNL     1       2.941  21.838  -3.939  1.00  0.00     0.049 A 
ATOM     36  H   UNL     1       3.381  20.227  -2.648  1.00  0.00     0.167 HD
ATOM     37  C   UNL     1       0.722  21.099  -3.115  1.00  0.00     0.074 A 
ATOM     38  C   UNL     1      -0.723  21.192  -3.050  1.00  0.00     0.031 C 
ATOM     39  C   UNL     1       1.507  21.924  -3.849  1.00  0.00     0.031 A 
BRANCH  26  40
ATOM     40  C   UNL     1       7.546  20.693  -3.472  1.00  0.00    -0.014 A 
ATOM     41  C   UNL     1       8.262  19.884  -4.369  1.00  0.00     0.009 A 
ATOM     42  C   UNL     1       8.124  21.893  -3.030  1.00  0.00     0.009 A 
ATOM     43  C   UNL     1       9.537  20.262  -4.798  1.00  0.00     0.001 A 
ATOM     44  C   UNL     1       9.389  22.280  -3.479  1.00  0.00     0.001 A 
ATOM     45  C   UNL     1      10.096  21.462  -4.358  1.00  0.00     0.000 A 
ENDBRANCH  26  40
BRANCH  27  46
ATOM     46  C   UNL     1      -1.577  18.071  -0.353  1.00  0.00    -0.014 A 
ATOM     47  C   UNL     1      -2.502  17.491  -1.233  1.00  0.00     0.009 A 
ATOM     48  C   UNL     1      -1.952  18.285   0.984  1.00  0.00     0.009 A 
ATOM     49  C   UNL     1      -3.785  17.159  -0.790  1.00  0.00     0.001 A 
ATOM     50  C   UNL     1      -3.222  17.922   1.431  1.00  0.00     0.001 A 
ATOM     51  C   UNL     1      -4.141  17.370   0.542  1.00  0.00     0.000 A 
ENDBRANCH  27  46
BRANCH  39  52
ATOM     52  C   UNL     1       0.804  22.985  -4.645  1.00  0.00    -0.014 A 
ATOM     53  C   UNL     1       0.222  24.096  -4.015  1.00  0.00     0.009 A 
ATOM     54  C   UNL     1       0.722  22.870  -6.041  1.00  0.00     0.009 A 
ATOM     55  C   UNL     1      -0.467  25.051  -4.765  1.00  0.00     0.001 A 
ATOM     56  C   UNL     1       0.058  23.841  -6.791  1.00  0.00     0.001 A 
ATOM     57  C   UNL     1      -0.546  24.923  -6.152  1.00  0.00     0.000 A 
ENDBRANCH  39  52
ENDBRANCH  13  14
ENDBRANCH   6   8
ENDBRANCH   3   4
ENDBRANCH   2   3
ENDBRANCH   1   2
BRANCH   1  58
ATOM     58  C   UNL     1       7.653   8.321   0.237  1.00  0.00     0.002 C 
BRANCH  58  59
ATOM     59  C   UNL     1       7.511   8.483  -1.285  1.00  0.00     0.021 C 
BRANCH  59  60
ATOM     60  C   UNL     1       8.841   8.394  -2.040  1.00  0.00     0.116 C 
BRANCH  60  61
ATOM     61  N   UNL     1       9.468   7.116  -1.779  1.00  0.00    -0.351 N 
ATOM     62  C   UNL     1       9.053   5.941  -2.359  1.00  0.00     0.283 C 
ATOM     63  H   UNL     1      10.229   7.087  -1.155  1.00  0.00     0.163 HD
ATOM     64  O   UNL     1       8.932   4.972  -1.611  1.00  0.00    -0.268 OA
BRANCH  62  65
ATOM     65  C   UNL     1       8.812   5.934  -3.886  1.00  0.00     0.307 C 
BRANCH  65  66
ATOM     66  N   UNL     1       9.411   4.798  -4.626  1.00  0.00    -0.318 N 
ATOM     67  C   UNL     1      10.884   4.731  -4.496  1.00  0.00     0.284 C 
ATOM     68  C   UNL     1       8.849   3.448  -4.446  1.00  0.00     0.284 C 
ATOM     69  H   UNL     1       9.132   5.057  -5.572  1.00  0.00     0.349 HD
ATOM     70  C   UNL     1      11.438   3.970  -3.268  1.00  0.00     0.178 C 
ATOM     71  C   UNL     1       9.370   2.567  -3.283  1.00  0.00     0.178 C 
ATOM     72  N   UNL     1      10.836   2.639  -3.158  1.00  0.00    -0.360 N 
BRANCH  72  73
ATOM     73  C   UNL     1      11.433   1.696  -2.325  1.00  0.00     0.037 A 
ATOM     74  C   UNL     1      12.120   2.041  -1.152  1.00  0.00     0.026 A 
ATOM     75  C   UNL     1      11.380   0.337  -2.666  1.00  0.00     0.026 A 
ATOM     76  C   UNL     1      12.752   1.071  -0.366  1.00  0.00     0.002 A 
ATOM     77  C   UNL     1      12.017  -0.637  -1.891  1.00  0.00     0.002 A 
ATOM     78  C   UNL     1      12.709  -0.268  -0.742  1.00  0.00     0.000 A 
ENDBRANCH  72  73
ENDBRANCH  65  66
BRANCH  65  79
ATOM     79  C   UNL     1       7.354   6.174  -4.221  1.00  0.00     0.044 A 
ATOM     80  C   UNL     1       6.252   5.476  -3.756  1.00  0.00     0.094 A 
ATOM     81  C   UNL     1       6.831   7.282  -4.982  1.00  0.00     0.009 A 
ATOM     82  N   UNL     1       5.116   6.078  -4.222  1.00  0.00    -0.361 N 
ATOM     83  C   UNL     1       5.437   7.215  -4.923  1.00  0.00     0.049 A 
ATOM     84  C   UNL     1       7.418   8.370  -5.670  1.00  0.00     0.014 A 
ATOM     85  H   UNL     1       4.201   5.745  -4.077  1.00  0.00     0.166 HD
ATOM     86  C   UNL     1       4.605   8.185  -5.495  1.00  0.00     0.065 A 
ATOM     87  C   UNL     1       6.601   9.358  -6.233  1.00  0.00     0.040 A 
ATOM     88  C   UNL     1       5.221   9.258  -6.136  1.00  0.00     0.125 A 
ATOM     89  F   UNL     1       4.458  10.223  -6.667  1.00  0.00    -0.207 F 
ENDBRANCH  65  79
ENDBRANCH  62  65
ENDBRANCH  60  61
ENDBRANCH  59  60
ENDBRANCH  58  59
ENDBRANCH   1  58
TORSDOF 16
