REMARK SMILES C[C@@H]1CC[C@H](C)[N@H+]1Cc1cc2c(cc1Cl)C=C(C(=O)NCCCCCCNC(=O)c1ccc(-c3c4nc(c(-c5ccccc5)c5ccc([nH]5)c(-c5ccccc5)c5nc(c(-c6ccccc6)c6ccc3[nH]6)C=C5)C=C4)cc1)[C@@H](C(F)(F)F)O2
REMARK SMILES IDX 23 1 22 2 21 3 20 4 18 5 19 6 17 8 9 9 10 10 14 11 11 12
REMARK SMILES IDX 13 13 15 14 12 15 83 16 16 17 78 18 8 19 7 20 6 21 5 22 4 23
REMARK SMILES IDX 3 24 2 25 1 27 79 28 80 29 81 30 82 31 24 32 25 33 26 34
REMARK SMILES IDX 27 35 28 36 29 38 30 39 31 40 77 41 32 42 76 43 33 44 34 45
REMARK SMILES IDX 35 46 70 47 36 48 75 49 69 50 71 51 37 52 74 53 68 54 67 55
REMARK SMILES IDX 38 57 60 58 45 59 59 60 46 61 49 62 58 63 72 64 47 65 48 66
REMARK SMILES IDX 57 68 73 69 50 70 39 71 40 72 44 73 41 74 43 75 42 76 61 77
REMARK SMILES IDX 62 78 66 79 63 80 65 81 64 82 51 83 52 84 56 85 53 86 55 87
REMARK SMILES IDX 54 88
REMARK H PARENT 20 7 7 26 27 37 71 56 49 67
REMARK Flexibility Score: inf
ROOT
ATOM      1  C   UNL     1       6.691  -4.360 -10.008  1.00  0.00     0.002 C 
ENDROOT
BRANCH   1   2
ATOM      2  C   UNL     1       6.248  -3.730  -8.683  1.00  0.00     0.021 C 
BRANCH   2   3
ATOM      3  C   UNL     1       6.088  -2.215  -8.740  1.00  0.00     0.116 C 
BRANCH   3   4
ATOM      4  N   UNL     1       4.823  -1.842  -9.341  1.00  0.00    -0.352 N 
ATOM      5  C   UNL     1       3.715  -1.160  -8.978  1.00  0.00     0.251 C 
ATOM      6  O   UNL     1       2.840  -1.087  -9.847  1.00  0.00    -0.270 OA
ATOM      7  H   UNL     1       4.751  -2.177 -10.264  1.00  0.00     0.163 HD
BRANCH   5   8
ATOM      8  C   UNL     1       3.495  -0.509  -7.655  1.00  0.00     0.067 C 
ATOM      9  C   UNL     1       1.511   2.066  -3.787  1.00  0.00     0.029 A 
ATOM     10  C   UNL     1       2.526   1.097  -3.912  1.00  0.00     0.058 A 
ATOM     11  C   UNL     1       0.872   2.497  -4.963  1.00  0.00     0.050 A 
ATOM     12  C   UNL     1       2.823   0.533  -5.148  1.00  0.00     0.128 A 
ATOM     13  C   UNL     1       1.113   1.860  -6.186  1.00  0.00     0.033 A 
ATOM     14  Cl  UNL     1      -0.165   3.880  -5.018  1.00  0.00    -0.084 Cl
ATOM     15  C   UNL     1       2.079   0.862  -6.277  1.00  0.00     0.019 A 
ATOM     16  O   UNL     1       3.852  -0.365  -5.198  1.00  0.00    -0.475 OA
ATOM     17  C   UNL     1       2.333   0.158  -7.526  1.00  0.00     0.025 C 
ATOM     18  C   UNL     1       4.472  -0.506  -6.512  1.00  0.00     0.314 C 
BRANCH   9  19
ATOM     19  C   UNL     1       1.168   2.569  -2.395  1.00  0.00     0.301 C 
BRANCH  19  20
ATOM     20  N   UNL     1       0.111   1.845  -1.671  1.00  0.00    -0.327 N 
ATOM     21  C   UNL     1       1.025   0.148  -0.115  1.00  0.00     0.075 C 
ATOM     22  C   UNL     1       0.317   0.408  -1.438  1.00  0.00     0.181 C 
ATOM     23  C   UNL     1      -1.085  -0.198  -1.451  1.00  0.00     0.071 C 
ATOM     24  C   UNL     1      -1.819   0.684  -2.438  1.00  0.00     0.071 C 
ATOM     25  C   UNL     1      -1.256   2.070  -2.154  1.00  0.00     0.181 C 
ATOM     26  H   UNL     1       0.211   2.301  -0.764  1.00  0.00     0.348 HD
ATOM     27  C   UNL     1      -2.045   2.809  -1.074  1.00  0.00     0.075 C 
ENDBRANCH  19  20
ENDBRANCH   9  19
BRANCH  18  28
ATOM     28  C   UNL     1       5.578   0.553  -6.700  1.00  0.00     0.429 C 
ATOM     29  F   UNL     1       6.603   0.333  -5.840  1.00  0.00    -0.167 F 
ATOM     30  F   UNL     1       6.113   0.521  -7.945  1.00  0.00    -0.167 F 
ATOM     31  F   UNL     1       5.141   1.815  -6.496  1.00  0.00    -0.167 F 
ENDBRANCH  18  28
ENDBRANCH   5   8
ENDBRANCH   3   4
ENDBRANCH   2   3
ENDBRANCH   1   2
BRANCH   1  32
ATOM     32  C   UNL     1       7.988  -3.798 -10.603  1.00  0.00     0.002 C 
BRANCH  32  33
ATOM     33  C   UNL     1       9.165  -3.690  -9.632  1.00  0.00     0.021 C 
BRANCH  33  34
ATOM     34  C   UNL     1       9.559  -4.998  -8.960  1.00  0.00     0.116 C 
BRANCH  34  35
ATOM     35  N   UNL     1      10.044  -5.989  -9.906  1.00  0.00    -0.352 N 
ATOM     36  C   UNL     1      11.197  -6.736  -9.859  1.00  0.00     0.251 C 
ATOM     37  H   UNL     1       9.467  -6.147 -10.688  1.00  0.00     0.163 HD
ATOM     38  O   UNL     1      11.536  -7.422 -10.813  1.00  0.00    -0.269 OA
BRANCH  36  39
ATOM     39  C   UNL     1      12.046  -6.672  -8.650  1.00  0.00     0.039 A 
ATOM     40  C   UNL     1      11.476  -6.781  -7.380  1.00  0.00     0.014 A 
ATOM     41  C   UNL     1      13.419  -6.459  -8.793  1.00  0.00     0.014 A 
ATOM     42  C   UNL     1      12.250  -6.514  -6.257  1.00  0.00     0.010 A 
ATOM     43  C   UNL     1      14.212  -6.276  -7.657  1.00  0.00     0.010 A 
ATOM     44  C   UNL     1      13.625  -6.254  -6.382  1.00  0.00    -0.014 A 
BRANCH  44  45
ATOM     45  C   UNL     1      14.424  -5.967  -5.164  1.00  0.00     0.031 A 
ATOM     46  C   UNL     1      15.057  -4.618  -4.956  1.00  0.00     0.074 A 
ATOM     47  C   UNL     1      14.530  -6.915  -4.213  1.00  0.00     0.049 A 
ATOM     48  N   UNL     1      15.761  -4.191  -3.936  1.00  0.00    -0.248 NA
ATOM     49  C   UNL     1      14.884  -3.617  -6.021  1.00  0.00     0.031 C 
ATOM     50  C   UNL     1      13.950  -8.258  -4.296  1.00  0.00     0.029 A 
ATOM     51  N   UNL     1      15.134  -6.890  -2.982  1.00  0.00    -0.354 N 
ATOM     52  C   UNL     1      16.125  -2.886  -4.244  1.00  0.00     0.074 A 
ATOM     53  C   UNL     1      15.589  -2.595  -5.555  1.00  0.00     0.031 C 
ATOM     54  C   UNL     1      14.182  -8.907  -3.147  1.00  0.00     0.029 A 
ATOM     55  C   UNL     1      14.980  -8.055  -2.272  1.00  0.00     0.049 A 
ATOM     56  H   UNL     1      15.631  -6.111  -2.640  1.00  0.00     0.167 HD
ATOM     57  C   UNL     1      16.833  -2.009  -3.494  1.00  0.00     0.031 A 
ATOM     58  C   UNL     1      15.438  -8.412  -1.056  1.00  0.00     0.031 A 
ATOM     59  C   UNL     1      17.353  -2.296  -2.184  1.00  0.00     0.049 A 
ATOM     60  C   UNL     1      16.240  -7.427  -0.258  1.00  0.00     0.074 A 
ATOM     61  C   UNL     1      18.072  -1.461  -1.346  1.00  0.00     0.029 A 
ATOM     62  N   UNL     1      17.207  -3.503  -1.519  1.00  0.00    -0.354 N 
ATOM     63  N   UNL     1      16.568  -6.195  -0.563  1.00  0.00    -0.248 NA
ATOM     64  C   UNL     1      16.734  -7.876   1.052  1.00  0.00     0.031 C 
ATOM     65  C   UNL     1      18.407  -2.179  -0.197  1.00  0.00     0.029 A 
ATOM     66  C   UNL     1      17.840  -3.440  -0.289  1.00  0.00     0.049 A 
ATOM     67  H   UNL     1      16.726  -4.288  -1.868  1.00  0.00     0.167 HD
ATOM     68  C   UNL     1      17.297  -5.718   0.518  1.00  0.00     0.074 A 
ATOM     69  C   UNL     1      17.342  -6.784   1.498  1.00  0.00     0.031 C 
ATOM     70  C   UNL     1      17.880  -4.506   0.677  1.00  0.00     0.031 A 
BRANCH  57  71
ATOM     71  C   UNL     1      17.102  -0.643  -4.061  1.00  0.00    -0.014 A 
ATOM     72  C   UNL     1      18.411  -0.284  -4.422  1.00  0.00     0.009 A 
ATOM     73  C   UNL     1      16.089   0.327  -4.125  1.00  0.00     0.009 A 
ATOM     74  C   UNL     1      18.705   1.023  -4.815  1.00  0.00     0.001 A 
ATOM     75  C   UNL     1      16.382   1.627  -4.544  1.00  0.00     0.001 A 
ATOM     76  C   UNL     1      17.691   1.976  -4.878  1.00  0.00     0.000 A 
ENDBRANCH  57  71
BRANCH  58  77
ATOM     77  C   UNL     1      15.138  -9.773  -0.539  1.00  0.00    -0.014 A 
ATOM     78  C   UNL     1      15.703 -10.904  -1.152  1.00  0.00     0.009 A 
ATOM     79  C   UNL     1      14.246  -9.955   0.527  1.00  0.00     0.009 A 
ATOM     80  C   UNL     1      15.358 -12.188  -0.730  1.00  0.00     0.001 A 
ATOM     81  C   UNL     1      13.928 -11.242   0.969  1.00  0.00     0.001 A 
ATOM     82  C   UNL     1      14.474 -12.356   0.334  1.00  0.00     0.000 A 
ENDBRANCH  58  77
BRANCH  70  83
ATOM     83  C   UNL     1      18.617  -4.245   1.960  1.00  0.00    -0.014 A 
ATOM     84  C   UNL     1      18.104  -3.318   2.882  1.00  0.00     0.009 A 
ATOM     85  C   UNL     1      19.866  -4.833   2.209  1.00  0.00     0.009 A 
ATOM     86  C   UNL     1      18.834  -2.972   4.019  1.00  0.00     0.001 A 
ATOM     87  C   UNL     1      20.582  -4.506   3.362  1.00  0.00     0.001 A 
ATOM     88  C   UNL     1      20.071  -3.569   4.260  1.00  0.00     0.000 A 
ENDBRANCH  70  83
ENDBRANCH  44  45
ENDBRANCH  36  39
ENDBRANCH  34  35
ENDBRANCH  33  34
ENDBRANCH  32  33
ENDBRANCH   1  32
TORSDOF 16
