REMARK SMILES O=C(NCCCCCCNC(=O)c1cccc([C@@H]2CCC[N@@H+](Cc3cccc(OCCO)c3)C2)c1)c1ccc(-c2c3nc(c(-c4ccccc4)c4ccc([nH]4)c(-c4ccccc4)c4nc(c(-c5ccccc5)c5ccc2[nH]5)C=C4)C=C3)cc1
REMARK SMILES IDX 9 1 8 2 7 3 6 4 5 5 4 6 3 7 1 8 2 9 36 11 37 12 83 13 38 14
REMARK SMILES IDX 82 15 39 16 40 17 41 18 76 19 42 20 81 21 75 22 77 23 43 24
REMARK SMILES IDX 80 25 74 26 73 27 44 29 66 30 51 31 65 32 52 33 55 34 64 35
REMARK SMILES IDX 78 36 53 37 54 38 63 40 79 41 56 42 45 43 46 44 50 45 47 46
REMARK SMILES IDX 49 47 48 48 67 49 68 50 72 51 69 52 71 53 70 54 57 55 58 56
REMARK SMILES IDX 62 57 59 58 61 59 60 60 10 61 11 62 12 64 13 65 14 66 35 67
REMARK SMILES IDX 15 68 17 69 16 70 18 71 19 72 34 73 20 74 22 75 21 76 23 78
REMARK SMILES IDX 24 79 25 80 33 81 26 82 28 83 27 84 29 85 30 86 31 87 32 88
REMARK H PARENT 3 10 77 28 55 39 10 63 22 77 32 89
REMARK Flexibility Score: inf
ROOT
ATOM      1  C   UNL     1       6.970  -4.886  -2.123  1.00  0.00     0.116 C 
ENDROOT
BRANCH   1   2
ATOM      2  C   UNL     1       6.200  -3.676  -2.645  1.00  0.00     0.021 C 
BRANCH   2   3
ATOM      3  C   UNL     1       4.681  -3.746  -2.464  1.00  0.00     0.002 C 
BRANCH   3   4
ATOM      4  C   UNL     1       4.188  -3.858  -1.019  1.00  0.00     0.002 C 
BRANCH   4   5
ATOM      5  C   UNL     1       4.678  -2.768  -0.067  1.00  0.00     0.021 C 
BRANCH   5   6
ATOM      6  C   UNL     1       4.443  -1.336  -0.532  1.00  0.00     0.116 C 
BRANCH   6   7
ATOM      7  N   UNL     1       3.035  -1.005  -0.677  1.00  0.00    -0.352 N 
ATOM      8  O   UNL     1       1.113   0.112  -0.298  1.00  0.00    -0.269 OA
ATOM      9  C   UNL     1       2.326   0.060  -0.168  1.00  0.00     0.251 C 
ATOM     10  H   UNL     1       2.510  -1.637  -1.220  1.00  0.00     0.163 HD
BRANCH   9  11
ATOM     11  C   UNL     1       3.036   1.127   0.574  1.00  0.00     0.039 A 
ATOM     12  C   UNL     1       4.232   1.664   0.096  1.00  0.00     0.014 A 
ATOM     13  C   UNL     1       2.494   1.589   1.778  1.00  0.00     0.014 A 
ATOM     14  C   UNL     1       4.967   2.533   0.896  1.00  0.00     0.010 A 
ATOM     15  C   UNL     1       3.192   2.530   2.540  1.00  0.00     0.010 A 
ATOM     16  C   UNL     1       4.458   2.974   2.129  1.00  0.00    -0.014 A 
BRANCH  16  17
ATOM     17  C   UNL     1       5.262   3.910   2.957  1.00  0.00     0.031 A 
ATOM     18  C   UNL     1       5.793   3.497   4.303  1.00  0.00     0.074 A 
ATOM     19  C   UNL     1       5.551   5.132   2.468  1.00  0.00     0.049 A 
ATOM     20  N   UNL     1       6.561   4.169   5.127  1.00  0.00    -0.248 NA
ATOM     21  C   UNL     1       5.411   2.164   4.795  1.00  0.00     0.031 C 
ATOM     22  C   UNL     1       5.095   5.655   1.178  1.00  0.00     0.029 A 
ATOM     23  N   UNL     1       6.322   6.143   2.982  1.00  0.00    -0.354 N 
ATOM     24  C   UNL     1       6.730   3.355   6.240  1.00  0.00     0.074 A 
ATOM     25  C   UNL     1       5.967   2.149   5.999  1.00  0.00     0.031 C 
ATOM     26  C   UNL     1       5.642   6.862   0.975  1.00  0.00     0.029 A 
ATOM     27  C   UNL     1       6.439   7.223   2.142  1.00  0.00     0.049 A 
ATOM     28  H   UNL     1       6.750   6.099   3.868  1.00  0.00     0.167 HD
ATOM     29  C   UNL     1       7.456   3.587   7.361  1.00  0.00     0.031 A 
ATOM     30  C   UNL     1       7.112   8.378   2.291  1.00  0.00     0.031 A 
ATOM     31  C   UNL     1       8.224   4.782   7.600  1.00  0.00     0.049 A 
ATOM     32  C   UNL     1       7.898   8.614   3.547  1.00  0.00     0.074 A 
ATOM     33  C   UNL     1       9.022   5.091   8.688  1.00  0.00     0.029 A 
ATOM     34  N   UNL     1       8.287   5.866   6.738  1.00  0.00    -0.354 N 
ATOM     35  N   UNL     1       8.077   7.817   4.571  1.00  0.00    -0.248 NA
ATOM     36  C   UNL     1       8.579   9.911   3.662  1.00  0.00     0.031 C 
ATOM     37  C   UNL     1       9.531   6.382   8.507  1.00  0.00     0.029 A 
ATOM     38  C   UNL     1       9.094   6.854   7.280  1.00  0.00     0.049 A 
ATOM     39  H   UNL     1       7.828   5.925   5.870  1.00  0.00     0.167 HD
ATOM     40  C   UNL     1       8.913   8.504   5.441  1.00  0.00     0.074 A 
ATOM     41  C   UNL     1       9.216   9.775   4.816  1.00  0.00     0.031 C 
ATOM     42  C   UNL     1       9.388   8.114   6.649  1.00  0.00     0.031 A 
BRANCH  29  43
ATOM     43  C   UNL     1       7.430   2.535   8.435  1.00  0.00    -0.014 A 
ATOM     44  C   UNL     1       8.097   1.310   8.279  1.00  0.00     0.009 A 
ATOM     45  C   UNL     1       6.757   2.793   9.641  1.00  0.00     0.009 A 
ATOM     46  C   UNL     1       8.061   0.351   9.295  1.00  0.00     0.001 A 
ATOM     47  C   UNL     1       6.745   1.843  10.664  1.00  0.00     0.001 A 
ATOM     48  C   UNL     1       7.389   0.620  10.487  1.00  0.00     0.000 A 
ENDBRANCH  29  43
BRANCH  30  49
ATOM     49  C   UNL     1       7.080   9.396   1.210  1.00  0.00    -0.014 A 
ATOM     50  C   UNL     1       8.224   9.652   0.439  1.00  0.00     0.009 A 
ATOM     51  C   UNL     1       5.903  10.111   0.938  1.00  0.00     0.009 A 
ATOM     52  C   UNL     1       8.196  10.619  -0.568  1.00  0.00     0.001 A 
ATOM     53  C   UNL     1       5.870  11.056  -0.089  1.00  0.00     0.001 A 
ATOM     54  C   UNL     1       7.018  11.315  -0.835  1.00  0.00     0.000 A 
ENDBRANCH  30  49
BRANCH  42  55
ATOM     55  C   UNL     1      10.321   9.059   7.351  1.00  0.00    -0.014 A 
ATOM     56  C   UNL     1       9.857  10.249   7.932  1.00  0.00     0.009 A 
ATOM     57  C   UNL     1      11.685   8.741   7.445  1.00  0.00     0.009 A 
ATOM     58  C   UNL     1      10.749  11.122   8.559  1.00  0.00     0.001 A 
ATOM     59  C   UNL     1      12.569   9.602   8.096  1.00  0.00     0.001 A 
ATOM     60  C   UNL     1      12.102  10.796   8.643  1.00  0.00     0.000 A 
ENDBRANCH  42  55
ENDBRANCH  16  17
ENDBRANCH   9  11
ENDBRANCH   6   7
ENDBRANCH   5   6
ENDBRANCH   4   5
ENDBRANCH   3   4
ENDBRANCH   2   3
ENDBRANCH   1   2
BRANCH   1  61
ATOM     61  N   UNL     1       6.641  -6.103  -2.851  1.00  0.00    -0.352 N 
ATOM     62  C   UNL     1       7.483  -7.044  -3.395  1.00  0.00     0.251 C 
ATOM     63  H   UNL     1       5.680  -6.276  -2.971  1.00  0.00     0.163 HD
ATOM     64  O   UNL     1       7.036  -7.919  -4.131  1.00  0.00    -0.269 OA
BRANCH  62  65
ATOM     65  C   UNL     1       8.931  -7.000  -3.099  1.00  0.00     0.040 A 
ATOM     66  C   UNL     1       9.856  -7.163  -4.130  1.00  0.00     0.014 A 
ATOM     67  C   UNL     1       9.370  -6.803  -1.788  1.00  0.00     0.018 A 
ATOM     68  C   UNL     1      11.218  -7.066  -3.849  1.00  0.00     0.001 A 
ATOM     69  C   UNL     1      10.728  -6.664  -1.494  1.00  0.00    -0.039 A 
ATOM     70  C   UNL     1      11.650  -6.804  -2.544  1.00  0.00     0.004 A 
BRANCH  69  71
ATOM     71  C   UNL     1      11.198  -6.268  -0.105  1.00  0.00     0.074 C 
ATOM     72  C   UNL     1      10.837  -7.254   1.018  1.00  0.00     0.020 C 
ATOM     73  C   UNL     1      10.759  -4.832   0.255  1.00  0.00     0.270 C 
ATOM     74  C   UNL     1       9.445  -7.043   1.612  1.00  0.00     0.062 C 
ATOM     75  N   UNL     1       9.375  -4.706   0.748  1.00  0.00    -0.331 N 
ATOM     76  C   UNL     1       9.144  -5.572   1.910  1.00  0.00     0.262 C 
ATOM     77  H   UNL     1       8.762  -5.033   0.001  1.00  0.00     0.348 HD
BRANCH  75  78
ATOM     78  C   UNL     1       8.976  -3.301   0.993  1.00  0.00     0.299 C 
BRANCH  78  79
ATOM     79  C   UNL     1       9.570  -2.633   2.220  1.00  0.00     0.010 A 
ATOM     80  C   UNL     1       8.798  -2.416   3.368  1.00  0.00     0.010 A 
ATOM     81  C   UNL     1      10.932  -2.292   2.250  1.00  0.00     0.056 A 
ATOM     82  C   UNL     1       9.390  -1.921   4.530  1.00  0.00     0.004 A 
ATOM     83  C   UNL     1      11.552  -1.907   3.435  1.00  0.00     0.119 A 
ATOM     84  C   UNL     1      10.767  -1.690   4.567  1.00  0.00     0.046 A 
BRANCH  83  85
ATOM     85  O   UNL     1      12.900  -1.762   3.617  1.00  0.00    -0.491 OA
BRANCH  85  86
ATOM     86  C   UNL     1      13.795  -2.362   2.668  1.00  0.00     0.257 C 
BRANCH  86  87
ATOM     87  C   UNL     1      14.116  -3.824   3.004  1.00  0.00     0.197 C 
BRANCH  87  88
ATOM     88  O   UNL     1      12.980  -4.677   2.924  1.00  0.00    -0.393 OA
ATOM     89  H   UNL     1      12.314  -4.391   3.569  1.00  0.00     0.210 HD
ENDBRANCH  87  88
ENDBRANCH  86  87
ENDBRANCH  85  86
ENDBRANCH  83  85
ENDBRANCH  78  79
ENDBRANCH  75  78
ENDBRANCH  69  71
ENDBRANCH  62  65
ENDBRANCH   1  61
TORSDOF 20
