REMARK SMILES O=C(NCCCCCCNC(=O)c1cccc(Br)c1O[C@@H]1CCOC2(CCC2)C1)c1ccc(-c2c3nc(c(-c4ccccc4)c4ccc([nH]4)c(-c4ccccc4)c4nc(c(-c5ccccc5)c5ccc2[nH]5)C=C4)C=C3)cc1
REMARK SMILES IDX 6 1 5 2 4 3 3 4 1 5 2 6 30 8 31 9 77 10 32 11 76 12 33 13
REMARK SMILES IDX 34 14 35 15 70 16 36 17 75 18 69 19 71 20 37 21 74 22 68 23
REMARK SMILES IDX 67 24 38 26 60 27 45 28 59 29 46 30 49 31 58 32 72 33 47 34
REMARK SMILES IDX 48 35 57 37 73 38 50 39 39 40 40 41 44 42 41 43 43 44 42 45
REMARK SMILES IDX 61 46 62 47 66 48 63 49 65 50 64 51 51 52 52 53 56 54 53 55
REMARK SMILES IDX 55 56 54 57 7 58 8 59 9 60 10 61 11 62 12 64 13 65 14 66
REMARK SMILES IDX 19 67 15 68 17 69 16 70 18 71 20 72 21 73 22 74 29 75 23 76
REMARK SMILES IDX 25 77 24 78 26 79 28 80 27 81
REMARK H PARENT 3 7 71 25 49 36 10 63
REMARK Flexibility Score: inf
ROOT
ATOM      1  C   UNL     1       4.167  -3.644  -1.082  1.00  0.00     0.002 C 
ENDROOT
BRANCH   1   2
ATOM      2  C   UNL     1       4.648  -2.572  -0.105  1.00  0.00     0.021 C 
BRANCH   2   3
ATOM      3  C   UNL     1       4.386  -1.138  -0.545  1.00  0.00     0.116 C 
BRANCH   3   4
ATOM      4  N   UNL     1       2.969  -0.831  -0.672  1.00  0.00    -0.352 N 
ATOM      5  O   UNL     1       1.015   0.201  -0.201  1.00  0.00    -0.269 OA
ATOM      6  C   UNL     1       2.236   0.177  -0.090  1.00  0.00     0.251 C 
ATOM      7  H   UNL     1       2.460  -1.432  -1.263  1.00  0.00     0.163 HD
BRANCH   6   8
ATOM      8  C   UNL     1       2.925   1.214   0.707  1.00  0.00     0.039 A 
ATOM      9  C   UNL     1       4.105   1.798   0.243  1.00  0.00     0.014 A 
ATOM     10  C   UNL     1       2.400   1.586   1.948  1.00  0.00     0.014 A 
ATOM     11  C   UNL     1       4.854   2.602   1.093  1.00  0.00     0.010 A 
ATOM     12  C   UNL     1       3.105   2.479   2.759  1.00  0.00     0.010 A 
ATOM     13  C   UNL     1       4.364   2.955   2.361  1.00  0.00    -0.014 A 
BRANCH  13  14
ATOM     14  C   UNL     1       5.181   3.838   3.235  1.00  0.00     0.031 A 
ATOM     15  C   UNL     1       5.704   3.355   4.561  1.00  0.00     0.074 A 
ATOM     16  C   UNL     1       5.493   5.074   2.800  1.00  0.00     0.049 A 
ATOM     17  N   UNL     1       6.481   3.977   5.415  1.00  0.00    -0.248 NA
ATOM     18  C   UNL     1       5.303   2.007   4.993  1.00  0.00     0.031 C 
ATOM     19  C   UNL     1       5.048   5.660   1.532  1.00  0.00     0.029 A 
ATOM     20  N   UNL     1       6.278   6.050   3.358  1.00  0.00    -0.354 N 
ATOM     21  C   UNL     1       6.636   3.111   6.492  1.00  0.00     0.074 A 
ATOM     22  C   UNL     1       5.853   1.930   6.196  1.00  0.00     0.031 C 
ATOM     23  C   UNL     1       5.618   6.864   1.380  1.00  0.00     0.029 A 
ATOM     24  C   UNL     1       6.409   7.166   2.567  1.00  0.00     0.049 A 
ATOM     25  H   UNL     1       6.707   5.959   4.239  1.00  0.00     0.167 HD
ATOM     26  C   UNL     1       7.367   3.281   7.621  1.00  0.00     0.031 A 
ATOM     27  C   UNL     1       7.081   8.312   2.775  1.00  0.00     0.031 A 
ATOM     28  C   UNL     1       8.147   4.456   7.913  1.00  0.00     0.049 A 
ATOM     29  C   UNL     1       7.854   8.485   4.049  1.00  0.00     0.074 A 
ATOM     30  C   UNL     1       8.951   4.705   9.013  1.00  0.00     0.029 A 
ATOM     31  N   UNL     1       8.214   5.582   7.108  1.00  0.00    -0.354 N 
ATOM     32  N   UNL     1       8.025   7.638   5.034  1.00  0.00    -0.248 NA
ATOM     33  C   UNL     1       8.533   9.774   4.234  1.00  0.00     0.031 C 
ATOM     34  C   UNL     1       9.455   6.006   8.902  1.00  0.00     0.029 A 
ATOM     35  C   UNL     1       9.024   6.540   7.699  1.00  0.00     0.049 A 
ATOM     36  H   UNL     1       7.755   5.687   6.243  1.00  0.00     0.167 HD
ATOM     37  C   UNL     1       8.859   8.278   5.941  1.00  0.00     0.074 A 
ATOM     38  C   UNL     1       9.170   9.577   5.379  1.00  0.00     0.031 C 
ATOM     39  C   UNL     1       9.328   7.828   7.131  1.00  0.00     0.031 A 
BRANCH  26  40
ATOM     40  C   UNL     1       7.328   2.181   8.649  1.00  0.00    -0.014 A 
ATOM     41  C   UNL     1       7.937   0.936   8.422  1.00  0.00     0.009 A 
ATOM     42  C   UNL     1       6.704   2.411   9.886  1.00  0.00     0.009 A 
ATOM     43  C   UNL     1       7.887  -0.066   9.395  1.00  0.00     0.001 A 
ATOM     44  C   UNL     1       6.683   1.419  10.869  1.00  0.00     0.001 A 
ATOM     45  C   UNL     1       7.265   0.178  10.618  1.00  0.00     0.000 A 
ENDBRANCH  26  40
BRANCH  27  46
ATOM     46  C   UNL     1       7.053   9.386   1.747  1.00  0.00    -0.014 A 
ATOM     47  C   UNL     1       8.212   9.718   1.030  1.00  0.00     0.009 A 
ATOM     48  C   UNL     1       5.866  10.086   1.481  1.00  0.00     0.009 A 
ATOM     49  C   UNL     1       8.189  10.749   0.088  1.00  0.00     0.001 A 
ATOM     50  C   UNL     1       5.837  11.091   0.514  1.00  0.00     0.001 A 
ATOM     51  C   UNL     1       7.001  11.430  -0.173  1.00  0.00     0.000 A 
ENDBRANCH  27  46
BRANCH  39  52
ATOM     52  C   UNL     1      10.274   8.728   7.877  1.00  0.00    -0.014 A 
ATOM     53  C   UNL     1       9.843   9.924   8.470  1.00  0.00     0.009 A 
ATOM     54  C   UNL     1      11.624   8.359   7.997  1.00  0.00     0.009 A 
ATOM     55  C   UNL     1      10.753  10.755   9.128  1.00  0.00     0.001 A 
ATOM     56  C   UNL     1      12.524   9.173   8.686  1.00  0.00     0.001 A 
ATOM     57  C   UNL     1      12.091  10.376   9.239  1.00  0.00     0.000 A 
ENDBRANCH  39  52
ENDBRANCH  13  14
ENDBRANCH   6   8
ENDBRANCH   3   4
ENDBRANCH   2   3
ENDBRANCH   1   2
BRANCH   1  58
ATOM     58  C   UNL     1       4.691  -3.506  -2.514  1.00  0.00     0.002 C 
BRANCH  58  59
ATOM     59  C   UNL     1       6.216  -3.503  -2.660  1.00  0.00     0.021 C 
BRANCH  59  60
ATOM     60  C   UNL     1       6.922  -4.732  -2.093  1.00  0.00     0.116 C 
BRANCH  60  61
ATOM     61  N   UNL     1       6.442  -5.975  -2.682  1.00  0.00    -0.352 N 
ATOM     62  C   UNL     1       7.149  -7.016  -3.242  1.00  0.00     0.255 C 
ATOM     63  H   UNL     1       5.464  -6.089  -2.678  1.00  0.00     0.163 HD
ATOM     64  O   UNL     1       6.560  -7.978  -3.719  1.00  0.00    -0.269 OA
BRANCH  62  65
ATOM     65  C   UNL     1       8.624  -6.968  -3.199  1.00  0.00     0.083 A 
ATOM     66  C   UNL     1       9.215  -6.865  -1.943  1.00  0.00     0.018 A 
ATOM     67  C   UNL     1       9.403  -6.989  -4.379  1.00  0.00     0.146 A 
ATOM     68  C   UNL     1      10.574  -6.677  -1.853  1.00  0.00     0.002 A 
ATOM     69  C   UNL     1      10.845  -6.716  -4.417  1.00  0.00     0.060 A 
ATOM     70  C   UNL     1      11.350  -6.577  -3.022  1.00  0.00     0.019 A 
ATOM     71  Br  UNL     1      12.173  -6.643  -6.645  1.00  0.00    -0.047 Br
BRANCH  67  72
ATOM     72  O   UNL     1       8.754  -7.323  -5.527  1.00  0.00    -0.488 OA
BRANCH  72  73
ATOM     73  C   UNL     1       9.889  -7.207  -6.320  1.00  0.00     0.178 C 
ATOM     74  C   UNL     1      11.120  -8.541  -5.617  1.00  0.00     0.074 C 
ATOM     75  C   UNL     1      10.252  -5.316  -6.126  1.00  0.00     0.080 C 
ATOM     76  C   UNL     1      12.700  -7.912  -4.712  1.00  0.00     0.165 C 
ATOM     77  C   UNL     1      11.773  -4.825  -5.095  1.00  0.00     0.072 C 
ATOM     78  O   UNL     1      12.964  -6.095  -4.577  1.00  0.00    -0.375 OA
ATOM     79  C   UNL     1      12.555  -3.587  -5.700  1.00  0.00     0.036 C 
ATOM     80  C   UNL     1      11.286  -3.780  -4.011  1.00  0.00     0.036 C 
ATOM     81  C   UNL     1      12.557  -2.981  -4.286  1.00  0.00     0.006 C 
ENDBRANCH  72  73
ENDBRANCH  67  72
ENDBRANCH  62  65
ENDBRANCH  60  61
ENDBRANCH  59  60
ENDBRANCH  58  59
ENDBRANCH   1  58
TORSDOF 15
