REMARK SMILES O=C(NCCCCCCNC(=O)[C@H]1CCCN(C(=O)C2CC[NH+](Cc3ccco3)CC2)C1)c1ccc(-c2c3nc(c(-c4ccccc4)c4ccc([nH]4)c(-c4ccccc4)c4nc(c(-c5ccccc5)c5ccc2[nH]5)C=C4)C=C3)cc1
REMARK SMILES IDX 7 1 6 2 5 3 4 4 3 5 1 6 2 7 33 9 34 10 80 11 35 12 79 13
REMARK SMILES IDX 36 14 37 15 38 16 73 17 39 18 78 19 72 20 74 21 40 22 77 23
REMARK SMILES IDX 71 24 70 25 41 27 63 28 48 29 62 30 49 31 52 32 61 33 75 34
REMARK SMILES IDX 50 35 51 36 60 38 76 39 53 40 42 41 43 42 47 43 44 44 46 45
REMARK SMILES IDX 45 46 64 47 65 48 69 49 66 50 68 51 67 52 54 53 55 54 59 55
REMARK SMILES IDX 56 56 58 57 57 58 8 59 9 60 10 61 11 62 12 64 13 65 14 66
REMARK SMILES IDX 32 67 15 68 17 69 16 70 18 71 19 72 20 73 21 74 31 75 22 76
REMARK SMILES IDX 30 77 23 78 24 80 25 81 26 82 29 83 27 84 28 85
REMARK H PARENT 3 8 74 26 52 37 10 63 23 79
REMARK Flexibility Score: inf
ROOT
ATOM      1  C   UNL     1      13.251   6.279  -7.938  1.00  0.00     0.002 C 
ENDROOT
BRANCH   1   2
ATOM      2  C   UNL     1      13.220   7.746  -8.392  1.00  0.00     0.002 C 
BRANCH   2   3
ATOM      3  C   UNL     1      13.257   8.774  -7.259  1.00  0.00     0.021 C 
BRANCH   3   4
ATOM      4  C   UNL     1      14.520   8.712  -6.415  1.00  0.00     0.116 C 
BRANCH   4   5
ATOM      5  N   UNL     1      15.685   9.154  -7.162  1.00  0.00    -0.352 N 
ATOM      6  O   UNL     1      17.356  10.573  -7.700  1.00  0.00    -0.269 OA
ATOM      7  C   UNL     1      16.558  10.174  -6.867  1.00  0.00     0.251 C 
ATOM      8  H   UNL     1      15.875   8.656  -7.990  1.00  0.00     0.163 HD
BRANCH   7   9
ATOM      9  C   UNL     1      16.513  10.787  -5.522  1.00  0.00     0.039 A 
ATOM     10  C   UNL     1      16.407   9.978  -4.389  1.00  0.00     0.014 A 
ATOM     11  C   UNL     1      16.586  12.177  -5.393  1.00  0.00     0.014 A 
ATOM     12  C   UNL     1      16.241  10.560  -3.142  1.00  0.00     0.010 A 
ATOM     13  C   UNL     1      16.519  12.758  -4.124  1.00  0.00     0.010 A 
ATOM     14  C   UNL     1      16.330  11.954  -2.990  1.00  0.00    -0.014 A 
BRANCH  14  15
ATOM     15  C   UNL     1      16.324  12.512  -1.616  1.00  0.00     0.031 A 
ATOM     16  C   UNL     1      15.216  13.398  -1.127  1.00  0.00     0.074 A 
ATOM     17  C   UNL     1      17.318  12.142  -0.785  1.00  0.00     0.049 A 
ATOM     18  N   UNL     1      15.029  13.885   0.074  1.00  0.00    -0.248 NA
ATOM     19  C   UNL     1      14.191  13.797  -2.103  1.00  0.00     0.031 C 
ATOM     20  C   UNL     1      18.458  11.299  -1.161  1.00  0.00     0.029 A 
ATOM     21  N   UNL     1      17.513  12.385   0.549  1.00  0.00    -0.354 N 
ATOM     22  C   UNL     1      13.876  14.655  -0.002  1.00  0.00     0.074 A 
ATOM     23  C   UNL     1      13.418  14.592  -1.374  1.00  0.00     0.031 C 
ATOM     24  C   UNL     1      19.189  11.034  -0.070  1.00  0.00     0.029 A 
ATOM     25  C   UNL     1      18.612  11.743   1.065  1.00  0.00     0.049 A 
ATOM     26  H   UNL     1      16.923  12.964   1.085  1.00  0.00     0.167 HD
ATOM     27  C   UNL     1      13.254  15.344   0.985  1.00  0.00     0.031 A 
ATOM     28  C   UNL     1      19.110  11.728   2.314  1.00  0.00     0.031 A 
ATOM     29  C   UNL     1      13.720  15.409   2.347  1.00  0.00     0.049 A 
ATOM     30  C   UNL     1      18.402  12.505   3.382  1.00  0.00     0.074 A 
ATOM     31  C   UNL     1      13.159  16.080   3.421  1.00  0.00     0.029 A 
ATOM     32  N   UNL     1      14.858  14.777   2.824  1.00  0.00    -0.354 N 
ATOM     33  N   UNL     1      17.301  13.212   3.294  1.00  0.00    -0.248 NA
ATOM     34  C   UNL     1      19.005  12.483   4.720  1.00  0.00     0.031 C 
ATOM     35  C   UNL     1      13.981  15.888   4.537  1.00  0.00     0.029 A 
ATOM     36  C   UNL     1      15.025  15.054   4.171  1.00  0.00     0.049 A 
ATOM     37  H   UNL     1      15.460  14.214   2.284  1.00  0.00     0.167 HD
ATOM     38  C   UNL     1      17.078  13.719   4.565  1.00  0.00     0.074 A 
ATOM     39  C   UNL     1      18.136  13.205   5.413  1.00  0.00     0.031 C 
ATOM     40  C   UNL     1      16.094  14.547   4.991  1.00  0.00     0.031 A 
BRANCH  27  41
ATOM     41  C   UNL     1      12.006  16.102   0.626  1.00  0.00    -0.014 A 
ATOM     42  C   UNL     1      10.797  15.434   0.374  1.00  0.00     0.009 A 
ATOM     43  C   UNL     1      12.025  17.506   0.594  1.00  0.00     0.009 A 
ATOM     44  C   UNL     1       9.639  16.156   0.074  1.00  0.00     0.001 A 
ATOM     45  C   UNL     1      10.860  18.225   0.317  1.00  0.00     0.001 A 
ATOM     46  C   UNL     1       9.670  17.550   0.052  1.00  0.00     0.000 A 
ENDBRANCH  27  41
BRANCH  28  47
ATOM     47  C   UNL     1      20.352  10.969   2.606  1.00  0.00    -0.014 A 
ATOM     48  C   UNL     1      20.321   9.819   3.408  1.00  0.00     0.009 A 
ATOM     49  C   UNL     1      21.579  11.390   2.068  1.00  0.00     0.009 A 
ATOM     50  C   UNL     1      21.499   9.120   3.684  1.00  0.00     0.001 A 
ATOM     51  C   UNL     1      22.748  10.670   2.318  1.00  0.00     0.001 A 
ATOM     52  C   UNL     1      22.709   9.542   3.134  1.00  0.00     0.000 A 
ENDBRANCH  28  47
BRANCH  40  53
ATOM     53  C   UNL     1      16.124  14.931   6.442  1.00  0.00    -0.014 A 
ATOM     54  C   UNL     1      17.093  15.819   6.936  1.00  0.00     0.009 A 
ATOM     55  C   UNL     1      15.174  14.397   7.325  1.00  0.00     0.009 A 
ATOM     56  C   UNL     1      17.138  16.129   8.296  1.00  0.00     0.001 A 
ATOM     57  C   UNL     1      15.204  14.731   8.680  1.00  0.00     0.001 A 
ATOM     58  C   UNL     1      16.192  15.586   9.165  1.00  0.00     0.000 A 
ENDBRANCH  40  53
ENDBRANCH  14  15
ENDBRANCH   7   9
ENDBRANCH   4   5
ENDBRANCH   3   4
ENDBRANCH   2   3
ENDBRANCH   1   2
BRANCH   1  59
ATOM     59  C   UNL     1      12.253   5.918  -6.830  1.00  0.00     0.021 C 
BRANCH  59  60
ATOM     60  C   UNL     1      10.818   6.353  -7.130  1.00  0.00     0.116 C 
BRANCH  60  61
ATOM     61  N   UNL     1      10.180   5.480  -8.092  1.00  0.00    -0.356 N 
ATOM     62  C   UNL     1       9.129   4.633  -8.062  1.00  0.00     0.224 C 
ATOM     63  H   UNL     1      10.614   5.510  -8.975  1.00  0.00     0.163 HD
ATOM     64  O   UNL     1       8.788   4.187  -9.167  1.00  0.00    -0.275 OA
BRANCH  62  65
ATOM     65  C   UNL     1       8.415   4.118  -6.812  1.00  0.00     0.098 C 
ATOM     66  C   UNL     1       8.677   2.598  -6.763  1.00  0.00     0.017 C 
ATOM     67  C   UNL     1       8.692   4.806  -5.472  1.00  0.00     0.133 C 
ATOM     68  C   UNL     1       8.087   1.969  -5.514  1.00  0.00     0.022 C 
ATOM     69  N   UNL     1       8.206   4.077  -4.299  1.00  0.00    -0.342 N 
ATOM     70  C   UNL     1       8.631   2.700  -4.309  1.00  0.00     0.119 C 
BRANCH  69  71
ATOM     71  C   UNL     1       7.702   4.775  -3.216  1.00  0.00     0.226 C 
ATOM     72  O   UNL     1       7.638   6.013  -3.272  1.00  0.00    -0.275 OA
BRANCH  71  73
ATOM     73  C   UNL     1       7.258   4.116  -1.883  1.00  0.00     0.090 C 
ATOM     74  C   UNL     1       8.347   4.127  -0.816  1.00  0.00     0.075 C 
ATOM     75  C   UNL     1       6.489   2.796  -1.874  1.00  0.00     0.075 C 
ATOM     76  C   UNL     1       9.281   2.940  -0.956  1.00  0.00     0.263 C 
ATOM     77  C   UNL     1       7.284   1.516  -1.534  1.00  0.00     0.263 C 
ATOM     78  N   UNL     1       8.604   1.651  -0.921  1.00  0.00    -0.329 N 
ATOM     79  H   UNL     1       8.337   1.639   0.064  1.00  0.00     0.348 HD
BRANCH  78  80
ATOM     80  C   UNL     1       9.492   0.489  -1.146  1.00  0.00     0.338 C 
BRANCH  80  81
ATOM     81  C   UNL     1      10.399   0.559  -2.344  1.00  0.00     0.157 A 
ATOM     82  C   UNL     1      11.599   1.206  -2.588  1.00  0.00     0.052 A 
ATOM     83  O   UNL     1      10.042  -0.162  -3.451  1.00  0.00    -0.463 OA
ATOM     84  C   UNL     1      11.976   0.889  -3.915  1.00  0.00     0.042 A 
ATOM     85  C   UNL     1      11.008   0.035  -4.389  1.00  0.00     0.195 A 
ENDBRANCH  80  81
ENDBRANCH  78  80
ENDBRANCH  71  73
ENDBRANCH  69  71
ENDBRANCH  62  65
ENDBRANCH  60  61
ENDBRANCH  59  60
ENDBRANCH   1  59
TORSDOF 17
