REMARK SMILES CC(=O)N1CCN(C(=O)c2ccc(=O)n(CCC(=O)NCCCCCCNC(=O)c3ccc(-c4c5nc(c(-c6ccccc6)c6ccc([nH]6)c(-c6ccccc6)c6nc(c(-c7ccccc7)c7ccc4[nH]7)C=C6)C=C5)cc3)n2)CC1
REMARK SMILES IDX 23 1 22 2 21 3 20 4 18 5 19 6 17 8 16 9 15 10 10 11 11 12
REMARK SMILES IDX 78 13 12 14 13 15 14 16 8 17 1 18 2 19 3 20 4 21 5 22 80 23
REMARK SMILES IDX 6 24 79 25 7 26 9 27 24 28 25 29 26 30 27 31 28 32 29 34
REMARK SMILES IDX 30 35 31 36 77 37 32 38 76 39 33 40 34 41 35 42 70 43 36 44
REMARK SMILES IDX 75 45 69 46 71 47 37 48 74 49 68 50 67 51 38 53 60 54 45 55
REMARK SMILES IDX 59 56 46 57 49 58 58 59 72 60 47 61 48 62 57 64 73 65 50 66
REMARK SMILES IDX 39 67 40 68 44 69 41 70 43 71 42 72 61 73 62 74 66 75 63 76
REMARK SMILES IDX 65 77 64 78 51 79 52 80 56 81 53 82 55 83 54 84
REMARK H PARENT 20 7 27 33 71 52 49 63
REMARK Flexibility Score: inf
ROOT
ATOM      1  C   UNL     1       6.352   0.456  10.488  1.00  0.00     0.002 C 
ENDROOT
BRANCH   1   2
ATOM      2  C   UNL     1       6.730   1.337   9.296  1.00  0.00     0.021 C 
BRANCH   2   3
ATOM      3  C   UNL     1       7.082   2.775   9.675  1.00  0.00     0.116 C 
BRANCH   3   4
ATOM      4  N   UNL     1       7.931   3.399   8.674  1.00  0.00    -0.356 N 
ATOM      5  C   UNL     1       7.609   3.979   7.485  1.00  0.00     0.221 C 
ATOM      6  O   UNL     1       8.514   4.445   6.790  1.00  0.00    -0.275 OA
ATOM      7  H   UNL     1       8.892   3.404   8.890  1.00  0.00     0.163 HD
BRANCH   5   8
ATOM      8  C   UNL     1       6.164   4.082   7.063  1.00  0.00     0.124 C 
BRANCH   8   9
ATOM      9  C   UNL     1       6.002   3.610   5.617  1.00  0.00     0.158 C 
BRANCH   9  10
ATOM     10  N   UNL     1       4.966   2.580   5.515  1.00  0.00    -0.229 N 
ATOM     11  C   UNL     1       2.748   2.133   5.244  1.00  0.00     0.149 A 
ATOM     12  C   UNL     1       2.921   0.701   5.547  1.00  0.00     0.042 A 
ATOM     13  N   UNL     1       3.688   3.024   5.238  1.00  0.00    -0.164 NA
ATOM     14  C   UNL     1       4.171   0.292   5.766  1.00  0.00     0.076 A 
ATOM     15  C   UNL     1       5.297   1.251   5.754  1.00  0.00     0.266 A 
ATOM     16  O   UNL     1       6.426   0.834   5.991  1.00  0.00    -0.268 OA
BRANCH  11  17
ATOM     17  C   UNL     1       1.335   2.549   4.889  1.00  0.00     0.274 C 
ATOM     18  C   UNL     1       0.383   0.517  -0.850  1.00  0.00     0.114 C 
ATOM     19  C   UNL     1      -0.509   1.367   0.018  1.00  0.00     0.219 C 
ATOM     20  O   UNL     1      -1.729   1.213  -0.011  1.00  0.00    -0.275 OA
ATOM     21  N   UNL     1       0.105   2.291   0.844  1.00  0.00    -0.339 N 
ATOM     22  C   UNL     1      -0.701   3.075   1.779  1.00  0.00     0.141 C 
ATOM     23  C   UNL     1       1.541   2.394   1.094  1.00  0.00     0.141 C 
ATOM     24  C   UNL     1      -0.456   2.590   3.214  1.00  0.00     0.141 C 
ATOM     25  C   UNL     1       1.860   1.895   2.511  1.00  0.00     0.141 C 
ATOM     26  N   UNL     1       0.972   2.455   3.547  1.00  0.00    -0.334 N 
ATOM     27  O   UNL     1       0.587   2.852   5.810  1.00  0.00    -0.267 OA
ENDBRANCH  11  17
ENDBRANCH   9  10
ENDBRANCH   8   9
ENDBRANCH   5   8
ENDBRANCH   3   4
ENDBRANCH   2   3
ENDBRANCH   1   2
BRANCH   1  28
ATOM     28  C   UNL     1       5.098   0.870  11.260  1.00  0.00     0.002 C 
BRANCH  28  29
ATOM     29  C   UNL     1       3.795   0.935  10.458  1.00  0.00     0.021 C 
BRANCH  29  30
ATOM     30  C   UNL     1       3.455  -0.295   9.617  1.00  0.00     0.116 C 
BRANCH  30  31
ATOM     31  N   UNL     1       3.421  -1.528  10.385  1.00  0.00    -0.352 N 
ATOM     32  C   UNL     1       2.389  -2.347  10.765  1.00  0.00     0.251 C 
ATOM     33  H   UNL     1       4.305  -1.832  10.691  1.00  0.00     0.163 HD
ATOM     34  O   UNL     1       2.621  -3.274  11.539  1.00  0.00    -0.269 OA
BRANCH  32  35
ATOM     35  C   UNL     1       1.001  -2.140  10.291  1.00  0.00     0.039 A 
ATOM     36  C   UNL     1       0.699  -1.860   8.957  1.00  0.00     0.014 A 
ATOM     37  C   UNL     1      -0.040  -2.322  11.211  1.00  0.00     0.014 A 
ATOM     38  C   UNL     1      -0.627  -1.648   8.569  1.00  0.00     0.010 A 
ATOM     39  C   UNL     1      -1.370  -2.156  10.814  1.00  0.00     0.010 A 
ATOM     40  C   UNL     1      -1.672  -1.784   9.497  1.00  0.00    -0.014 A 
BRANCH  40  41
ATOM     41  C   UNL     1      -3.072  -1.514   9.089  1.00  0.00     0.031 A 
ATOM     42  C   UNL     1      -3.773  -0.269   9.559  1.00  0.00     0.074 A 
ATOM     43  C   UNL     1      -3.716  -2.370   8.274  1.00  0.00     0.049 A 
ATOM     44  N   UNL     1      -4.994   0.134   9.307  1.00  0.00    -0.248 NA
ATOM     45  C   UNL     1      -3.006   0.636  10.429  1.00  0.00     0.031 C 
ATOM     46  C   UNL     1      -3.167  -3.621   7.749  1.00  0.00     0.029 A 
ATOM     47  N   UNL     1      -4.974  -2.301   7.730  1.00  0.00    -0.354 N 
ATOM     48  C   UNL     1      -5.152   1.319  10.013  1.00  0.00     0.074 A 
ATOM     49  C   UNL     1      -3.902   1.576  10.697  1.00  0.00     0.031 C 
ATOM     50  C   UNL     1      -4.066  -4.178   6.921  1.00  0.00     0.029 A 
ATOM     51  C   UNL     1      -5.257  -3.335   6.874  1.00  0.00     0.049 A 
ATOM     52  H   UNL     1      -5.611  -1.579   7.935  1.00  0.00     0.167 HD
ATOM     53  C   UNL     1      -6.238   2.124  10.091  1.00  0.00     0.031 A 
ATOM     54  C   UNL     1      -6.349  -3.572   6.125  1.00  0.00     0.031 A 
ATOM     55  C   UNL     1      -7.472   1.914   9.387  1.00  0.00     0.049 A 
ATOM     56  C   UNL     1      -7.516  -2.632   6.176  1.00  0.00     0.074 A 
ATOM     57  C   UNL     1      -8.621   2.686   9.406  1.00  0.00     0.029 A 
ATOM     58  N   UNL     1      -7.710   0.863   8.519  1.00  0.00    -0.354 N 
ATOM     59  N   UNL     1      -7.657  -1.533   6.874  1.00  0.00    -0.248 NA
ATOM     60  C   UNL     1      -8.675  -2.973   5.338  1.00  0.00     0.031 C 
ATOM     61  C   UNL     1      -9.555   2.104   8.539  1.00  0.00     0.029 A 
ATOM     62  C   UNL     1      -8.982   0.971   7.986  1.00  0.00     0.049 A 
ATOM     63  H   UNL     1      -7.069   0.144   8.312  1.00  0.00     0.167 HD
ATOM     64  C   UNL     1      -8.921  -1.053   6.564  1.00  0.00     0.074 A 
ATOM     65  C   UNL     1      -9.505  -1.974   5.610  1.00  0.00     0.031 C 
ATOM     66  C   UNL     1      -9.545   0.053   7.035  1.00  0.00     0.031 A 
BRANCH  53  67
ATOM     67  C   UNL     1      -6.129   3.317  10.988  1.00  0.00    -0.014 A 
ATOM     68  C   UNL     1      -6.547   3.228  12.324  1.00  0.00     0.009 A 
ATOM     69  C   UNL     1      -5.624   4.532  10.504  1.00  0.00     0.009 A 
ATOM     70  C   UNL     1      -6.448   4.336  13.167  1.00  0.00     0.001 A 
ATOM     71  C   UNL     1      -5.523   5.636  11.351  1.00  0.00     0.001 A 
ATOM     72  C   UNL     1      -5.934   5.537  12.681  1.00  0.00     0.000 A 
ENDBRANCH  53  67
BRANCH  54  73
ATOM     73  C   UNL     1      -6.381  -4.750   5.231  1.00  0.00    -0.014 A 
ATOM     74  C   UNL     1      -6.836  -5.990   5.700  1.00  0.00     0.009 A 
ATOM     75  C   UNL     1      -5.954  -4.631   3.900  1.00  0.00     0.009 A 
ATOM     76  C   UNL     1      -6.869  -7.093   4.846  1.00  0.00     0.001 A 
ATOM     77  C   UNL     1      -5.990  -5.737   3.049  1.00  0.00     0.001 A 
ATOM     78  C   UNL     1      -6.448  -6.966   3.522  1.00  0.00     0.000 A 
ENDBRANCH  54  73
BRANCH  66  79
ATOM     79  C   UNL     1     -10.924   0.322   6.521  1.00  0.00    -0.014 A 
ATOM     80  C   UNL     1     -11.112   1.113   5.379  1.00  0.00     0.009 A 
ATOM     81  C   UNL     1     -12.041  -0.201   7.189  1.00  0.00     0.009 A 
ATOM     82  C   UNL     1     -12.400   1.367   4.905  1.00  0.00     0.001 A 
ATOM     83  C   UNL     1     -13.328   0.055   6.712  1.00  0.00     0.001 A 
ATOM     84  C   UNL     1     -13.506   0.837   5.570  1.00  0.00     0.000 A 
ENDBRANCH  66  79
ENDBRANCH  40  41
ENDBRANCH  32  35
ENDBRANCH  30  31
ENDBRANCH  29  30
ENDBRANCH  28  29
ENDBRANCH   1  28
TORSDOF 16
