REMARK SMILES C[C@H](NC(=O)c1cc(S(=O)(=O)N(C)C)cs1)C(=O)NCCCCCCNC(=O)c1ccc(-c2c3nc(c(-c4ccccc4)c4ccc([nH]4)c(-c4ccccc4)c4nc(c(-c5ccccc5)c5ccc2[nH]5)C=C4)C=C3)cc1
REMARK SMILES IDX 21 1 20 2 19 3 17 4 18 5 2 7 1 8 3 9 4 10 5 12 6 13 7 14
REMARK SMILES IDX 16 15 8 16 15 17 9 18 10 19 11 20 12 21 13 22 14 23 22 24
REMARK SMILES IDX 23 25 24 26 25 27 26 28 27 29 28 31 29 32 30 33 76 34 31 35
REMARK SMILES IDX 75 36 32 37 33 38 34 39 69 40 35 41 74 42 68 43 70 44 36 45
REMARK SMILES IDX 73 46 67 47 66 48 37 50 59 51 44 52 58 53 45 54 48 55 57 56
REMARK SMILES IDX 71 57 46 58 47 59 56 61 72 62 49 63 38 64 39 65 43 66 40 67
REMARK SMILES IDX 42 68 41 69 60 70 61 71 65 72 62 73 64 74 63 75 50 76 51 77
REMARK SMILES IDX 55 78 52 79 54 80 53 81
REMARK H PARENT 19 6 3 11 26 30 70 49 48 60
REMARK Flexibility Score: inf
ROOT
ATOM      1  C   UNL     1      -1.874  -1.627   1.856  1.00  0.00     0.021 C 
ENDROOT
BRANCH   1   2
ATOM      2  C   UNL     1      -1.580  -2.079   0.428  1.00  0.00     0.116 C 
BRANCH   2   3
ATOM      3  N   UNL     1      -1.878  -1.030  -0.519  1.00  0.00    -0.354 N 
ATOM      4  C   UNL     1      -1.036  -0.242  -1.240  1.00  0.00     0.242 C 
ATOM      5  O   UNL     1      -1.545   0.613  -1.972  1.00  0.00    -0.273 OA
ATOM      6  H   UNL     1      -2.837  -0.859  -0.665  1.00  0.00     0.163 HD
BRANCH   4   7
ATOM      7  C   UNL     1       0.495  -0.465  -1.253  1.00  0.00     0.168 C 
ATOM      8  C   UNL     1       0.824  -1.679  -2.105  1.00  0.00     0.041 C 
BRANCH   7   9
ATOM      9  N   UNL     1       1.147  -0.268   0.056  1.00  0.00    -0.340 N 
ATOM     10  C   UNL     1       1.680  -1.021   1.070  1.00  0.00     0.262 C 
ATOM     11  H   UNL     1       1.221   0.691   0.263  1.00  0.00     0.164 HD
ATOM     12  O   UNL     1       1.849  -0.426   2.137  1.00  0.00    -0.268 OA
BRANCH  10  13
ATOM     13  C   UNL     1       2.012  -2.421   0.902  1.00  0.00     0.093 A 
ATOM     14  C   UNL     1       2.703  -3.066  -0.103  1.00  0.00     0.047 A 
ATOM     15  S   UNL     1       1.604  -3.525   2.160  1.00  0.00    -0.137 S 
ATOM     16  C   UNL     1       2.658  -4.484   0.037  1.00  0.00     0.094 A 
ATOM     17  C   UNL     1       2.098  -4.872   1.234  1.00  0.00     0.087 A 
BRANCH  16  18
ATOM     18  S   UNL     1       3.154  -5.611  -1.182  1.00  0.00     0.243 S 
ATOM     19  O   UNL     1       4.196  -6.390  -0.552  1.00  0.00    -0.207 OA
ATOM     20  O   UNL     1       1.897  -6.194  -1.596  1.00  0.00    -0.207 OA
BRANCH  18  21
ATOM     21  N   UNL     1       3.821  -4.763  -2.506  1.00  0.00    -0.204 NA
ATOM     22  C   UNL     1       5.181  -4.225  -2.278  1.00  0.00     0.124 C 
ATOM     23  C   UNL     1       3.749  -5.521  -3.778  1.00  0.00     0.124 C 
ENDBRANCH  18  21
ENDBRANCH  16  18
ENDBRANCH  10  13
ENDBRANCH   7   9
ENDBRANCH   4   7
ENDBRANCH   2   3
ENDBRANCH   1   2
BRANCH   1  24
ATOM     24  C   UNL     1      -3.352  -1.758   2.240  1.00  0.00     0.002 C 
BRANCH  24  25
ATOM     25  C   UNL     1      -3.887  -3.195   2.266  1.00  0.00     0.002 C 
BRANCH  25  26
ATOM     26  C   UNL     1      -3.121  -4.168   3.169  1.00  0.00     0.021 C 
BRANCH  26  27
ATOM     27  C   UNL     1      -3.045  -3.761   4.639  1.00  0.00     0.116 C 
BRANCH  27  28
ATOM     28  N   UNL     1      -4.363  -3.653   5.243  1.00  0.00    -0.352 N 
ATOM     29  C   UNL     1      -4.861  -4.226   6.384  1.00  0.00     0.251 C 
ATOM     30  H   UNL     1      -4.997  -3.079   4.756  1.00  0.00     0.163 HD
ATOM     31  O   UNL     1      -6.064  -4.163   6.623  1.00  0.00    -0.269 OA
BRANCH  29  32
ATOM     32  C   UNL     1      -3.966  -4.928   7.329  1.00  0.00     0.039 A 
ATOM     33  C   UNL     1      -4.407  -6.126   7.900  1.00  0.00     0.014 A 
ATOM     34  C   UNL     1      -2.728  -4.392   7.698  1.00  0.00     0.014 A 
ATOM     35  C   UNL     1      -3.592  -6.807   8.806  1.00  0.00     0.010 A 
ATOM     36  C   UNL     1      -1.891  -5.100   8.560  1.00  0.00     0.010 A 
ATOM     37  C   UNL     1      -2.319  -6.309   9.127  1.00  0.00    -0.014 A 
BRANCH  37  38
ATOM     38  C   UNL     1      -1.430  -7.052  10.054  1.00  0.00     0.031 A 
ATOM     39  C   UNL     1      -1.101  -6.494  11.411  1.00  0.00     0.074 A 
ATOM     40  C   UNL     1      -0.887  -8.218   9.657  1.00  0.00     0.049 A 
ATOM     41  N   UNL     1      -0.358  -7.012  12.357  1.00  0.00    -0.248 NA
ATOM     42  C   UNL     1      -1.662  -5.175  11.740  1.00  0.00     0.031 C 
ATOM     43  C   UNL     1      -1.092  -8.847   8.351  1.00  0.00     0.029 A 
ATOM     44  N   UNL     1      -0.054  -9.084  10.318  1.00  0.00    -0.354 N 
ATOM     45  C   UNL     1      -0.347  -6.076  13.383  1.00  0.00     0.074 A 
ATOM     46  C   UNL     1      -1.126  -4.944  12.930  1.00  0.00     0.031 C 
ATOM     47  C   UNL     1      -0.433 -10.016   8.320  1.00  0.00     0.029 A 
ATOM     48  C   UNL     1       0.260 -10.205   9.590  1.00  0.00     0.049 A 
ATOM     49  H   UNL     1       0.287  -8.918  11.227  1.00  0.00     0.167 HD
ATOM     50  C   UNL     1       0.246  -6.156  14.598  1.00  0.00     0.031 A 
ATOM     51  C   UNL     1       1.012 -11.273   9.914  1.00  0.00     0.031 A 
ATOM     52  C   UNL     1       1.007  -7.287  15.059  1.00  0.00     0.049 A 
ATOM     53  C   UNL     1       1.650 -11.343  11.271  1.00  0.00     0.074 A 
ATOM     54  C   UNL     1       1.580  -7.494  16.302  1.00  0.00     0.029 A 
ATOM     55  N   UNL     1       1.305  -8.401  14.290  1.00  0.00    -0.354 N 
ATOM     56  N   UNL     1       1.584 -10.486  12.260  1.00  0.00    -0.248 NA
ATOM     57  C   UNL     1       2.456 -12.538  11.558  1.00  0.00     0.031 C 
ATOM     58  C   UNL     1       2.261  -8.717  16.272  1.00  0.00     0.029 A 
ATOM     59  C   UNL     1       2.076  -9.288  15.023  1.00  0.00     0.049 A 
ATOM     60  H   UNL     1       1.013  -8.541  13.361  1.00  0.00     0.167 HD
ATOM     61  C   UNL     1       2.321 -11.046  13.294  1.00  0.00     0.074 A 
ATOM     62  C   UNL     1       2.813 -12.323  12.816  1.00  0.00     0.031 C 
ATOM     63  C   UNL     1       2.567 -10.548  14.530  1.00  0.00     0.031 A 
BRANCH  50  64
ATOM     64  C   UNL     1       0.102  -4.972  15.512  1.00  0.00    -0.014 A 
ATOM     65  C   UNL     1      -1.121  -4.681  16.137  1.00  0.00     0.009 A 
ATOM     66  C   UNL     1       1.208  -4.148  15.765  1.00  0.00     0.009 A 
ATOM     67  C   UNL     1      -1.242  -3.564  16.967  1.00  0.00     0.001 A 
ATOM     68  C   UNL     1       1.091  -3.046  16.615  1.00  0.00     0.001 A 
ATOM     69  C   UNL     1      -0.136  -2.750  17.207  1.00  0.00     0.000 A 
ENDBRANCH  50  64
BRANCH  51  70
ATOM     70  C   UNL     1       1.168 -12.387   8.947  1.00  0.00    -0.014 A 
ATOM     71  C   UNL     1       0.483 -13.595   9.150  1.00  0.00     0.009 A 
ATOM     72  C   UNL     1       1.990 -12.250   7.819  1.00  0.00     0.009 A 
ATOM     73  C   UNL     1       0.635 -14.652   8.251  1.00  0.00     0.001 A 
ATOM     74  C   UNL     1       2.122 -13.302   6.910  1.00  0.00     0.001 A 
ATOM     75  C   UNL     1       1.450 -14.503   7.130  1.00  0.00     0.000 A 
ENDBRANCH  51  70
BRANCH  63  76
ATOM     76  C   UNL     1       3.389 -11.400  15.453  1.00  0.00    -0.014 A 
ATOM     77  C   UNL     1       4.774 -11.535  15.274  1.00  0.00     0.009 A 
ATOM     78  C   UNL     1       2.770 -12.066  16.523  1.00  0.00     0.009 A 
ATOM     79  C   UNL     1       5.519 -12.350  16.128  1.00  0.00     0.001 A 
ATOM     80  C   UNL     1       3.522 -12.861  17.389  1.00  0.00     0.001 A 
ATOM     81  C   UNL     1       4.893 -13.009  17.186  1.00  0.00     0.000 A 
ENDBRANCH  63  76
ENDBRANCH  37  38
ENDBRANCH  29  32
ENDBRANCH  27  28
ENDBRANCH  26  27
ENDBRANCH  25  26
ENDBRANCH  24  25
ENDBRANCH   1  24
TORSDOF 17
