REMARK SMILES CS(=O)(=O)c1ccc(-c2cc(Cl)cnc2-c2ccc(C(=O)NCCCCCCNC(=O)c3ccc(-c4c5nc(c(-c6ccccc6)c6ccc([nH]6)c(-c6ccccc6)c6nc(c(-c7ccccc7)c7ccc4[nH]7)C=C6)C=C5)cc3)nc2)cc1
REMARK SMILES IDX 25 1 24 2 23 3 22 4 20 5 21 6 19 8 16 9 17 10 81 11 18 12
REMARK SMILES IDX 80 13 15 14 9 15 10 16 11 17 14 18 12 19 13 20 8 21 5 22
REMARK SMILES IDX 6 23 83 24 7 25 82 26 2 27 1 28 3 29 4 30 26 31 27 32 28 33
REMARK SMILES IDX 29 34 30 35 31 37 32 38 33 39 79 40 34 41 78 42 35 43 36 44
REMARK SMILES IDX 37 45 72 46 38 47 77 48 71 49 73 50 39 51 76 52 70 53 69 54
REMARK SMILES IDX 40 56 62 57 47 58 61 59 48 60 51 61 60 62 74 63 49 64 50 65
REMARK SMILES IDX 59 67 75 68 52 69 41 70 42 71 46 72 43 73 45 74 44 75 63 76
REMARK SMILES IDX 64 77 68 78 65 79 67 80 66 81 53 82 54 83 58 84 55 85 57 86
REMARK SMILES IDX 56 87
REMARK H PARENT 22 7 29 36 73 55 51 66
REMARK Flexibility Score: inf
ROOT
ATOM      1  C   UNL     1      -6.776  -1.510  -5.526  1.00  0.00     0.002 C 
ENDROOT
BRANCH   1   2
ATOM      2  C   UNL     1      -5.274  -1.637  -5.818  1.00  0.00     0.021 C 
BRANCH   2   3
ATOM      3  C   UNL     1      -4.505  -2.336  -4.694  1.00  0.00     0.116 C 
BRANCH   3   4
ATOM      4  N   UNL     1      -4.581  -3.772  -4.855  1.00  0.00    -0.351 N 
ATOM      5  C   UNL     1      -3.725  -4.736  -5.334  1.00  0.00     0.269 C 
ATOM      6  O   UNL     1      -4.168  -5.888  -5.319  1.00  0.00    -0.268 OA
ATOM      7  H   UNL     1      -5.441  -4.144  -4.552  1.00  0.00     0.163 HD
BRANCH   5   8
ATOM      8  C   UNL     1      -2.320  -4.481  -5.822  1.00  0.00     0.128 A 
ATOM      9  C   UNL     1       0.367  -4.255  -6.495  1.00  0.00     0.019 A 
ATOM     10  C   UNL     1      -0.447  -3.122  -6.442  1.00  0.00     0.014 A 
ATOM     11  C   UNL     1      -0.258  -5.474  -6.287  1.00  0.00     0.122 A 
ATOM     12  C   UNL     1      -1.803  -3.236  -6.139  1.00  0.00     0.035 A 
ATOM     13  N   UNL     1      -1.558  -5.606  -5.929  1.00  0.00    -0.250 NA
BRANCH   9  14
ATOM     14  C   UNL     1       1.808  -4.134  -6.726  1.00  0.00     0.080 A 
ATOM     15  C   UNL     1       2.670  -3.495  -5.803  1.00  0.00     0.010 A 
ATOM     16  C   UNL     1       3.989  -3.262  -6.223  1.00  0.00     0.033 A 
ATOM     17  C   UNL     1       4.402  -3.673  -7.487  1.00  0.00     0.060 A 
ATOM     18  N   UNL     1       2.212  -4.574  -7.946  1.00  0.00    -0.254 NA
ATOM     19  Cl  UNL     1       5.996  -3.349  -8.032  1.00  0.00    -0.083 Cl
ATOM     20  C   UNL     1       3.495  -4.334  -8.298  1.00  0.00     0.132 A 
BRANCH  15  21
ATOM     21  C   UNL     1       2.217  -3.057  -4.466  1.00  0.00    -0.016 A 
ATOM     22  C   UNL     1       1.159  -2.194  -2.000  1.00  0.00     0.067 A 
ATOM     23  C   UNL     1       1.145  -3.551  -2.329  1.00  0.00     0.021 A 
ATOM     24  C   UNL     1       1.728  -1.266  -2.872  1.00  0.00     0.021 A 
ATOM     25  C   UNL     1       1.677  -3.976  -3.549  1.00  0.00     0.010 A 
ATOM     26  C   UNL     1       2.255  -1.700  -4.096  1.00  0.00     0.010 A 
BRANCH  22  27
ATOM     27  S   UNL     1       0.420  -1.713  -0.457  1.00  0.00     0.175 S 
ATOM     28  C   UNL     1       1.092  -0.135  -0.022  1.00  0.00     0.163 C 
ATOM     29  O   UNL     1       0.891  -2.660   0.540  1.00  0.00    -0.224 OA
ATOM     30  O   UNL     1      -0.993  -1.537  -0.722  1.00  0.00    -0.224 OA
ENDBRANCH  22  27
ENDBRANCH  15  21
ENDBRANCH   9  14
ENDBRANCH   5   8
ENDBRANCH   3   4
ENDBRANCH   2   3
ENDBRANCH   1   2
BRANCH   1  31
ATOM     31  C   UNL     1      -7.117  -0.729  -4.249  1.00  0.00     0.002 C 
BRANCH  31  32
ATOM     32  C   UNL     1      -6.470   0.655  -4.155  1.00  0.00     0.021 C 
BRANCH  32  33
ATOM     33  C   UNL     1      -6.891   1.607  -5.268  1.00  0.00     0.116 C 
BRANCH  33  34
ATOM     34  N   UNL     1      -8.321   1.872  -5.228  1.00  0.00    -0.352 N 
ATOM     35  C   UNL     1      -8.978   3.065  -5.073  1.00  0.00     0.251 C 
ATOM     36  H   UNL     1      -8.899   1.082  -5.326  1.00  0.00     0.163 HD
ATOM     37  O   UNL     1     -10.173   3.083  -4.796  1.00  0.00    -0.269 OA
BRANCH  35  38
ATOM     38  C   UNL     1      -8.239   4.331  -5.239  1.00  0.00     0.039 A 
ATOM     39  C   UNL     1      -8.466   5.373  -4.337  1.00  0.00     0.014 A 
ATOM     40  C   UNL     1      -7.338   4.494  -6.296  1.00  0.00     0.014 A 
ATOM     41  C   UNL     1      -7.752   6.564  -4.469  1.00  0.00     0.010 A 
ATOM     42  C   UNL     1      -6.571   5.650  -6.378  1.00  0.00     0.010 A 
ATOM     43  C   UNL     1      -6.778   6.701  -5.472  1.00  0.00    -0.014 A 
BRANCH  43  44
ATOM     44  C   UNL     1      -5.974   7.941  -5.598  1.00  0.00     0.031 A 
ATOM     45  C   UNL     1      -6.086   8.791  -6.833  1.00  0.00     0.074 A 
ATOM     46  C   UNL     1      -5.103   8.270  -4.624  1.00  0.00     0.049 A 
ATOM     47  N   UNL     1      -5.427   9.877  -7.149  1.00  0.00    -0.248 NA
ATOM     48  C   UNL     1      -7.047   8.352  -7.859  1.00  0.00     0.031 C 
ATOM     49  C   UNL     1      -4.880   7.509  -3.392  1.00  0.00     0.029 A 
ATOM     50  N   UNL     1      -4.240   9.331  -4.519  1.00  0.00    -0.354 N 
ATOM     51  C   UNL     1      -5.884  10.241  -8.410  1.00  0.00     0.074 A 
ATOM     52  C   UNL     1      -6.832   9.232  -8.825  1.00  0.00     0.031 C 
ATOM     53  C   UNL     1      -3.965   8.145  -2.643  1.00  0.00     0.029 A 
ATOM     54  C   UNL     1      -3.504   9.329  -3.360  1.00  0.00     0.049 A 
ATOM     55  H   UNL     1      -4.157  10.028  -5.210  1.00  0.00     0.167 HD
ATOM     56  C   UNL     1      -5.559  11.330  -9.147  1.00  0.00     0.031 A 
ATOM     57  C   UNL     1      -2.556  10.182  -2.926  1.00  0.00     0.031 A 
ATOM     58  C   UNL     1      -4.620  12.335  -8.729  1.00  0.00     0.049 A 
ATOM     59  C   UNL     1      -2.191  11.365  -3.780  1.00  0.00     0.074 A 
ATOM     60  C   UNL     1      -4.257  13.500  -9.383  1.00  0.00     0.029 A 
ATOM     61  N   UNL     1      -3.891  12.294  -7.550  1.00  0.00    -0.354 N 
ATOM     62  N   UNL     1      -2.678  11.728  -4.942  1.00  0.00    -0.248 NA
ATOM     63  C   UNL     1      -1.150  12.261  -3.256  1.00  0.00     0.031 C 
ATOM     64  C   UNL     1      -3.264  14.132  -8.629  1.00  0.00     0.029 A 
ATOM     65  C   UNL     1      -3.059  13.398  -7.472  1.00  0.00     0.049 A 
ATOM     66  H   UNL     1      -3.956  11.585  -6.870  1.00  0.00     0.167 HD
ATOM     67  C   UNL     1      -2.029  12.912  -5.271  1.00  0.00     0.074 A 
ATOM     68  C   UNL     1      -1.126  13.212  -4.178  1.00  0.00     0.031 C 
ATOM     69  C   UNL     1      -2.168  13.682  -6.377  1.00  0.00     0.031 A 
BRANCH  56  70
ATOM     70  C   UNL     1      -6.222  11.484 -10.489  1.00  0.00    -0.014 A 
ATOM     71  C   UNL     1      -7.593  11.768 -10.597  1.00  0.00     0.009 A 
ATOM     72  C   UNL     1      -5.456  11.387 -11.661  1.00  0.00     0.009 A 
ATOM     73  C   UNL     1      -8.189  11.915 -11.851  1.00  0.00     0.001 A 
ATOM     74  C   UNL     1      -6.048  11.568 -12.912  1.00  0.00     0.001 A 
ATOM     75  C   UNL     1      -7.415  11.822 -13.007  1.00  0.00     0.000 A 
ENDBRANCH  56  70
BRANCH  57  76
ATOM     76  C   UNL     1      -1.886   9.955  -1.618  1.00  0.00    -0.014 A 
ATOM     77  C   UNL     1      -2.096  10.837  -0.546  1.00  0.00     0.009 A 
ATOM     78  C   UNL     1      -1.016   8.868  -1.440  1.00  0.00     0.009 A 
ATOM     79  C   UNL     1      -1.421  10.655   0.664  1.00  0.00     0.001 A 
ATOM     80  C   UNL     1      -0.369   8.669  -0.218  1.00  0.00     0.001 A 
ATOM     81  C   UNL     1      -0.562   9.570   0.828  1.00  0.00     0.000 A 
ENDBRANCH  57  76
BRANCH  69  82
ATOM     82  C   UNL     1      -1.357  14.947  -6.442  1.00  0.00    -0.014 A 
ATOM     83  C   UNL     1       0.035  14.917  -6.624  1.00  0.00     0.009 A 
ATOM     84  C   UNL     1      -2.006  16.189  -6.361  1.00  0.00     0.009 A 
ATOM     85  C   UNL     1       0.763  16.107  -6.685  1.00  0.00     0.001 A 
ATOM     86  C   UNL     1      -1.279  17.376  -6.457  1.00  0.00     0.001 A 
ATOM     87  C   UNL     1       0.105  17.334  -6.608  1.00  0.00     0.000 A 
ENDBRANCH  69  82
ENDBRANCH  43  44
ENDBRANCH  35  38
ENDBRANCH  33  34
ENDBRANCH  32  33
ENDBRANCH  31  32
ENDBRANCH   1  31
TORSDOF 16
