REMARK SMILES C[C@@H]1C[N@@H+](Cc2cccc(C(=O)NCCCCCCNC(=O)c3ccc(-c4c5nc(c(-c6ccccc6)c6ccc([nH]6)c(-c6ccccc6)c6nc(c(-c7ccccc7)c7ccc4[nH]7)C=C6)C=C5)cc3)c2)CCN1C(=O)OC(C)(C)C
REMARK SMILES IDX 15 1 14 2 13 3 11 4 12 5 10 7 6 8 7 9 71 10 8 11 9 12 5 13
REMARK SMILES IDX 4 14 1 15 2 16 3 17 74 18 73 19 72 20 75 22 76 23 77 24
REMARK SMILES IDX 78 25 79 26 80 27 81 28 16 29 17 30 18 31 19 32 20 33 21 34
REMARK SMILES IDX 22 36 23 37 24 38 70 39 25 40 69 41 26 42 27 43 28 44 63 45
REMARK SMILES IDX 29 46 68 47 62 48 64 49 30 50 67 51 61 52 60 53 31 55 53 56
REMARK SMILES IDX 38 57 52 58 39 59 42 60 51 61 65 62 40 63 41 64 50 66 66 67
REMARK SMILES IDX 43 68 32 69 33 70 37 71 34 72 36 73 35 74 54 75 55 76 59 77
REMARK SMILES IDX 56 78 58 79 57 80 44 81 45 82 49 83 46 84 48 85 47 86
REMARK H PARENT 13 6 4 21 20 35 64 54 42 65
REMARK Flexibility Score: inf
ROOT
ATOM      1  C   UNL     1       5.375  -0.276  -5.959  1.00  0.00     0.021 C 
ENDROOT
BRANCH   1   2
ATOM      2  C   UNL     1       3.870  -0.171  -6.199  1.00  0.00     0.116 C 
BRANCH   2   3
ATOM      3  N   UNL     1       3.465  -0.966  -7.336  1.00  0.00    -0.352 N 
ATOM      4  C   UNL     1       2.784  -2.152  -7.451  1.00  0.00     0.251 C 
ATOM      5  O   UNL     1       2.542  -2.546  -8.593  1.00  0.00    -0.269 OA
ATOM      6  H   UNL     1       3.732  -0.580  -8.201  1.00  0.00     0.163 HD
BRANCH   4   7
ATOM      7  C   UNL     1       2.257  -2.935  -6.290  1.00  0.00     0.040 A 
ATOM      8  C   UNL     1       2.065  -3.459  -3.907  1.00  0.00     0.007 A 
ATOM      9  C   UNL     1       0.951  -4.262  -4.180  1.00  0.00     0.009 A 
ATOM     10  C   UNL     1       2.773  -2.899  -4.991  1.00  0.00     0.023 A 
ATOM     11  C   UNL     1       0.511  -4.432  -5.491  1.00  0.00     0.001 A 
ATOM     12  C   UNL     1       1.136  -3.742  -6.532  1.00  0.00     0.014 A 
BRANCH   8  13
ATOM     13  C   UNL     1       2.455  -3.146  -2.469  1.00  0.00     0.299 C 
BRANCH  13  14
ATOM     14  N   UNL     1       2.094  -1.803  -1.950  1.00  0.00    -0.328 N 
ATOM     15  C   UNL     1       0.514   0.019   0.111  1.00  0.00     0.037 C 
ATOM     16  C   UNL     1       0.261  -0.116  -1.394  1.00  0.00     0.140 C 
ATOM     17  C   UNL     1       0.632  -1.549  -1.910  1.00  0.00     0.287 C 
ATOM     18  N   UNL     1       1.025   0.902  -2.142  1.00  0.00    -0.294 N 
ATOM     19  C   UNL     1       2.468   0.687  -2.155  1.00  0.00     0.185 C 
ATOM     20  C   UNL     1       2.759  -0.717  -2.692  1.00  0.00     0.284 C 
ATOM     21  H   UNL     1       2.434  -1.806  -0.988  1.00  0.00     0.348 HD
BRANCH  18  22
ATOM     22  C   UNL     1       0.485   1.858  -2.986  1.00  0.00     0.410 C 
ATOM     23  O   UNL     1       1.173   2.570  -3.705  1.00  0.00    -0.224 OA
BRANCH  22  24
ATOM     24  O   UNL     1      -0.873   1.920  -2.929  1.00  0.00    -0.444 OA
BRANCH  24  25
ATOM     25  C   UNL     1      -1.592   2.912  -3.717  1.00  0.00     0.106 C 
ATOM     26  C   UNL     1      -1.204   4.340  -3.310  1.00  0.00     0.056 C 
ATOM     27  C   UNL     1      -1.415   2.683  -5.224  1.00  0.00     0.056 C 
ATOM     28  C   UNL     1      -3.076   2.702  -3.373  1.00  0.00     0.056 C 
ENDBRANCH  24  25
ENDBRANCH  22  24
ENDBRANCH  18  22
ENDBRANCH  13  14
ENDBRANCH   8  13
ENDBRANCH   4   7
ENDBRANCH   2   3
ENDBRANCH   1   2
BRANCH   1  29
ATOM     29  C   UNL     1       6.159   0.811  -6.699  1.00  0.00     0.002 C 
BRANCH  29  30
ATOM     30  C   UNL     1       5.857   2.240  -6.226  1.00  0.00     0.002 C 
BRANCH  30  31
ATOM     31  C   UNL     1       6.101   2.494  -4.737  1.00  0.00     0.021 C 
BRANCH  31  32
ATOM     32  C   UNL     1       7.537   2.244  -4.290  1.00  0.00     0.116 C 
BRANCH  32  33
ATOM     33  N   UNL     1       8.478   3.094  -5.005  1.00  0.00    -0.352 N 
ATOM     34  C   UNL     1       9.377   4.005  -4.515  1.00  0.00     0.251 C 
ATOM     35  H   UNL     1       8.468   3.000  -5.984  1.00  0.00     0.163 HD
ATOM     36  O   UNL     1       9.917   4.809  -5.268  1.00  0.00    -0.269 OA
BRANCH  34  37
ATOM     37  C   UNL     1       9.690   4.020  -3.072  1.00  0.00     0.039 A 
ATOM     38  C   UNL     1       9.784   5.247  -2.412  1.00  0.00     0.014 A 
ATOM     39  C   UNL     1       9.906   2.826  -2.380  1.00  0.00     0.014 A 
ATOM     40  C   UNL     1      10.044   5.272  -1.042  1.00  0.00     0.010 A 
ATOM     41  C   UNL     1      10.086   2.850  -1.001  1.00  0.00     0.010 A 
ATOM     42  C   UNL     1      10.165   4.073  -0.320  1.00  0.00    -0.014 A 
BRANCH  42  43
ATOM     43  C   UNL     1      10.377   4.080   1.148  1.00  0.00     0.031 A 
ATOM     44  C   UNL     1      11.640   3.513   1.734  1.00  0.00     0.074 A 
ATOM     45  C   UNL     1       9.405   4.545   1.956  1.00  0.00     0.049 A 
ATOM     46  N   UNL     1      11.983   3.389   2.992  1.00  0.00    -0.248 NA
ATOM     47  C   UNL     1      12.640   2.995   0.786  1.00  0.00     0.031 C 
ATOM     48  C   UNL     1       8.119   5.088   1.511  1.00  0.00     0.029 A 
ATOM     49  N   UNL     1       9.346   4.633   3.324  1.00  0.00    -0.354 N 
ATOM     50  C   UNL     1      13.226   2.769   2.984  1.00  0.00     0.074 A 
ATOM     51  C   UNL     1      13.553   2.492   1.603  1.00  0.00     0.031 C 
ATOM     52  C   UNL     1       7.414   5.482   2.584  1.00  0.00     0.029 A 
ATOM     53  C   UNL     1       8.174   5.177   3.791  1.00  0.00     0.049 A 
ATOM     54  H   UNL     1      10.075   4.335   3.915  1.00  0.00     0.167 HD
ATOM     55  C   UNL     1      14.034   2.476   4.031  1.00  0.00     0.031 A 
ATOM     56  C   UNL     1       7.755   5.398   5.051  1.00  0.00     0.031 A 
ATOM     57  C   UNL     1      13.707   2.754   5.404  1.00  0.00     0.049 A 
ATOM     58  C   UNL     1       8.657   5.033   6.197  1.00  0.00     0.074 A 
ATOM     59  C   UNL     1      14.478   2.541   6.533  1.00  0.00     0.029 A 
ATOM     60  N   UNL     1      12.508   3.300   5.835  1.00  0.00    -0.354 N 
ATOM     61  N   UNL     1       9.860   4.512   6.170  1.00  0.00    -0.248 NA
ATOM     62  C   UNL     1       8.146   5.299   7.549  1.00  0.00     0.031 C 
ATOM     63  C   UNL     1      13.721   2.898   7.653  1.00  0.00     0.029 A 
ATOM     64  C   UNL     1      12.505   3.401   7.216  1.00  0.00     0.049 A 
ATOM     65  H   UNL     1      11.767   3.574   5.247  1.00  0.00     0.167 HD
ATOM     66  C   UNL     1      10.261   4.417   7.496  1.00  0.00     0.074 A 
ATOM     67  C   UNL     1       9.181   4.951   8.300  1.00  0.00     0.031 C 
ATOM     68  C   UNL     1      11.422   3.933   8.003  1.00  0.00     0.031 A 
BRANCH  55  69
ATOM     69  C   UNL     1      15.347   1.806   3.728  1.00  0.00    -0.014 A 
ATOM     70  C   UNL     1      16.377   2.486   3.058  1.00  0.00     0.009 A 
ATOM     71  C   UNL     1      15.572   0.487   4.152  1.00  0.00     0.009 A 
ATOM     72  C   UNL     1      17.587   1.846   2.783  1.00  0.00     0.001 A 
ATOM     73  C   UNL     1      16.795  -0.139   3.905  1.00  0.00     0.001 A 
ATOM     74  C   UNL     1      17.797   0.537   3.212  1.00  0.00     0.000 A 
ENDBRANCH  55  69
BRANCH  56  75
ATOM     75  C   UNL     1       6.419   6.004   5.298  1.00  0.00    -0.014 A 
ATOM     76  C   UNL     1       6.309   7.298   5.830  1.00  0.00     0.009 A 
ATOM     77  C   UNL     1       5.246   5.287   5.012  1.00  0.00     0.009 A 
ATOM     78  C   UNL     1       5.054   7.848   6.101  1.00  0.00     0.001 A 
ATOM     79  C   UNL     1       3.992   5.853   5.253  1.00  0.00     0.001 A 
ATOM     80  C   UNL     1       3.897   7.128   5.808  1.00  0.00     0.000 A 
ENDBRANCH  56  75
BRANCH  68  81
ATOM     81  C   UNL     1      11.600   3.995   9.495  1.00  0.00    -0.014 A 
ATOM     82  C   UNL     1      10.862   3.170  10.358  1.00  0.00     0.009 A 
ATOM     83  C   UNL     1      12.555   4.868  10.041  1.00  0.00     0.009 A 
ATOM     84  C   UNL     1      11.050   3.246  11.739  1.00  0.00     0.001 A 
ATOM     85  C   UNL     1      12.765   4.917  11.420  1.00  0.00     0.001 A 
ATOM     86  C   UNL     1      12.005   4.114  12.268  1.00  0.00     0.000 A 
ENDBRANCH  68  81
ENDBRANCH  42  43
ENDBRANCH  34  37
ENDBRANCH  32  33
ENDBRANCH  31  32
ENDBRANCH  30  31
ENDBRANCH  29  30
ENDBRANCH   1  29
TORSDOF 18
