REMARK SMILES Cc1cc(C)n(-c2nc(C)c(C)c(Oc3cccc(C(=O)NCCCCCCNC(=O)c4ccc(-c5c6nc(c(-c7ccccc7)c7ccc([nH]7)c(-c7ccccc7)c7nc(c(-c8ccccc8)c8ccc5[nH]8)C=C7)C=C6)cc4)c3)n2)n1
REMARK SMILES IDX 25 1 24 2 23 3 22 4 20 5 21 6 19 8 15 9 16 10 80 11 17 12
REMARK SMILES IDX 18 13 14 14 13 15 7 16 8 17 81 18 9 19 10 20 11 21 12 22
REMARK SMILES IDX 6 23 1 24 2 25 3 26 82 27 4 28 5 29 26 30 27 31 28 32 29 33
REMARK SMILES IDX 30 34 31 36 32 37 33 38 79 39 34 40 78 41 35 42 36 43 37 44
REMARK SMILES IDX 72 45 38 46 77 47 71 48 73 49 39 50 76 51 70 52 69 53 40 55
REMARK SMILES IDX 62 56 47 57 61 58 48 59 51 60 60 61 74 62 49 63 50 64 59 66
REMARK SMILES IDX 75 67 52 68 41 69 42 70 46 71 43 72 45 73 44 74 63 75 64 76
REMARK SMILES IDX 68 77 65 78 67 79 66 80 53 81 54 82 58 83 55 84 57 85 56 86
REMARK H PARENT 22 7 29 35 73 54 51 65
REMARK Flexibility Score: inf
ROOT
ATOM      1  C   UNL     1      -5.335   5.531  -2.050  1.00  0.00     0.002 C 
ENDROOT
BRANCH   1   2
ATOM      2  C   UNL     1      -3.891   6.046  -2.144  1.00  0.00     0.021 C 
BRANCH   2   3
ATOM      3  C   UNL     1      -2.893   4.939  -2.495  1.00  0.00     0.116 C 
BRANCH   3   4
ATOM      4  N   UNL     1      -2.893   4.726  -3.925  1.00  0.00    -0.352 N 
ATOM      5  C   UNL     1      -2.048   5.078  -4.942  1.00  0.00     0.251 C 
ATOM      6  O   UNL     1      -2.421   4.791  -6.082  1.00  0.00    -0.269 OA
ATOM      7  H   UNL     1      -3.674   4.213  -4.236  1.00  0.00     0.163 HD
BRANCH   5   8
ATOM      8  C   UNL     1      -0.710   5.715  -4.760  1.00  0.00     0.043 A 
ATOM      9  C   UNL     1       1.076   6.758  -3.493  1.00  0.00     0.130 A 
ATOM     10  C   UNL     1       1.927   6.680  -4.594  1.00  0.00     0.047 A 
ATOM     11  C   UNL     1      -0.262   6.368  -3.609  1.00  0.00     0.061 A 
ATOM     12  C   UNL     1       1.466   6.135  -5.787  1.00  0.00     0.005 A 
ATOM     13  C   UNL     1       0.166   5.632  -5.857  1.00  0.00     0.014 A 
BRANCH   9  14
ATOM     14  O   UNL     1       1.591   7.336  -2.358  1.00  0.00    -0.439 OA
BRANCH  14  15
ATOM     15  C   UNL     1       1.354   6.739  -1.116  1.00  0.00     0.227 A 
ATOM     16  C   UNL     1       0.787   4.946   0.189  1.00  0.00     0.254 A 
ATOM     17  N   UNL     1       0.898   5.681   1.319  1.00  0.00    -0.216 NA
ATOM     18  N   UNL     1       1.036   5.427  -1.046  1.00  0.00    -0.175 NA
ATOM     19  C   UNL     1       1.342   6.950   1.216  1.00  0.00     0.050 A 
ATOM     20  C   UNL     1       1.703   7.590   2.526  1.00  0.00     0.067 C 
ATOM     21  C   UNL     1       1.534   7.562  -0.010  1.00  0.00     0.033 A 
ATOM     22  C   UNL     1       1.937   8.999  -0.134  1.00  0.00     0.052 C 
BRANCH  16  23
ATOM     23  N   UNL     1       0.390   3.569   0.362  1.00  0.00    -0.203 N 
ATOM     24  C   UNL     1       1.024   0.117  -0.249  1.00  0.00     0.069 C 
ATOM     25  C   UNL     1       0.523   1.437   0.206  1.00  0.00     0.060 A 
ATOM     26  C   UNL     1      -0.336   1.690   1.292  1.00  0.00     0.049 A 
ATOM     27  N   UNL     1       0.865   2.564  -0.432  1.00  0.00    -0.170 NA
ATOM     28  C   UNL     1      -0.438   3.061   1.363  1.00  0.00     0.045 A 
ATOM     29  C   UNL     1      -1.269   3.904   2.258  1.00  0.00     0.067 C 
ENDBRANCH  16  23
ENDBRANCH  14  15
ENDBRANCH   9  14
ENDBRANCH   5   8
ENDBRANCH   3   4
ENDBRANCH   2   3
ENDBRANCH   1   2
BRANCH   1  30
ATOM     30  C   UNL     1      -5.551   4.385  -1.045  1.00  0.00     0.002 C 
BRANCH  30  31
ATOM     31  C   UNL     1      -4.988   4.630   0.362  1.00  0.00     0.021 C 
BRANCH  31  32
ATOM     32  C   UNL     1      -5.750   5.709   1.109  1.00  0.00     0.116 C 
BRANCH  32  33
ATOM     33  N   UNL     1      -7.103   5.273   1.448  1.00  0.00    -0.352 N 
ATOM     34  C   UNL     1      -8.038   5.931   2.209  1.00  0.00     0.251 C 
ATOM     35  H   UNL     1      -7.379   4.399   1.086  1.00  0.00     0.163 HD
ATOM     36  O   UNL     1      -8.994   5.332   2.704  1.00  0.00    -0.269 OA
BRANCH  34  37
ATOM     37  C   UNL     1      -7.885   7.376   2.411  1.00  0.00     0.039 A 
ATOM     38  C   UNL     1      -8.123   7.963   3.656  1.00  0.00     0.014 A 
ATOM     39  C   UNL     1      -7.479   8.142   1.318  1.00  0.00     0.014 A 
ATOM     40  C   UNL     1      -7.890   9.326   3.804  1.00  0.00     0.010 A 
ATOM     41  C   UNL     1      -7.111   9.447   1.502  1.00  0.00     0.010 A 
ATOM     42  C   UNL     1      -7.374  10.056   2.722  1.00  0.00    -0.014 A 
BRANCH  42  43
ATOM     43  C   UNL     1      -6.995  11.451   2.875  1.00  0.00     0.031 A 
ATOM     44  C   UNL     1      -5.982  11.703   3.934  1.00  0.00     0.074 A 
ATOM     45  C   UNL     1      -7.365  12.402   1.991  1.00  0.00     0.049 A 
ATOM     46  N   UNL     1      -6.146  12.380   5.020  1.00  0.00    -0.248 NA
ATOM     47  C   UNL     1      -4.678  11.024   3.847  1.00  0.00     0.031 C 
ATOM     48  C   UNL     1      -8.112  12.251   0.736  1.00  0.00     0.029 A 
ATOM     49  N   UNL     1      -7.034  13.718   1.976  1.00  0.00    -0.354 N 
ATOM     50  C   UNL     1      -4.920  12.371   5.676  1.00  0.00     0.074 A 
ATOM     51  C   UNL     1      -4.102  11.402   4.991  1.00  0.00     0.031 C 
ATOM     52  C   UNL     1      -7.954  13.361  -0.022  1.00  0.00     0.029 A 
ATOM     53  C   UNL     1      -7.248  14.358   0.761  1.00  0.00     0.049 A 
ATOM     54  H   UNL     1      -6.670  14.183   2.764  1.00  0.00     0.167 HD
ATOM     55  C   UNL     1      -4.606  13.325   6.596  1.00  0.00     0.031 A 
ATOM     56  C   UNL     1      -6.842  15.607   0.424  1.00  0.00     0.031 A 
ATOM     57  C   UNL     1      -5.771  14.066   7.007  1.00  0.00     0.049 A 
ATOM     58  C   UNL     1      -6.589  16.335   1.690  1.00  0.00     0.074 A 
ATOM     59  C   UNL     1      -6.959  13.735   7.626  1.00  0.00     0.029 A 
ATOM     60  N   UNL     1      -5.986  15.281   6.397  1.00  0.00    -0.354 N 
ATOM     61  N   UNL     1      -7.534  16.644   2.531  1.00  0.00    -0.248 NA
ATOM     62  C   UNL     1      -5.246  16.285   2.247  1.00  0.00     0.031 C 
ATOM     63  C   UNL     1      -7.949  14.499   6.941  1.00  0.00     0.029 A 
ATOM     64  C   UNL     1      -7.301  15.315   6.011  1.00  0.00     0.049 A 
ATOM     65  H   UNL     1      -5.320  15.993   6.264  1.00  0.00     0.167 HD
ATOM     66  C   UNL     1      -6.992  16.378   3.779  1.00  0.00     0.074 A 
ATOM     67  C   UNL     1      -5.551  16.250   3.548  1.00  0.00     0.031 C 
ATOM     68  C   UNL     1      -7.780  15.991   4.825  1.00  0.00     0.031 A 
BRANCH  55  69
ATOM     69  C   UNL     1      -3.215  13.851   6.823  1.00  0.00    -0.014 A 
ATOM     70  C   UNL     1      -3.010  14.798   7.843  1.00  0.00     0.009 A 
ATOM     71  C   UNL     1      -2.166  13.674   5.902  1.00  0.00     0.009 A 
ATOM     72  C   UNL     1      -1.849  15.578   7.891  1.00  0.00     0.001 A 
ATOM     73  C   UNL     1      -0.989  14.423   5.969  1.00  0.00     0.001 A 
ATOM     74  C   UNL     1      -0.843  15.396   6.948  1.00  0.00     0.000 A 
ENDBRANCH  55  69
BRANCH  56  75
ATOM     75  C   UNL     1      -6.379  16.122  -0.885  1.00  0.00    -0.014 A 
ATOM     76  C   UNL     1      -6.251  17.503  -1.107  1.00  0.00     0.009 A 
ATOM     77  C   UNL     1      -5.780  15.254  -1.817  1.00  0.00     0.009 A 
ATOM     78  C   UNL     1      -5.509  17.996  -2.190  1.00  0.00     0.001 A 
ATOM     79  C   UNL     1      -5.040  15.746  -2.899  1.00  0.00     0.001 A 
ATOM     80  C   UNL     1      -4.889  17.118  -3.075  1.00  0.00     0.000 A 
ENDBRANCH  56  75
BRANCH  68  81
ATOM     81  C   UNL     1      -9.280  16.029   4.643  1.00  0.00    -0.014 A 
ATOM     82  C   UNL     1      -9.961  15.245   3.692  1.00  0.00     0.009 A 
ATOM     83  C   UNL     1     -10.041  16.733   5.586  1.00  0.00     0.009 A 
ATOM     84  C   UNL     1     -11.360  15.182   3.681  1.00  0.00     0.001 A 
ATOM     85  C   UNL     1     -11.436  16.654   5.588  1.00  0.00     0.001 A 
ATOM     86  C   UNL     1     -12.095  15.881   4.635  1.00  0.00     0.000 A 
ENDBRANCH  68  81
ENDBRANCH  42  43
ENDBRANCH  34  37
ENDBRANCH  32  33
ENDBRANCH  31  32
ENDBRANCH  30  31
ENDBRANCH   1  30
TORSDOF 16
