REMARK SMILES O=C(NCCCCCCNC(=O)[C@H]1c2[nH]cnc2CC[N@H+]1Cc1ccoc1)c1ccc(-c2c3nc(c(-c4ccccc4)c4ccc([nH]4)c(-c4ccccc4)c4nc(c(-c5ccccc5)c5ccc2[nH]5)C=C4)C=C3)cc1
REMARK SMILES IDX 6 1 5 2 4 3 3 4 1 5 2 6 28 8 29 9 75 10 30 11 74 12 31 13
REMARK SMILES IDX 32 14 33 15 68 16 34 17 73 18 67 19 69 20 35 21 72 22 66 23
REMARK SMILES IDX 65 24 36 26 58 27 43 28 57 29 44 30 47 31 56 32 70 33 45 34
REMARK SMILES IDX 46 35 55 37 71 38 48 39 37 40 38 41 42 42 39 43 41 44 40 45
REMARK SMILES IDX 59 46 60 47 64 48 61 49 63 50 62 51 49 52 50 53 54 54 51 55
REMARK SMILES IDX 53 56 52 57 7 58 8 59 9 60 10 61 11 62 12 64 13 65 14 66
REMARK SMILES IDX 21 67 15 68 18 69 20 70 16 72 17 74 19 75 22 76 23 77 24 78
REMARK SMILES IDX 27 79 25 80 26 81
REMARK H PARENT 3 7 69 25 47 36 10 63 21 71 15 73
REMARK Flexibility Score: inf
ROOT
ATOM      1  C   UNL     1       4.084  -0.055  -3.591  1.00  0.00     0.002 C 
ENDROOT
BRANCH   1   2
ATOM      2  C   UNL     1       4.689  -0.487  -2.250  1.00  0.00     0.021 C 
BRANCH   2   3
ATOM      3  C   UNL     1       4.724   0.615  -1.189  1.00  0.00     0.116 C 
BRANCH   3   4
ATOM      4  N   UNL     1       3.421   1.125  -0.816  1.00  0.00    -0.352 N 
ATOM      5  O   UNL     1       1.394   1.331   0.069  1.00  0.00    -0.269 OA
ATOM      6  C   UNL     1       2.388   0.617  -0.082  1.00  0.00     0.251 C 
ATOM      7  H   UNL     1       3.243   2.028  -1.165  1.00  0.00     0.163 HD
BRANCH   6   8
ATOM      8  C   UNL     1       2.371  -0.760   0.470  1.00  0.00     0.039 A 
ATOM      9  C   UNL     1       3.507  -1.524   0.749  1.00  0.00     0.014 A 
ATOM     10  C   UNL     1       1.105  -1.310   0.721  1.00  0.00     0.014 A 
ATOM     11  C   UNL     1       3.391  -2.850   1.141  1.00  0.00     0.010 A 
ATOM     12  C   UNL     1       0.982  -2.618   1.169  1.00  0.00     0.010 A 
ATOM     13  C   UNL     1       2.127  -3.402   1.328  1.00  0.00    -0.014 A 
BRANCH  13  14
ATOM     14  C   UNL     1       2.043  -4.782   1.799  1.00  0.00     0.031 A 
ATOM     15  C   UNL     1       2.562  -5.055   3.176  1.00  0.00     0.074 A 
ATOM     16  C   UNL     1       1.345  -5.708   1.113  1.00  0.00     0.049 A 
ATOM     17  N   UNL     1       3.288  -6.045   3.595  1.00  0.00    -0.248 NA
ATOM     18  C   UNL     1       2.242  -4.067   4.223  1.00  0.00     0.031 C 
ATOM     19  C   UNL     1       0.532  -5.496  -0.089  1.00  0.00     0.029 A 
ATOM     20  N   UNL     1       1.076  -7.001   1.451  1.00  0.00    -0.354 N 
ATOM     21  C   UNL     1       3.396  -5.888   4.978  1.00  0.00     0.074 A 
ATOM     22  C   UNL     1       2.805  -4.614   5.298  1.00  0.00     0.031 C 
ATOM     23  C   UNL     1      -0.337  -6.520  -0.215  1.00  0.00     0.029 A 
ATOM     24  C   UNL     1      -0.050  -7.503   0.816  1.00  0.00     0.049 A 
ATOM     25  H   UNL     1       1.624  -7.524   2.079  1.00  0.00     0.167 HD
ATOM     26  C   UNL     1       3.807  -6.878   5.816  1.00  0.00     0.031 A 
ATOM     27  C   UNL     1      -0.771  -8.589   1.178  1.00  0.00     0.031 A 
ATOM     28  C   UNL     1       4.558  -7.901   5.152  1.00  0.00     0.049 A 
ATOM     29  C   UNL     1       0.053  -9.413   2.088  1.00  0.00     0.074 A 
ATOM     30  C   UNL     1       5.753  -7.948   4.463  1.00  0.00     0.029 A 
ATOM     31  N   UNL     1       3.936  -9.096   4.892  1.00  0.00    -0.354 N 
ATOM     32  N   UNL     1       1.125 -10.053   1.720  1.00  0.00    -0.248 NA
ATOM     33  C   UNL     1      -0.097  -9.223   3.522  1.00  0.00     0.031 C 
ATOM     34  C   UNL     1       5.558  -8.934   3.453  1.00  0.00     0.029 A 
ATOM     35  C   UNL     1       4.263  -9.432   3.605  1.00  0.00     0.049 A 
ATOM     36  H   UNL     1       3.366  -9.611   5.509  1.00  0.00     0.167 HD
ATOM     37  C   UNL     1       1.974  -9.985   2.813  1.00  0.00     0.074 A 
ATOM     38  C   UNL     1       1.125  -9.576   3.928  1.00  0.00     0.031 C 
ATOM     39  C   UNL     1       3.331  -9.995   2.655  1.00  0.00     0.031 A 
BRANCH  26  40
ATOM     40  C   UNL     1       3.233  -7.076   7.197  1.00  0.00    -0.014 A 
ATOM     41  C   UNL     1       3.801  -8.039   8.051  1.00  0.00     0.009 A 
ATOM     42  C   UNL     1       1.984  -6.547   7.579  1.00  0.00     0.009 A 
ATOM     43  C   UNL     1       3.127  -8.485   9.196  1.00  0.00     0.001 A 
ATOM     44  C   UNL     1       1.329  -6.959   8.742  1.00  0.00     0.001 A 
ATOM     45  C   UNL     1       1.890  -7.948   9.538  1.00  0.00     0.000 A 
ENDBRANCH  26  40
BRANCH  27  46
ATOM     46  C   UNL     1      -2.228  -8.777   1.023  1.00  0.00    -0.014 A 
ATOM     47  C   UNL     1      -2.801 -10.054   1.046  1.00  0.00     0.009 A 
ATOM     48  C   UNL     1      -3.094  -7.666   1.075  1.00  0.00     0.009 A 
ATOM     49  C   UNL     1      -4.191 -10.213   1.126  1.00  0.00     0.001 A 
ATOM     50  C   UNL     1      -4.479  -7.823   1.146  1.00  0.00     0.001 A 
ATOM     51  C   UNL     1      -5.028  -9.099   1.182  1.00  0.00     0.000 A 
ENDBRANCH  27  46
BRANCH  39  52
ATOM     52  C   UNL     1       3.877 -10.288   1.280  1.00  0.00    -0.014 A 
ATOM     53  C   UNL     1       3.618  -9.449   0.181  1.00  0.00     0.009 A 
ATOM     54  C   UNL     1       4.808 -11.323   1.121  1.00  0.00     0.009 A 
ATOM     55  C   UNL     1       4.247  -9.659  -1.049  1.00  0.00     0.001 A 
ATOM     56  C   UNL     1       5.452 -11.522  -0.103  1.00  0.00     0.001 A 
ATOM     57  C   UNL     1       5.168 -10.694  -1.188  1.00  0.00     0.000 A 
ENDBRANCH  39  52
ENDBRANCH  13  14
ENDBRANCH   6   8
ENDBRANCH   3   4
ENDBRANCH   2   3
ENDBRANCH   1   2
BRANCH   1  58
ATOM     58  C   UNL     1       4.612   1.274  -4.145  1.00  0.00     0.002 C 
BRANCH  58  59
ATOM     59  C   UNL     1       6.138   1.357  -4.230  1.00  0.00     0.021 C 
BRANCH  59  60
ATOM     60  C   UNL     1       6.708   0.486  -5.340  1.00  0.00     0.116 C 
BRANCH  60  61
ATOM     61  N   UNL     1       6.805   1.248  -6.565  1.00  0.00    -0.351 N 
ATOM     62  C   UNL     1       7.879   1.544  -7.348  1.00  0.00     0.284 C 
ATOM     63  H   UNL     1       5.950   1.614  -6.888  1.00  0.00     0.163 HD
ATOM     64  O   UNL     1       7.685   2.364  -8.257  1.00  0.00    -0.268 OA
BRANCH  62  65
ATOM     65  C   UNL     1       9.285   0.929  -7.159  1.00  0.00     0.324 C 
ATOM     66  C   UNL     1       9.809   1.195  -5.795  1.00  0.00     0.106 A 
ATOM     67  N   UNL     1       9.400  -0.508  -7.500  1.00  0.00    -0.315 N 
ATOM     68  N   UNL     1       9.917   2.397  -5.154  1.00  0.00    -0.343 N 
ATOM     69  C   UNL     1      10.214   0.254  -4.882  1.00  0.00     0.074 A 
ATOM     70  C   UNL     1       9.324  -1.502  -6.422  1.00  0.00     0.270 C 
ATOM     71  H   UNL     1      10.411  -0.535  -7.635  1.00  0.00     0.349 HD
ATOM     72  C   UNL     1      10.320   2.122  -3.872  1.00  0.00     0.197 A 
ATOM     73  H   UNL     1       9.740   3.286  -5.537  1.00  0.00     0.167 HD
ATOM     74  N   UNL     1      10.508   0.832  -3.680  1.00  0.00    -0.241 NA
ATOM     75  C   UNL     1      10.212  -1.198  -5.178  1.00  0.00     0.120 C 
BRANCH  67  76
ATOM     76  C   UNL     1       8.933  -0.919  -8.820  1.00  0.00     0.303 C 
BRANCH  76  77
ATOM     77  C   UNL     1       7.471  -1.225  -8.894  1.00  0.00     0.044 A 
ATOM     78  C   UNL     1       6.428  -0.384  -9.387  1.00  0.00     0.051 A 
ATOM     79  C   UNL     1       6.843  -2.418  -8.588  1.00  0.00     0.204 A 
ATOM     80  C   UNL     1       5.255  -1.089  -9.268  1.00  0.00     0.195 A 
ATOM     81  O   UNL     1       5.503  -2.333  -8.790  1.00  0.00    -0.472 OA
ENDBRANCH  76  77
ENDBRANCH  67  76
ENDBRANCH  62  65
ENDBRANCH  60  61
ENDBRANCH  59  60
ENDBRANCH  58  59
ENDBRANCH   1  58
TORSDOF 15
