REMARK SMILES C[C@H](C(=O)NCCCCCCNC(=O)c1ccc(-c2c3nc(c(-c4ccccc4)c4ccc([nH]4)c(-c4ccccc4)c4nc(c(-c5ccccc5)c5ccc2[nH]5)C=C4)C=C3)cc1)c1ccc2c3cc(Cl)ccc3n(C(=O)c3cocn3)c2c1
REMARK SMILES IDX 8 1 7 2 6 3 5 4 3 5 4 6 2 8 1 9 63 10 64 11 83 12 65 13
REMARK SMILES IDX 82 14 66 15 74 16 67 17 73 18 68 19 72 20 69 21 71 22 70 23
REMARK SMILES IDX 75 24 76 25 77 26 78 27 81 28 79 29 80 30 9 31 10 32 11 33
REMARK SMILES IDX 12 34 13 35 14 37 15 38 16 39 62 40 17 41 61 42 18 43 19 44
REMARK SMILES IDX 20 45 55 46 21 47 60 48 54 49 56 50 22 51 59 52 53 53 52 54
REMARK SMILES IDX 23 56 45 57 30 58 44 59 31 60 34 61 43 62 57 63 32 64 33 65
REMARK SMILES IDX 42 67 58 68 35 69 24 70 25 71 29 72 26 73 28 74 27 75 46 76
REMARK SMILES IDX 47 77 51 78 48 79 50 80 49 81 36 82 37 83 41 84 38 85 40 86
REMARK SMILES IDX 39 87
REMARK H PARENT 5 7 12 36 56 55 34 66
REMARK Flexibility Score: inf
ROOT
ATOM      1  C   UNL     1      -1.228   2.928  -2.222  1.00  0.00     0.002 C 
ENDROOT
BRANCH   1   2
ATOM      2  C   UNL     1      -1.443   1.896  -1.112  1.00  0.00     0.021 C 
BRANCH   2   3
ATOM      3  C   UNL     1      -0.796   0.529  -1.375  1.00  0.00     0.116 C 
BRANCH   3   4
ATOM      4  N   UNL     1       0.601   0.543  -0.980  1.00  0.00    -0.356 N 
ATOM      5  C   UNL     1       1.251   0.199   0.163  1.00  0.00     0.227 C 
ATOM      6  O   UNL     1       2.444   0.536   0.192  1.00  0.00    -0.274 OA
ATOM      7  H   UNL     1       1.203   0.870  -1.688  1.00  0.00     0.163 HD
BRANCH   5   8
ATOM      8  C   UNL     1       0.673  -0.664   1.304  1.00  0.00     0.105 C 
ATOM      9  C   UNL     1       1.412  -0.348   2.612  1.00  0.00     0.023 C 
BRANCH   8  10
ATOM     10  C   UNL     1      -0.825  -0.651   1.552  1.00  0.00    -0.034 A 
ATOM     11  C   UNL     1      -1.522   0.530   1.793  1.00  0.00     0.005 A 
ATOM     12  C   UNL     1      -1.529  -1.871   1.542  1.00  0.00     0.032 A 
ATOM     13  C   UNL     1      -2.921   0.544   1.764  1.00  0.00     0.011 A 
ATOM     14  C   UNL     1      -2.938  -1.865   1.626  1.00  0.00     0.058 A 
ATOM     15  C   UNL     1      -3.633  -0.663   1.614  1.00  0.00     0.008 A 
ATOM     16  N   UNL     1      -3.873  -2.915   1.713  1.00  0.00    -0.274 N 
ATOM     17  C   UNL     1      -4.997  -0.975   1.384  1.00  0.00     0.009 A 
ATOM     18  C   UNL     1      -5.155  -2.360   1.538  1.00  0.00     0.057 A 
ATOM     19  C   UNL     1      -6.114  -0.166   1.076  1.00  0.00     0.031 A 
ATOM     20  C   UNL     1      -6.454  -2.911   1.555  1.00  0.00     0.029 A 
ATOM     21  C   UNL     1      -7.373  -0.746   0.966  1.00  0.00     0.041 A 
ATOM     22  C   UNL     1      -7.548  -2.094   1.237  1.00  0.00     0.023 A 
ATOM     23  Cl  UNL     1      -8.718   0.225   0.510  1.00  0.00    -0.084 Cl
BRANCH  16  24
ATOM     24  C   UNL     1      -3.506  -4.270   1.973  1.00  0.00     0.284 C 
ATOM     25  O   UNL     1      -2.377  -4.439   2.433  1.00  0.00    -0.266 OA
BRANCH  24  26
ATOM     26  C   UNL     1      -4.336  -5.447   1.738  1.00  0.00     0.167 A 
ATOM     27  C   UNL     1      -5.189  -5.718   0.691  1.00  0.00     0.231 A 
ATOM     28  N   UNL     1      -4.243  -6.585   2.530  1.00  0.00    -0.211 NA
ATOM     29  O   UNL     1      -5.662  -6.990   0.834  1.00  0.00    -0.451 OA
ATOM     30  C   UNL     1      -5.035  -7.452   1.949  1.00  0.00     0.308 A 
ENDBRANCH  24  26
ENDBRANCH  16  24
ENDBRANCH   8  10
ENDBRANCH   5   8
ENDBRANCH   3   4
ENDBRANCH   2   3
ENDBRANCH   1   2
BRANCH   1  31
ATOM     31  C   UNL     1      -1.954   2.625  -3.536  1.00  0.00     0.002 C 
BRANCH  31  32
ATOM     32  C   UNL     1      -3.467   2.408  -3.419  1.00  0.00     0.021 C 
BRANCH  32  33
ATOM     33  C   UNL     1      -4.242   3.571  -2.801  1.00  0.00     0.116 C 
BRANCH  33  34
ATOM     34  N   UNL     1      -4.168   4.772  -3.618  1.00  0.00    -0.352 N 
ATOM     35  C   UNL     1      -5.171   5.468  -4.246  1.00  0.00     0.251 C 
ATOM     36  H   UNL     1      -3.263   5.141  -3.739  1.00  0.00     0.163 HD
ATOM     37  O   UNL     1      -4.899   6.338  -5.068  1.00  0.00    -0.269 OA
BRANCH  35  38
ATOM     38  C   UNL     1      -6.586   5.165  -3.944  1.00  0.00     0.039 A 
ATOM     39  C   UNL     1      -7.488   5.018  -5.002  1.00  0.00     0.014 A 
ATOM     40  C   UNL     1      -7.026   5.048  -2.623  1.00  0.00     0.014 A 
ATOM     41  C   UNL     1      -8.819   4.687  -4.737  1.00  0.00     0.010 A 
ATOM     42  C   UNL     1      -8.340   4.664  -2.362  1.00  0.00     0.010 A 
ATOM     43  C   UNL     1      -9.247   4.474  -3.417  1.00  0.00    -0.014 A 
BRANCH  43  44
ATOM     44  C   UNL     1     -10.630   4.028  -3.115  1.00  0.00     0.031 A 
ATOM     45  C   UNL     1     -11.568   4.925  -2.357  1.00  0.00     0.074 A 
ATOM     46  C   UNL     1     -11.009   2.779  -3.445  1.00  0.00     0.049 A 
ATOM     47  N   UNL     1     -12.774   4.670  -1.914  1.00  0.00    -0.248 NA
ATOM     48  C   UNL     1     -11.081   6.276  -2.037  1.00  0.00     0.031 C 
ATOM     49  C   UNL     1     -10.180   1.798  -4.147  1.00  0.00     0.029 A 
ATOM     50  N   UNL     1     -12.187   2.113  -3.213  1.00  0.00    -0.354 N 
ATOM     51  C   UNL     1     -13.177   5.816  -1.240  1.00  0.00     0.074 A 
ATOM     52  C   UNL     1     -12.080   6.757  -1.309  1.00  0.00     0.031 C 
ATOM     53  C   UNL     1     -10.876   0.659  -4.295  1.00  0.00     0.029 A 
ATOM     54  C   UNL     1     -12.182   0.815  -3.664  1.00  0.00     0.049 A 
ATOM     55  H   UNL     1     -12.962   2.526  -2.767  1.00  0.00     0.167 HD
ATOM     56  C   UNL     1     -14.359   6.064  -0.626  1.00  0.00     0.031 A 
ATOM     57  C   UNL     1     -13.117  -0.149  -3.563  1.00  0.00     0.031 A 
ATOM     58  C   UNL     1     -15.458   5.137  -0.576  1.00  0.00     0.049 A 
ATOM     59  C   UNL     1     -14.415   0.151  -2.869  1.00  0.00     0.074 A 
ATOM     60  C   UNL     1     -16.725   5.333  -0.053  1.00  0.00     0.029 A 
ATOM     61  N   UNL     1     -15.418   3.839  -1.058  1.00  0.00    -0.354 N 
ATOM     62  N   UNL     1     -14.812   1.267  -2.310  1.00  0.00    -0.248 NA
ATOM     63  C   UNL     1     -15.394  -0.943  -2.794  1.00  0.00     0.031 C 
ATOM     64  C   UNL     1     -17.436   4.135  -0.174  1.00  0.00     0.029 A 
ATOM     65  C   UNL     1     -16.627   3.210  -0.814  1.00  0.00     0.049 A 
ATOM     66  H   UNL     1     -14.645   3.426  -1.506  1.00  0.00     0.167 HD
ATOM     67  C   UNL     1     -16.093   1.017  -1.835  1.00  0.00     0.074 A 
ATOM     68  C   UNL     1     -16.412  -0.351  -2.185  1.00  0.00     0.031 C 
ATOM     69  C   UNL     1     -16.928   1.847  -1.166  1.00  0.00     0.031 A 
BRANCH  56  70
ATOM     70  C   UNL     1     -14.524   7.393   0.055  1.00  0.00    -0.014 A 
ATOM     71  C   UNL     1     -14.688   8.575  -0.684  1.00  0.00     0.009 A 
ATOM     72  C   UNL     1     -14.571   7.454   1.456  1.00  0.00     0.009 A 
ATOM     73  C   UNL     1     -14.866   9.796  -0.031  1.00  0.00     0.001 A 
ATOM     74  C   UNL     1     -14.773   8.673   2.106  1.00  0.00     0.001 A 
ATOM     75  C   UNL     1     -14.913   9.843   1.362  1.00  0.00     0.000 A 
ENDBRANCH  56  70
BRANCH  57  76
ATOM     76  C   UNL     1     -12.856  -1.499  -4.127  1.00  0.00    -0.014 A 
ATOM     77  C   UNL     1     -13.531  -1.932  -5.277  1.00  0.00     0.009 A 
ATOM     78  C   UNL     1     -11.937  -2.363  -3.511  1.00  0.00     0.009 A 
ATOM     79  C   UNL     1     -13.311  -3.214  -5.785  1.00  0.00     0.001 A 
ATOM     80  C   UNL     1     -11.699  -3.634  -4.037  1.00  0.00     0.001 A 
ATOM     81  C   UNL     1     -12.393  -4.062  -5.168  1.00  0.00     0.000 A 
ENDBRANCH  57  76
BRANCH  69  82
ATOM     82  C   UNL     1     -18.275   1.306  -0.786  1.00  0.00    -0.014 A 
ATOM     83  C   UNL     1     -18.417   0.400   0.276  1.00  0.00     0.009 A 
ATOM     84  C   UNL     1     -19.421   1.747  -1.466  1.00  0.00     0.009 A 
ATOM     85  C   UNL     1     -19.681  -0.073   0.633  1.00  0.00     0.001 A 
ATOM     86  C   UNL     1     -20.685   1.291  -1.090  1.00  0.00     0.001 A 
ATOM     87  C   UNL     1     -20.813   0.377  -0.045  1.00  0.00     0.000 A 
ENDBRANCH  69  82
ENDBRANCH  43  44
ENDBRANCH  35  38
ENDBRANCH  33  34
ENDBRANCH  32  33
ENDBRANCH  31  32
ENDBRANCH   1  31
TORSDOF 16
