REMARK SMILES Cc1ccc(Cl)cc1NC(=O)N[C@@](C)(C(=O)NCCCCCCNC(=O)c1ccc(-c2c3nc(c(-c4ccccc4)c4ccc([nH]4)c(-c4ccccc4)c4nc(c(-c5ccccc5)c5ccc2[nH]5)C=C4)C=C3)cc1)C(F)(F)F
REMARK SMILES IDX 20 1 19 2 18 3 17 4 15 5 16 6 13 8 14 9 12 10 9 11 10 12
REMARK SMILES IDX 11 14 8 16 1 17 2 18 3 19 4 20 7 21 5 22 6 23 75 24 76 25
REMARK SMILES IDX 77 26 78 27 21 28 22 29 23 30 24 31 25 32 26 34 27 35 28 36
REMARK SMILES IDX 74 37 29 38 73 39 30 40 31 41 32 42 67 43 33 44 72 45 66 46
REMARK SMILES IDX 68 47 34 48 71 49 65 50 64 51 35 53 57 54 42 55 56 56 43 57
REMARK SMILES IDX 46 58 55 59 69 60 44 61 45 62 54 64 70 65 47 66 36 67 37 68
REMARK SMILES IDX 41 69 38 70 40 71 39 72 58 73 59 74 63 75 60 76 62 77 61 78
REMARK SMILES IDX 48 79 49 80 53 81 50 82 52 83 51 84
REMARK H PARENT 17 7 9 13 12 15 24 33 68 52 46 63
REMARK Flexibility Score: inf
ROOT
ATOM      1  C   UNL     1      -3.933   6.197  -2.434  1.00  0.00     0.002 C 
ENDROOT
BRANCH   1   2
ATOM      2  C   UNL     1      -2.897   6.216  -1.297  1.00  0.00     0.021 C 
BRANCH   2   3
ATOM      3  C   UNL     1      -2.991   5.032  -0.334  1.00  0.00     0.116 C 
BRANCH   3   4
ATOM      4  N   UNL     1      -2.994   3.784  -1.065  1.00  0.00    -0.354 N 
ATOM      5  C   UNL     1      -1.816   3.277  -1.550  1.00  0.00     0.255 C 
ATOM      6  O   UNL     1      -1.479   3.629  -2.679  1.00  0.00    -0.272 OA
ATOM      7  H   UNL     1      -3.839   3.300  -1.214  1.00  0.00     0.163 HD
BRANCH   5   8
ATOM      8  C   UNL     1      -0.945   2.407  -0.598  1.00  0.00     0.213 C 
ATOM      9  C   UNL     1      -1.835   1.893   0.550  1.00  0.00     0.056 C 
BRANCH   8  10
ATOM     10  N   UNL     1       0.152   3.251  -0.025  1.00  0.00    -0.316 N 
ATOM     11  N   UNL     1       1.910   1.950   0.996  1.00  0.00    -0.308 N 
ATOM     12  C   UNL     1       1.292   3.095   0.659  1.00  0.00     0.320 C 
ATOM     13  H   UNL     1       2.831   2.112   1.303  1.00  0.00     0.171 HD
ATOM     14  O   UNL     1       1.898   4.144   0.914  1.00  0.00    -0.248 OA
ATOM     15  H   UNL     1      -0.016   4.204  -0.205  1.00  0.00     0.166 HD
BRANCH  11  16
ATOM     16  C   UNL     1       1.587   0.587   1.025  1.00  0.00     0.047 A 
ATOM     17  C   UNL     1       3.864  -0.034   0.008  1.00  0.00     0.046 C 
ATOM     18  C   UNL     1       2.463  -0.356   0.451  1.00  0.00    -0.027 A 
ATOM     19  C   UNL     1       2.018  -1.682   0.274  1.00  0.00     0.007 A 
ATOM     20  C   UNL     1       0.753  -2.078   0.707  1.00  0.00     0.021 A 
ATOM     21  C   UNL     1       0.423   0.125   1.637  1.00  0.00     0.047 A 
ATOM     22  C   UNL     1      -0.019  -1.183   1.432  1.00  0.00     0.043 A 
ATOM     23  Cl  UNL     1      -1.559  -1.669   2.028  1.00  0.00    -0.084 Cl
ENDBRANCH  11  16
ENDBRANCH   8  10
BRANCH   8  24
ATOM     24  C   UNL     1      -0.518   1.327  -1.626  1.00  0.00     0.420 C 
ATOM     25  F   UNL     1       0.299   1.813  -2.590  1.00  0.00    -0.168 F 
ATOM     26  F   UNL     1       0.131   0.286  -1.087  1.00  0.00    -0.168 F 
ATOM     27  F   UNL     1      -1.603   0.783  -2.239  1.00  0.00    -0.168 F 
ENDBRANCH   8  24
ENDBRANCH   5   8
ENDBRANCH   3   4
ENDBRANCH   2   3
ENDBRANCH   1   2
BRANCH   1  28
ATOM     28  C   UNL     1      -5.389   5.997  -2.000  1.00  0.00     0.002 C 
BRANCH  28  29
ATOM     29  C   UNL     1      -5.874   6.965  -0.925  1.00  0.00     0.021 C 
BRANCH  29  30
ATOM     30  C   UNL     1      -5.637   8.428  -1.259  1.00  0.00     0.116 C 
BRANCH  30  31
ATOM     31  N   UNL     1      -6.376   8.847  -2.436  1.00  0.00    -0.352 N 
ATOM     32  C   UNL     1      -7.185   9.946  -2.582  1.00  0.00     0.251 C 
ATOM     33  H   UNL     1      -6.286   8.270  -3.228  1.00  0.00     0.163 HD
ATOM     34  O   UNL     1      -7.895  10.078  -3.568  1.00  0.00    -0.269 OA
BRANCH  32  35
ATOM     35  C   UNL     1      -7.203  10.958  -1.506  1.00  0.00     0.039 A 
ATOM     36  C   UNL     1      -8.432  11.401  -1.018  1.00  0.00     0.014 A 
ATOM     37  C   UNL     1      -6.006  11.432  -0.959  1.00  0.00     0.014 A 
ATOM     38  C   UNL     1      -8.461  12.289   0.057  1.00  0.00     0.010 A 
ATOM     39  C   UNL     1      -6.040  12.249   0.165  1.00  0.00     0.010 A 
ATOM     40  C   UNL     1      -7.267  12.697   0.675  1.00  0.00    -0.014 A 
BRANCH  40  41
ATOM     41  C   UNL     1      -7.285  13.604   1.848  1.00  0.00     0.031 A 
ATOM     42  C   UNL     1      -6.656  14.968   1.752  1.00  0.00     0.074 A 
ATOM     43  C   UNL     1      -7.818  13.181   3.011  1.00  0.00     0.049 A 
ATOM     44  N   UNL     1      -6.537  15.886   2.676  1.00  0.00    -0.248 NA
ATOM     45  C   UNL     1      -6.058  15.340   0.458  1.00  0.00     0.031 C 
ATOM     46  C   UNL     1      -8.412  11.862   3.244  1.00  0.00     0.029 A 
ATOM     47  N   UNL     1      -7.938  13.816   4.222  1.00  0.00    -0.354 N 
ATOM     48  C   UNL     1      -5.834  16.928   2.084  1.00  0.00     0.074 A 
ATOM     49  C   UNL     1      -5.513  16.514   0.737  1.00  0.00     0.031 C 
ATOM     50  C   UNL     1      -8.854  11.796   4.511  1.00  0.00     0.029 A 
ATOM     51  C   UNL     1      -8.539  13.049   5.190  1.00  0.00     0.049 A 
ATOM     52  H   UNL     1      -7.623  14.736   4.381  1.00  0.00     0.167 HD
ATOM     53  C   UNL     1      -5.501  18.129   2.611  1.00  0.00     0.031 A 
ATOM     54  C   UNL     1      -8.797  13.319   6.484  1.00  0.00     0.031 A 
ATOM     55  C   UNL     1      -5.845  18.549   3.942  1.00  0.00     0.049 A 
ATOM     56  C   UNL     1      -8.422  14.667   7.038  1.00  0.00     0.074 A 
ATOM     57  C   UNL     1      -5.624  19.778   4.539  1.00  0.00     0.029 A 
ATOM     58  N   UNL     1      -6.476  17.752   4.883  1.00  0.00    -0.354 N 
ATOM     59  N   UNL     1      -7.843  15.676   6.434  1.00  0.00    -0.248 NA
ATOM     60  C   UNL     1      -8.750  14.917   8.448  1.00  0.00     0.031 C 
ATOM     61  C   UNL     1      -6.066  19.704   5.863  1.00  0.00     0.029 A 
ATOM     62  C   UNL     1      -6.622  18.452   6.068  1.00  0.00     0.049 A 
ATOM     63  H   UNL     1      -6.775  16.826   4.731  1.00  0.00     0.167 HD
ATOM     64  C   UNL     1      -7.766  16.690   7.381  1.00  0.00     0.074 A 
ATOM     65  C   UNL     1      -8.376  16.181   8.591  1.00  0.00     0.031 C 
ATOM     66  C   UNL     1      -7.237  17.932   7.261  1.00  0.00     0.031 A 
BRANCH  53  67
ATOM     67  C   UNL     1      -4.716  19.081   1.752  1.00  0.00    -0.014 A 
ATOM     68  C   UNL     1      -5.301  19.725   0.651  1.00  0.00     0.009 A 
ATOM     69  C   UNL     1      -3.391  19.392   2.096  1.00  0.00     0.009 A 
ATOM     70  C   UNL     1      -4.566  20.644  -0.102  1.00  0.00     0.001 A 
ATOM     71  C   UNL     1      -2.668  20.332   1.359  1.00  0.00     0.001 A 
ATOM     72  C   UNL     1      -3.254  20.952   0.258  1.00  0.00     0.000 A 
ENDBRANCH  53  67
BRANCH  54  73
ATOM     73  C   UNL     1      -9.438  12.296   7.354  1.00  0.00    -0.014 A 
ATOM     74  C   UNL     1     -10.735  12.487   7.854  1.00  0.00     0.009 A 
ATOM     75  C   UNL     1      -8.737  11.135   7.717  1.00  0.00     0.009 A 
ATOM     76  C   UNL     1     -11.300  11.559   8.732  1.00  0.00     0.001 A 
ATOM     77  C   UNL     1      -9.318  10.192   8.568  1.00  0.00     0.001 A 
ATOM     78  C   UNL     1     -10.592  10.412   9.086  1.00  0.00     0.000 A 
ENDBRANCH  54  73
BRANCH  66  79
ATOM     79  C   UNL     1      -7.333  18.841   8.453  1.00  0.00    -0.014 A 
ATOM     80  C   UNL     1      -6.562  18.622   9.605  1.00  0.00     0.009 A 
ATOM     81  C   UNL     1      -8.177  19.962   8.401  1.00  0.00     0.009 A 
ATOM     82  C   UNL     1      -6.662  19.489  10.695  1.00  0.00     0.001 A 
ATOM     83  C   UNL     1      -8.249  20.845   9.479  1.00  0.00     0.001 A 
ATOM     84  C   UNL     1      -7.500  20.602  10.629  1.00  0.00     0.000 A 
ENDBRANCH  66  79
ENDBRANCH  40  41
ENDBRANCH  32  35
ENDBRANCH  30  31
ENDBRANCH  29  30
ENDBRANCH  28  29
ENDBRANCH   1  28
TORSDOF 16
