REMARK SMILES CC[C@@H]1CCCN(S(=O)(=O)c2cc(C(=O)NCCCCCCNC(=O)c3ccc(-c4c5nc(c(-c6ccccc6)c6ccc([nH]6)c(-c6ccccc6)c6nc(c(-c7ccccc7)c7ccc4[nH]7)C=C6)C=C5)cc3)ccc2F)C1
REMARK SMILES IDX 19 1 18 2 17 3 16 4 14 5 15 6 13 8 11 9 12 10 76 11 75 12
REMARK SMILES IDX 77 13 74 14 8 15 9 16 10 17 7 18 3 19 4 20 78 21 5 22 6 23
REMARK SMILES IDX 2 24 1 25 20 26 21 27 22 28 23 29 24 30 25 32 26 33 27 34
REMARK SMILES IDX 73 35 28 36 72 37 29 38 30 39 31 40 66 41 32 42 71 43 65 44
REMARK SMILES IDX 67 45 33 46 70 47 64 48 63 49 34 51 56 52 41 53 55 54 42 55
REMARK SMILES IDX 45 56 54 57 68 58 43 59 44 60 53 62 69 63 46 64 35 65 36 66
REMARK SMILES IDX 40 67 37 68 39 69 38 70 57 71 58 72 62 73 59 74 61 75 60 76
REMARK SMILES IDX 47 77 48 78 52 79 49 80 51 81 50 82
REMARK H PARENT 16 7 23 31 67 50 45 61
REMARK Flexibility Score: inf
ROOT
ATOM      1  C   UNL     1       1.410  10.653  -3.731  1.00  0.00     0.002 C 
ENDROOT
BRANCH   1   2
ATOM      2  C   UNL     1       1.012   9.770  -2.539  1.00  0.00     0.021 C 
BRANCH   2   3
ATOM      3  C   UNL     1       0.477   8.391  -2.937  1.00  0.00     0.116 C 
BRANCH   3   4
ATOM      4  N   UNL     1       1.559   7.455  -3.165  1.00  0.00    -0.352 N 
ATOM      5  C   UNL     1       2.128   6.457  -2.418  1.00  0.00     0.251 C 
ATOM      6  O   UNL     1       3.004   5.790  -2.970  1.00  0.00    -0.269 OA
ATOM      7  H   UNL     1       1.978   7.559  -4.050  1.00  0.00     0.163 HD
BRANCH   5   8
ATOM      8  C   UNL     1       1.764   6.123  -1.005  1.00  0.00     0.041 A 
ATOM      9  C   UNL     1       2.021   4.530   0.839  1.00  0.00     0.119 A 
ATOM     10  C   UNL     1       2.238   4.892  -0.500  1.00  0.00     0.038 A 
ATOM     11  C   UNL     1       1.334   5.393   1.679  1.00  0.00     0.143 A 
ATOM     12  C   UNL     1       0.835   6.595   1.194  1.00  0.00     0.041 A 
ATOM     13  F   UNL     1       1.119   5.100   2.968  1.00  0.00    -0.206 F 
ATOM     14  C   UNL     1       1.075   6.971  -0.131  1.00  0.00     0.017 A 
BRANCH   9  15
ATOM     15  S   UNL     1       2.801   3.097   1.516  1.00  0.00     0.246 S 
ATOM     16  O   UNL     1       3.285   3.431   2.844  1.00  0.00    -0.207 OA
ATOM     17  O   UNL     1       3.722   2.594   0.522  1.00  0.00    -0.207 OA
BRANCH  15  18
ATOM     18  N   UNL     1       1.559   1.906   1.694  1.00  0.00    -0.197 NA
ATOM     19  C   UNL     1       1.120  -0.524   2.223  1.00  0.00     0.004 C 
ATOM     20  C   UNL     1      -0.071  -0.089   3.087  1.00  0.00     0.006 C 
ATOM     21  C   UNL     1       2.160   0.604   2.154  1.00  0.00     0.106 C 
ATOM     22  C   UNL     1      -0.651   1.228   2.605  1.00  0.00     0.017 C 
ATOM     23  C   UNL     1       0.418   2.313   2.561  1.00  0.00     0.102 C 
BRANCH  19  24
ATOM     24  C   UNL     1       0.678  -1.122   0.865  1.00  0.00     0.001 C 
ATOM     25  C   UNL     1       0.855  -0.265  -0.379  1.00  0.00     0.004 C 
ENDBRANCH  19  24
ENDBRANCH  15  18
ENDBRANCH   9  15
ENDBRANCH   5   8
ENDBRANCH   3   4
ENDBRANCH   2   3
ENDBRANCH   1   2
BRANCH   1  26
ATOM     26  C   UNL     1       0.275  10.993  -4.707  1.00  0.00     0.002 C 
BRANCH  26  27
ATOM     27  C   UNL     1      -0.982  11.594  -4.069  1.00  0.00     0.021 C 
BRANCH  27  28
ATOM     28  C   UNL     1      -0.763  12.930  -3.364  1.00  0.00     0.116 C 
BRANCH  28  29
ATOM     29  N   UNL     1      -0.375  13.977  -4.296  1.00  0.00    -0.352 N 
ATOM     30  C   UNL     1      -0.960  15.192  -4.545  1.00  0.00     0.251 C 
ATOM     31  H   UNL     1       0.431  13.784  -4.828  1.00  0.00     0.163 HD
ATOM     32  O   UNL     1      -0.616  15.847  -5.525  1.00  0.00    -0.269 OA
BRANCH  30  33
ATOM     33  C   UNL     1      -2.010  15.718  -3.647  1.00  0.00     0.039 A 
ATOM     34  C   UNL     1      -3.126  16.344  -4.210  1.00  0.00     0.014 A 
ATOM     35  C   UNL     1      -1.879  15.642  -2.257  1.00  0.00     0.014 A 
ATOM     36  C   UNL     1      -4.130  16.852  -3.384  1.00  0.00     0.010 A 
ATOM     37  C   UNL     1      -2.910  16.091  -1.435  1.00  0.00     0.010 A 
ATOM     38  C   UNL     1      -4.041  16.708  -1.990  1.00  0.00    -0.014 A 
BRANCH  38  39
ATOM     39  C   UNL     1      -5.126  17.198  -1.103  1.00  0.00     0.031 A 
ATOM     40  C   UNL     1      -4.877  18.331  -0.146  1.00  0.00     0.074 A 
ATOM     41  C   UNL     1      -6.324  16.584  -1.121  1.00  0.00     0.049 A 
ATOM     42  N   UNL     1      -5.697  18.877   0.717  1.00  0.00    -0.248 NA
ATOM     43  C   UNL     1      -3.524  18.909  -0.139  1.00  0.00     0.031 C 
ATOM     44  C   UNL     1      -6.676  15.439  -1.964  1.00  0.00     0.029 A 
ATOM     45  N   UNL     1      -7.466  16.832  -0.402  1.00  0.00    -0.354 N 
ATOM     46  C   UNL     1      -4.955  19.845   1.381  1.00  0.00     0.074 A 
ATOM     47  C   UNL     1      -3.610  19.784   0.853  1.00  0.00     0.031 C 
ATOM     48  C   UNL     1      -7.954  15.100  -1.730  1.00  0.00     0.029 A 
ATOM     49  C   UNL     1      -8.500  15.981  -0.704  1.00  0.00     0.049 A 
ATOM     50  H   UNL     1      -7.536  17.552   0.266  1.00  0.00     0.167 HD
ATOM     51  C   UNL     1      -5.361  20.719   2.334  1.00  0.00     0.031 A 
ATOM     52  C   UNL     1      -9.751  15.916  -0.210  1.00  0.00     0.031 A 
ATOM     53  C   UNL     1      -6.702  20.792   2.849  1.00  0.00     0.049 A 
ATOM     54  C   UNL     1     -10.184  16.910   0.830  1.00  0.00     0.074 A 
ATOM     55  C   UNL     1      -7.229  21.692   3.759  1.00  0.00     0.029 A 
ATOM     56  N   UNL     1      -7.728  19.927   2.501  1.00  0.00    -0.354 N 
ATOM     57  N   UNL     1      -9.494  17.875   1.387  1.00  0.00    -0.248 NA
ATOM     58  C   UNL     1     -11.574  16.813   1.297  1.00  0.00     0.031 C 
ATOM     59  C   UNL     1      -8.563  21.341   3.998  1.00  0.00     0.029 A 
ATOM     60  C   UNL     1      -8.879  20.255   3.198  1.00  0.00     0.049 A 
ATOM     61  H   UNL     1      -7.650  19.189   1.854  1.00  0.00     0.167 HD
ATOM     62  C   UNL     1     -10.369  18.513   2.256  1.00  0.00     0.074 A 
ATOM     63  C   UNL     1     -11.645  17.837   2.136  1.00  0.00     0.031 C 
ATOM     64  C   UNL     1     -10.137  19.565   3.078  1.00  0.00     0.031 A 
BRANCH  51  65
ATOM     65  C   UNL     1      -4.330  21.661   2.891  1.00  0.00    -0.014 A 
ATOM     66  C   UNL     1      -3.813  22.715   2.120  1.00  0.00     0.009 A 
ATOM     67  C   UNL     1      -3.888  21.509   4.214  1.00  0.00     0.009 A 
ATOM     68  C   UNL     1      -2.846  23.572   2.650  1.00  0.00     0.001 A 
ATOM     69  C   UNL     1      -2.942  22.385   4.751  1.00  0.00     0.001 A 
ATOM     70  C   UNL     1      -2.414  23.408   3.965  1.00  0.00     0.000 A 
ENDBRANCH  51  65
BRANCH  52  71
ATOM     71  C   UNL     1     -10.690  14.883  -0.714  1.00  0.00    -0.014 A 
ATOM     72  C   UNL     1     -11.751  15.237  -1.560  1.00  0.00     0.009 A 
ATOM     73  C   UNL     1     -10.521  13.534  -0.362  1.00  0.00     0.009 A 
ATOM     74  C   UNL     1     -12.638  14.264  -2.027  1.00  0.00     0.001 A 
ATOM     75  C   UNL     1     -11.393  12.560  -0.851  1.00  0.00     0.001 A 
ATOM     76  C   UNL     1     -12.455  12.926  -1.677  1.00  0.00     0.000 A 
ENDBRANCH  52  71
BRANCH  64  77
ATOM     77  C   UNL     1     -11.294  20.057   3.900  1.00  0.00    -0.014 A 
ATOM     78  C   UNL     1     -11.768  19.325   4.999  1.00  0.00     0.009 A 
ATOM     79  C   UNL     1     -11.899  21.284   3.586  1.00  0.00     0.009 A 
ATOM     80  C   UNL     1     -12.849  19.796   5.747  1.00  0.00     0.001 A 
ATOM     81  C   UNL     1     -12.962  21.765   4.352  1.00  0.00     0.001 A 
ATOM     82  C   UNL     1     -13.442  21.016   5.425  1.00  0.00     0.000 A 
ENDBRANCH  64  77
ENDBRANCH  38  39
ENDBRANCH  30  33
ENDBRANCH  28  29
ENDBRANCH  27  28
ENDBRANCH  26  27
ENDBRANCH   1  26
TORSDOF 16
