REMARK SMILES Cc1ccc([C@@]23C[C@@H]4C[C@@H](C[C@@](C(=O)N5CCC(C(=O)NCCCCCCNC(=O)c6ccc(-c7c8nc(c(-c9ccccc9)c9ccc([nH]9)c(-c9ccccc9)c9nc(c(-c%10ccccc%10)c%10ccc7[nH]%10)C=C9)C=C8)cc6)CC5)(C4)C2)C3)cc1
REMARK SMILES IDX 24 1 23 2 22 3 21 4 19 5 20 6 18 8 13 9 14 10 15 11 16 12
REMARK SMILES IDX 80 13 17 14 79 15 12 16 6 17 7 18 82 19 83 20 8 21 10 22
REMARK SMILES IDX 9 23 81 24 11 25 5 26 1 27 2 28 3 29 85 30 4 31 84 32 25 33
REMARK SMILES IDX 26 34 27 35 28 36 29 37 30 39 31 40 32 41 78 42 33 43 77 44
REMARK SMILES IDX 34 45 35 46 36 47 71 48 37 49 76 50 70 51 72 52 38 53 75 54
REMARK SMILES IDX 69 55 68 56 39 58 61 59 46 60 60 61 47 62 50 63 59 64 73 65
REMARK SMILES IDX 48 66 49 67 58 69 74 70 51 71 40 72 41 73 45 74 42 75 44 76
REMARK SMILES IDX 43 77 62 78 63 79 67 80 64 81 66 82 65 83 52 84 53 85 57 86
REMARK SMILES IDX 54 87 56 88 55 89
REMARK H PARENT 21 7 28 38 72 57 50 68
REMARK Flexibility Score: inf
ROOT
ATOM      1  C   UNL     1     -10.810  -2.331  -4.739  1.00  0.00     0.002 C 
ENDROOT
BRANCH   1   2
ATOM      2  C   UNL     1      -9.507  -2.077  -3.971  1.00  0.00     0.021 C 
BRANCH   2   3
ATOM      3  C   UNL     1      -8.777  -3.328  -3.489  1.00  0.00     0.116 C 
BRANCH   3   4
ATOM      4  N   UNL     1      -8.286  -4.143  -4.587  1.00  0.00    -0.356 N 
ATOM      5  C   UNL     1      -7.093  -4.777  -4.760  1.00  0.00     0.223 C 
ATOM      6  O   UNL     1      -6.952  -5.483  -5.760  1.00  0.00    -0.275 OA
ATOM      7  H   UNL     1      -8.922  -4.255  -5.331  1.00  0.00     0.163 HD
BRANCH   5   8
ATOM      8  C   UNL     1      -5.953  -4.616  -3.766  1.00  0.00     0.082 C 
ATOM      9  C   UNL     1      -5.815  -2.440  -0.417  1.00  0.00     0.228 C 
ATOM     10  O   UNL     1      -6.708  -2.877   0.316  1.00  0.00    -0.274 OA
ATOM     11  N   UNL     1      -5.209  -3.267  -1.362  1.00  0.00    -0.342 N 
ATOM     12  C   UNL     1      -5.415  -4.706  -1.270  1.00  0.00     0.120 C 
ATOM     13  C   UNL     1      -4.521  -2.882  -2.593  1.00  0.00     0.120 C 
ATOM     14  C   UNL     1      -6.327  -5.189  -2.386  1.00  0.00     0.035 C 
ATOM     15  C   UNL     1      -5.417  -3.174  -3.785  1.00  0.00     0.035 C 
BRANCH   9  16
ATOM     16  C   UNL     1      -5.329  -0.983  -0.243  1.00  0.00     0.051 C 
ATOM     17  C   UNL     1      -3.179   0.407   0.056  1.00  0.00    -0.003 C 
ATOM     18  C   UNL     1      -3.666   1.237  -1.171  1.00  0.00     0.015 C 
ATOM     19  C   UNL     1      -3.798  -1.001  -0.077  1.00  0.00     0.028 C 
ATOM     20  C   UNL     1      -3.765   1.033   1.347  1.00  0.00     0.015 C 
ATOM     21  C   UNL     1      -5.203   1.339  -1.216  1.00  0.00    -0.009 C 
ATOM     22  C   UNL     1      -5.306   1.072   1.277  1.00  0.00    -0.009 C 
ATOM     23  C   UNL     1      -5.720   1.955   0.091  1.00  0.00     0.007 C 
ATOM     24  C   UNL     1      -5.809  -0.061  -1.380  1.00  0.00     0.020 C 
ATOM     25  C   UNL     1      -5.873  -0.353   1.078  1.00  0.00     0.020 C 
BRANCH  17  26
ATOM     26  C   UNL     1      -1.641   0.339   0.107  1.00  0.00    -0.042 A 
ATOM     27  C   UNL     1       2.698   0.148   0.012  1.00  0.00     0.044 C 
ATOM     28  C   UNL     1       1.203   0.232   0.070  1.00  0.00    -0.051 A 
ATOM     29  C   UNL     1       0.452  -0.939   0.132  1.00  0.00     0.004 A 
ATOM     30  C   UNL     1       0.533   1.458   0.053  1.00  0.00     0.004 A 
ATOM     31  C   UNL     1      -0.943  -0.884   0.159  1.00  0.00     0.004 A 
ATOM     32  C   UNL     1      -0.868   1.510   0.077  1.00  0.00     0.004 A 
ENDBRANCH  17  26
ENDBRANCH   9  16
ENDBRANCH   5   8
ENDBRANCH   3   4
ENDBRANCH   2   3
ENDBRANCH   1   2
BRANCH   1  33
ATOM     33  C   UNL     1     -11.835  -3.257  -4.066  1.00  0.00     0.002 C 
BRANCH  33  34
ATOM     34  C   UNL     1     -12.168  -2.954  -2.604  1.00  0.00     0.021 C 
BRANCH  34  35
ATOM     35  C   UNL     1     -12.859  -1.618  -2.376  1.00  0.00     0.116 C 
BRANCH  35  36
ATOM     36  N   UNL     1     -14.314  -1.678  -2.398  1.00  0.00    -0.352 N 
ATOM     37  C   UNL     1     -15.242  -0.646  -2.366  1.00  0.00     0.251 C 
ATOM     38  H   UNL     1     -14.696  -2.585  -2.442  1.00  0.00     0.163 HD
ATOM     39  O   UNL     1     -16.429  -0.890  -2.344  1.00  0.00    -0.269 OA
BRANCH  37  40
ATOM     40  C   UNL     1     -14.772   0.760  -2.509  1.00  0.00     0.039 A 
ATOM     41  C   UNL     1     -15.460   1.581  -3.411  1.00  0.00     0.014 A 
ATOM     42  C   UNL     1     -13.573   1.192  -1.950  1.00  0.00     0.014 A 
ATOM     43  C   UNL     1     -14.816   2.691  -3.951  1.00  0.00     0.010 A 
ATOM     44  C   UNL     1     -12.889   2.224  -2.560  1.00  0.00     0.010 A 
ATOM     45  C   UNL     1     -13.483   2.922  -3.614  1.00  0.00    -0.014 A 
BRANCH  45  46
ATOM     46  C   UNL     1     -12.599   3.760  -4.415  1.00  0.00     0.031 A 
ATOM     47  C   UNL     1     -12.199   5.100  -3.947  1.00  0.00     0.074 A 
ATOM     48  C   UNL     1     -12.099   3.284  -5.579  1.00  0.00     0.049 A 
ATOM     49  N   UNL     1     -11.909   6.082  -4.735  1.00  0.00    -0.248 NA
ATOM     50  C   UNL     1     -12.132   5.451  -2.534  1.00  0.00     0.031 C 
ATOM     51  C   UNL     1     -11.034   3.873  -6.387  1.00  0.00     0.029 A 
ATOM     52  N   UNL     1     -12.615   2.273  -6.392  1.00  0.00    -0.354 N 
ATOM     53  C   UNL     1     -11.320   7.057  -3.963  1.00  0.00     0.074 A 
ATOM     54  C   UNL     1     -11.575   6.664  -2.595  1.00  0.00     0.031 C 
ATOM     55  C   UNL     1     -11.177   3.451  -7.654  1.00  0.00     0.029 A 
ATOM     56  C   UNL     1     -12.418   2.696  -7.715  1.00  0.00     0.049 A 
ATOM     57  H   UNL     1     -13.033   1.432  -6.097  1.00  0.00     0.167 HD
ATOM     58  C   UNL     1     -10.532   8.003  -4.546  1.00  0.00     0.031 A 
ATOM     59  C   UNL     1     -13.431   2.911  -8.605  1.00  0.00     0.031 A 
ATOM     60  C   UNL     1     -10.468   7.851  -5.997  1.00  0.00     0.049 A 
ATOM     61  C   UNL     1     -13.420   4.305  -9.195  1.00  0.00     0.074 A 
ATOM     62  C   UNL     1      -9.514   7.304  -6.841  1.00  0.00     0.029 A 
ATOM     63  N   UNL     1     -11.613   8.030  -6.760  1.00  0.00    -0.354 N 
ATOM     64  N   UNL     1     -12.776   5.309  -8.669  1.00  0.00    -0.248 NA
ATOM     65  C   UNL     1     -14.190   4.697 -10.373  1.00  0.00     0.031 C 
ATOM     66  C   UNL     1     -10.107   7.117  -8.113  1.00  0.00     0.029 A 
ATOM     67  C   UNL     1     -11.414   7.565  -8.044  1.00  0.00     0.049 A 
ATOM     68  H   UNL     1     -12.450   8.433  -6.431  1.00  0.00     0.167 HD
ATOM     69  C   UNL     1     -13.022   6.447  -9.393  1.00  0.00     0.074 A 
ATOM     70  C   UNL     1     -13.910   6.011 -10.455  1.00  0.00     0.031 C 
ATOM     71  C   UNL     1     -12.480   7.647  -9.033  1.00  0.00     0.031 A 
BRANCH  58  72
ATOM     72  C   UNL     1      -9.566   8.861  -3.764  1.00  0.00    -0.014 A 
ATOM     73  C   UNL     1      -8.355   9.265  -4.357  1.00  0.00     0.009 A 
ATOM     74  C   UNL     1      -9.764   9.262  -2.433  1.00  0.00     0.009 A 
ATOM     75  C   UNL     1      -7.355   9.927  -3.634  1.00  0.00     0.001 A 
ATOM     76  C   UNL     1      -8.754   9.890  -1.690  1.00  0.00     0.001 A 
ATOM     77  C   UNL     1      -7.542  10.209  -2.288  1.00  0.00     0.000 A 
ENDBRANCH  58  72
BRANCH  59  78
ATOM     78  C   UNL     1     -14.675   2.144  -8.326  1.00  0.00    -0.014 A 
ATOM     79  C   UNL     1     -14.645   0.742  -8.450  1.00  0.00     0.009 A 
ATOM     80  C   UNL     1     -15.732   2.734  -7.619  1.00  0.00     0.009 A 
ATOM     81  C   UNL     1     -15.589  -0.053  -7.793  1.00  0.00     0.001 A 
ATOM     82  C   UNL     1     -16.681   1.934  -6.972  1.00  0.00     0.001 A 
ATOM     83  C   UNL     1     -16.590   0.543  -7.032  1.00  0.00     0.000 A 
ENDBRANCH  59  78
BRANCH  71  84
ATOM     84  C   UNL     1     -12.824   9.008  -9.591  1.00  0.00    -0.014 A 
ATOM     85  C   UNL     1     -13.993   9.311 -10.298  1.00  0.00     0.009 A 
ATOM     86  C   UNL     1     -11.978  10.101  -9.279  1.00  0.00     0.009 A 
ATOM     87  C   UNL     1     -14.284  10.624 -10.700  1.00  0.00     0.001 A 
ATOM     88  C   UNL     1     -12.286  11.415  -9.637  1.00  0.00     0.001 A 
ATOM     89  C   UNL     1     -13.439  11.676 -10.359  1.00  0.00     0.000 A 
ENDBRANCH  71  84
ENDBRANCH  45  46
ENDBRANCH  37  40
ENDBRANCH  35  36
ENDBRANCH  34  35
ENDBRANCH  33  34
ENDBRANCH   1  33
TORSDOF 15
