REMARK SMILES O=C(NCCCCCCNC(=O)[C@H]1CC[C@@H](CNc2ncccn2)O1)c1ccc(-c2c3nc(c(-c4ccccc4)c4ccc([nH]4)c(-c4ccccc4)c4nc(c(-c5ccccc5)c5ccc2[nH]5)C=C4)C=C3)cc1
REMARK SMILES IDX 7 1 6 2 5 3 4 4 3 5 1 6 2 7 26 9 27 10 73 11 28 12 72 13
REMARK SMILES IDX 29 14 30 15 31 16 66 17 32 18 71 19 65 20 67 21 33 22 70 23
REMARK SMILES IDX 64 24 63 25 34 27 56 28 41 29 55 30 42 31 45 32 54 33 68 34
REMARK SMILES IDX 43 35 44 36 53 38 69 39 46 40 35 41 36 42 40 43 37 44 39 45
REMARK SMILES IDX 38 46 57 47 58 48 62 49 59 50 61 51 60 52 47 53 48 54 52 55
REMARK SMILES IDX 49 56 51 57 50 58 8 59 9 60 10 61 11 62 12 64 13 65 14 66
REMARK SMILES IDX 25 67 15 68 16 69 17 70 18 71 19 73 20 74 24 75 21 76 23 77
REMARK SMILES IDX 22 78
REMARK H PARENT 3 8 67 26 45 37 10 63 18 72
REMARK Flexibility Score: inf
ROOT
ATOM      1  C   UNL     1      10.077 -10.127   2.653  1.00  0.00     0.002 C 
ENDROOT
BRANCH   1   2
ATOM      2  C   UNL     1       8.886 -10.501   3.542  1.00  0.00     0.002 C 
BRANCH   2   3
ATOM      3  C   UNL     1       8.205 -11.825   3.194  1.00  0.00     0.021 C 
BRANCH   3   4
ATOM      4  C   UNL     1       9.121 -13.041   3.236  1.00  0.00     0.116 C 
BRANCH   4   5
ATOM      5  N   UNL     1       9.592 -13.337   4.580  1.00  0.00    -0.352 N 
ATOM      6  O   UNL     1       9.808 -14.535   6.482  1.00  0.00    -0.269 OA
ATOM      7  C   UNL     1       9.506 -14.508   5.292  1.00  0.00     0.251 C 
ATOM      8  H   UNL     1      10.036 -12.591   5.045  1.00  0.00     0.163 HD
BRANCH   7   9
ATOM      9  C   UNL     1       9.021 -15.737   4.628  1.00  0.00     0.039 A 
ATOM     10  C   UNL     1       9.488 -16.094   3.361  1.00  0.00     0.014 A 
ATOM     11  C   UNL     1       8.085 -16.541   5.284  1.00  0.00     0.014 A 
ATOM     12  C   UNL     1       8.913 -17.168   2.691  1.00  0.00     0.010 A 
ATOM     13  C   UNL     1       7.568 -17.669   4.641  1.00  0.00     0.010 A 
ATOM     14  C   UNL     1       7.951 -17.971   3.325  1.00  0.00    -0.014 A 
BRANCH  14  15
ATOM     15  C   UNL     1       7.389 -19.141   2.605  1.00  0.00     0.031 A 
ATOM     16  C   UNL     1       5.936 -19.198   2.227  1.00  0.00     0.074 A 
ATOM     17  C   UNL     1       8.213 -20.151   2.264  1.00  0.00     0.049 A 
ATOM     18  N   UNL     1       5.294 -20.126   1.561  1.00  0.00    -0.248 NA
ATOM     19  C   UNL     1       5.089 -18.075   2.656  1.00  0.00     0.031 C 
ATOM     20  C   UNL     1       9.644 -20.212   2.574  1.00  0.00     0.029 A 
ATOM     21  N   UNL     1       7.974 -21.304   1.562  1.00  0.00    -0.354 N 
ATOM     22  C   UNL     1       3.968 -19.714   1.513  1.00  0.00     0.074 A 
ATOM     23  C   UNL     1       3.892 -18.462   2.237  1.00  0.00     0.031 C 
ATOM     24  C   UNL     1      10.166 -21.314   2.015  1.00  0.00     0.029 A 
ATOM     25  C   UNL     1       9.099 -22.065   1.363  1.00  0.00     0.049 A 
ATOM     26  H   UNL     1       7.083 -21.561   1.233  1.00  0.00     0.167 HD
ATOM     27  C   UNL     1       2.912 -20.320   0.919  1.00  0.00     0.031 A 
ATOM     28  C   UNL     1       9.259 -23.242   0.731  1.00  0.00     0.031 A 
ATOM     29  C   UNL     1       2.989 -21.564   0.197  1.00  0.00     0.049 A 
ATOM     30  C   UNL     1       8.068 -23.905   0.107  1.00  0.00     0.074 A 
ATOM     31  C   UNL     1       1.981 -22.237  -0.472  1.00  0.00     0.029 A 
ATOM     32  N   UNL     1       4.138 -22.326   0.058  1.00  0.00    -0.354 N 
ATOM     33  N   UNL     1       6.829 -23.482   0.039  1.00  0.00    -0.248 NA
ATOM     34  C   UNL     1       8.300 -25.207  -0.531  1.00  0.00     0.031 C 
ATOM     35  C   UNL     1       2.510 -23.432  -0.973  1.00  0.00     0.029 A 
ATOM     36  C   UNL     1       3.860 -23.475  -0.665  1.00  0.00     0.049 A 
ATOM     37  H   UNL     1       5.022 -22.086   0.418  1.00  0.00     0.167 HD
ATOM     38  C   UNL     1       6.137 -24.454  -0.669  1.00  0.00     0.074 A 
ATOM     39  C   UNL     1       7.098 -25.481  -1.021  1.00  0.00     0.031 C 
ATOM     40  C   UNL     1       4.824 -24.491  -1.002  1.00  0.00     0.031 A 
BRANCH  27  41
ATOM     41  C   UNL     1       1.567 -19.658   1.059  1.00  0.00    -0.014 A 
ATOM     42  C   UNL     1       1.262 -18.465   0.386  1.00  0.00     0.009 A 
ATOM     43  C   UNL     1       0.581 -20.256   1.860  1.00  0.00     0.009 A 
ATOM     44  C   UNL     1       0.011 -17.863   0.544  1.00  0.00     0.001 A 
ATOM     45  C   UNL     1      -0.678 -19.666   1.995  1.00  0.00     0.001 A 
ATOM     46  C   UNL     1      -0.958 -18.465   1.346  1.00  0.00     0.000 A 
ENDBRANCH  27  41
BRANCH  28  47
ATOM     47  C   UNL     1      10.608 -23.857   0.653  1.00  0.00    -0.014 A 
ATOM     48  C   UNL     1      11.300 -23.895  -0.566  1.00  0.00     0.009 A 
ATOM     49  C   UNL     1      11.220 -24.383   1.801  1.00  0.00     0.009 A 
ATOM     50  C   UNL     1      12.575 -24.462  -0.636  1.00  0.00     0.001 A 
ATOM     51  C   UNL     1      12.505 -24.924   1.733  1.00  0.00     0.001 A 
ATOM     52  C   UNL     1      13.178 -24.970   0.514  1.00  0.00     0.000 A 
ENDBRANCH  28  47
BRANCH  40  53
ATOM     53  C   UNL     1       4.361 -25.664  -1.819  1.00  0.00    -0.014 A 
ATOM     54  C   UNL     1       4.238 -26.944  -1.257  1.00  0.00     0.009 A 
ATOM     55  C   UNL     1       4.024 -25.477  -3.169  1.00  0.00     0.009 A 
ATOM     56  C   UNL     1       3.822 -28.021  -2.042  1.00  0.00     0.001 A 
ATOM     57  C   UNL     1       3.582 -26.550  -3.943  1.00  0.00     0.001 A 
ATOM     58  C   UNL     1       3.491 -27.823  -3.382  1.00  0.00     0.000 A 
ENDBRANCH  40  53
ENDBRANCH  14  15
ENDBRANCH   7   9
ENDBRANCH   4   5
ENDBRANCH   3   4
ENDBRANCH   2   3
ENDBRANCH   1   2
BRANCH   1  59
ATOM     59  C   UNL     1       9.797 -10.115   1.143  1.00  0.00     0.021 C 
BRANCH  59  60
ATOM     60  C   UNL     1       8.634  -9.216   0.724  1.00  0.00     0.116 C 
BRANCH  60  61
ATOM     61  N   UNL     1       8.918  -7.827   1.016  1.00  0.00    -0.354 N 
ATOM     62  C   UNL     1       9.133  -6.797   0.147  1.00  0.00     0.249 C 
ATOM     63  H   UNL     1       8.961  -7.593   1.972  1.00  0.00     0.163 HD
ATOM     64  O   UNL     1       9.432  -5.699   0.620  1.00  0.00    -0.272 OA
BRANCH  62  65
ATOM     65  C   UNL     1       8.916  -7.031  -1.366  1.00  0.00     0.207 C 
ATOM     66  C   UNL     1       9.249  -5.794  -2.186  1.00  0.00     0.045 C 
ATOM     67  O   UNL     1       9.741  -8.086  -1.889  1.00  0.00    -0.363 OA
ATOM     68  C   UNL     1      10.710  -6.013  -2.487  1.00  0.00     0.037 C 
ATOM     69  C   UNL     1      10.744  -7.511  -2.753  1.00  0.00     0.138 C 
BRANCH  69  70
ATOM     70  C   UNL     1      12.100  -8.198  -2.522  1.00  0.00     0.148 C 
BRANCH  70  71
ATOM     71  N   UNL     1      13.194  -7.440  -3.096  1.00  0.00    -0.352 N 
ATOM     72  H   UNL     1      13.296  -7.329  -4.069  1.00  0.00     0.163 HD
BRANCH  71  73
ATOM     73  C   UNL     1      14.084  -6.882  -2.204  1.00  0.00     0.222 A 
ATOM     74  N   UNL     1      14.366  -5.588  -2.398  1.00  0.00    -0.222 NA
ATOM     75  N   UNL     1      14.571  -7.615  -1.193  1.00  0.00    -0.222 NA
ATOM     76  C   UNL     1      15.159  -4.998  -1.483  1.00  0.00     0.117 A 
ATOM     77  C   UNL     1      15.391  -6.992  -0.329  1.00  0.00     0.117 A 
ATOM     78  C   UNL     1      15.712  -5.662  -0.417  1.00  0.00     0.040 A 
ENDBRANCH  71  73
ENDBRANCH  70  71
ENDBRANCH  69  70
ENDBRANCH  62  65
ENDBRANCH  60  61
ENDBRANCH  59  60
ENDBRANCH   1  59
TORSDOF 16
