REMARK SMILES Cc1cc(C)c(C(=O)N2CCC(CC(=O)NCCCCCCNC(=O)c3ccc(-c4c5nc(c(-c6ccccc6)c6ccc([nH]6)c(-c6ccccc6)c6nc(c(-c7ccccc7)c7ccc4[nH]7)C=C6)C=C5)cc3)CC2)c(C)c1
REMARK SMILES IDX 19 1 18 2 17 3 16 4 14 5 15 6 13 8 12 9 7 10 8 11 9 12 10 13
REMARK SMILES IDX 75 14 11 15 74 16 6 17 1 18 2 19 3 20 78 21 4 22 76 23 5 24
REMARK SMILES IDX 77 25 20 26 21 27 22 28 23 29 24 30 25 32 26 33 27 34 73 35
REMARK SMILES IDX 28 36 72 37 29 38 30 39 31 40 66 41 32 42 71 43 65 44 67 45
REMARK SMILES IDX 33 46 70 47 64 48 63 49 34 51 56 52 41 53 55 54 42 55 45 56
REMARK SMILES IDX 54 57 68 58 43 59 44 60 53 62 69 63 46 64 35 65 36 66 40 67
REMARK SMILES IDX 37 68 39 69 38 70 57 71 58 72 62 73 59 74 61 75 60 76 47 77
REMARK SMILES IDX 48 78 52 79 49 80 51 81 50 82
REMARK H PARENT 16 7 23 31 67 50 45 61
REMARK Flexibility Score: inf
ROOT
ATOM      1  C   UNL     1      -2.908  -7.912  -4.529  1.00  0.00     0.002 C 
ENDROOT
BRANCH   1   2
ATOM      2  C   UNL     1      -2.749  -7.263  -3.158  1.00  0.00     0.021 C 
BRANCH   2   3
ATOM      3  C   UNL     1      -3.323  -8.057  -1.966  1.00  0.00     0.116 C 
BRANCH   3   4
ATOM      4  N   UNL     1      -2.263  -8.731  -1.224  1.00  0.00    -0.356 N 
ATOM      5  C   UNL     1      -1.719  -8.507   0.009  1.00  0.00     0.220 C 
ATOM      6  O   UNL     1      -0.750  -9.200   0.334  1.00  0.00    -0.275 OA
ATOM      7  H   UNL     1      -1.864  -9.492  -1.703  1.00  0.00     0.163 HD
BRANCH   5   8
ATOM      8  C   UNL     1      -2.255  -7.439   0.966  1.00  0.00     0.103 C 
BRANCH   8   9
ATOM      9  C   UNL     1      -1.581  -6.066   0.770  1.00  0.00     0.002 C 
ATOM     10  C   UNL     1      -1.632  -1.850  -0.087  1.00  0.00     0.254 C 
ATOM     11  O   UNL     1      -2.525  -1.546  -0.885  1.00  0.00    -0.269 OA
ATOM     12  N   UNL     1      -1.478  -3.182   0.286  1.00  0.00    -0.339 N 
ATOM     13  C   UNL     1      -1.523  -4.107  -0.822  1.00  0.00     0.120 C 
ATOM     14  C   UNL     1      -1.123  -3.701   1.613  1.00  0.00     0.120 C 
ATOM     15  C   UNL     1      -2.143  -5.425  -0.483  1.00  0.00     0.026 C 
ATOM     16  C   UNL     1      -1.790  -5.066   1.924  1.00  0.00     0.026 C 
BRANCH  10  17
ATOM     17  C   UNL     1      -0.619  -0.791   0.251  1.00  0.00     0.045 A 
ATOM     18  C   UNL     1       2.172   2.536   0.105  1.00  0.00     0.044 C 
ATOM     19  C   UNL     1       1.210   1.393   0.216  1.00  0.00    -0.051 A 
ATOM     20  C   UNL     1      -0.161   1.620   0.293  1.00  0.00     0.007 A 
ATOM     21  C   UNL     1       1.667   0.079   0.207  1.00  0.00     0.007 A 
ATOM     22  C   UNL     1      -1.082   0.554   0.331  1.00  0.00    -0.038 A 
ATOM     23  C   UNL     1       0.782  -1.019   0.186  1.00  0.00    -0.038 A 
ATOM     24  C   UNL     1      -2.543   0.941   0.334  1.00  0.00     0.045 C 
ATOM     25  C   UNL     1       1.463  -2.351   0.047  1.00  0.00     0.045 C 
ENDBRANCH  10  17
ENDBRANCH   8   9
ENDBRANCH   5   8
ENDBRANCH   3   4
ENDBRANCH   2   3
ENDBRANCH   1   2
BRANCH   1  26
ATOM     26  C   UNL     1      -4.341  -7.955  -5.059  1.00  0.00     0.002 C 
BRANCH  26  27
ATOM     27  C   UNL     1      -5.056  -6.602  -5.165  1.00  0.00     0.021 C 
BRANCH  27  28
ATOM     28  C   UNL     1      -4.325  -5.530  -5.973  1.00  0.00     0.116 C 
BRANCH  28  29
ATOM     29  N   UNL     1      -4.090  -5.946  -7.348  1.00  0.00    -0.352 N 
ATOM     30  C   UNL     1      -4.586  -5.432  -8.516  1.00  0.00     0.251 C 
ATOM     31  H   UNL     1      -3.481  -6.713  -7.454  1.00  0.00     0.163 HD
ATOM     32  O   UNL     1      -4.452  -6.057  -9.570  1.00  0.00    -0.269 OA
BRANCH  30  33
ATOM     33  C   UNL     1      -5.291  -4.135  -8.524  1.00  0.00     0.039 A 
ATOM     34  C   UNL     1      -6.482  -4.013  -9.245  1.00  0.00     0.014 A 
ATOM     35  C   UNL     1      -4.761  -3.029  -7.853  1.00  0.00     0.014 A 
ATOM     36  C   UNL     1      -7.171  -2.798  -9.247  1.00  0.00     0.010 A 
ATOM     37  C   UNL     1      -5.479  -1.836  -7.805  1.00  0.00     0.010 A 
ATOM     38  C   UNL     1      -6.689  -1.708  -8.505  1.00  0.00    -0.014 A 
BRANCH  38  39
ATOM     39  C   UNL     1      -7.435  -0.425  -8.449  1.00  0.00     0.031 A 
ATOM     40  C   UNL     1      -6.840   0.824  -9.038  1.00  0.00     0.074 A 
ATOM     41  C   UNL     1      -8.619  -0.371  -7.809  1.00  0.00     0.049 A 
ATOM     42  N   UNL     1      -7.312   2.046  -9.031  1.00  0.00    -0.248 NA
ATOM     43  C   UNL     1      -5.534   0.689  -9.702  1.00  0.00     0.031 C 
ATOM     44  C   UNL     1      -9.284  -1.503  -7.159  1.00  0.00     0.029 A 
ATOM     45  N   UNL     1      -9.469   0.684  -7.589  1.00  0.00    -0.354 N 
ATOM     46  C   UNL     1      -6.353   2.825  -9.666  1.00  0.00     0.074 A 
ATOM     47  C   UNL     1      -5.256   1.947 -10.012  1.00  0.00     0.031 C 
ATOM     48  C   UNL     1     -10.445  -1.084  -6.629  1.00  0.00     0.029 A 
ATOM     49  C   UNL     1     -10.589   0.348  -6.869  1.00  0.00     0.049 A 
ATOM     50  H   UNL     1      -9.292   1.596  -7.917  1.00  0.00     0.167 HD
ATOM     51  C   UNL     1      -6.388   4.148  -9.950  1.00  0.00     0.031 A 
ATOM     52  C   UNL     1     -11.613   1.109  -6.440  1.00  0.00     0.031 A 
ATOM     53  C   UNL     1      -7.484   5.019  -9.620  1.00  0.00     0.049 A 
ATOM     54  C   UNL     1     -11.628   2.576  -6.770  1.00  0.00     0.074 A 
ATOM     55  C   UNL     1      -7.641   6.360  -9.924  1.00  0.00     0.029 A 
ATOM     56  N   UNL     1      -8.610   4.634  -8.910  1.00  0.00    -0.354 N 
ATOM     57  N   UNL     1     -10.749   3.281  -7.438  1.00  0.00    -0.248 NA
ATOM     58  C   UNL     1     -12.786   3.348  -6.296  1.00  0.00     0.031 C 
ATOM     59  C   UNL     1      -8.842   6.799  -9.357  1.00  0.00     0.029 A 
ATOM     60  C   UNL     1      -9.457   5.717  -8.746  1.00  0.00     0.049 A 
ATOM     61  H   UNL     1      -8.783   3.725  -8.572  1.00  0.00     0.167 HD
ATOM     62  C   UNL     1     -11.259   4.572  -7.490  1.00  0.00     0.074 A 
ATOM     63  C   UNL     1     -12.531   4.548  -6.799  1.00  0.00     0.031 C 
ATOM     64  C   UNL     1     -10.721   5.677  -8.059  1.00  0.00     0.031 A 
BRANCH  51  65
ATOM     65  C   UNL     1      -5.196   4.742 -10.649  1.00  0.00    -0.014 A 
ATOM     66  C   UNL     1      -4.926   4.455 -11.996  1.00  0.00     0.009 A 
ATOM     67  C   UNL     1      -4.359   5.636  -9.964  1.00  0.00     0.009 A 
ATOM     68  C   UNL     1      -3.822   5.026 -12.634  1.00  0.00     0.001 A 
ATOM     69  C   UNL     1      -3.273   6.228 -10.612  1.00  0.00     0.001 A 
ATOM     70  C   UNL     1      -3.001   5.916 -11.943  1.00  0.00     0.000 A 
ENDBRANCH  51  65
BRANCH  52  71
ATOM     71  C   UNL     1     -12.720   0.498  -5.659  1.00  0.00    -0.014 A 
ATOM     72  C   UNL     1     -13.994   0.346  -6.227  1.00  0.00     0.009 A 
ATOM     73  C   UNL     1     -12.511   0.073  -4.338  1.00  0.00     0.009 A 
ATOM     74  C   UNL     1     -15.043  -0.192  -5.479  1.00  0.00     0.001 A 
ATOM     75  C   UNL     1     -13.555  -0.491  -3.601  1.00  0.00     0.001 A 
ATOM     76  C   UNL     1     -14.822  -0.614  -4.168  1.00  0.00     0.000 A 
ENDBRANCH  52  71
BRANCH  64  77
ATOM     77  C   UNL     1     -11.525   6.944  -7.994  1.00  0.00    -0.014 A 
ATOM     78  C   UNL     1     -11.660   7.661  -6.795  1.00  0.00     0.009 A 
ATOM     79  C   UNL     1     -12.119   7.449  -9.161  1.00  0.00     0.009 A 
ATOM     80  C   UNL     1     -12.402   8.843  -6.760  1.00  0.00     0.001 A 
ATOM     81  C   UNL     1     -12.836   8.646  -9.129  1.00  0.00     0.001 A 
ATOM     82  C   UNL     1     -12.985   9.336  -7.928  1.00  0.00     0.000 A 
ENDBRANCH  64  77
ENDBRANCH  38  39
ENDBRANCH  30  33
ENDBRANCH  28  29
ENDBRANCH  27  28
ENDBRANCH  26  27
ENDBRANCH   1  26
TORSDOF 15
