REMARK SMILES O=C(NCCCCCCNC(=O)c1cccc2c(C(F)(F)F)cc(Br)nc12)c1ccc(-c2c3nc(c(-c4ccccc4)c4ccc([nH]4)c(-c4ccccc4)c4nc(c(-c5ccccc5)c5ccc2[nH]5)C=C4)C=C3)cc1
REMARK SMILES IDX 6 1 5 2 4 3 3 4 1 5 2 6 28 8 29 9 75 10 30 11 74 12 31 13
REMARK SMILES IDX 32 14 33 15 68 16 34 17 73 18 67 19 69 20 35 21 72 22 66 23
REMARK SMILES IDX 65 24 36 26 58 27 43 28 57 29 44 30 47 31 56 32 70 33 45 34
REMARK SMILES IDX 46 35 55 37 71 38 48 39 37 40 38 41 42 42 39 43 41 44 40 45
REMARK SMILES IDX 59 46 60 47 64 48 61 49 63 50 62 51 49 52 50 53 54 54 51 55
REMARK SMILES IDX 53 56 52 57 7 58 8 59 9 60 10 61 11 62 12 64 13 65 14 66
REMARK SMILES IDX 27 67 15 68 17 69 26 70 16 71 18 72 24 73 23 74 25 75 19 76
REMARK SMILES IDX 20 77 21 78 22 79
REMARK H PARENT 3 7 69 25 47 36 10 63
REMARK Flexibility Score: inf
ROOT
ATOM      1  C   UNL     1       4.280  -3.699  -1.177  1.00  0.00     0.002 C 
ENDROOT
BRANCH   1   2
ATOM      2  C   UNL     1       4.758  -2.734  -0.089  1.00  0.00     0.021 C 
BRANCH   2   3
ATOM      3  C   UNL     1       4.534  -1.252  -0.368  1.00  0.00     0.116 C 
BRANCH   3   4
ATOM      4  N   UNL     1       3.132  -0.914  -0.520  1.00  0.00    -0.352 N 
ATOM      5  O   UNL     1       1.170   0.092  -0.099  1.00  0.00    -0.269 OA
ATOM      6  C   UNL     1       2.387   0.070   0.076  1.00  0.00     0.251 C 
ATOM      7  H   UNL     1       2.635  -1.482  -1.152  1.00  0.00     0.163 HD
BRANCH   6   8
ATOM      8  C   UNL     1       3.012   1.106   0.934  1.00  0.00     0.039 A 
ATOM      9  C   UNL     1       2.299   1.554   2.053  1.00  0.00     0.014 A 
ATOM     10  C   UNL     1       4.234   1.705   0.612  1.00  0.00     0.014 A 
ATOM     11  C   UNL     1       2.808   2.588   2.843  1.00  0.00     0.010 A 
ATOM     12  C   UNL     1       4.775   2.689   1.440  1.00  0.00     0.010 A 
ATOM     13  C   UNL     1       4.050   3.166   2.543  1.00  0.00    -0.014 A 
BRANCH  13  14
ATOM     14  C   UNL     1       4.547   4.335   3.313  1.00  0.00     0.031 A 
ATOM     15  C   UNL     1       4.632   5.685   2.648  1.00  0.00     0.074 A 
ATOM     16  C   UNL     1       4.911   4.199   4.603  1.00  0.00     0.049 A 
ATOM     17  N   UNL     1       5.035   6.827   3.146  1.00  0.00    -0.248 NA
ATOM     18  C   UNL     1       4.228   5.759   1.234  1.00  0.00     0.031 C 
ATOM     19  C   UNL     1       4.884   2.948   5.363  1.00  0.00     0.029 A 
ATOM     20  N   UNL     1       5.360   5.130   5.507  1.00  0.00    -0.354 N 
ATOM     21  C   UNL     1       4.950   7.743   2.105  1.00  0.00     0.074 A 
ATOM     22  C   UNL     1       4.501   7.021   0.937  1.00  0.00     0.031 C 
ATOM     23  C   UNL     1       5.255   3.199   6.630  1.00  0.00     0.029 A 
ATOM     24  C   UNL     1       5.573   4.618   6.764  1.00  0.00     0.049 A 
ATOM     25  H   UNL     1       5.516   6.074   5.276  1.00  0.00     0.167 HD
ATOM     26  C   UNL     1       5.200   9.073   2.123  1.00  0.00     0.031 A 
ATOM     27  C   UNL     1       5.961   5.227   7.902  1.00  0.00     0.031 A 
ATOM     28  C   UNL     1       5.607   9.805   3.290  1.00  0.00     0.049 A 
ATOM     29  C   UNL     1       6.215   6.710   7.901  1.00  0.00     0.074 A 
ATOM     30  C   UNL     1       5.859  11.161   3.409  1.00  0.00     0.029 A 
ATOM     31  N   UNL     1       5.803   9.246   4.541  1.00  0.00    -0.354 N 
ATOM     32  N   UNL     1       6.108   7.564   6.912  1.00  0.00    -0.248 NA
ATOM     33  C   UNL     1       6.625   7.316   9.177  1.00  0.00     0.031 C 
ATOM     34  C   UNL     1       6.234  11.419   4.730  1.00  0.00     0.029 A 
ATOM     35  C   UNL     1       6.170  10.231   5.440  1.00  0.00     0.049 A 
ATOM     36  H   UNL     1       5.696   8.292   4.758  1.00  0.00     0.167 HD
ATOM     37  C   UNL     1       6.400   8.809   7.454  1.00  0.00     0.074 A 
ATOM     38  C   UNL     1       6.686   8.603   8.858  1.00  0.00     0.031 C 
ATOM     39  C   UNL     1       6.423  10.016   6.840  1.00  0.00     0.031 A 
BRANCH  26  40
ATOM     40  C   UNL     1       5.025   9.835   0.841  1.00  0.00    -0.014 A 
ATOM     41  C   UNL     1       6.149  10.340   0.168  1.00  0.00     0.009 A 
ATOM     42  C   UNL     1       3.746  10.118   0.338  1.00  0.00     0.009 A 
ATOM     43  C   UNL     1       5.995  11.119  -0.980  1.00  0.00     0.001 A 
ATOM     44  C   UNL     1       3.596  10.876  -0.825  1.00  0.00     0.001 A 
ATOM     45  C   UNL     1       4.720  11.382  -1.478  1.00  0.00     0.000 A 
ENDBRANCH  26  40
BRANCH  27  46
ATOM     46  C   UNL     1       6.072   4.442   9.159  1.00  0.00    -0.014 A 
ATOM     47  C   UNL     1       7.120   3.529   9.348  1.00  0.00     0.009 A 
ATOM     48  C   UNL     1       5.115   4.598  10.174  1.00  0.00     0.009 A 
ATOM     49  C   UNL     1       7.204   2.782  10.525  1.00  0.00     0.001 A 
ATOM     50  C   UNL     1       5.215   3.867  11.360  1.00  0.00     0.001 A 
ATOM     51  C   UNL     1       6.255   2.956  11.532  1.00  0.00     0.000 A 
ENDBRANCH  27  46
BRANCH  39  52
ATOM     52  C   UNL     1       6.717  11.227   7.675  1.00  0.00    -0.014 A 
ATOM     53  C   UNL     1       5.687  12.142   7.949  1.00  0.00     0.009 A 
ATOM     54  C   UNL     1       8.021  11.522   8.096  1.00  0.00     0.009 A 
ATOM     55  C   UNL     1       5.959  13.334   8.619  1.00  0.00     0.001 A 
ATOM     56  C   UNL     1       8.286  12.706   8.787  1.00  0.00     0.001 A 
ATOM     57  C   UNL     1       7.258  13.614   9.041  1.00  0.00     0.000 A 
ENDBRANCH  39  52
ENDBRANCH  13  14
ENDBRANCH   6   8
ENDBRANCH   3   4
ENDBRANCH   2   3
ENDBRANCH   1   2
BRANCH   1  58
ATOM     58  C   UNL     1       4.806  -3.436  -2.591  1.00  0.00     0.002 C 
BRANCH  58  59
ATOM     59  C   UNL     1       6.327  -3.326  -2.741  1.00  0.00     0.021 C 
BRANCH  59  60
ATOM     60  C   UNL     1       7.139  -4.493  -2.184  1.00  0.00     0.116 C 
BRANCH  60  61
ATOM     61  N   UNL     1       6.796  -5.759  -2.801  1.00  0.00    -0.352 N 
ATOM     62  C   UNL     1       7.626  -6.747  -3.267  1.00  0.00     0.253 C 
ATOM     63  H   UNL     1       5.832  -5.934  -2.901  1.00  0.00     0.163 HD
ATOM     64  O   UNL     1       7.152  -7.787  -3.720  1.00  0.00    -0.269 OA
BRANCH  62  65
ATOM     65  C   UNL     1       9.088  -6.599  -3.135  1.00  0.00     0.066 A 
ATOM     66  C   UNL     1       9.624  -6.608  -1.839  1.00  0.00     0.016 A 
ATOM     67  C   UNL     1       9.886  -6.540  -4.285  1.00  0.00     0.085 A 
ATOM     68  C   UNL     1      10.995  -6.530  -1.669  1.00  0.00     0.002 A 
ATOM     69  C   UNL     1      11.291  -6.500  -4.107  1.00  0.00     0.013 A 
ATOM     70  N   UNL     1       9.336  -6.509  -5.518  1.00  0.00    -0.240 NA
ATOM     71  C   UNL     1      11.819  -6.482  -2.791  1.00  0.00     0.011 A 
ATOM     72  C   UNL     1      12.107  -6.487  -5.269  1.00  0.00     0.068 A 
ATOM     73  C   UNL     1      10.128  -6.494  -6.603  1.00  0.00     0.107 A 
ATOM     74  C   UNL     1      11.503  -6.488  -6.532  1.00  0.00     0.049 A 
ATOM     75  Br  UNL     1       9.294  -6.478  -8.305  1.00  0.00    -0.029 Br
BRANCH  72  76
ATOM     76  C   UNL     1      13.613  -6.485  -5.186  1.00  0.00     0.417 C 
ATOM     77  F   UNL     1      14.100  -5.375  -4.566  1.00  0.00    -0.166 F 
ATOM     78  F   UNL     1      14.105  -7.550  -4.495  1.00  0.00    -0.166 F 
ATOM     79  F   UNL     1      14.225  -6.524  -6.403  1.00  0.00    -0.166 F 
ENDBRANCH  72  76
ENDBRANCH  62  65
ENDBRANCH  60  61
ENDBRANCH  59  60
ENDBRANCH  58  59
ENDBRANCH   1  58
TORSDOF 14
