REMARK SMILES CC1(C)CSC[C@H](Nc2cc(C(=O)NCCCCCCNC(=O)c3ccc(-c4c5nc(c(-c6ccccc6)c6ccc([nH]6)c(-c6ccccc6)c6nc(c(-c7ccccc7)c7ccc4[nH]7)C=C6)C=C5)cc3)ccc2F)C1
REMARK SMILES IDX 17 1 16 2 15 3 14 4 12 5 13 6 11 8 9 9 10 10 74 11 73 12
REMARK SMILES IDX 75 13 72 14 8 15 7 17 1 18 2 19 3 20 4 21 76 22 5 23 6 24
REMARK SMILES IDX 18 25 19 26 20 27 21 28 22 29 23 31 24 32 25 33 71 34 26 35
REMARK SMILES IDX 70 36 27 37 28 38 29 39 64 40 30 41 69 42 63 43 65 44 31 45
REMARK SMILES IDX 68 46 62 47 61 48 32 50 54 51 39 52 53 53 40 54 43 55 52 56
REMARK SMILES IDX 66 57 41 58 42 59 51 61 67 62 44 63 33 64 34 65 38 66 35 67
REMARK SMILES IDX 37 68 36 69 55 70 56 71 60 72 57 73 59 74 58 75 45 76 46 77
REMARK SMILES IDX 50 78 47 79 49 80 48 81
REMARK H PARENT 14 7 8 16 21 30 65 49 43 60
REMARK Flexibility Score: inf
ROOT
ATOM      1  C   UNL     1       6.721  11.303   1.753  1.00  0.00     0.002 C 
ENDROOT
BRANCH   1   2
ATOM      2  C   UNL     1       6.477   9.808   2.006  1.00  0.00     0.021 C 
BRANCH   2   3
ATOM      3  C   UNL     1       4.992   9.442   2.061  1.00  0.00     0.116 C 
BRANCH   3   4
ATOM      4  N   UNL     1       4.461   9.353   0.718  1.00  0.00    -0.352 N 
ATOM      5  C   UNL     1       4.229   8.309  -0.134  1.00  0.00     0.251 C 
ATOM      6  O   UNL     1       3.818   8.597  -1.260  1.00  0.00    -0.269 OA
ATOM      7  H   UNL     1       4.215  10.227   0.338  1.00  0.00     0.163 HD
BRANCH   5   8
ATOM      8  C   UNL     1       4.372   6.870   0.233  1.00  0.00     0.042 A 
ATOM      9  C   UNL     1       3.590   4.592  -0.286  1.00  0.00     0.071 A 
ATOM     10  C   UNL     1       3.618   5.970  -0.544  1.00  0.00     0.042 A 
ATOM     11  C   UNL     1       4.332   4.128   0.805  1.00  0.00     0.146 A 
ATOM     12  C   UNL     1       5.133   4.988   1.554  1.00  0.00     0.042 A 
ATOM     13  F   UNL     1       4.335   2.826   1.130  1.00  0.00    -0.205 F 
ATOM     14  C   UNL     1       5.175   6.353   1.251  1.00  0.00     0.017 A 
BRANCH   9  15
ATOM     15  N   UNL     1       2.766   3.799  -1.075  1.00  0.00    -0.379 N 
ATOM     16  H   UNL     1       2.831   3.861  -2.056  1.00  0.00     0.160 HD
BRANCH  15  17
ATOM     17  C   UNL     1       1.804   2.870  -0.476  1.00  0.00     0.089 C 
ATOM     18  C   UNL     1       0.919  -0.128  -0.131  1.00  0.00     0.012 C 
ATOM     19  C   UNL     1       0.303   0.852  -1.149  1.00  0.00    -0.024 C 
ATOM     20  C   UNL     1      -0.102   0.036  -2.396  1.00  0.00     0.012 C 
ATOM     21  C   UNL     1      -0.966   1.524  -0.587  1.00  0.00     0.076 C 
ATOM     22  C   UNL     1       1.341   1.910  -1.587  1.00  0.00     0.033 C 
ATOM     23  S   UNL     1      -0.671   2.619   0.834  1.00  0.00    -0.159 SA
ATOM     24  C   UNL     1       0.626   3.666   0.113  1.00  0.00     0.094 C 
ENDBRANCH  15  17
ENDBRANCH   9  15
ENDBRANCH   5   8
ENDBRANCH   3   4
ENDBRANCH   2   3
ENDBRANCH   1   2
BRANCH   1  25
ATOM     25  C   UNL     1       6.201  12.237   2.854  1.00  0.00     0.002 C 
BRANCH  25  26
ATOM     26  C   UNL     1       6.675  11.897   4.269  1.00  0.00     0.021 C 
BRANCH  26  27
ATOM     27  C   UNL     1       8.190  11.924   4.449  1.00  0.00     0.116 C 
BRANCH  27  28
ATOM     28  N   UNL     1       8.729  13.260   4.265  1.00  0.00    -0.352 N 
ATOM     29  C   UNL     1       9.485  14.021   5.119  1.00  0.00     0.251 C 
ATOM     30  H   UNL     1       8.521  13.681   3.400  1.00  0.00     0.163 HD
ATOM     31  O   UNL     1       9.655  15.214   4.890  1.00  0.00    -0.269 OA
BRANCH  29  32
ATOM     32  C   UNL     1      10.094  13.411   6.321  1.00  0.00     0.039 A 
ATOM     33  C   UNL     1      10.081  14.130   7.519  1.00  0.00     0.014 A 
ATOM     34  C   UNL     1      10.722  12.164   6.259  1.00  0.00     0.014 A 
ATOM     35  C   UNL     1      10.670  13.586   8.661  1.00  0.00     0.010 A 
ATOM     36  C   UNL     1      11.251  11.593   7.414  1.00  0.00     0.010 A 
ATOM     37  C   UNL     1      11.247  12.306   8.621  1.00  0.00    -0.014 A 
BRANCH  37  38
ATOM     38  C   UNL     1      11.877  11.720   9.830  1.00  0.00     0.031 A 
ATOM     39  C   UNL     1      13.362  11.482   9.869  1.00  0.00     0.074 A 
ATOM     40  C   UNL     1      11.110  11.372  10.880  1.00  0.00     0.049 A 
ATOM     41  N   UNL     1      14.092  10.978  10.833  1.00  0.00    -0.248 NA
ATOM     42  C   UNL     1      14.124  11.832   8.660  1.00  0.00     0.031 C 
ATOM     43  C   UNL     1       9.654  11.513  10.950  1.00  0.00     0.029 A 
ATOM     44  N   UNL     1      11.452  10.829  12.092  1.00  0.00    -0.354 N 
ATOM     45  C   UNL     1      15.391  10.937  10.341  1.00  0.00     0.074 A 
ATOM     46  C   UNL     1      15.342  11.420   8.978  1.00  0.00     0.031 C 
ATOM     47  C   UNL     1       9.232  11.096  12.155  1.00  0.00     0.029 A 
ATOM     48  C   UNL     1      10.380  10.635  12.929  1.00  0.00     0.049 A 
ATOM     49  H   UNL     1      12.377  10.600  12.339  1.00  0.00     0.167 HD
ATOM     50  C   UNL     1      16.526  10.552  10.971  1.00  0.00     0.031 A 
ATOM     51  C   UNL     1      10.330  10.147  14.182  1.00  0.00     0.031 A 
ATOM     52  C   UNL     1      16.579  10.086  12.331  1.00  0.00     0.049 A 
ATOM     53  C   UNL     1      11.605   9.742  14.866  1.00  0.00     0.074 A 
ATOM     54  C   UNL     1      17.687   9.723  13.077  1.00  0.00     0.029 A 
ATOM     55  N   UNL     1      15.474   9.921  13.150  1.00  0.00    -0.354 N 
ATOM     56  N   UNL     1      12.834   9.773  14.410  1.00  0.00    -0.248 NA
ATOM     57  C   UNL     1      11.486   9.252  16.247  1.00  0.00     0.031 C 
ATOM     58  C   UNL     1      17.247   9.299  14.336  1.00  0.00     0.029 A 
ATOM     59  C   UNL     1      15.870   9.447  14.389  1.00  0.00     0.049 A 
ATOM     60  H   UNL     1      14.544  10.112  12.890  1.00  0.00     0.167 HD
ATOM     61  C   UNL     1      13.636   9.336  15.456  1.00  0.00     0.074 A 
ATOM     62  C   UNL     1      12.756   9.062  16.573  1.00  0.00     0.031 C 
ATOM     63  C   UNL     1      14.982   9.178  15.489  1.00  0.00     0.031 A 
BRANCH  50  64
ATOM     64  C   UNL     1      17.806  10.617  10.186  1.00  0.00    -0.014 A 
ATOM     65  C   UNL     1      18.390  11.849   9.847  1.00  0.00     0.009 A 
ATOM     66  C   UNL     1      18.451   9.432   9.799  1.00  0.00     0.009 A 
ATOM     67  C   UNL     1      19.571  11.893   9.104  1.00  0.00     0.001 A 
ATOM     68  C   UNL     1      19.648   9.479   9.081  1.00  0.00     0.001 A 
ATOM     69  C   UNL     1      20.201  10.708   8.725  1.00  0.00     0.000 A 
ENDBRANCH  50  64
BRANCH  51  70
ATOM     70  C   UNL     1       9.027  10.049  14.889  1.00  0.00    -0.014 A 
ATOM     71  C   UNL     1       8.723  10.925  15.943  1.00  0.00     0.009 A 
ATOM     72  C   UNL     1       8.085   9.077  14.519  1.00  0.00     0.009 A 
ATOM     73  C   UNL     1       7.513  10.811  16.630  1.00  0.00     0.001 A 
ATOM     74  C   UNL     1       6.864   8.984  15.190  1.00  0.00     0.001 A 
ATOM     75  C   UNL     1       6.583   9.844  16.251  1.00  0.00     0.000 A 
ENDBRANCH  51  70
BRANCH  63  76
ATOM     76  C   UNL     1      15.583   8.722  16.788  1.00  0.00    -0.014 A 
ATOM     77  C   UNL     1      15.430   7.402  17.239  1.00  0.00     0.009 A 
ATOM     78  C   UNL     1      16.333   9.624  17.559  1.00  0.00     0.009 A 
ATOM     79  C   UNL     1      15.983   7.006  18.459  1.00  0.00     0.001 A 
ATOM     80  C   UNL     1      16.908   9.217  18.763  1.00  0.00     0.001 A 
ATOM     81  C   UNL     1      16.724   7.912  19.217  1.00  0.00     0.000 A 
ENDBRANCH  63  76
ENDBRANCH  37  38
ENDBRANCH  29  32
ENDBRANCH  27  28
ENDBRANCH  26  27
ENDBRANCH  25  26
ENDBRANCH   1  25
TORSDOF 15
