REMARK SMILES CCCCCC[C@@H](C(=O)NCCCCCCNC(=O)c1ccc(-c2c3nc(c(-c4ccccc4)c4ccc([nH]4)c(-c4ccccc4)c4nc(c(-c5ccccc5)c5ccc2[nH]5)C=C4)C=C3)cc1)c1ccccc1C
REMARK SMILES IDX 12 1 11 2 10 3 8 4 9 5 7 7 6 8 5 9 4 10 3 11 2 12 1 13 68 14
REMARK SMILES IDX 69 15 73 16 70 17 72 18 74 19 71 20 13 21 14 22 15 23 16 24
REMARK SMILES IDX 17 25 18 26 19 28 20 29 21 30 67 31 22 32 66 33 23 34 24 35
REMARK SMILES IDX 25 36 60 37 26 38 65 39 59 40 61 41 27 42 64 43 58 44 57 45
REMARK SMILES IDX 28 47 50 48 35 49 49 50 36 51 39 52 48 53 62 54 37 55 38 56
REMARK SMILES IDX 47 58 63 59 40 60 29 61 30 62 34 63 31 64 33 65 32 66 51 67
REMARK SMILES IDX 52 68 56 69 53 70 55 71 54 72 41 73 42 74 46 75 43 76 45 77
REMARK SMILES IDX 44 78
REMARK H PARENT 10 6 17 27 61 46 39 57
REMARK Flexibility Score: inf
ROOT
ATOM      1  C   UNL     1      -1.125  -3.972  -2.439  1.00  0.00     0.021 C 
ENDROOT
BRANCH   1   2
ATOM      2  C   UNL     1      -0.590  -3.627  -3.837  1.00  0.00     0.116 C 
BRANCH   2   3
ATOM      3  N   UNL     1      -1.708  -3.360  -4.722  1.00  0.00    -0.356 N 
ATOM      4  C   UNL     1      -2.314  -2.152  -4.950  1.00  0.00     0.227 C 
ATOM      5  O   UNL     1      -3.543  -2.160  -5.058  1.00  0.00    -0.274 OA
ATOM      6  H   UNL     1      -2.073  -4.132  -5.212  1.00  0.00     0.163 HD
BRANCH   4   7
ATOM      7  C   UNL     1      -1.472  -0.869  -5.080  1.00  0.00     0.109 C 
BRANCH   7   8
ATOM      8  C   UNL     1      -1.794   0.003  -3.816  1.00  0.00     0.018 C 
BRANCH   8   9
ATOM      9  C   UNL     1      -1.116  -0.407  -2.505  1.00  0.00     0.001 C 
BRANCH   9  10
ATOM     10  C   UNL     1       0.416  -0.339  -2.503  1.00  0.00     0.000 C 
BRANCH  10  11
ATOM     11  C   UNL     1       1.003   1.004  -2.061  1.00  0.00    -0.000 C 
BRANCH  11  12
ATOM     12  C   UNL     1       0.694   1.423  -0.620  1.00  0.00    -0.003 C 
ATOM     13  C   UNL     1       1.050   0.372   0.421  1.00  0.00     0.004 C 
ENDBRANCH  11  12
ENDBRANCH  10  11
ENDBRANCH   9  10
ENDBRANCH   8   9
ENDBRANCH   7   8
BRANCH   7  14
ATOM     14  C   UNL     1      -1.709  -0.054  -6.386  1.00  0.00    -0.033 A 
ATOM     15  C   UNL     1      -1.182   1.263  -6.418  1.00  0.00     0.005 A 
ATOM     16  C   UNL     1      -2.356  -0.498  -7.564  1.00  0.00    -0.047 A 
ATOM     17  C   UNL     1      -1.456   2.161  -7.451  1.00  0.00     0.000 A 
ATOM     18  C   UNL     1      -2.657   0.434  -8.585  1.00  0.00     0.004 A 
ATOM     19  C   UNL     1      -2.773  -1.916  -7.852  1.00  0.00     0.044 C 
ATOM     20  C   UNL     1      -2.234   1.756  -8.519  1.00  0.00     0.000 A 
ENDBRANCH   7  14
ENDBRANCH   4   7
ENDBRANCH   2   3
ENDBRANCH   1   2
BRANCH   1  21
ATOM     21  C   UNL     1      -1.412  -5.460  -2.234  1.00  0.00     0.002 C 
BRANCH  21  22
ATOM     22  C   UNL     1      -0.162  -6.327  -2.071  1.00  0.00     0.002 C 
BRANCH  22  23
ATOM     23  C   UNL     1       0.777  -5.918  -0.930  1.00  0.00     0.021 C 
BRANCH  23  24
ATOM     24  C   UNL     1       0.119  -5.801   0.443  1.00  0.00     0.116 C 
BRANCH  24  25
ATOM     25  N   UNL     1      -0.460  -7.061   0.876  1.00  0.00    -0.352 N 
ATOM     26  C   UNL     1      -0.183  -7.818   1.985  1.00  0.00     0.251 C 
ATOM     27  H   UNL     1      -1.157  -7.426   0.284  1.00  0.00     0.163 HD
ATOM     28  O   UNL     1      -0.613  -8.963   2.069  1.00  0.00    -0.269 OA
BRANCH  26  29
ATOM     29  C   UNL     1       0.635  -7.262   3.085  1.00  0.00     0.039 A 
ATOM     30  C   UNL     1       1.597  -8.079   3.686  1.00  0.00     0.014 A 
ATOM     31  C   UNL     1       0.416  -5.967   3.564  1.00  0.00     0.014 A 
ATOM     32  C   UNL     1       2.360  -7.587   4.747  1.00  0.00     0.010 A 
ATOM     33  C   UNL     1       1.222  -5.455   4.579  1.00  0.00     0.010 A 
ATOM     34  C   UNL     1       2.188  -6.267   5.193  1.00  0.00    -0.014 A 
BRANCH  34  35
ATOM     35  C   UNL     1       2.984  -5.737   6.327  1.00  0.00     0.031 A 
ATOM     36  C   UNL     1       2.307  -5.387   7.625  1.00  0.00     0.074 A 
ATOM     37  C   UNL     1       4.307  -5.534   6.181  1.00  0.00     0.049 A 
ATOM     38  N   UNL     1       2.826  -4.893   8.721  1.00  0.00    -0.248 NA
ATOM     39  C   UNL     1       0.852  -5.598   7.693  1.00  0.00     0.031 C 
ATOM     40  C   UNL     1       5.075  -5.796   4.962  1.00  0.00     0.029 A 
ATOM     41  N   UNL     1       5.239  -5.057   7.067  1.00  0.00    -0.354 N 
ATOM     42  C   UNL     1       1.762  -4.717   9.597  1.00  0.00     0.074 A 
ATOM     43  C   UNL     1       0.563  -5.112   8.890  1.00  0.00     0.031 C 
ATOM     44  C   UNL     1       6.367  -5.504   5.188  1.00  0.00     0.029 A 
ATOM     45  C   UNL     1       6.511  -5.008   6.553  1.00  0.00     0.049 A 
ATOM     46  H   UNL     1       5.017  -4.778   7.985  1.00  0.00     0.167 HD
ATOM     47  C   UNL     1       1.781  -4.286  10.880  1.00  0.00     0.031 A 
ATOM     48  C   UNL     1       7.666  -4.612   7.120  1.00  0.00     0.031 A 
ATOM     49  C   UNL     1       2.973  -3.910  11.591  1.00  0.00     0.049 A 
ATOM     50  C   UNL     1       7.663  -4.149   8.550  1.00  0.00     0.074 A 
ATOM     51  C   UNL     1       3.103  -3.509  12.909  1.00  0.00     0.029 A 
ATOM     52  N   UNL     1       4.245  -3.892  11.039  1.00  0.00    -0.354 N 
ATOM     53  N   UNL     1       6.657  -4.049   9.384  1.00  0.00    -0.248 NA
ATOM     54  C   UNL     1       8.962  -3.763   9.120  1.00  0.00     0.031 C 
ATOM     55  C   UNL     1       4.450  -3.211  13.144  1.00  0.00     0.029 A 
ATOM     56  C   UNL     1       5.164  -3.474  11.986  1.00  0.00     0.049 A 
ATOM     57  H   UNL     1       4.462  -4.140  10.111  1.00  0.00     0.167 HD
ATOM     58  C   UNL     1       7.204  -3.617  10.585  1.00  0.00     0.074 A 
ATOM     59  C   UNL     1       8.631  -3.489  10.375  1.00  0.00     0.031 C 
ATOM     60  C   UNL     1       6.580  -3.353  11.759  1.00  0.00     0.031 A 
BRANCH  47  61
ATOM     61  C   UNL     1       0.462  -4.196  11.596  1.00  0.00    -0.014 A 
ATOM     62  C   UNL     1      -0.241  -5.352  11.974  1.00  0.00     0.009 A 
ATOM     63  C   UNL     1      -0.076  -2.940  11.918  1.00  0.00     0.009 A 
ATOM     64  C   UNL     1      -1.473  -5.251  12.623  1.00  0.00     0.001 A 
ATOM     65  C   UNL     1      -1.294  -2.842  12.593  1.00  0.00     0.001 A 
ATOM     66  C   UNL     1      -1.997  -3.997  12.935  1.00  0.00     0.000 A 
ENDBRANCH  47  61
BRANCH  48  67
ATOM     67  C   UNL     1       8.932  -4.667   6.344  1.00  0.00    -0.014 A 
ATOM     68  C   UNL     1       9.904  -5.635   6.640  1.00  0.00     0.009 A 
ATOM     69  C   UNL     1       9.177  -3.753   5.308  1.00  0.00     0.009 A 
ATOM     70  C   UNL     1      11.107  -5.669   5.933  1.00  0.00     0.001 A 
ATOM     71  C   UNL     1      10.370  -3.806   4.585  1.00  0.00     0.001 A 
ATOM     72  C   UNL     1      11.338  -4.758   4.903  1.00  0.00     0.000 A 
ENDBRANCH  48  67
BRANCH  60  73
ATOM     73  C   UNL     1       7.445  -2.937  12.915  1.00  0.00    -0.014 A 
ATOM     74  C   UNL     1       8.030  -1.663  12.967  1.00  0.00     0.009 A 
ATOM     75  C   UNL     1       7.651  -3.827  13.981  1.00  0.00     0.009 A 
ATOM     76  C   UNL     1       8.834  -1.301  14.049  1.00  0.00     0.001 A 
ATOM     77  C   UNL     1       8.433  -3.452  15.074  1.00  0.00     0.001 A 
ATOM     78  C   UNL     1       9.032  -2.194  15.102  1.00  0.00     0.000 A 
ENDBRANCH  60  73
ENDBRANCH  34  35
ENDBRANCH  26  29
ENDBRANCH  24  25
ENDBRANCH  23  24
ENDBRANCH  22  23
ENDBRANCH  21  22
ENDBRANCH   1  21
TORSDOF 19
