REMARK SMILES COc1c(C)cc(Br)cc1C(=O)Nc1ccc(O)c(C(=O)NCCCCCCNC(=O)c2ccc(-c3c4nc(c(-c5ccccc5)c5ccc([nH]5)c(-c5ccccc5)c5nc(c(-c6ccccc6)c6ccc3[nH]6)C=C5)C=C4)cc2)c1
REMARK SMILES IDX 25 1 24 2 23 3 22 4 20 5 21 6 19 8 14 9 15 10 80 11 16 12
REMARK SMILES IDX 17 13 13 14 11 15 12 16 10 18 3 19 4 20 5 21 6 22 9 23 7 24
REMARK SMILES IDX 8 25 2 26 1 27 18 28 26 30 27 31 28 32 29 33 30 34 31 36
REMARK SMILES IDX 32 37 33 38 79 39 34 40 78 41 35 42 36 43 37 44 72 45 38 46
REMARK SMILES IDX 77 47 71 48 73 49 39 50 76 51 70 52 69 53 40 55 62 56 47 57
REMARK SMILES IDX 61 58 48 59 51 60 60 61 74 62 49 63 50 64 59 66 75 67 52 68
REMARK SMILES IDX 41 69 42 70 46 71 43 72 45 73 44 74 63 75 64 76 68 77 65 78
REMARK SMILES IDX 67 79 66 80 53 81 54 82 58 83 55 84 57 85 56 86
REMARK H PARENT 22 7 13 17 18 29 29 35 73 54 51 65
REMARK Flexibility Score: inf
ROOT
ATOM      1  C   UNL     1       2.699  -4.067   4.870  1.00  0.00     0.002 C 
ENDROOT
BRANCH   1   2
ATOM      2  C   UNL     1       2.296  -2.795   4.116  1.00  0.00     0.021 C 
BRANCH   2   3
ATOM      3  C   UNL     1       2.283  -2.953   2.594  1.00  0.00     0.116 C 
BRANCH   3   4
ATOM      4  N   UNL     1       1.076  -3.639   2.184  1.00  0.00    -0.352 N 
ATOM      5  C   UNL     1      -0.129  -3.168   1.730  1.00  0.00     0.255 C 
ATOM      6  O   UNL     1      -1.035  -3.988   1.569  1.00  0.00    -0.269 OA
ATOM      7  H   UNL     1       1.130  -4.620   2.241  1.00  0.00     0.163 HD
BRANCH   5   8
ATOM      8  C   UNL     1      -0.347  -1.772   1.264  1.00  0.00     0.083 A 
ATOM      9  C   UNL     1      -1.082  -0.469  -0.661  1.00  0.00     0.042 A 
ATOM     10  C   UNL     1      -0.687   0.709  -0.035  1.00  0.00     0.030 A 
ATOM     11  C   UNL     1      -0.985  -1.686   0.017  1.00  0.00     0.043 A 
ATOM     12  C   UNL     1      -0.147   0.652   1.252  1.00  0.00     0.049 A 
ATOM     13  C   UNL     1       0.050  -0.584   1.887  1.00  0.00     0.128 A 
BRANCH   9  14
ATOM     14  N   UNL     1      -1.544  -0.525  -1.975  1.00  0.00    -0.322 N 
ATOM     15  C   UNL     1      -1.141   0.124  -3.117  1.00  0.00     0.259 C 
ATOM     16  O   UNL     1      -1.882   0.031  -4.102  1.00  0.00    -0.269 OA
ATOM     17  H   UNL     1      -2.297  -1.145  -2.110  1.00  0.00     0.170 HD
BRANCH  15  18
ATOM     18  C   UNL     1       0.151   0.869  -3.278  1.00  0.00     0.083 A 
ATOM     19  C   UNL     1       1.389   0.558  -2.648  1.00  0.00     0.134 A 
ATOM     20  C   UNL     1       2.522   1.368  -2.910  1.00  0.00    -0.007 A 
ATOM     21  C   UNL     1       3.872   1.242  -2.257  1.00  0.00     0.048 C 
ATOM     22  C   UNL     1       2.437   2.346  -3.922  1.00  0.00     0.023 A 
ATOM     23  C   UNL     1       0.110   1.868  -4.270  1.00  0.00     0.033 A 
ATOM     24  C   UNL     1       1.255   2.567  -4.614  1.00  0.00     0.019 A 
ATOM     25  Br  UNL     1       1.223   3.790  -6.053  1.00  0.00    -0.051 Br
BRANCH  19  26
ATOM     26  O   UNL     1       1.414  -0.630  -1.968  1.00  0.00    -0.496 OA
ATOM     27  C   UNL     1       2.350  -0.866  -0.932  1.00  0.00     0.278 C 
ENDBRANCH  19  26
ENDBRANCH  15  18
ENDBRANCH   9  14
BRANCH  13  28
ATOM     28  O   UNL     1       0.631  -0.579   3.120  1.00  0.00    -0.507 OA
ATOM     29  H   UNL     1       0.887   0.231   3.514  1.00  0.00     0.293 HD
ENDBRANCH  13  28
ENDBRANCH   5   8
ENDBRANCH   3   4
ENDBRANCH   2   3
ENDBRANCH   1   2
BRANCH   1  30
ATOM     30  C   UNL     1       4.165  -4.477   4.705  1.00  0.00     0.002 C 
BRANCH  30  31
ATOM     31  C   UNL     1       5.186  -3.395   5.067  1.00  0.00     0.021 C 
BRANCH  31  32
ATOM     32  C   UNL     1       5.059  -2.848   6.486  1.00  0.00     0.116 C 
BRANCH  32  33
ATOM     33  N   UNL     1       5.317  -3.869   7.488  1.00  0.00    -0.352 N 
ATOM     34  C   UNL     1       6.247  -3.882   8.498  1.00  0.00     0.251 C 
ATOM     35  H   UNL     1       4.743  -4.667   7.434  1.00  0.00     0.163 HD
ATOM     36  O   UNL     1       6.477  -4.915   9.116  1.00  0.00    -0.269 OA
BRANCH  34  37
ATOM     37  C   UNL     1       6.982  -2.644   8.835  1.00  0.00     0.039 A 
ATOM     38  C   UNL     1       8.357  -2.715   9.070  1.00  0.00     0.014 A 
ATOM     39  C   UNL     1       6.312  -1.422   8.942  1.00  0.00     0.014 A 
ATOM     40  C   UNL     1       9.070  -1.551   9.363  1.00  0.00     0.010 A 
ATOM     41  C   UNL     1       7.035  -0.253   9.160  1.00  0.00     0.010 A 
ATOM     42  C   UNL     1       8.419  -0.306   9.384  1.00  0.00    -0.014 A 
BRANCH  42  43
ATOM     43  C   UNL     1       9.163   0.948   9.659  1.00  0.00     0.031 A 
ATOM     44  C   UNL     1       8.851   1.756  10.889  1.00  0.00     0.074 A 
ATOM     45  C   UNL     1      10.077   1.391   8.775  1.00  0.00     0.049 A 
ATOM     46  N   UNL     1       9.348   2.905  11.271  1.00  0.00    -0.248 NA
ATOM     47  C   UNL     1       7.826   1.214  11.796  1.00  0.00     0.031 C 
ATOM     48  C   UNL     1      10.449   0.718   7.528  1.00  0.00     0.029 A 
ATOM     49  N   UNL     1      10.858   2.520   8.789  1.00  0.00    -0.354 N 
ATOM     50  C   UNL     1       8.685   3.230  12.448  1.00  0.00     0.074 A 
ATOM     51  C   UNL     1       7.713   2.186  12.689  1.00  0.00     0.031 C 
ATOM     52  C   UNL     1      11.405   1.432   6.913  1.00  0.00     0.029 A 
ATOM     53  C   UNL     1      11.684   2.631   7.696  1.00  0.00     0.049 A 
ATOM     54  H   UNL     1      10.829   3.186   9.512  1.00  0.00     0.167 HD
ATOM     55  C   UNL     1       8.880   4.290  13.268  1.00  0.00     0.031 A 
ATOM     56  C   UNL     1      12.563   3.593   7.361  1.00  0.00     0.031 A 
ATOM     57  C   UNL     1       9.852   5.324  13.033  1.00  0.00     0.049 A 
ATOM     58  C   UNL     1      12.749   4.771   8.277  1.00  0.00     0.074 A 
ATOM     59  C   UNL     1      10.162   6.413  13.829  1.00  0.00     0.029 A 
ATOM     60  N   UNL     1      10.672   5.397  11.918  1.00  0.00    -0.354 N 
ATOM     61  N   UNL     1      12.158   5.031   9.418  1.00  0.00    -0.248 NA
ATOM     62  C   UNL     1      13.735   5.780   7.865  1.00  0.00     0.031 C 
ATOM     63  C   UNL     1      11.131   7.175  13.168  1.00  0.00     0.029 A 
ATOM     64  C   UNL     1      11.470   6.525  11.992  1.00  0.00     0.049 A 
ATOM     65  H   UNL     1      10.684   4.743  11.182  1.00  0.00     0.167 HD
ATOM     66  C   UNL     1      12.724   6.215   9.876  1.00  0.00     0.074 A 
ATOM     67  C   UNL     1      13.713   6.612   8.896  1.00  0.00     0.031 C 
ATOM     68  C   UNL     1      12.451   6.907  11.009  1.00  0.00     0.031 A 
BRANCH  55  69
ATOM     69  C   UNL     1       8.011   4.388  14.493  1.00  0.00    -0.014 A 
ATOM     70  C   UNL     1       8.145   3.481  15.557  1.00  0.00     0.009 A 
ATOM     71  C   UNL     1       7.062   5.417  14.596  1.00  0.00     0.009 A 
ATOM     72  C   UNL     1       7.320   3.578  16.680  1.00  0.00     0.001 A 
ATOM     73  C   UNL     1       6.261   5.532  15.734  1.00  0.00     0.001 A 
ATOM     74  C   UNL     1       6.382   4.606  16.769  1.00  0.00     0.000 A 
ENDBRANCH  55  69
BRANCH  56  75
ATOM     75  C   UNL     1      13.352   3.477   6.106  1.00  0.00    -0.014 A 
ATOM     76  C   UNL     1      14.734   3.234   6.152  1.00  0.00     0.009 A 
ATOM     77  C   UNL     1      12.731   3.616   4.854  1.00  0.00     0.009 A 
ATOM     78  C   UNL     1      15.481   3.162   4.974  1.00  0.00     0.001 A 
ATOM     79  C   UNL     1      13.475   3.512   3.677  1.00  0.00     0.001 A 
ATOM     80  C   UNL     1      14.851   3.295   3.739  1.00  0.00     0.000 A 
ENDBRANCH  56  75
BRANCH  68  81
ATOM     81  C   UNL     1      13.266   8.143  11.273  1.00  0.00    -0.014 A 
ATOM     82  C   UNL     1      13.090   9.313  10.518  1.00  0.00     0.009 A 
ATOM     83  C   UNL     1      14.197   8.145  12.324  1.00  0.00     0.009 A 
ATOM     84  C   UNL     1      13.856  10.449  10.789  1.00  0.00     0.001 A 
ATOM     85  C   UNL     1      14.938   9.291  12.613  1.00  0.00     0.001 A 
ATOM     86  C   UNL     1      14.775  10.438  11.838  1.00  0.00     0.000 A 
ENDBRANCH  68  81
ENDBRANCH  42  43
ENDBRANCH  34  37
ENDBRANCH  32  33
ENDBRANCH  31  32
ENDBRANCH  30  31
ENDBRANCH   1  30
TORSDOF 17
