REMARK SMILES O=C(NCCCCCCNC(=O)[C@H](CO)NC(=O)[C@H](CS)NC(=O)[C@H](Cc1ccccc1)NC(=O)c1ccc(F)cc1)c1ccc(-c2c3nc(c(-c4ccccc4)c4ccc([nH]4)c(-c4ccccc4)c4nc(c(-c5ccccc5)c5ccc2[nH]5)C=C4)C=C3)cc1
REMARK SMILES IDX 8 1 7 2 6 3 5 4 4 5 3 6 1 7 2 8 43 10 44 11 90 12 45 13
REMARK SMILES IDX 89 14 46 15 47 16 48 17 83 18 49 19 88 20 82 21 84 22 50 23
REMARK SMILES IDX 87 24 81 25 80 26 51 28 73 29 58 30 72 31 59 32 62 33 71 34
REMARK SMILES IDX 85 35 60 36 61 37 70 39 86 40 63 41 52 42 53 43 57 44 54 45
REMARK SMILES IDX 56 46 55 47 74 48 75 49 79 50 76 51 78 52 77 53 64 54 65 55
REMARK SMILES IDX 69 56 66 57 68 58 67 59 9 60 10 61 11 62 12 64 13 65 16 66
REMARK SMILES IDX 17 67 18 69 19 70 22 71 23 72 24 74 25 75 33 76 34 77 35 79
REMARK SMILES IDX 36 80 37 81 42 82 38 83 41 84 39 85 40 86 26 87 27 88 28 89
REMARK SMILES IDX 32 90 29 91 31 92 30 93 20 94 21 95 14 97 15 98
REMARK H PARENT 3 9 84 27 62 38 10 63 16 68 22 73 33 78 21 96 15 99
REMARK Flexibility Score: inf
ROOT
ATOM      1  C   UNL     1      21.574   5.141  10.477  1.00  0.00     0.021 C 
ENDROOT
BRANCH   1   2
ATOM      2  C   UNL     1      23.073   4.859  10.604  1.00  0.00     0.002 C 
BRANCH   2   3
ATOM      3  C   UNL     1      23.943   5.423   9.478  1.00  0.00     0.002 C 
BRANCH   3   4
ATOM      4  C   UNL     1      23.752   6.914   9.201  1.00  0.00     0.021 C 
BRANCH   4   5
ATOM      5  C   UNL     1      23.858   7.798  10.434  1.00  0.00     0.116 C 
BRANCH   5   6
ATOM      6  N   UNL     1      25.160   7.695  11.069  1.00  0.00    -0.352 N 
ATOM      7  O   UNL     1      27.196   8.437  11.709  1.00  0.00    -0.269 OA
ATOM      8  C   UNL     1      26.049   8.696  11.352  1.00  0.00     0.251 C 
ATOM      9  H   UNL     1      25.438   6.787  11.331  1.00  0.00     0.163 HD
BRANCH   8  10
ATOM     10  C   UNL     1      25.614  10.096  11.206  1.00  0.00     0.039 A 
ATOM     11  C   UNL     1      24.384  10.507  11.730  1.00  0.00     0.014 A 
ATOM     12  C   UNL     1      26.436  10.997  10.528  1.00  0.00     0.014 A 
ATOM     13  C   UNL     1      23.922  11.790  11.475  1.00  0.00     0.010 A 
ATOM     14  C   UNL     1      26.010  12.313  10.353  1.00  0.00     0.010 A 
ATOM     15  C   UNL     1      24.744  12.713  10.813  1.00  0.00    -0.014 A 
BRANCH  15  16
ATOM     16  C   UNL     1      24.310  14.124  10.695  1.00  0.00     0.031 A 
ATOM     17  C   UNL     1      24.075  14.756   9.357  1.00  0.00     0.074 A 
ATOM     18  C   UNL     1      24.162  14.841  11.825  1.00  0.00     0.049 A 
ATOM     19  N   UNL     1      23.752  15.993   9.079  1.00  0.00    -0.248 NA
ATOM     20  C   UNL     1      24.235  13.894   8.177  1.00  0.00     0.031 C 
ATOM     21  C   UNL     1      24.374  14.328  13.182  1.00  0.00     0.029 A 
ATOM     22  N   UNL     1      23.806  16.149  12.016  1.00  0.00    -0.354 N 
ATOM     23  C   UNL     1      23.694  16.067   7.694  1.00  0.00     0.074 A 
ATOM     24  C   UNL     1      24.040  14.756   7.188  1.00  0.00     0.031 C 
ATOM     25  C   UNL     1      24.125  15.305  14.064  1.00  0.00     0.029 A 
ATOM     26  C   UNL     1      23.810  16.527  13.336  1.00  0.00     0.049 A 
ATOM     27  H   UNL     1      23.570  16.759  11.280  1.00  0.00     0.167 HD
ATOM     28  C   UNL     1      23.383  17.135   6.920  1.00  0.00     0.031 A 
ATOM     29  C   UNL     1      23.624  17.732  13.902  1.00  0.00     0.031 A 
ATOM     30  C   UNL     1      23.060  18.439   7.438  1.00  0.00     0.049 A 
ATOM     31  C   UNL     1      23.330  18.909  13.022  1.00  0.00     0.074 A 
ATOM     32  C   UNL     1      22.689  19.576   6.742  1.00  0.00     0.029 A 
ATOM     33  N   UNL     1      23.089  18.786   8.782  1.00  0.00    -0.354 N 
ATOM     34  N   UNL     1      23.224  18.953  11.716  1.00  0.00    -0.248 NA
ATOM     35  C   UNL     1      23.124  20.199  13.691  1.00  0.00     0.031 C 
ATOM     36  C   UNL     1      22.564  20.627   7.656  1.00  0.00     0.029 A 
ATOM     37  C   UNL     1      22.781  20.129   8.931  1.00  0.00     0.049 A 
ATOM     38  H   UNL     1      23.297  18.169   9.520  1.00  0.00     0.167 HD
ATOM     39  C   UNL     1      22.919  20.270  11.406  1.00  0.00     0.074 A 
ATOM     40  C   UNL     1      22.843  20.988  12.663  1.00  0.00     0.031 C 
ATOM     41  C   UNL     1      22.717  20.831  10.189  1.00  0.00     0.031 A 
BRANCH  28  42
ATOM     42  C   UNL     1      23.430  16.945   5.427  1.00  0.00    -0.014 A 
ATOM     43  C   UNL     1      22.507  16.125   4.757  1.00  0.00     0.009 A 
ATOM     44  C   UNL     1      24.410  17.612   4.675  1.00  0.00     0.009 A 
ATOM     45  C   UNL     1      22.596  15.940   3.375  1.00  0.00     0.001 A 
ATOM     46  C   UNL     1      24.476  17.452   3.289  1.00  0.00     0.001 A 
ATOM     47  C   UNL     1      23.579  16.605   2.642  1.00  0.00     0.000 A 
ENDBRANCH  28  42
BRANCH  29  48
ATOM     48  C   UNL     1      23.748  17.868  15.376  1.00  0.00    -0.014 A 
ATOM     49  C   UNL     1      22.620  18.103  16.174  1.00  0.00     0.009 A 
ATOM     50  C   UNL     1      24.999  17.707  15.996  1.00  0.00     0.009 A 
ATOM     51  C   UNL     1      22.745  18.187  17.562  1.00  0.00     0.001 A 
ATOM     52  C   UNL     1      25.115  17.759  17.386  1.00  0.00     0.001 A 
ATOM     53  C   UNL     1      23.989  18.006  18.167  1.00  0.00     0.000 A 
ENDBRANCH  29  48
BRANCH  41  54
ATOM     54  C   UNL     1      22.359  22.291  10.156  1.00  0.00    -0.014 A 
ATOM     55  C   UNL     1      23.308  23.285  10.440  1.00  0.00     0.009 A 
ATOM     56  C   UNL     1      21.063  22.675   9.777  1.00  0.00     0.009 A 
ATOM     57  C   UNL     1      22.958  24.634  10.367  1.00  0.00     0.001 A 
ATOM     58  C   UNL     1      20.726  24.025   9.674  1.00  0.00     0.001 A 
ATOM     59  C   UNL     1      21.671  25.003   9.977  1.00  0.00     0.000 A 
ENDBRANCH  41  54
ENDBRANCH  15  16
ENDBRANCH   8  10
ENDBRANCH   5   6
ENDBRANCH   4   5
ENDBRANCH   3   4
ENDBRANCH   2   3
ENDBRANCH   1   2
BRANCH   1  60
ATOM     60  C   UNL     1      20.954   4.738   9.146  1.00  0.00     0.116 C 
BRANCH  60  61
ATOM     61  N   UNL     1      21.088   3.318   8.906  1.00  0.00    -0.354 N 
ATOM     62  C   UNL     1      20.210   2.442   8.361  1.00  0.00     0.244 C 
ATOM     63  H   UNL     1      21.949   2.928   9.182  1.00  0.00     0.163 HD
ATOM     64  O   UNL     1      20.503   1.243   8.400  1.00  0.00    -0.273 OA
BRANCH  62  65
ATOM     65  C   UNL     1      18.846   2.877   7.806  1.00  0.00     0.197 C 
BRANCH  65  66
ATOM     66  N   UNL     1      17.861   3.064   8.873  1.00  0.00    -0.340 N 
ATOM     67  C   UNL     1      16.527   2.823   8.929  1.00  0.00     0.244 C 
ATOM     68  H   UNL     1      18.237   3.433   9.704  1.00  0.00     0.164 HD
ATOM     69  O   UNL     1      15.931   3.435   9.822  1.00  0.00    -0.273 OA
BRANCH  67  70
ATOM     70  C   UNL     1      15.796   1.743   8.076  1.00  0.00     0.181 C 
BRANCH  70  71
ATOM     71  N   UNL     1      14.350   1.968   8.248  1.00  0.00    -0.342 N 
ATOM     72  C   UNL     1      13.403   1.250   8.919  1.00  0.00     0.243 C 
ATOM     73  H   UNL     1      14.007   2.775   7.801  1.00  0.00     0.164 HD
ATOM     74  O   UNL     1      12.257   1.702   8.974  1.00  0.00    -0.273 OA
BRANCH  72  75
ATOM     75  C   UNL     1      13.756  -0.109   9.536  1.00  0.00     0.176 C 
BRANCH  75  76
ATOM     76  N   UNL     1      13.238  -0.134  10.907  1.00  0.00    -0.340 N 
ATOM     77  C   UNL     1      13.894  -0.389  12.085  1.00  0.00     0.251 C 
ATOM     78  H   UNL     1      12.277   0.061  10.995  1.00  0.00     0.164 HD
ATOM     79  O   UNL     1      13.279  -0.455  13.144  1.00  0.00    -0.269 OA
BRANCH  77  80
ATOM     80  C   UNL     1      15.356  -0.619  12.083  1.00  0.00     0.040 A 
ATOM     81  C   UNL     1      15.857  -1.797  12.646  1.00  0.00     0.017 A 
ATOM     82  C   UNL     1      16.235   0.336  11.556  1.00  0.00     0.017 A 
ATOM     83  C   UNL     1      17.229  -2.054  12.603  1.00  0.00     0.040 A 
ATOM     84  C   UNL     1      17.601   0.061  11.480  1.00  0.00     0.040 A 
ATOM     85  C   UNL     1      18.084  -1.135  12.000  1.00  0.00     0.123 A 
ATOM     86  F   UNL     1      19.394  -1.400  11.930  1.00  0.00    -0.207 F 
ENDBRANCH  77  80
ENDBRANCH  75  76
BRANCH  75  87
ATOM     87  C   UNL     1      13.167  -1.229   8.654  1.00  0.00     0.070 C 
BRANCH  87  88
ATOM     88  C   UNL     1      14.025  -2.478   8.573  1.00  0.00    -0.045 A 
ATOM     89  C   UNL     1      13.429  -3.743   8.673  1.00  0.00     0.004 A 
ATOM     90  C   UNL     1      15.408  -2.414   8.333  1.00  0.00     0.004 A 
ATOM     91  C   UNL     1      14.203  -4.903   8.592  1.00  0.00     0.000 A 
ATOM     92  C   UNL     1      16.183  -3.572   8.275  1.00  0.00     0.000 A 
ATOM     93  C   UNL     1      15.581  -4.817   8.409  1.00  0.00     0.000 A 
ENDBRANCH  87  88
ENDBRANCH  75  87
ENDBRANCH  72  75
ENDBRANCH  70  71
BRANCH  70  94
ATOM     94  C   UNL     1      16.188   1.653   6.597  1.00  0.00     0.101 C 
BRANCH  94  95
ATOM     95  S   UNL     1      14.897   1.176   5.402  1.00  0.00    -0.177 SA
ATOM     96  H   UNL     1      14.490  -0.097   5.658  1.00  0.00     0.102 HD
ENDBRANCH  94  95
ENDBRANCH  70  94
ENDBRANCH  67  70
ENDBRANCH  65  66
BRANCH  65  97
ATOM     97  C   UNL     1      18.892   4.084   6.849  1.00  0.00     0.191 C 
BRANCH  97  98
ATOM     98  O   UNL     1      18.414   5.290   7.454  1.00  0.00    -0.394 OA
ATOM     99  H   UNL     1      17.485   5.177   7.710  1.00  0.00     0.210 HD
ENDBRANCH  97  98
ENDBRANCH  65  97
ENDBRANCH  62  65
ENDBRANCH  60  61
ENDBRANCH   1  60
TORSDOF 25
