REMARK SMILES C[C@@H](C(=O)NCCCCCCNC(=O)c1ccc(-c2c3nc(c(-c4ccccc4)c4ccc([nH]4)c(-c4ccccc4)c4nc(c(-c5ccccc5)c5ccc2[nH]5)C=C4)C=C3)cc1)N1C(=O)/C(=C/c2nc3ccccc3[nH]2)SC1=S
REMARK SMILES IDX 8 1 7 2 6 3 5 4 3 5 4 6 2 8 1 9 63 10 64 11 78 12 65 13
REMARK SMILES IDX 66 14 77 15 79 16 67 17 68 18 69 19 76 20 70 21 75 22 71 24
REMARK SMILES IDX 74 25 72 26 73 27 9 28 10 29 11 30 12 31 13 32 14 34 15 35
REMARK SMILES IDX 16 36 62 37 17 38 61 39 18 40 19 41 20 42 55 43 21 44 60 45
REMARK SMILES IDX 54 46 56 47 22 48 59 49 53 50 52 51 23 53 45 54 30 55 44 56
REMARK SMILES IDX 31 57 34 58 43 59 57 60 32 61 33 62 42 64 58 65 35 66 24 67
REMARK SMILES IDX 25 68 29 69 26 70 28 71 27 72 46 73 47 74 51 75 48 76 50 77
REMARK SMILES IDX 49 78 36 79 37 80 41 81 38 82 40 83 39 84
REMARK H PARENT 5 7 76 23 12 33 56 52 34 63
REMARK Flexibility Score: inf
ROOT
ATOM      1  C   UNL     1       4.962   2.181   1.889  1.00  0.00     0.002 C 
ENDROOT
BRANCH   1   2
ATOM      2  C   UNL     1       4.211   1.132   1.056  1.00  0.00     0.021 C 
BRANCH   2   3
ATOM      3  C   UNL     1       3.457   0.095   1.888  1.00  0.00     0.116 C 
BRANCH   3   4
ATOM      4  N   UNL     1       2.382   0.700   2.640  1.00  0.00    -0.354 N 
ATOM      5  C   UNL     1       1.035   0.587   2.510  1.00  0.00     0.242 C 
ATOM      6  O   UNL     1       0.364   1.045   3.442  1.00  0.00    -0.273 OA
ATOM      7  H   UNL     1       2.675   1.294   3.368  1.00  0.00     0.163 HD
BRANCH   5   8
ATOM      8  C   UNL     1       0.380  -0.170   1.330  1.00  0.00     0.178 C 
ATOM      9  C   UNL     1       0.838   0.131  -0.098  1.00  0.00     0.042 C 
BRANCH   8  10
ATOM     10  N   UNL     1      -1.087  -0.021   1.448  1.00  0.00    -0.281 N 
ATOM     11  C   UNL     1      -1.859  -1.155   1.654  1.00  0.00     0.267 C 
ATOM     12  C   UNL     1      -1.770   1.181   1.345  1.00  0.00     0.149 C 
ATOM     13  O   UNL     1      -1.452  -2.304   1.772  1.00  0.00    -0.268 OA
ATOM     14  C   UNL     1      -3.301  -0.804   1.619  1.00  0.00     0.084 C 
ATOM     15  S   UNL     1      -3.468   0.910   1.655  1.00  0.00    -0.054 SA
ATOM     16  S   UNL     1      -1.214   2.715   0.982  1.00  0.00    -0.052 S 
ATOM     17  C   UNL     1      -4.277  -1.719   1.490  1.00  0.00     0.068 C 
BRANCH  17  18
ATOM     18  C   UNL     1      -5.597  -1.296   1.207  1.00  0.00     0.132 A 
ATOM     19  N   UNL     1      -5.987  -0.328   0.406  1.00  0.00    -0.229 NA
ATOM     20  N   UNL     1      -6.675  -1.845   1.861  1.00  0.00    -0.338 N 
ATOM     21  C   UNL     1      -7.291  -0.089   0.718  1.00  0.00     0.089 A 
ATOM     22  C   UNL     1      -7.764  -1.036   1.617  1.00  0.00     0.066 A 
ATOM     23  H   UNL     1      -6.670  -2.666   2.403  1.00  0.00     0.168 HD
ATOM     24  C   UNL     1      -8.120   0.957   0.295  1.00  0.00     0.030 A 
ATOM     25  C   UNL     1      -9.070  -1.019   2.111  1.00  0.00     0.028 A 
ATOM     26  C   UNL     1      -9.419   1.018   0.802  1.00  0.00     0.002 A 
ATOM     27  C   UNL     1      -9.886   0.041   1.686  1.00  0.00     0.002 A 
ENDBRANCH  17  18
ENDBRANCH   8  10
ENDBRANCH   5   8
ENDBRANCH   3   4
ENDBRANCH   2   3
ENDBRANCH   1   2
BRANCH   1  28
ATOM     28  C   UNL     1       5.961   1.619   2.907  1.00  0.00     0.002 C 
BRANCH  28  29
ATOM     29  C   UNL     1       7.013   0.670   2.328  1.00  0.00     0.021 C 
BRANCH  29  30
ATOM     30  C   UNL     1       7.900   1.285   1.250  1.00  0.00     0.116 C 
BRANCH  30  31
ATOM     31  N   UNL     1       8.730   2.360   1.769  1.00  0.00    -0.352 N 
ATOM     32  C   UNL     1      10.099   2.485   1.779  1.00  0.00     0.251 C 
ATOM     33  H   UNL     1       8.239   3.110   2.174  1.00  0.00     0.163 HD
ATOM     34  O   UNL     1      10.634   3.368   2.436  1.00  0.00    -0.269 OA
BRANCH  32  35
ATOM     35  C   UNL     1      10.931   1.529   1.016  1.00  0.00     0.039 A 
ATOM     36  C   UNL     1      12.043   0.958   1.639  1.00  0.00     0.014 A 
ATOM     37  C   UNL     1      10.611   1.187  -0.301  1.00  0.00     0.014 A 
ATOM     38  C   UNL     1      12.781  -0.023   0.973  1.00  0.00     0.010 A 
ATOM     39  C   UNL     1      11.307   0.162  -0.939  1.00  0.00     0.010 A 
ATOM     40  C   UNL     1      12.386  -0.467  -0.300  1.00  0.00    -0.014 A 
BRANCH  40  41
ATOM     41  C   UNL     1      13.044  -1.635  -0.941  1.00  0.00     0.031 A 
ATOM     42  C   UNL     1      13.795  -1.482  -2.235  1.00  0.00     0.074 A 
ATOM     43  C   UNL     1      12.891  -2.857  -0.390  1.00  0.00     0.049 A 
ATOM     44  N   UNL     1      14.368  -2.405  -2.966  1.00  0.00    -0.248 NA
ATOM     45  C   UNL     1      13.902  -0.123  -2.791  1.00  0.00     0.031 C 
ATOM     46  C   UNL     1      12.149  -3.145   0.841  1.00  0.00     0.029 A 
ATOM     47  N   UNL     1      13.340  -4.089  -0.799  1.00  0.00    -0.354 N 
ATOM     48  C   UNL     1      14.889  -1.744  -4.071  1.00  0.00     0.074 A 
ATOM     49  C   UNL     1      14.536  -0.348  -3.934  1.00  0.00     0.031 C 
ATOM     50  C   UNL     1      12.208  -4.462   1.093  1.00  0.00     0.029 A 
ATOM     51  C   UNL     1      12.946  -5.120   0.021  1.00  0.00     0.049 A 
ATOM     52  H   UNL     1      13.892  -4.221  -1.603  1.00  0.00     0.167 HD
ATOM     53  C   UNL     1      15.603  -2.256  -5.101  1.00  0.00     0.031 A 
ATOM     54  C   UNL     1      13.135  -6.449  -0.087  1.00  0.00     0.031 A 
ATOM     55  C   UNL     1      15.964  -3.643  -5.230  1.00  0.00     0.049 A 
ATOM     56  C   UNL     1      13.906  -6.986  -1.262  1.00  0.00     0.074 A 
ATOM     57  C   UNL     1      16.757  -4.237  -6.198  1.00  0.00     0.029 A 
ATOM     58  N   UNL     1      15.548  -4.653  -4.379  1.00  0.00    -0.354 N 
ATOM     59  N   UNL     1      14.479  -6.332  -2.242  1.00  0.00    -0.248 NA
ATOM     60  C   UNL     1      14.059  -8.446  -1.342  1.00  0.00     0.031 C 
ATOM     61  C   UNL     1      16.760  -5.616  -5.974  1.00  0.00     0.029 A 
ATOM     62  C   UNL     1      16.025  -5.873  -4.829  1.00  0.00     0.049 A 
ATOM     63  H   UNL     1      14.995  -4.523  -3.574  1.00  0.00     0.167 HD
ATOM     64  C   UNL     1      15.075  -7.298  -3.043  1.00  0.00     0.074 A 
ATOM     65  C   UNL     1      14.821  -8.578  -2.418  1.00  0.00     0.031 C 
ATOM     66  C   UNL     1      15.762  -7.140  -4.199  1.00  0.00     0.031 A 
BRANCH  53  67
ATOM     67  C   UNL     1      16.043  -1.321  -6.193  1.00  0.00    -0.014 A 
ATOM     68  C   UNL     1      17.071  -0.389  -5.986  1.00  0.00     0.009 A 
ATOM     69  C   UNL     1      15.490  -1.448  -7.478  1.00  0.00     0.009 A 
ATOM     70  C   UNL     1      17.526   0.407  -7.040  1.00  0.00     0.001 A 
ATOM     71  C   UNL     1      15.964  -0.670  -8.535  1.00  0.00     0.001 A 
ATOM     72  C   UNL     1      16.979   0.259  -8.314  1.00  0.00     0.000 A 
ENDBRANCH  53  67
BRANCH  54  73
ATOM     73  C   UNL     1      12.556  -7.380   0.920  1.00  0.00    -0.014 A 
ATOM     74  C   UNL     1      13.388  -8.144   1.753  1.00  0.00     0.009 A 
ATOM     75  C   UNL     1      11.165  -7.546   1.017  1.00  0.00     0.009 A 
ATOM     76  C   UNL     1      12.840  -9.085   2.629  1.00  0.00     0.001 A 
ATOM     77  C   UNL     1      10.620  -8.461   1.919  1.00  0.00     0.001 A 
ATOM     78  C   UNL     1      11.458  -9.241   2.713  1.00  0.00     0.000 A 
ENDBRANCH  54  73
BRANCH  66  79
ATOM     79  C   UNL     1      16.303  -8.380  -4.854  1.00  0.00    -0.014 A 
ATOM     80  C   UNL     1      15.449  -9.301  -5.480  1.00  0.00     0.009 A 
ATOM     81  C   UNL     1      17.688  -8.606  -4.884  1.00  0.00     0.009 A 
ATOM     82  C   UNL     1      15.969 -10.441  -6.094  1.00  0.00     0.001 A 
ATOM     83  C   UNL     1      18.208  -9.730  -5.528  1.00  0.00     0.001 A 
ATOM     84  C   UNL     1      17.348 -10.651  -6.124  1.00  0.00     0.000 A 
ENDBRANCH  66  79
ENDBRANCH  40  41
ENDBRANCH  32  35
ENDBRANCH  30  31
ENDBRANCH  29  30
ENDBRANCH  28  29
ENDBRANCH   1  28
TORSDOF 15
