REMARK SMILES O=C(COc1ccccc1C[NH+]1CCC2(CC[NH2+]CC2)CC1)NCCCCCCNC(=O)c1ccc(-c2c3nc(c(-c4ccccc4)c4ccc([nH]4)c(-c4ccccc4)c4nc(c(-c5ccccc5)c5ccc2[nH]5)C=C4)C=C3)cc1
REMARK SMILES IDX 25 1 24 2 23 3 1 4 2 5 3 7 4 8 5 9 6 10 10 11 7 12 9 13 8 14
REMARK SMILES IDX 11 15 12 16 13 17 22 18 14 20 21 21 15 22 16 23 20 24 17 25
REMARK SMILES IDX 19 26 18 27 26 30 27 31 28 32 29 33 30 34 31 35 32 37 33 38
REMARK SMILES IDX 34 39 80 40 35 41 79 42 36 43 37 44 38 45 73 46 39 47 78 48
REMARK SMILES IDX 72 49 74 50 40 51 77 52 71 53 70 54 41 56 63 57 48 58 62 59
REMARK SMILES IDX 49 60 52 61 61 62 75 63 50 64 51 65 60 67 76 68 53 69 42 70
REMARK SMILES IDX 43 71 47 72 44 73 46 74 45 75 64 76 65 77 69 78 66 79 68 80
REMARK SMILES IDX 67 81 54 82 55 83 59 84 56 85 58 86 57 87
REMARK H PARENT 23 6 12 19 18 28 18 29 30 36 74 55 52 66
REMARK Flexibility Score: inf
ROOT
ATOM      1  C   UNL     1       3.035  -2.945  -2.441  1.00  0.00     0.021 C 
ENDROOT
BRANCH   1   2
ATOM      2  C   UNL     1       2.318  -2.043  -1.444  1.00  0.00     0.116 C 
BRANCH   2   3
ATOM      3  N   UNL     1       3.089  -0.893  -1.009  1.00  0.00    -0.353 N 
ATOM      4  O   UNL     1       1.502   0.713  -1.472  1.00  0.00    -0.271 OA
ATOM      5  C   UNL     1       2.531   0.369  -0.898  1.00  0.00     0.257 C 
ATOM      6  H   UNL     1       4.040  -1.015  -0.785  1.00  0.00     0.163 HD
BRANCH   5   7
ATOM      7  C   UNL     1       3.283   1.295   0.067  1.00  0.00     0.329 C 
BRANCH   7   8
ATOM      8  O   UNL     1       3.806   0.562   1.192  1.00  0.00    -0.483 OA
BRANCH   8   9
ATOM      9  C   UNL     1       3.176   0.907   2.362  1.00  0.00     0.128 A 
ATOM     10  C   UNL     1       3.874   1.741   3.243  1.00  0.00     0.047 A 
ATOM     11  C   UNL     1       1.921   0.395   2.724  1.00  0.00     0.048 A 
ATOM     12  C   UNL     1       3.293   2.136   4.451  1.00  0.00     0.004 A 
ATOM     13  C   UNL     1       1.302   0.914   3.878  1.00  0.00     0.013 A 
ATOM     14  C   UNL     1       1.991   1.754   4.750  1.00  0.00     0.001 A 
BRANCH  11  15
ATOM     15  C   UNL     1       1.232  -0.737   2.002  1.00  0.00     0.302 C 
BRANCH  15  16
ATOM     16  N   UNL     1       1.413  -2.095   2.529  1.00  0.00    -0.331 N 
ATOM     17  C   UNL     1       2.691  -2.745   2.276  1.00  0.00     0.263 C 
ATOM     18  C   UNL     1       0.874  -2.353   3.854  1.00  0.00     0.263 C 
ATOM     19  H   UNL     1       0.778  -2.592   1.905  1.00  0.00     0.348 HD
ATOM     20  C   UNL     1       3.738  -2.649   3.384  1.00  0.00     0.069 C 
ATOM     21  C   UNL     1       1.880  -2.145   4.989  1.00  0.00     0.069 C 
ATOM     22  C   UNL     1       3.190  -2.936   4.801  1.00  0.00    -0.008 C 
ATOM     23  C   UNL     1       2.903  -4.439   5.034  1.00  0.00     0.069 C 
ATOM     24  C   UNL     1       4.222  -2.440   5.847  1.00  0.00     0.069 C 
ATOM     25  C   UNL     1       4.157  -5.280   5.263  1.00  0.00     0.261 C 
ATOM     26  C   UNL     1       5.426  -3.369   5.978  1.00  0.00     0.261 C 
ATOM     27  N   UNL     1       5.003  -4.726   6.319  1.00  0.00    -0.346 N 
ATOM     28  H   UNL     1       5.827  -5.316   6.433  1.00  0.00     0.346 HD
ATOM     29  H   UNL     1       4.469  -4.696   7.188  1.00  0.00     0.346 HD
ENDBRANCH  15  16
ENDBRANCH  11  15
ENDBRANCH   8   9
ENDBRANCH   7   8
ENDBRANCH   5   7
ENDBRANCH   2   3
ENDBRANCH   1   2
BRANCH   1  30
ATOM     30  C   UNL     1       4.472  -3.343  -2.088  1.00  0.00     0.002 C 
BRANCH  30  31
ATOM     31  C   UNL     1       4.670  -4.186  -0.825  1.00  0.00     0.002 C 
BRANCH  31  32
ATOM     32  C   UNL     1       3.925  -5.520  -0.773  1.00  0.00     0.021 C 
BRANCH  32  33
ATOM     33  C   UNL     1       4.131  -6.433  -1.977  1.00  0.00     0.116 C 
BRANCH  33  34
ATOM     34  N   UNL     1       5.524  -6.796  -2.190  1.00  0.00    -0.352 N 
ATOM     35  C   UNL     1       6.071  -8.021  -2.485  1.00  0.00     0.251 C 
ATOM     36  H   UNL     1       6.169  -6.056  -2.111  1.00  0.00     0.163 HD
ATOM     37  O   UNL     1       7.293  -8.161  -2.513  1.00  0.00    -0.269 OA
BRANCH  35  38
ATOM     38  C   UNL     1       5.194  -9.184  -2.737  1.00  0.00     0.039 A 
ATOM     39  C   UNL     1       5.510 -10.410  -2.145  1.00  0.00     0.014 A 
ATOM     40  C   UNL     1       4.062  -9.070  -3.549  1.00  0.00     0.014 A 
ATOM     41  C   UNL     1       4.654 -11.501  -2.310  1.00  0.00     0.010 A 
ATOM     42  C   UNL     1       3.170 -10.134  -3.646  1.00  0.00     0.010 A 
ATOM     43  C   UNL     1       3.457 -11.361  -3.030  1.00  0.00    -0.014 A 
BRANCH  43  44
ATOM     44  C   UNL     1       2.492 -12.485  -3.150  1.00  0.00     0.031 A 
ATOM     45  C   UNL     1       2.173 -13.069  -4.499  1.00  0.00     0.074 A 
ATOM     46  C   UNL     1       1.855 -12.938  -2.052  1.00  0.00     0.049 A 
ATOM     47  N   UNL     1       1.317 -14.009  -4.810  1.00  0.00    -0.248 NA
ATOM     48  C   UNL     1       2.890 -12.505  -5.654  1.00  0.00     0.031 C 
ATOM     49  C   UNL     1       2.047 -12.433  -0.691  1.00  0.00     0.029 A 
ATOM     50  N   UNL     1       0.911 -13.924  -1.910  1.00  0.00    -0.354 N 
ATOM     51  C   UNL     1       1.382 -14.137  -6.192  1.00  0.00     0.074 A 
ATOM     52  C   UNL     1       2.319 -13.141  -6.665  1.00  0.00     0.031 C 
ATOM     53  C   UNL     1       1.269 -13.133   0.151  1.00  0.00     0.029 A 
ATOM     54  C   UNL     1       0.490 -14.101  -0.613  1.00  0.00     0.049 A 
ATOM     55  H   UNL     1       0.568 -14.455  -2.665  1.00  0.00     0.167 HD
ATOM     56  C   UNL     1       0.737 -15.016  -6.995  1.00  0.00     0.031 A 
ATOM     57  C   UNL     1      -0.426 -14.943  -0.098  1.00  0.00     0.031 A 
ATOM     58  C   UNL     1      -0.192 -16.008  -6.525  1.00  0.00     0.049 A 
ATOM     59  C   UNL     1      -1.150 -15.890  -1.015  1.00  0.00     0.074 A 
ATOM     60  C   UNL     1      -0.858 -16.979  -7.253  1.00  0.00     0.029 A 
ATOM     61  N   UNL     1      -0.592 -16.153  -5.205  1.00  0.00    -0.354 N 
ATOM     62  N   UNL     1      -1.024 -16.045  -2.311  1.00  0.00    -0.248 NA
ATOM     63  C   UNL     1      -2.135 -16.787  -0.394  1.00  0.00     0.031 C 
ATOM     64  C   UNL     1      -1.706 -17.672  -6.383  1.00  0.00     0.029 A 
ATOM     65  C   UNL     1      -1.517 -17.178  -5.103  1.00  0.00     0.049 A 
ATOM     66  H   UNL     1      -0.266 -15.608  -4.453  1.00  0.00     0.167 HD
ATOM     67  C   UNL     1      -1.889 -17.076  -2.655  1.00  0.00     0.074 A 
ATOM     68  C   UNL     1      -2.520 -17.520  -1.429  1.00  0.00     0.031 C 
ATOM     69  C   UNL     1      -2.138 -17.609  -3.876  1.00  0.00     0.031 A 
BRANCH  56  70
ATOM     70  C   UNL     1       1.008 -14.933  -8.473  1.00  0.00    -0.014 A 
ATOM     71  C   UNL     1       2.258 -15.287  -9.008  1.00  0.00     0.009 A 
ATOM     72  C   UNL     1      -0.012 -14.529  -9.349  1.00  0.00     0.009 A 
ATOM     73  C   UNL     1       2.493 -15.198 -10.381  1.00  0.00     0.001 A 
ATOM     74  C   UNL     1       0.215 -14.473 -10.726  1.00  0.00     0.001 A 
ATOM     75  C   UNL     1       1.470 -14.796 -11.239  1.00  0.00     0.000 A 
ENDBRANCH  56  70
BRANCH  57  76
ATOM     76  C   UNL     1      -0.707 -14.938   1.363  1.00  0.00    -0.014 A 
ATOM     77  C   UNL     1      -0.339 -16.030   2.163  1.00  0.00     0.009 A 
ATOM     78  C   UNL     1      -1.357 -13.848   1.962  1.00  0.00     0.009 A 
ATOM     79  C   UNL     1      -0.643 -16.044   3.527  1.00  0.00     0.001 A 
ATOM     80  C   UNL     1      -1.629 -13.850   3.332  1.00  0.00     0.001 A 
ATOM     81  C   UNL     1      -1.283 -14.952   4.111  1.00  0.00     0.000 A 
ENDBRANCH  57  76
BRANCH  69  82
ATOM     82  C   UNL     1      -3.103 -18.760  -3.943  1.00  0.00    -0.014 A 
ATOM     83  C   UNL     1      -4.479 -18.576  -3.734  1.00  0.00     0.009 A 
ATOM     84  C   UNL     1      -2.630 -20.043  -4.262  1.00  0.00     0.009 A 
ATOM     85  C   UNL     1      -5.355 -19.662  -3.808  1.00  0.00     0.001 A 
ATOM     86  C   UNL     1      -3.511 -21.119  -4.368  1.00  0.00     0.001 A 
ATOM     87  C   UNL     1      -4.872 -20.929  -4.131  1.00  0.00     0.000 A 
ENDBRANCH  69  82
ENDBRANCH  43  44
ENDBRANCH  35  38
ENDBRANCH  33  34
ENDBRANCH  32  33
ENDBRANCH  31  32
ENDBRANCH  30  31
ENDBRANCH   1  30
TORSDOF 17
