REMARK SMILES C=C1C(=O)O[C@@H]2[C@H]1[C@H](OC(=O)[C@]1(C)O[C@@H]1C)[C@H](OC(C)=O)/C(C(=O)NCCCCCCNC(=O)c1ccc(-c3c4nc(c(-c5ccccc5)c5ccc([nH]5)c(-c5ccccc5)c5nc(c(-c6ccccc6)c6ccc3[nH]6)C=C5)C=C4)cc1)=C\[C@H]1O[C@H]1[C@@]1(C)O[C@@H]21
REMARK SMILES IDX 27 1 26 2 25 3 23 4 24 5 22 7 83 8 84 9 86 10 85 11 87 12
REMARK SMILES IDX 90 13 89 14 88 15 6 16 1 17 2 18 3 19 7 20 4 21 5 22 17 24
REMARK SMILES IDX 8 25 9 27 10 28 11 29 12 30 14 31 15 32 13 33 16 34 18 35
REMARK SMILES IDX 19 36 20 37 21 38 28 39 29 40 30 41 31 42 32 43 33 44 34 46
REMARK SMILES IDX 35 47 36 48 82 49 37 50 81 51 38 52 39 53 40 54 75 55 41 56
REMARK SMILES IDX 80 57 74 58 76 59 42 60 79 61 73 62 72 63 43 65 65 66 50 67
REMARK SMILES IDX 64 68 51 69 54 70 63 71 77 72 52 73 53 74 62 76 78 77 55 78
REMARK SMILES IDX 44 79 45 80 49 81 46 82 48 83 47 84 66 85 67 86 71 87 68 88
REMARK SMILES IDX 70 89 69 90 56 91 57 92 61 93 58 94 60 95 59 96
REMARK H PARENT 25 6 32 45 76 64 54 75
REMARK Flexibility Score: 90.00
ROOT
ATOM      1  C   UNL     1      -3.152  -3.923  -1.310  1.00  0.00     0.021 C 
ENDROOT
BRANCH   1   2
ATOM      2  C   UNL     1      -3.322  -2.426  -1.104  1.00  0.00     0.116 C 
BRANCH   2   3
ATOM      3  N   UNL     1      -4.659  -1.924  -1.376  1.00  0.00    -0.352 N 
ATOM      4  C   UNL     1      -5.034  -0.604  -1.420  1.00  0.00     0.250 C 
ATOM      5  O   UNL     1      -6.188  -0.248  -1.615  1.00  0.00    -0.270 OA
ATOM      6  H   UNL     1      -5.361  -2.593  -1.544  1.00  0.00     0.163 HD
BRANCH   4   7
ATOM      7  C   UNL     1      -3.949   0.382  -1.214  1.00  0.00     0.060 C 
ATOM      8  C   UNL     1      -3.539   0.583   0.054  1.00  0.00     0.020 C 
BRANCH   8   9
ATOM      9  C   UNL     1      -2.297   1.198   0.545  1.00  0.00     0.174 C 
ATOM     10  C   UNL     1      -1.740   2.573   0.190  1.00  0.00     0.186 C 
ATOM     11  O   UNL     1      -1.155   1.359  -0.303  1.00  0.00    -0.362 OA
BRANCH  10  12
ATOM     12  C   UNL     1      -1.857   3.783  -0.807  1.00  0.00     0.125 C 
ATOM     13  C   UNL     1      -2.110   4.136  -2.379  1.00  0.00     0.195 C 
ATOM     14  O   UNL     1      -0.825   3.885  -1.774  1.00  0.00    -0.359 OA
ATOM     15  C   UNL     1      -1.823   5.052   0.065  1.00  0.00     0.048 C 
BRANCH  13  16
ATOM     16  C   UNL     1      -2.127   3.428  -3.732  1.00  0.00     0.220 C 
ATOM     17  C   UNL     1      -5.084   3.473  -5.940  1.00  0.00     0.021 C 
ATOM     18  C   UNL     1      -3.906   3.530  -5.306  1.00  0.00     0.041 C 
ATOM     19  C   UNL     1      -2.867   4.515  -5.664  1.00  0.00     0.334 C 
ATOM     20  C   UNL     1      -3.341   2.639  -4.261  1.00  0.00     0.115 CG0
ATOM     21  O   UNL     1      -2.896   5.284  -6.605  1.00  0.00    -0.247 OA
ATOM     22  O   UNL     1      -1.864   4.425  -4.752  1.00  0.00    -0.455 OA
ATOM     23  G   UNL     1      -4.247   1.971  -3.213  1.00  0.00     0.000 G0
ENDBRANCH  13  16
ENDBRANCH  10  12
ENDBRANCH   8   9
BRANCH   7  24
ATOM     24  C   UNL     1      -3.336   0.964  -2.445  1.00  0.00     0.253 C 
BRANCH  24  25
ATOM     25  C   UNL     1      -4.247   1.971  -3.213  1.00  0.00     0.233 CG0
ATOM     26  G   UNL     1      -3.341   2.639  -4.261  1.00  0.00     0.000 G0
BRANCH  25  27
ATOM     27  O   UNL     1      -4.684   2.986  -2.291  1.00  0.00    -0.455 OA
BRANCH  27  28
ATOM     28  C   UNL     1      -5.738   3.794  -2.588  1.00  0.00     0.341 C 
ATOM     29  O   UNL     1      -6.605   3.587  -3.415  1.00  0.00    -0.249 OA
BRANCH  28  30
ATOM     30  C   UNL     1      -5.556   5.069  -1.841  1.00  0.00     0.188 C 
ATOM     31  O   UNL     1      -6.499   6.133  -2.017  1.00  0.00    -0.354 OA
ATOM     32  C   UNL     1      -5.235   6.342  -2.652  1.00  0.00     0.160 C 
ATOM     33  C   UNL     1      -5.130   4.982  -0.403  1.00  0.00     0.058 C 
ATOM     34  C   UNL     1      -5.418   6.582  -4.112  1.00  0.00     0.042 C 
ENDBRANCH  28  30
ENDBRANCH  27  28
ENDBRANCH  25  27
ENDBRANCH  24  25
BRANCH  24  35
ATOM     35  O   UNL     1      -2.883  -0.082  -3.336  1.00  0.00    -0.453 OA
BRANCH  35  36
ATOM     36  C   UNL     1      -1.646  -0.136  -3.888  1.00  0.00     0.303 C 
ATOM     37  C   UNL     1      -0.459   0.309  -3.088  1.00  0.00     0.139 C 
ATOM     38  O   UNL     1      -1.497  -0.624  -5.004  1.00  0.00    -0.253 OA
ENDBRANCH  35  36
ENDBRANCH  24  35
ENDBRANCH   7  24
ENDBRANCH   4   7
ENDBRANCH   2   3
ENDBRANCH   1   2
BRANCH   1  39
ATOM     39  C   UNL     1      -3.240  -4.416  -2.756  1.00  0.00     0.002 C 
BRANCH  39  40
ATOM     40  C   UNL     1      -2.315  -3.757  -3.782  1.00  0.00     0.002 C 
BRANCH  40  41
ATOM     41  C   UNL     1      -0.828  -3.663  -3.433  1.00  0.00     0.021 C 
BRANCH  41  42
ATOM     42  C   UNL     1      -0.161  -4.951  -2.971  1.00  0.00     0.116 C 
BRANCH  42  43
ATOM     43  N   UNL     1      -0.302  -6.052  -3.904  1.00  0.00    -0.352 N 
ATOM     44  C   UNL     1       0.562  -7.092  -4.143  1.00  0.00     0.251 C 
ATOM     45  H   UNL     1      -1.129  -6.054  -4.439  1.00  0.00     0.163 HD
ATOM     46  O   UNL     1       0.315  -7.914  -5.020  1.00  0.00    -0.269 OA
BRANCH  44  47
ATOM     47  C   UNL     1       1.817  -7.202  -3.368  1.00  0.00     0.039 A 
ATOM     48  C   UNL     1       3.005  -7.455  -4.060  1.00  0.00     0.014 A 
ATOM     49  C   UNL     1       1.832  -7.062  -1.978  1.00  0.00     0.014 A 
ATOM     50  C   UNL     1       4.214  -7.516  -3.365  1.00  0.00     0.010 A 
ATOM     51  C   UNL     1       3.045  -7.057  -1.294  1.00  0.00     0.010 A 
ATOM     52  C   UNL     1       4.247  -7.290  -1.980  1.00  0.00    -0.014 A 
BRANCH  52  53
ATOM     53  C   UNL     1       5.529  -7.305  -1.234  1.00  0.00     0.031 A 
ATOM     54  C   UNL     1       5.793  -8.370  -0.207  1.00  0.00     0.074 A 
ATOM     55  C   UNL     1       6.434  -6.330  -1.445  1.00  0.00     0.049 A 
ATOM     56  N   UNL     1       6.832  -8.527   0.573  1.00  0.00    -0.248 NA
ATOM     57  C   UNL     1       4.739  -9.380  -0.014  1.00  0.00     0.031 C 
ATOM     58  C   UNL     1       6.279  -5.220  -2.389  1.00  0.00     0.029 A 
ATOM     59  N   UNL     1       7.663  -6.114  -0.876  1.00  0.00    -0.354 N 
ATOM     60  C   UNL     1       6.552  -9.639   1.356  1.00  0.00     0.074 A 
ATOM     61  C   UNL     1       5.225 -10.088   0.995  1.00  0.00     0.031 C 
ATOM     62  C   UNL     1       7.385  -4.459  -2.355  1.00  0.00     0.029 A 
ATOM     63  C   UNL     1       8.308  -5.003  -1.364  1.00  0.00     0.049 A 
ATOM     64  H   UNL     1       8.048  -6.700  -0.185  1.00  0.00     0.167 HD
ATOM     65  C   UNL     1       7.335 -10.245   2.280  1.00  0.00     0.031 A 
ATOM     66  C   UNL     1       9.507  -4.481  -1.047  1.00  0.00     0.031 A 
ATOM     67  C   UNL     1       8.659  -9.804   2.631  1.00  0.00     0.049 A 
ATOM     68  C   UNL     1      10.353  -5.165  -0.010  1.00  0.00     0.074 A 
ATOM     69  C   UNL     1       9.554 -10.379   3.515  1.00  0.00     0.029 A 
ATOM     70  N   UNL     1       9.275  -8.675   2.112  1.00  0.00    -0.354 N 
ATOM     71  N   UNL     1      10.099  -6.252   0.677  1.00  0.00    -0.248 NA
ATOM     72  C   UNL     1      11.657  -4.554   0.286  1.00  0.00     0.031 C 
ATOM     73  C   UNL     1      10.695  -9.571   3.568  1.00  0.00     0.029 A 
ATOM     74  C   UNL     1      10.531  -8.523   2.676  1.00  0.00     0.049 A 
ATOM     75  H   UNL     1       8.880  -8.072   1.443  1.00  0.00     0.167 HD
ATOM     76  C   UNL     1      11.220  -6.471   1.466  1.00  0.00     0.074 A 
ATOM     77  C   UNL     1      12.161  -5.412   1.161  1.00  0.00     0.031 C 
ATOM     78  C   UNL     1      11.451  -7.461   2.363  1.00  0.00     0.031 A 
BRANCH  65  79
ATOM     79  C   UNL     1       6.770 -11.450   2.981  1.00  0.00    -0.014 A 
ATOM     80  C   UNL     1       6.575 -12.663   2.302  1.00  0.00     0.009 A 
ATOM     81  C   UNL     1       6.449 -11.378   4.345  1.00  0.00     0.009 A 
ATOM     82  C   UNL     1       6.032 -13.766   2.964  1.00  0.00     0.001 A 
ATOM     83  C   UNL     1       5.933 -12.491   5.012  1.00  0.00     0.001 A 
ATOM     84  C   UNL     1       5.715 -13.681   4.319  1.00  0.00     0.000 A 
ENDBRANCH  65  79
BRANCH  66  85
ATOM     85  C   UNL     1       9.990  -3.255  -1.735  1.00  0.00    -0.014 A 
ATOM     86  C   UNL     1      11.044  -3.327  -2.659  1.00  0.00     0.009 A 
ATOM     87  C   UNL     1       9.400  -2.009  -1.475  1.00  0.00     0.009 A 
ATOM     88  C   UNL     1      11.514  -2.172  -3.288  1.00  0.00     0.001 A 
ATOM     89  C   UNL     1       9.854  -0.860  -2.127  1.00  0.00     0.001 A 
ATOM     90  C   UNL     1      10.915  -0.941  -3.026  1.00  0.00     0.000 A 
ENDBRANCH  66  85
BRANCH  78  91
ATOM     91  C   UNL     1      12.785  -7.461   3.055  1.00  0.00    -0.014 A 
ATOM     92  C   UNL     1      13.091  -6.517   4.047  1.00  0.00     0.009 A 
ATOM     93  C   UNL     1      13.733  -8.445   2.734  1.00  0.00     0.009 A 
ATOM     94  C   UNL     1      14.334  -6.540   4.682  1.00  0.00     0.001 A 
ATOM     95  C   UNL     1      14.964  -8.482   3.390  1.00  0.00     0.001 A 
ATOM     96  C   UNL     1      15.267  -7.524   4.357  1.00  0.00     0.000 A 
ENDBRANCH  78  91
ENDBRANCH  52  53
ENDBRANCH  44  47
ENDBRANCH  42  43
ENDBRANCH  41  42
ENDBRANCH  40  41
ENDBRANCH  39  40
ENDBRANCH   1  39
TORSDOF 18
