REMARK SMILES COc1ccc2c(c1)c(CC(=O)NCCCCCCNC(=O)c1ccc(-c3c4nc(c(-c5ccccc5)c5ccc([nH]5)c(-c5ccccc5)c5nc(c(-c6ccccc6)c6ccc3[nH]6)C=C5)C=C4)cc1)c(C(F)(F)F)n2C(=O)c1ccc(Cl)cc1
REMARK SMILES IDX 16 1 15 2 14 3 13 4 11 5 12 6 10 8 9 9 3 10 4 11 8 12 5 13
REMARK SMILES IDX 7 14 6 15 76 16 71 17 2 18 1 19 77 20 78 21 79 22 80 23
REMARK SMILES IDX 85 24 81 25 84 26 82 27 83 28 72 29 73 30 74 31 75 32 17 33
REMARK SMILES IDX 18 34 19 35 20 36 21 37 22 39 23 40 24 41 70 42 25 43 69 44
REMARK SMILES IDX 26 45 27 46 28 47 63 48 29 49 68 50 62 51 64 52 30 53 67 54
REMARK SMILES IDX 61 55 60 56 31 58 53 59 38 60 52 61 39 62 42 63 51 64 65 65
REMARK SMILES IDX 40 66 41 67 50 69 66 70 43 71 32 72 33 73 37 74 34 75 36 76
REMARK SMILES IDX 35 77 54 78 55 79 59 80 56 81 58 82 57 83 44 84 45 85 49 86
REMARK SMILES IDX 46 87 48 88 47 89
REMARK H PARENT 13 7 20 38 64 57 42 68
REMARK Flexibility Score: inf
ROOT
ATOM      1  C   UNL     1       0.580   5.637  -6.172  1.00  0.00     0.002 C 
ENDROOT
BRANCH   1   2
ATOM      2  C   UNL     1       0.564   6.146  -4.726  1.00  0.00     0.021 C 
BRANCH   2   3
ATOM      3  C   UNL     1      -0.792   6.697  -4.284  1.00  0.00     0.116 C 
BRANCH   3   4
ATOM      4  N   UNL     1      -1.732   5.625  -4.019  1.00  0.00    -0.356 N 
ATOM      5  C   UNL     1      -2.217   5.189  -2.819  1.00  0.00     0.224 C 
ATOM      6  O   UNL     1      -2.983   4.223  -2.810  1.00  0.00    -0.275 OA
ATOM      7  H   UNL     1      -2.066   5.147  -4.812  1.00  0.00     0.163 HD
BRANCH   5   8
ATOM      8  C   UNL     1      -1.855   5.927  -1.539  1.00  0.00     0.138 C 
BRANCH   8   9
ATOM      9  C   UNL     1      -0.407   5.793  -1.149  1.00  0.00     0.000 A 
ATOM     10  C   UNL     1       0.843   2.208  -0.724  1.00  0.00     0.119 A 
ATOM     11  C   UNL     1       2.109   2.544  -0.269  1.00  0.00     0.048 A 
ATOM     12  C   UNL     1      -0.059   3.215  -1.073  1.00  0.00     0.057 A 
ATOM     13  C   UNL     1       2.498   3.883  -0.159  1.00  0.00     0.031 A 
ATOM     14  C   UNL     1       0.306   4.575  -0.960  1.00  0.00     0.008 A 
ATOM     15  C   UNL     1       1.602   4.899  -0.545  1.00  0.00     0.057 A 
ATOM     16  N   UNL     1       1.745   6.286  -0.679  1.00  0.00    -0.271 N 
ATOM     17  C   UNL     1       0.467   6.824  -0.813  1.00  0.00     0.135 A 
BRANCH  10  18
ATOM     18  O   UNL     1       0.388   0.929  -0.893  1.00  0.00    -0.497 OA
ATOM     19  C   UNL     1       0.918  -0.029   0.016  1.00  0.00     0.278 C 
ENDBRANCH  10  18
BRANCH  16  20
ATOM     20  C   UNL     1       2.959   7.024  -0.726  1.00  0.00     0.262 C 
ATOM     21  O   UNL     1       2.910   8.200  -1.054  1.00  0.00    -0.268 OA
BRANCH  20  22
ATOM     22  C   UNL     1       4.294   6.466  -0.460  1.00  0.00     0.040 A 
ATOM     23  C   UNL     1       4.939   5.683  -1.423  1.00  0.00     0.015 A 
ATOM     24  C   UNL     1       4.882   6.708   0.785  1.00  0.00     0.015 A 
ATOM     25  C   UNL     1       6.156   5.076  -1.104  1.00  0.00     0.021 A 
ATOM     26  C   UNL     1       6.102   6.106   1.094  1.00  0.00     0.021 A 
ATOM     27  C   UNL     1       6.725   5.280   0.155  1.00  0.00     0.041 A 
ATOM     28  Cl  UNL     1       8.198   4.490   0.562  1.00  0.00    -0.084 Cl
ENDBRANCH  20  22
ENDBRANCH  16  20
BRANCH  17  29
ATOM     29  C   UNL     1       0.199   8.282  -0.644  1.00  0.00     0.432 C 
ATOM     30  F   UNL     1       0.402   8.974  -1.790  1.00  0.00    -0.165 F 
ATOM     31  F   UNL     1      -1.101   8.495  -0.301  1.00  0.00    -0.165 F 
ATOM     32  F   UNL     1       0.928   8.848   0.347  1.00  0.00    -0.165 F 
ENDBRANCH  17  29
ENDBRANCH   8   9
ENDBRANCH   5   8
ENDBRANCH   3   4
ENDBRANCH   2   3
ENDBRANCH   1   2
BRANCH   1  33
ATOM     33  C   UNL     1       0.316   6.705  -7.239  1.00  0.00     0.002 C 
BRANCH  33  34
ATOM     34  C   UNL     1       1.250   7.921  -7.198  1.00  0.00     0.021 C 
BRANCH  34  35
ATOM     35  C   UNL     1       2.738   7.581  -7.297  1.00  0.00     0.116 C 
BRANCH  35  36
ATOM     36  N   UNL     1       3.080   6.831  -8.488  1.00  0.00    -0.352 N 
ATOM     37  C   UNL     1       3.320   7.150  -9.796  1.00  0.00     0.251 C 
ATOM     38  H   UNL     1       3.159   5.865  -8.316  1.00  0.00     0.163 HD
ATOM     39  O   UNL     1       3.639   6.212 -10.532  1.00  0.00    -0.269 OA
BRANCH  37  40
ATOM     40  C   UNL     1       3.191   8.511 -10.392  1.00  0.00     0.039 A 
ATOM     41  C   UNL     1       2.904   9.682  -9.694  1.00  0.00     0.014 A 
ATOM     42  C   UNL     1       3.352   8.595 -11.789  1.00  0.00     0.014 A 
ATOM     43  C   UNL     1       2.710  10.884 -10.372  1.00  0.00     0.010 A 
ATOM     44  C   UNL     1       3.184   9.800 -12.470  1.00  0.00     0.010 A 
ATOM     45  C   UNL     1       2.825  10.943 -11.763  1.00  0.00    -0.014 A 
BRANCH  45  46
ATOM     46  C   UNL     1       2.602  12.240 -12.399  1.00  0.00     0.031 A 
ATOM     47  C   UNL     1       3.510  13.356 -11.997  1.00  0.00     0.074 A 
ATOM     48  C   UNL     1       1.700  12.462 -13.375  1.00  0.00     0.049 A 
ATOM     49  N   UNL     1       3.199  14.511 -11.501  1.00  0.00    -0.248 NA
ATOM     50  C   UNL     1       4.955  13.138 -12.153  1.00  0.00     0.031 C 
ATOM     51  C   UNL     1       0.941  11.482 -14.153  1.00  0.00     0.029 A 
ATOM     52  N   UNL     1       1.356  13.653 -13.945  1.00  0.00    -0.354 N 
ATOM     53  C   UNL     1       4.393  15.221 -11.384  1.00  0.00     0.074 A 
ATOM     54  C   UNL     1       5.450  14.305 -11.740  1.00  0.00     0.031 C 
ATOM     55  C   UNL     1       0.408  12.096 -15.234  1.00  0.00     0.029 A 
ATOM     56  C   UNL     1       0.661  13.524 -15.134  1.00  0.00     0.049 A 
ATOM     57  H   UNL     1       1.581  14.525 -13.547  1.00  0.00     0.167 HD
ATOM     58  C   UNL     1       4.448  16.555 -11.116  1.00  0.00     0.031 A 
ATOM     59  C   UNL     1       0.374  14.513 -16.011  1.00  0.00     0.031 A 
ATOM     60  C   UNL     1       3.220  17.064 -10.576  1.00  0.00     0.049 A 
ATOM     61  C   UNL     1       0.469  15.809 -15.306  1.00  0.00     0.074 A 
ATOM     62  C   UNL     1       2.498  16.839  -9.422  1.00  0.00     0.029 A 
ATOM     63  N   UNL     1       2.382  17.757 -11.412  1.00  0.00    -0.354 N 
ATOM     64  N   UNL     1      -0.356  16.200 -14.379  1.00  0.00    -0.248 NA
ATOM     65  C   UNL     1       1.704  16.570 -15.402  1.00  0.00     0.031 C 
ATOM     66  C   UNL     1       1.133  16.984  -9.803  1.00  0.00     0.029 A 
ATOM     67  C   UNL     1       1.110  17.306 -11.163  1.00  0.00     0.049 A 
ATOM     68  H   UNL     1       2.643  18.445 -12.066  1.00  0.00     0.167 HD
ATOM     69  C   UNL     1       0.411  16.971 -13.520  1.00  0.00     0.074 A 
ATOM     70  C   UNL     1       1.621  17.278 -14.274  1.00  0.00     0.031 C 
ATOM     71  C   UNL     1       0.119  17.053 -12.188  1.00  0.00     0.031 A 
BRANCH  58  72
ATOM     72  C   UNL     1       5.562  17.462 -11.564  1.00  0.00    -0.014 A 
ATOM     73  C   UNL     1       6.407  17.148 -12.645  1.00  0.00     0.009 A 
ATOM     74  C   UNL     1       5.642  18.773 -11.059  1.00  0.00     0.009 A 
ATOM     75  C   UNL     1       7.304  18.078 -13.179  1.00  0.00     0.001 A 
ATOM     76  C   UNL     1       6.510  19.720 -11.618  1.00  0.00     0.001 A 
ATOM     77  C   UNL     1       7.344  19.371 -12.676  1.00  0.00     0.000 A 
ENDBRANCH  58  72
BRANCH  59  78
ATOM     78  C   UNL     1       0.332  14.421 -17.483  1.00  0.00    -0.014 A 
ATOM     79  C   UNL     1       1.161  13.503 -18.154  1.00  0.00     0.009 A 
ATOM     80  C   UNL     1      -0.306  15.411 -18.246  1.00  0.00     0.009 A 
ATOM     81  C   UNL     1       1.373  13.589 -19.532  1.00  0.00     0.001 A 
ATOM     82  C   UNL     1      -0.089  15.500 -19.626  1.00  0.00     0.001 A 
ATOM     83  C   UNL     1       0.761  14.599 -20.265  1.00  0.00     0.000 A 
ENDBRANCH  59  78
BRANCH  71  84
ATOM     84  C   UNL     1      -1.216  16.523 -11.713  1.00  0.00    -0.014 A 
ATOM     85  C   UNL     1      -2.009  17.333 -10.882  1.00  0.00     0.009 A 
ATOM     86  C   UNL     1      -1.624  15.194 -11.923  1.00  0.00     0.009 A 
ATOM     87  C   UNL     1      -3.168  16.831 -10.282  1.00  0.00     0.001 A 
ATOM     88  C   UNL     1      -2.798  14.700 -11.346  1.00  0.00     0.001 A 
ATOM     89  C   UNL     1      -3.565  15.516 -10.518  1.00  0.00     0.000 A 
ENDBRANCH  71  84
ENDBRANCH  45  46
ENDBRANCH  37  40
ENDBRANCH  35  36
ENDBRANCH  34  35
ENDBRANCH  33  34
ENDBRANCH   1  33
TORSDOF 18
