REMARK SMILES CCOC(=O)c1c(-c2cccc3ccccc23)csc1NC(=O)[C@H]1CC=CC[C@H]1C(=O)NCCCCCCNC(=O)c1ccc(-c2c3nc(c(-c4ccccc4)c4ccc([nH]4)c(-c4ccccc4)c4nc(c(-c5ccccc5)c5ccc2[nH]5)C=C4)C=C3)cc1
REMARK SMILES IDX 34 1 33 2 32 3 30 4 31 5 29 7 24 8 25 9 26 10 28 11 27 12
REMARK SMILES IDX 22 13 21 14 23 16 20 17 6 18 7 19 18 20 19 21 4 22 5 23 3 24
REMARK SMILES IDX 2 25 1 26 8 27 9 28 17 29 10 30 12 31 16 32 11 33 13 34
REMARK SMILES IDX 15 35 14 36 35 37 36 38 37 39 38 40 39 41 40 42 41 44 42 45
REMARK SMILES IDX 43 46 89 47 44 48 88 49 45 50 46 51 47 52 82 53 48 54 87 55
REMARK SMILES IDX 81 56 83 57 49 58 86 59 80 60 79 61 50 63 72 64 57 65 71 66
REMARK SMILES IDX 58 67 61 68 70 69 84 70 59 71 60 72 69 74 85 75 62 76 51 77
REMARK SMILES IDX 52 78 56 79 53 80 55 81 54 82 73 83 74 84 78 85 75 86 77 87
REMARK SMILES IDX 76 88 63 89 64 90 68 91 65 92 67 93 66 94
REMARK H PARENT 32 6 21 15 39 43 83 62 61 73
REMARK Flexibility Score: inf
ROOT
ATOM      1  C   UNL     1       6.735   0.182  -2.082  1.00  0.00     0.021 C 
ENDROOT
BRANCH   1   2
ATOM      2  C   UNL     1       5.875   0.034  -3.339  1.00  0.00     0.116 C 
BRANCH   2   3
ATOM      3  N   UNL     1       6.630  -0.149  -4.573  1.00  0.00    -0.356 N 
ATOM      4  C   UNL     1       6.332  -0.895  -5.682  1.00  0.00     0.224 C 
ATOM      5  O   UNL     1       6.572  -0.363  -6.773  1.00  0.00    -0.275 OA
ATOM      6  H   UNL     1       7.484   0.338  -4.615  1.00  0.00     0.163 HD
BRANCH   4   7
ATOM      7  C   UNL     1       5.969  -2.387  -5.633  1.00  0.00     0.095 C 
ATOM      8  C   UNL     1       5.598  -3.059  -4.319  1.00  0.00     0.095 C 
ATOM      9  C   UNL     1       6.011  -4.562  -4.487  1.00  0.00     0.041 C 
ATOM     10  C   UNL     1       5.350  -5.189  -5.684  1.00  0.00    -0.030 C 
ATOM     11  C   UNL     1       5.202  -2.977  -6.843  1.00  0.00     0.041 C 
ATOM     12  C   UNL     1       4.968  -4.461  -6.742  1.00  0.00    -0.030 C 
BRANCH   8  13
ATOM     13  C   UNL     1       4.194  -3.051  -3.678  1.00  0.00     0.229 C 
ATOM     14  N   UNL     1       3.205  -2.136  -3.665  1.00  0.00    -0.317 N 
ATOM     15  H   UNL     1       2.625  -2.314  -2.890  1.00  0.00     0.170 HD
ATOM     16  O   UNL     1       3.974  -3.940  -2.827  1.00  0.00    -0.274 OA
BRANCH  14  17
ATOM     17  C   UNL     1       2.710  -1.041  -4.342  1.00  0.00     0.110 A 
ATOM     18  C   UNL     1       1.696  -0.201  -3.873  1.00  0.00     0.102 A 
ATOM     19  C   UNL     1       1.264   0.713  -4.910  1.00  0.00     0.010 A 
ATOM     20  C   UNL     1       2.027   0.592  -6.050  1.00  0.00     0.076 A 
ATOM     21  S   UNL     1       3.205  -0.599  -5.878  1.00  0.00    -0.125 S 
BRANCH  18  22
ATOM     22  C   UNL     1       1.245  -0.267  -2.481  1.00  0.00     0.341 C 
ATOM     23  O   UNL     1       1.856  -0.917  -1.643  1.00  0.00    -0.246 OA
BRANCH  22  24
ATOM     24  O   UNL     1       0.162   0.503  -2.211  1.00  0.00    -0.462 OA
BRANCH  24  25
ATOM     25  C   UNL     1      -0.055   0.899  -0.845  1.00  0.00     0.230 C 
ATOM     26  C   UNL     1      -0.192  -0.236   0.157  1.00  0.00     0.049 C 
ENDBRANCH  24  25
ENDBRANCH  22  24
ENDBRANCH  18  22
BRANCH  19  27
ATOM     27  C   UNL     1       0.260   1.768  -4.882  1.00  0.00    -0.009 A 
ATOM     28  C   UNL     1      -0.953   1.533  -5.548  1.00  0.00     0.009 A 
ATOM     29  C   UNL     1       0.537   3.031  -4.295  1.00  0.00    -0.010 A 
ATOM     30  C   UNL     1      -1.903   2.542  -5.646  1.00  0.00     0.001 A 
ATOM     31  C   UNL     1      -0.446   4.044  -4.395  1.00  0.00    -0.018 A 
ATOM     32  C   UNL     1       1.750   3.344  -3.633  1.00  0.00     0.009 A 
ATOM     33  C   UNL     1      -1.650   3.787  -5.073  1.00  0.00     0.009 A 
ATOM     34  C   UNL     1      -0.201   5.306  -3.832  1.00  0.00     0.009 A 
ATOM     35  C   UNL     1       1.976   4.601  -3.077  1.00  0.00     0.001 A 
ATOM     36  C   UNL     1       0.999   5.582  -3.175  1.00  0.00     0.001 A 
ENDBRANCH  19  27
ENDBRANCH  14  17
ENDBRANCH   8  13
ENDBRANCH   4   7
ENDBRANCH   2   3
ENDBRANCH   1   2
BRANCH   1  37
ATOM     37  C   UNL     1       6.369   1.387  -1.198  1.00  0.00     0.002 C 
BRANCH  37  38
ATOM     38  C   UNL     1       4.897   1.546  -0.793  1.00  0.00     0.002 C 
BRANCH  38  39
ATOM     39  C   UNL     1       4.285   0.419   0.039  1.00  0.00     0.021 C 
BRANCH  39  40
ATOM     40  C   UNL     1       4.916   0.152   1.404  1.00  0.00     0.116 C 
BRANCH  40  41
ATOM     41  N   UNL     1       4.904   1.312   2.280  1.00  0.00    -0.352 N 
ATOM     42  C   UNL     1       4.550   1.456   3.598  1.00  0.00     0.251 C 
ATOM     43  H   UNL     1       5.202   2.146   1.849  1.00  0.00     0.163 HD
ATOM     44  O   UNL     1       4.528   2.589   4.077  1.00  0.00    -0.269 OA
BRANCH  42  45
ATOM     45  C   UNL     1       4.188   0.302   4.464  1.00  0.00     0.039 A 
ATOM     46  C   UNL     1       3.267   0.522   5.498  1.00  0.00     0.014 A 
ATOM     47  C   UNL     1       4.789  -0.953   4.350  1.00  0.00     0.014 A 
ATOM     48  C   UNL     1       2.941  -0.504   6.391  1.00  0.00     0.010 A 
ATOM     49  C   UNL     1       4.407  -2.000   5.195  1.00  0.00     0.010 A 
ATOM     50  C   UNL     1       3.501  -1.781   6.242  1.00  0.00    -0.014 A 
BRANCH  50  51
ATOM     51  C   UNL     1       3.188  -2.868   7.209  1.00  0.00     0.031 A 
ATOM     52  C   UNL     1       4.265  -3.419   8.108  1.00  0.00     0.074 A 
ATOM     53  C   UNL     1       1.943  -3.379   7.272  1.00  0.00     0.049 A 
ATOM     54  N   UNL     1       4.185  -4.362   9.015  1.00  0.00    -0.248 NA
ATOM     55  C   UNL     1       5.614  -2.851   7.955  1.00  0.00     0.031 C 
ATOM     56  C   UNL     1       0.814  -2.967   6.436  1.00  0.00     0.029 A 
ATOM     57  N   UNL     1       1.419  -4.356   8.082  1.00  0.00    -0.354 N 
ATOM     58  C   UNL     1       5.471  -4.512   9.521  1.00  0.00     0.074 A 
ATOM     59  C   UNL     1       6.321  -3.599   8.789  1.00  0.00     0.031 C 
ATOM     60  C   UNL     1      -0.276  -3.663   6.799  1.00  0.00     0.029 A 
ATOM     61  C   UNL     1       0.082  -4.587   7.871  1.00  0.00     0.049 A 
ATOM     62  H   UNL     1       1.951  -4.844   8.752  1.00  0.00     0.167 HD
ATOM     63  C   UNL     1       5.908  -5.319  10.518  1.00  0.00     0.031 A 
ATOM     64  C   UNL     1      -0.764  -5.442   8.476  1.00  0.00     0.031 A 
ATOM     65  C   UNL     1       5.066  -6.217  11.264  1.00  0.00     0.049 A 
ATOM     66  C   UNL     1      -0.262  -6.314   9.593  1.00  0.00     0.074 A 
ATOM     67  C   UNL     1       5.406  -7.038  12.326  1.00  0.00     0.029 A 
ATOM     68  N   UNL     1       3.715  -6.408  11.027  1.00  0.00    -0.354 N 
ATOM     69  N   UNL     1       0.944  -6.397  10.099  1.00  0.00    -0.248 NA
ATOM     70  C   UNL     1      -1.247  -7.197  10.233  1.00  0.00     0.031 C 
ATOM     71  C   UNL     1       4.266  -7.755  12.707  1.00  0.00     0.029 A 
ATOM     72  C   UNL     1       3.208  -7.343  11.914  1.00  0.00     0.049 A 
ATOM     73  H   UNL     1       3.192  -5.948  10.332  1.00  0.00     0.167 HD
ATOM     74  C   UNL     1       0.857  -7.320  11.134  1.00  0.00     0.074 A 
ATOM     75  C   UNL     1      -0.524  -7.753  11.195  1.00  0.00     0.031 C 
ATOM     76  C   UNL     1       1.833  -7.768  11.961  1.00  0.00     0.031 A 
BRANCH  63  77
ATOM     77  C   UNL     1       7.373  -5.267  10.855  1.00  0.00    -0.014 A 
ATOM     78  C   UNL     1       7.934  -4.146  11.490  1.00  0.00     0.009 A 
ATOM     79  C   UNL     1       8.200  -6.361  10.556  1.00  0.00     0.009 A 
ATOM     80  C   UNL     1       9.300  -4.105  11.778  1.00  0.00     0.001 A 
ATOM     81  C   UNL     1       9.560  -6.329  10.871  1.00  0.00     0.001 A 
ATOM     82  C   UNL     1      10.111  -5.197  11.472  1.00  0.00     0.000 A 
ENDBRANCH  63  77
BRANCH  64  83
ATOM     83  C   UNL     1      -2.192  -5.492   8.066  1.00  0.00    -0.014 A 
ATOM     84  C   UNL     1      -3.191  -4.975   8.905  1.00  0.00     0.009 A 
ATOM     85  C   UNL     1      -2.564  -6.064   6.840  1.00  0.00     0.009 A 
ATOM     86  C   UNL     1      -4.536  -5.055   8.538  1.00  0.00     0.001 A 
ATOM     87  C   UNL     1      -3.907  -6.118   6.463  1.00  0.00     0.001 A 
ATOM     88  C   UNL     1      -4.893  -5.623   7.316  1.00  0.00     0.000 A 
ENDBRANCH  64  83
BRANCH  76  89
ATOM     89  C   UNL     1       1.430  -8.754  13.021  1.00  0.00    -0.014 A 
ATOM     90  C   UNL     1       1.102 -10.079  12.698  1.00  0.00     0.009 A 
ATOM     91  C   UNL     1       1.392  -8.351  14.365  1.00  0.00     0.009 A 
ATOM     92  C   UNL     1       0.702 -10.971  13.696  1.00  0.00     0.001 A 
ATOM     93  C   UNL     1       1.019  -9.252  15.364  1.00  0.00     0.001 A 
ATOM     94  C   UNL     1       0.664 -10.557  15.027  1.00  0.00     0.000 A 
ENDBRANCH  76  89
ENDBRANCH  50  51
ENDBRANCH  42  45
ENDBRANCH  40  41
ENDBRANCH  39  40
ENDBRANCH  38  39
ENDBRANCH  37  38
ENDBRANCH   1  37
TORSDOF 19
