REMARK SMILES Cc1c(Cl)ccc2c(OCC(=O)NCCCCCCNC(=O)c3ccc(-c4c5nc(c(-c6ccccc6)c6ccc([nH]6)c(-c6ccccc6)c6nc(c(-c7ccccc7)c7ccc4[nH]7)C=C6)C=C5)cc3)ccnc12
REMARK SMILES IDX 16 1 15 2 14 3 13 4 11 5 12 6 10 8 9 9 8 10 1 11 2 12 3 13
REMARK SMILES IDX 74 14 4 15 5 16 7 17 73 18 6 19 72 20 71 21 17 22 18 23
REMARK SMILES IDX 19 24 20 25 21 26 22 28 23 29 24 30 70 31 25 32 69 33 26 34
REMARK SMILES IDX 27 35 28 36 63 37 29 38 68 39 62 40 64 41 30 42 67 43 61 44
REMARK SMILES IDX 60 45 31 47 53 48 38 49 52 50 39 51 42 52 51 53 65 54 40 55
REMARK SMILES IDX 41 56 50 58 66 59 43 60 32 61 33 62 37 63 34 64 36 65 35 66
REMARK SMILES IDX 54 67 55 68 59 69 56 70 58 71 57 72 44 73 45 74 49 75 46 76
REMARK SMILES IDX 48 77 47 78
REMARK H PARENT 13 7 20 27 64 46 42 57
REMARK Flexibility Score: inf
ROOT
ATOM      1  C   UNL     1      -3.212   6.372  -0.496  1.00  0.00     0.002 C 
ENDROOT
BRANCH   1   2
ATOM      2  C   UNL     1      -2.625   5.637  -1.709  1.00  0.00     0.021 C 
BRANCH   2   3
ATOM      3  C   UNL     1      -1.995   6.550  -2.760  1.00  0.00     0.116 C 
BRANCH   3   4
ATOM      4  N   UNL     1      -0.882   7.302  -2.217  1.00  0.00    -0.353 N 
ATOM      5  C   UNL     1       0.445   7.195  -2.510  1.00  0.00     0.257 C 
ATOM      6  O   UNL     1       1.244   7.920  -1.913  1.00  0.00    -0.271 OA
ATOM      7  H   UNL     1      -1.116   7.982  -1.544  1.00  0.00     0.163 HD
BRANCH   5   8
ATOM      8  C   UNL     1       0.912   6.218  -3.596  1.00  0.00     0.329 C 
BRANCH   8   9
ATOM      9  O   UNL     1       0.529   4.859  -3.468  1.00  0.00    -0.483 OA
BRANCH   9  10
ATOM     10  C   UNL     1       1.027   4.119  -2.424  1.00  0.00     0.131 A 
ATOM     11  C   UNL     1       1.008  -0.114   0.092  1.00  0.00     0.048 C 
ATOM     12  C   UNL     1       0.530   0.680  -1.100  1.00  0.00    -0.006 A 
ATOM     13  C   UNL     1      -0.350   0.146  -2.057  1.00  0.00     0.046 A 
ATOM     14  C   UNL     1       0.991   2.002  -1.233  1.00  0.00     0.078 A 
ATOM     15  Cl  UNL     1      -0.942  -1.476  -1.976  1.00  0.00    -0.084 Cl
ATOM     16  C   UNL     1      -0.784   0.919  -3.130  1.00  0.00     0.022 A 
ATOM     17  C   UNL     1       0.547   2.790  -2.320  1.00  0.00     0.043 A 
ATOM     18  N   UNL     1       1.850   2.495  -0.321  1.00  0.00    -0.256 NA
ATOM     19  C   UNL     1      -0.345   2.232  -3.257  1.00  0.00     0.016 A 
ATOM     20  C   UNL     1       2.309   3.753  -0.465  1.00  0.00     0.115 A 
ATOM     21  C   UNL     1       1.939   4.594  -1.492  1.00  0.00     0.067 A 
ENDBRANCH   9  10
ENDBRANCH   8   9
ENDBRANCH   5   8
ENDBRANCH   3   4
ENDBRANCH   2   3
ENDBRANCH   1   2
BRANCH   1  22
ATOM     22  C   UNL     1      -4.248   7.455  -0.821  1.00  0.00     0.002 C 
BRANCH  22  23
ATOM     23  C   UNL     1      -5.435   6.983  -1.663  1.00  0.00     0.021 C 
BRANCH  23  24
ATOM     24  C   UNL     1      -6.239   5.849  -1.036  1.00  0.00     0.116 C 
BRANCH  24  25
ATOM     25  N   UNL     1      -6.912   6.270   0.182  1.00  0.00    -0.352 N 
ATOM     26  C   UNL     1      -8.256   6.310   0.452  1.00  0.00     0.251 C 
ATOM     27  H   UNL     1      -6.322   6.566   0.913  1.00  0.00     0.163 HD
ATOM     28  O   UNL     1      -8.679   6.880   1.453  1.00  0.00    -0.269 OA
BRANCH  26  29
ATOM     29  C   UNL     1      -9.200   5.666  -0.482  1.00  0.00     0.039 A 
ATOM     30  C   UNL     1     -10.315   6.382  -0.925  1.00  0.00     0.014 A 
ATOM     31  C   UNL     1      -8.984   4.351  -0.907  1.00  0.00     0.014 A 
ATOM     32  C   UNL     1     -11.197   5.790  -1.831  1.00  0.00     0.010 A 
ATOM     33  C   UNL     1      -9.834   3.782  -1.849  1.00  0.00     0.010 A 
ATOM     34  C   UNL     1     -10.955   4.492  -2.307  1.00  0.00    -0.014 A 
BRANCH  34  35
ATOM     35  C   UNL     1     -11.903   3.822  -3.226  1.00  0.00     0.031 A 
ATOM     36  C   UNL     1     -12.738   2.682  -2.715  1.00  0.00     0.074 A 
ATOM     37  C   UNL     1     -11.995   4.211  -4.512  1.00  0.00     0.049 A 
ATOM     38  N   UNL     1     -13.576   1.919  -3.369  1.00  0.00    -0.248 NA
ATOM     39  C   UNL     1     -12.612   2.349  -1.284  1.00  0.00     0.031 C 
ATOM     40  C   UNL     1     -11.250   5.313  -5.123  1.00  0.00     0.029 A 
ATOM     41  N   UNL     1     -12.764   3.720  -5.538  1.00  0.00    -0.354 N 
ATOM     42  C   UNL     1     -14.071   1.020  -2.434  1.00  0.00     0.074 A 
ATOM     43  C   UNL     1     -13.415   1.300  -1.177  1.00  0.00     0.031 C 
ATOM     44  C   UNL     1     -11.621   5.432  -6.409  1.00  0.00     0.029 A 
ATOM     45  C   UNL     1     -12.597   4.392  -6.724  1.00  0.00     0.049 A 
ATOM     46  H   UNL     1     -13.377   2.956  -5.433  1.00  0.00     0.167 HD
ATOM     47  C   UNL     1     -15.007   0.061  -2.605  1.00  0.00     0.031 A 
ATOM     48  C   UNL     1     -13.167   4.191  -7.928  1.00  0.00     0.031 A 
ATOM     49  C   UNL     1     -15.680  -0.203  -3.845  1.00  0.00     0.049 A 
ATOM     50  C   UNL     1     -14.154   3.069  -8.101  1.00  0.00     0.074 A 
ATOM     51  C   UNL     1     -16.668  -1.139  -4.097  1.00  0.00     0.029 A 
ATOM     52  N   UNL     1     -15.445   0.468  -5.031  1.00  0.00    -0.354 N 
ATOM     53  N   UNL     1     -14.624   2.240  -7.203  1.00  0.00    -0.248 NA
ATOM     54  C   UNL     1     -14.687   2.854  -9.456  1.00  0.00     0.031 C 
ATOM     55  C   UNL     1     -16.999  -1.065  -5.450  1.00  0.00     0.029 A 
ATOM     56  C   UNL     1     -16.253  -0.050  -6.026  1.00  0.00     0.049 A 
ATOM     57  H   UNL     1     -14.800   1.203  -5.149  1.00  0.00     0.167 HD
ATOM     58  C   UNL     1     -15.526   1.424  -7.876  1.00  0.00     0.074 A 
ATOM     59  C   UNL     1     -15.545   1.863  -9.255  1.00  0.00     0.031 C 
ATOM     60  C   UNL     1     -16.269   0.402  -7.391  1.00  0.00     0.031 A 
BRANCH  47  61
ATOM     61  C   UNL     1     -15.397  -0.774  -1.423  1.00  0.00    -0.014 A 
ATOM     62  C   UNL     1     -16.278  -0.268  -0.456  1.00  0.00     0.009 A 
ATOM     63  C   UNL     1     -15.006  -2.120  -1.359  1.00  0.00     0.009 A 
ATOM     64  C   UNL     1     -16.773  -1.102   0.548  1.00  0.00     0.001 A 
ATOM     65  C   UNL     1     -15.517  -2.955  -0.365  1.00  0.00     0.001 A 
ATOM     66  C   UNL     1     -16.403  -2.446   0.584  1.00  0.00     0.000 A 
ENDBRANCH  47  61
BRANCH  48  67
ATOM     67  C   UNL     1     -12.839   5.084  -9.069  1.00  0.00    -0.014 A 
ATOM     68  C   UNL     1     -13.796   5.993  -9.547  1.00  0.00     0.009 A 
ATOM     69  C   UNL     1     -11.583   5.029  -9.692  1.00  0.00     0.009 A 
ATOM     70  C   UNL     1     -13.507   6.817 -10.638  1.00  0.00     0.001 A 
ATOM     71  C   UNL     1     -11.289   5.872 -10.767  1.00  0.00     0.001 A 
ATOM     72  C   UNL     1     -12.253   6.759 -11.243  1.00  0.00     0.000 A 
ENDBRANCH  48  67
BRANCH  60  73
ATOM     73  C   UNL     1     -17.187  -0.314  -8.338  1.00  0.00    -0.014 A 
ATOM     74  C   UNL     1     -16.683  -1.231  -9.271  1.00  0.00     0.009 A 
ATOM     75  C   UNL     1     -18.577  -0.156  -8.213  1.00  0.00     0.009 A 
ATOM     76  C   UNL     1     -17.556  -1.972 -10.069  1.00  0.00     0.001 A 
ATOM     77  C   UNL     1     -19.447  -0.916  -8.995  1.00  0.00     0.001 A 
ATOM     78  C   UNL     1     -18.936  -1.821  -9.924  1.00  0.00     0.000 A 
ENDBRANCH  60  73
ENDBRANCH  34  35
ENDBRANCH  26  29
ENDBRANCH  24  25
ENDBRANCH  23  24
ENDBRANCH  22  23
ENDBRANCH   1  22
TORSDOF 15
