REMARK SMILES Cc1cc(C(=O)N[C@H](C(=O)NCCCCCCNC(=O)c2ccc(-c3c4nc(c(-c5ccccc5)c5ccc([nH]5)c(-c5ccccc5)c5nc(c(-c6ccccc6)c6ccc3[nH]6)C=C5)C=C4)cc2)c2c(C)n[nH]c2C)c2ccc(C)c(C)c2n1
REMARK SMILES IDX 14 1 13 2 12 3 11 4 9 5 10 6 8 8 7 9 5 10 6 11 4 13 1 14
REMARK SMILES IDX 2 15 3 16 84 17 83 18 76 19 81 20 77 21 79 22 82 23 78 24
REMARK SMILES IDX 80 25 69 26 70 27 74 28 71 29 72 30 73 31 75 32 15 34 16 35
REMARK SMILES IDX 17 36 18 37 19 38 20 40 21 41 22 42 68 43 23 44 67 45 24 46
REMARK SMILES IDX 25 47 26 48 61 49 27 50 66 51 60 52 62 53 28 54 65 55 59 56
REMARK SMILES IDX 58 57 29 59 51 60 36 61 50 62 37 63 40 64 49 65 63 66 38 67
REMARK SMILES IDX 39 68 48 70 64 71 41 72 30 73 31 74 35 75 32 76 34 77 33 78
REMARK SMILES IDX 52 79 53 80 57 81 54 82 56 83 55 84 42 85 43 86 47 87 44 88
REMARK SMILES IDX 46 89 45 90
REMARK H PARENT 11 7 7 12 73 33 18 39 62 58 40 69
REMARK Flexibility Score: inf
ROOT
ATOM      1  C   UNL     1      -5.643  -1.353  -6.827  1.00  0.00     0.002 C 
ENDROOT
BRANCH   1   2
ATOM      2  C   UNL     1      -4.905  -0.011  -6.819  1.00  0.00     0.021 C 
BRANCH   2   3
ATOM      3  C   UNL     1      -3.965   0.223  -5.645  1.00  0.00     0.116 C 
BRANCH   3   4
ATOM      4  N   UNL     1      -2.859  -0.703  -5.595  1.00  0.00    -0.354 N 
ATOM      5  C   UNL     1      -1.776  -0.716  -4.772  1.00  0.00     0.247 C 
ATOM      6  O   UNL     1      -0.937  -1.599  -5.006  1.00  0.00    -0.272 OA
ATOM      7  H   UNL     1      -2.894  -1.434  -6.253  1.00  0.00     0.163 HD
BRANCH   5   8
ATOM      8  C   UNL     1      -1.471   0.341  -3.671  1.00  0.00     0.206 C 
BRANCH   8   9
ATOM      9  N   UNL     1      -0.309   1.133  -4.089  1.00  0.00    -0.336 N 
ATOM     10  C   UNL     1       0.550   1.981  -3.432  1.00  0.00     0.252 C 
ATOM     11  O   UNL     1       1.617   2.240  -3.987  1.00  0.00    -0.269 OA
ATOM     12  H   UNL     1      -0.099   1.035  -5.045  1.00  0.00     0.165 HD
BRANCH  10  13
ATOM     13  C   UNL     1       0.215   2.633  -2.133  1.00  0.00     0.051 A 
ATOM     14  C   UNL     1      -1.747   1.807   0.960  1.00  0.00     0.067 C 
ATOM     15  C   UNL     1      -0.858   2.520  -0.013  1.00  0.00     0.039 A 
ATOM     16  C   UNL     1      -0.360   1.871  -1.121  1.00  0.00     0.038 A 
ATOM     17  N   UNL     1      -0.658   3.834   0.200  1.00  0.00    -0.253 NA
ATOM     18  C   UNL     1       0.016   4.573  -0.702  1.00  0.00     0.074 A 
ATOM     19  C   UNL     1       0.452   4.025  -1.927  1.00  0.00     0.013 A 
ATOM     20  C   UNL     1       0.259   5.929  -0.408  1.00  0.00    -0.022 A 
ATOM     21  C   UNL     1       1.072   4.899  -2.856  1.00  0.00     0.011 A 
ATOM     22  C   UNL     1       0.881   6.780  -1.347  1.00  0.00    -0.046 A 
ATOM     23  C   UNL     1      -0.187   6.444   0.943  1.00  0.00     0.047 C 
ATOM     24  C   UNL     1       1.281   6.247  -2.571  1.00  0.00     0.004 A 
ATOM     25  C   UNL     1       1.147   8.233  -1.064  1.00  0.00     0.044 C 
ENDBRANCH  10  13
ENDBRANCH   8   9
BRANCH   8  26
ATOM     26  C   UNL     1      -2.624   1.137  -3.140  1.00  0.00     0.027 A 
ATOM     27  C   UNL     1      -3.612   0.626  -2.236  1.00  0.00     0.065 A 
ATOM     28  C   UNL     1      -3.012   2.457  -3.339  1.00  0.00     0.038 A 
ATOM     29  C   UNL     1      -3.755  -0.760  -1.716  1.00  0.00     0.069 C 
ATOM     30  N   UNL     1      -4.498   1.559  -1.881  1.00  0.00    -0.180 NA
ATOM     31  N   UNL     1      -4.084   2.663  -2.514  1.00  0.00    -0.282 N 
ATOM     32  C   UNL     1      -2.499   3.556  -4.193  1.00  0.00     0.066 C 
ATOM     33  H   UNL     1      -4.511   3.543  -2.396  1.00  0.00     0.190 HD
ENDBRANCH   8  26
ENDBRANCH   5   8
ENDBRANCH   3   4
ENDBRANCH   2   3
ENDBRANCH   1   2
BRANCH   1  34
ATOM     34  C   UNL     1      -6.372  -1.764  -5.544  1.00  0.00     0.002 C 
BRANCH  34  35
ATOM     35  C   UNL     1      -7.338  -0.749  -4.931  1.00  0.00     0.021 C 
BRANCH  35  36
ATOM     36  C   UNL     1      -8.315  -0.076  -5.886  1.00  0.00     0.116 C 
BRANCH  36  37
ATOM     37  N   UNL     1      -9.137  -1.009  -6.633  1.00  0.00    -0.352 N 
ATOM     38  C   UNL     1     -10.492  -0.969  -6.862  1.00  0.00     0.251 C 
ATOM     39  H   UNL     1      -8.661  -1.774  -7.030  1.00  0.00     0.163 HD
ATOM     40  O   UNL     1     -11.051  -1.864  -7.477  1.00  0.00    -0.269 OA
BRANCH  38  41
ATOM     41  C   UNL     1     -11.278   0.155  -6.314  1.00  0.00     0.039 A 
ATOM     42  C   UNL     1     -12.371  -0.139  -5.497  1.00  0.00     0.014 A 
ATOM     43  C   UNL     1     -10.920   1.482  -6.574  1.00  0.00     0.014 A 
ATOM     44  C   UNL     1     -13.075   0.900  -4.890  1.00  0.00     0.010 A 
ATOM     45  C   UNL     1     -11.590   2.516  -5.925  1.00  0.00     0.010 A 
ATOM     46  C   UNL     1     -12.673   2.233  -5.080  1.00  0.00    -0.014 A 
BRANCH  46  47
ATOM     47  C   UNL     1     -13.400   3.333  -4.407  1.00  0.00     0.031 A 
ATOM     48  C   UNL     1     -14.269   4.258  -5.207  1.00  0.00     0.074 A 
ATOM     49  C   UNL     1     -13.275   3.500  -3.076  1.00  0.00     0.049 A 
ATOM     50  N   UNL     1     -15.026   5.239  -4.787  1.00  0.00    -0.248 NA
ATOM     51  C   UNL     1     -14.286   4.065  -6.666  1.00  0.00     0.031 C 
ATOM     52  C   UNL     1     -12.440   2.680  -2.196  1.00  0.00     0.029 A 
ATOM     53  N   UNL     1     -13.864   4.406  -2.230  1.00  0.00    -0.354 N 
ATOM     54  C   UNL     1     -15.609   5.775  -5.926  1.00  0.00     0.074 A 
ATOM     55  C   UNL     1     -15.085   5.047  -7.059  1.00  0.00     0.031 C 
ATOM     56  C   UNL     1     -12.605   3.093  -0.928  1.00  0.00     0.029 A 
ATOM     57  C   UNL     1     -13.537   4.218  -0.909  1.00  0.00     0.049 A 
ATOM     58  H   UNL     1     -14.464   5.122  -2.540  1.00  0.00     0.167 HD
ATOM     59  C   UNL     1     -16.522   6.768  -6.016  1.00  0.00     0.031 A 
ATOM     60  C   UNL     1     -13.952   4.867   0.195  1.00  0.00     0.031 A 
ATOM     61  C   UNL     1     -17.059   7.477  -4.890  1.00  0.00     0.049 A 
ATOM     62  C   UNL     1     -14.941   5.990   0.067  1.00  0.00     0.074 A 
ATOM     63  C   UNL     1     -18.038   8.455  -4.882  1.00  0.00     0.029 A 
ATOM     64  N   UNL     1     -16.665   7.287  -3.577  1.00  0.00    -0.354 N 
ATOM     65  N   UNL     1     -15.531   6.443  -1.012  1.00  0.00    -0.248 NA
ATOM     66  C   UNL     1     -15.325   6.690   1.302  1.00  0.00     0.031 C 
ATOM     67  C   UNL     1     -18.205   8.889  -3.566  1.00  0.00     0.029 A 
ATOM     68  C   UNL     1     -17.359   8.152  -2.752  1.00  0.00     0.049 A 
ATOM     69  H   UNL     1     -15.992   6.634  -3.276  1.00  0.00     0.167 HD
ATOM     70  C   UNL     1     -16.367   7.466  -0.587  1.00  0.00     0.074 A 
ATOM     71  C   UNL     1     -16.212   7.568   0.850  1.00  0.00     0.031 C 
ATOM     72  C   UNL     1     -17.192   8.245  -1.325  1.00  0.00     0.031 A 
BRANCH  59  73
ATOM     73  C   UNL     1     -17.017   7.139  -7.382  1.00  0.00    -0.014 A 
ATOM     74  C   UNL     1     -17.936   6.323  -8.057  1.00  0.00     0.009 A 
ATOM     75  C   UNL     1     -16.623   8.354  -7.962  1.00  0.00     0.009 A 
ATOM     76  C   UNL     1     -18.442   6.711  -9.299  1.00  0.00     0.001 A 
ATOM     77  C   UNL     1     -17.145   8.748  -9.195  1.00  0.00     0.001 A 
ATOM     78  C   UNL     1     -18.052   7.926  -9.863  1.00  0.00     0.000 A 
ENDBRANCH  59  73
BRANCH  60  79
ATOM     79  C   UNL     1     -13.461   4.428   1.525  1.00  0.00    -0.014 A 
ATOM     80  C   UNL     1     -14.287   3.665   2.364  1.00  0.00     0.009 A 
ATOM     81  C   UNL     1     -12.152   4.720   1.939  1.00  0.00     0.009 A 
ATOM     82  C   UNL     1     -13.812   3.203   3.593  1.00  0.00     0.001 A 
ATOM     83  C   UNL     1     -11.675   4.242   3.162  1.00  0.00     0.001 A 
ATOM     84  C   UNL     1     -12.505   3.486   3.988  1.00  0.00     0.000 A 
ENDBRANCH  60  79
BRANCH  72  85
ATOM     85  C   UNL     1     -18.006   9.287  -0.619  1.00  0.00    -0.014 A 
ATOM     86  C   UNL     1     -17.438  10.521  -0.274  1.00  0.00     0.009 A 
ATOM     87  C   UNL     1     -19.385   9.091  -0.441  1.00  0.00     0.009 A 
ATOM     88  C   UNL     1     -18.240  11.546   0.229  1.00  0.00     0.001 A 
ATOM     89  C   UNL     1     -20.186  10.124   0.046  1.00  0.00     0.001 A 
ATOM     90  C   UNL     1     -19.613  11.351   0.377  1.00  0.00     0.000 A 
ENDBRANCH  72  85
ENDBRANCH  46  47
ENDBRANCH  38  41
ENDBRANCH  36  37
ENDBRANCH  35  36
ENDBRANCH  34  35
ENDBRANCH   1  34
TORSDOF 16
