REMARK SMILES O=C(NCCCCCCNC(=O)c1cccn1CC(=O)N1CC[C@H]2CCCC[C@H]2C1)c1ccc(-c2c3nc(c(-c4ccccc4)c4ccc([nH]4)c(-c4ccccc4)c4nc(c(-c5ccccc5)c5ccc2[nH]5)C=C4)C=C3)cc1
REMARK SMILES IDX 7 1 6 2 5 3 4 4 3 5 1 6 2 7 31 9 32 10 78 11 33 12 77 13
REMARK SMILES IDX 34 14 35 15 36 16 71 17 37 18 76 19 70 20 72 21 38 22 75 23
REMARK SMILES IDX 69 24 68 25 39 27 61 28 46 29 60 30 47 31 50 32 59 33 73 34
REMARK SMILES IDX 48 35 49 36 58 38 74 39 51 40 40 41 41 42 45 43 42 44 44 45
REMARK SMILES IDX 43 46 62 47 63 48 67 49 64 50 66 51 65 52 52 53 53 54 57 55
REMARK SMILES IDX 54 56 56 57 55 58 8 59 9 60 10 61 11 62 12 64 13 65 14 66
REMARK SMILES IDX 17 67 15 68 16 69 18 70 19 71 20 72 21 73 22 74 30 75 23 76
REMARK SMILES IDX 29 77 24 78 28 79 25 80 27 81 26 82
REMARK H PARENT 3 8 72 26 50 37 10 63
REMARK Flexibility Score: inf
ROOT
ATOM      1  C   UNL     1       4.403   3.968   1.678  1.00  0.00     0.002 C 
ENDROOT
BRANCH   1   2
ATOM      2  C   UNL     1       4.005   3.596   0.252  1.00  0.00     0.002 C 
BRANCH   2   3
ATOM      3  C   UNL     1       4.611   2.297  -0.281  1.00  0.00     0.021 C 
BRANCH   3   4
ATOM      4  C   UNL     1       4.457   1.073   0.627  1.00  0.00     0.116 C 
BRANCH   4   5
ATOM      5  N   UNL     1       3.108   0.562   0.783  1.00  0.00    -0.352 N 
ATOM      6  O   UNL     1       1.168  -0.465   0.336  1.00  0.00    -0.269 OA
ATOM      7  C   UNL     1       2.242  -0.045  -0.088  1.00  0.00     0.251 C 
ATOM      8  H   UNL     1       2.745   0.673   1.692  1.00  0.00     0.163 HD
BRANCH   7   9
ATOM      9  C   UNL     1       2.525  -0.132  -1.538  1.00  0.00     0.039 A 
ATOM     10  C   UNL     1       3.800  -0.378  -2.048  1.00  0.00     0.014 A 
ATOM     11  C   UNL     1       1.444   0.045  -2.417  1.00  0.00     0.014 A 
ATOM     12  C   UNL     1       4.022  -0.311  -3.414  1.00  0.00     0.010 A 
ATOM     13  C   UNL     1       1.650   0.053  -3.794  1.00  0.00     0.010 A 
ATOM     14  C   UNL     1       2.948  -0.105  -4.287  1.00  0.00    -0.014 A 
BRANCH  14  15
ATOM     15  C   UNL     1       3.238  -0.249  -5.728  1.00  0.00     0.031 A 
ATOM     16  C   UNL     1       3.442  -1.717  -6.123  1.00  0.00     0.074 A 
ATOM     17  C   UNL     1       3.415   0.903  -6.436  1.00  0.00     0.049 A 
ATOM     18  N   UNL     1       4.179  -2.235  -7.057  1.00  0.00    -0.248 NA
ATOM     19  C   UNL     1       2.786  -2.771  -5.300  1.00  0.00     0.031 C 
ATOM     20  C   UNL     1       3.160   2.261  -5.908  1.00  0.00     0.029 A 
ATOM     21  N   UNL     1       3.863   1.181  -7.710  1.00  0.00    -0.354 N 
ATOM     22  C   UNL     1       3.988  -3.633  -7.023  1.00  0.00     0.074 A 
ATOM     23  C   UNL     1       3.183  -3.909  -5.872  1.00  0.00     0.031 C 
ATOM     24  C   UNL     1       3.521   3.200  -6.807  1.00  0.00     0.029 A 
ATOM     25  C   UNL     1       4.052   2.555  -7.992  1.00  0.00     0.049 A 
ATOM     26  H   UNL     1       4.039   0.475  -8.374  1.00  0.00     0.167 HD
ATOM     27  C   UNL     1       4.435  -4.486  -7.989  1.00  0.00     0.031 A 
ATOM     28  C   UNL     1       4.649   3.137  -9.075  1.00  0.00     0.031 A 
ATOM     29  C   UNL     1       5.222  -3.801  -8.957  1.00  0.00     0.049 A 
ATOM     30  C   UNL     1       5.027   2.041  -9.982  1.00  0.00     0.074 A 
ATOM     31  C   UNL     1       6.513  -3.344  -8.965  1.00  0.00     0.029 A 
ATOM     32  N   UNL     1       4.560  -3.259 -10.029  1.00  0.00    -0.354 N 
ATOM     33  N   UNL     1       4.200   1.352 -10.704  1.00  0.00    -0.248 NA
ATOM     34  C   UNL     1       6.434   1.628 -10.048  1.00  0.00     0.031 C 
ATOM     35  C   UNL     1       6.468  -2.194  -9.787  1.00  0.00     0.029 A 
ATOM     36  C   UNL     1       5.181  -2.066 -10.316  1.00  0.00     0.049 A 
ATOM     37  H   UNL     1       3.789  -3.649 -10.502  1.00  0.00     0.167 HD
ATOM     38  C   UNL     1       4.923   0.221 -10.997  1.00  0.00     0.074 A 
ATOM     39  C   UNL     1       6.316   0.576 -10.854  1.00  0.00     0.031 C 
ATOM     40  C   UNL     1       4.357  -1.003 -10.845  1.00  0.00     0.031 A 
BRANCH  27  41
ATOM     41  C   UNL     1       4.093  -5.924  -8.256  1.00  0.00    -0.014 A 
ATOM     42  C   UNL     1       4.959  -6.668  -9.092  1.00  0.00     0.009 A 
ATOM     43  C   UNL     1       2.845  -6.489  -7.966  1.00  0.00     0.009 A 
ATOM     44  C   UNL     1       4.567  -7.874  -9.679  1.00  0.00     0.001 A 
ATOM     45  C   UNL     1       2.463  -7.716  -8.530  1.00  0.00     0.001 A 
ATOM     46  C   UNL     1       3.310  -8.392  -9.407  1.00  0.00     0.000 A 
ENDBRANCH  27  41
BRANCH  28  47
ATOM     47  C   UNL     1       5.088   4.521  -9.482  1.00  0.00    -0.014 A 
ATOM     48  C   UNL     1       4.798   5.706  -8.802  1.00  0.00     0.009 A 
ATOM     49  C   UNL     1       5.913   4.665 -10.632  1.00  0.00     0.009 A 
ATOM     50  C   UNL     1       5.372   6.934  -9.192  1.00  0.00     0.001 A 
ATOM     51  C   UNL     1       6.515   5.870 -11.003  1.00  0.00     0.001 A 
ATOM     52  C   UNL     1       6.254   7.011 -10.269  1.00  0.00     0.000 A 
ENDBRANCH  28  47
BRANCH  40  53
ATOM     53  C   UNL     1       2.836  -0.988 -10.798  1.00  0.00    -0.014 A 
ATOM     54  C   UNL     1       2.093  -0.568 -11.909  1.00  0.00     0.009 A 
ATOM     55  C   UNL     1       2.123  -1.265  -9.617  1.00  0.00     0.009 A 
ATOM     56  C   UNL     1       0.701  -0.417 -11.835  1.00  0.00     0.001 A 
ATOM     57  C   UNL     1       0.732  -1.124  -9.539  1.00  0.00     0.001 A 
ATOM     58  C   UNL     1       0.020  -0.694 -10.651  1.00  0.00     0.000 A 
ENDBRANCH  40  53
ENDBRANCH  14  15
ENDBRANCH   7   9
ENDBRANCH   4   5
ENDBRANCH   3   4
ENDBRANCH   2   3
ENDBRANCH   1   2
BRANCH   1  59
ATOM     59  C   UNL     1       5.900   3.909   1.981  1.00  0.00     0.021 C 
BRANCH  59  60
ATOM     60  C   UNL     1       6.771   4.972   1.308  1.00  0.00     0.116 C 
BRANCH  60  61
ATOM     61  N   UNL     1       6.607   6.262   1.950  1.00  0.00    -0.351 N 
ATOM     62  C   UNL     1       7.519   7.051   2.608  1.00  0.00     0.267 C 
ATOM     63  H   UNL     1       5.696   6.631   1.907  1.00  0.00     0.163 HD
ATOM     64  O   UNL     1       7.075   7.969   3.290  1.00  0.00    -0.268 OA
BRANCH  62  65
ATOM     65  C   UNL     1       8.941   6.784   2.485  1.00  0.00     0.107 A 
ATOM     66  C   UNL     1       9.677   6.523   1.336  1.00  0.00     0.033 A 
ATOM     67  N   UNL     1       9.862   6.860   3.525  1.00  0.00    -0.334 N 
ATOM     68  C   UNL     1      11.049   6.484   1.677  1.00  0.00     0.020 A 
ATOM     69  C   UNL     1      11.139   6.731   3.026  1.00  0.00     0.087 A 
BRANCH  67  70
ATOM     70  C   UNL     1       9.557   7.111   4.928  1.00  0.00     0.222 C 
BRANCH  70  71
ATOM     71  C   UNL     1      10.015   6.103   5.979  1.00  0.00     0.242 C 
ATOM     72  O   UNL     1      10.489   6.533   7.039  1.00  0.00    -0.273 OA
BRANCH  71  73
ATOM     73  N   UNL     1       9.666   4.767   5.868  1.00  0.00    -0.341 N 
ATOM     74  C   UNL     1       9.638   3.983   4.649  1.00  0.00     0.120 C 
ATOM     75  C   UNL     1       9.248   4.020   7.053  1.00  0.00     0.123 C 
ATOM     76  C   UNL     1       8.207   3.575   4.363  1.00  0.00     0.025 C 
ATOM     77  C   UNL     1       7.793   3.522   6.859  1.00  0.00     0.012 C 
ATOM     78  C   UNL     1       7.590   2.773   5.523  1.00  0.00    -0.005 C 
ATOM     79  C   UNL     1       7.293   2.658   8.015  1.00  0.00     0.006 C 
ATOM     80  C   UNL     1       8.119   1.329   5.511  1.00  0.00     0.004 C 
ATOM     81  C   UNL     1       8.039   1.335   8.102  1.00  0.00     0.000 C 
ATOM     82  C   UNL     1       7.988   0.534   6.808  1.00  0.00     0.000 C 
ENDBRANCH  71  73
ENDBRANCH  70  71
ENDBRANCH  67  70
ENDBRANCH  62  65
ENDBRANCH  60  61
ENDBRANCH  59  60
ENDBRANCH   1  59
TORSDOF 16
