REMARK SMILES C[C@@H]1CCC/C(=C\Nc2ccc(C(=O)NCCCCCCNC(=O)c3ccc(-c4c5nc(c(-c6ccccc6)c6ccc([nH]6)c(-c6ccccc6)c6nc(c(-c7ccccc7)c7ccc4[nH]7)C=C6)C=C5)cc3)c(O)c2)C1=O
REMARK SMILES IDX 18 1 17 2 16 3 15 4 13 5 14 6 12 8 9 9 10 10 75 11 11 12
REMARK SMILES IDX 73 13 8 14 7 16 1 17 2 18 3 19 76 20 4 21 6 22 77 23 5 24
REMARK SMILES IDX 74 25 19 27 20 28 21 29 22 30 23 31 24 33 25 34 26 35 72 36
REMARK SMILES IDX 27 37 71 38 28 39 29 40 30 41 65 42 31 43 70 44 64 45 66 46
REMARK SMILES IDX 32 47 69 48 63 49 62 50 33 52 55 53 40 54 54 55 41 56 44 57
REMARK SMILES IDX 53 58 67 59 42 60 43 61 52 63 68 64 45 65 34 66 35 67 39 68
REMARK SMILES IDX 36 69 38 70 37 71 56 72 57 73 61 74 58 75 60 76 59 77 46 78
REMARK SMILES IDX 47 79 51 80 48 81 50 82 49 83
REMARK H PARENT 15 7 8 15 74 26 22 32 66 51 44 62
REMARK Flexibility Score: inf
ROOT
ATOM      1  C   UNL     1       8.282   7.938  -7.962  1.00  0.00     0.002 C 
ENDROOT
BRANCH   1   2
ATOM      2  C   UNL     1       7.258   7.764  -6.835  1.00  0.00     0.021 C 
BRANCH   2   3
ATOM      3  C   UNL     1       6.540   6.418  -6.766  1.00  0.00     0.116 C 
BRANCH   3   4
ATOM      4  N   UNL     1       7.429   5.276  -6.634  1.00  0.00    -0.352 N 
ATOM      5  C   UNL     1       7.221   4.083  -5.984  1.00  0.00     0.255 C 
ATOM      6  O   UNL     1       8.125   3.250  -5.941  1.00  0.00    -0.269 OA
ATOM      7  H   UNL     1       8.306   5.371  -7.072  1.00  0.00     0.163 HD
BRANCH   5   8
ATOM      8  C   UNL     1       5.934   3.796  -5.310  1.00  0.00     0.081 A 
ATOM      9  C   UNL     1       3.564   3.355  -3.829  1.00  0.00     0.042 A 
ATOM     10  C   UNL     1       4.819   3.085  -3.271  1.00  0.00     0.027 A 
ATOM     11  C   UNL     1       3.518   3.791  -5.162  1.00  0.00     0.073 A 
ATOM     12  C   UNL     1       5.994   3.305  -4.001  1.00  0.00     0.020 A 
ATOM     13  C   UNL     1       4.685   3.971  -5.906  1.00  0.00     0.130 A 
BRANCH   9  14
ATOM     14  N   UNL     1       2.351   3.219  -3.133  1.00  0.00    -0.361 N 
ATOM     15  H   UNL     1       1.538   3.347  -3.674  1.00  0.00     0.166 HD
BRANCH  14  16
ATOM     16  C   UNL     1       2.137   2.935  -1.809  1.00  0.00     0.090 C 
ATOM     17  C   UNL     1       1.147  -0.154   0.374  1.00  0.00     0.016 C 
ATOM     18  C   UNL     1       0.265   1.060   0.654  1.00  0.00     0.058 C 
ATOM     19  C   UNL     1      -1.103   0.971  -0.037  1.00  0.00     0.012 C 
ATOM     20  C   UNL     1       1.013   2.318   0.240  1.00  0.00     0.163 C 
ATOM     21  C   UNL     1      -1.043   1.233  -1.542  1.00  0.00     0.006 C 
ATOM     22  C   UNL     1       0.967   2.666  -1.211  1.00  0.00     0.011 C 
ATOM     23  O   UNL     1       1.695   2.964   1.031  1.00  0.00    -0.294 OA
ATOM     24  C   UNL     1      -0.386   2.578  -1.846  1.00  0.00     0.041 C 
ENDBRANCH  14  16
ENDBRANCH   9  14
BRANCH  13  25
ATOM     25  O   UNL     1       4.507   4.287  -7.224  1.00  0.00    -0.507 OA
ATOM     26  H   UNL     1       5.251   4.421  -7.779  1.00  0.00     0.293 HD
ENDBRANCH  13  25
ENDBRANCH   5   8
ENDBRANCH   3   4
ENDBRANCH   2   3
ENDBRANCH   1   2
BRANCH   1  27
ATOM     27  C   UNL     1       7.848   7.529  -9.372  1.00  0.00     0.002 C 
BRANCH  27  28
ATOM     28  C   UNL     1       6.554   8.145  -9.908  1.00  0.00     0.021 C 
BRANCH  28  29
ATOM     29  C   UNL     1       6.437   9.662  -9.821  1.00  0.00     0.116 C 
BRANCH  29  30
ATOM     30  N   UNL     1       7.499  10.361 -10.517  1.00  0.00    -0.352 N 
ATOM     31  C   UNL     1       7.443  11.442 -11.359  1.00  0.00     0.251 C 
ATOM     32  H   UNL     1       8.403  10.004 -10.361  1.00  0.00     0.163 HD
ATOM     33  O   UNL     1       8.470  11.819 -11.923  1.00  0.00    -0.269 OA
BRANCH  31  34
ATOM     34  C   UNL     1       6.168  12.152 -11.624  1.00  0.00     0.039 A 
ATOM     35  C   UNL     1       5.929  12.613 -12.923  1.00  0.00     0.014 A 
ATOM     36  C   UNL     1       5.238  12.421 -10.616  1.00  0.00     0.014 A 
ATOM     37  C   UNL     1       4.753  13.309 -13.216  1.00  0.00     0.010 A 
ATOM     38  C   UNL     1       4.031  13.052 -10.924  1.00  0.00     0.010 A 
ATOM     39  C   UNL     1       3.785  13.521 -12.223  1.00  0.00    -0.014 A 
BRANCH  39  40
ATOM     40  C   UNL     1       2.536  14.267 -12.531  1.00  0.00     0.031 A 
ATOM     41  C   UNL     1       2.274  15.607 -11.895  1.00  0.00     0.074 A 
ATOM     42  C   UNL     1       1.628  13.735 -13.372  1.00  0.00     0.049 A 
ATOM     43  N   UNL     1       1.257  16.416 -12.065  1.00  0.00    -0.248 NA
ATOM     44  C   UNL     1       3.270  16.094 -10.928  1.00  0.00     0.031 C 
ATOM     45  C   UNL     1       1.738  12.430 -14.027  1.00  0.00     0.029 A 
ATOM     46  N   UNL     1       0.433  14.235 -13.828  1.00  0.00    -0.354 N 
ATOM     47  C   UNL     1       1.484  17.493 -11.215  1.00  0.00     0.074 A 
ATOM     48  C   UNL     1       2.708  17.214 -10.497  1.00  0.00     0.031 C 
ATOM     49  C   UNL     1       0.677  12.250 -14.831  1.00  0.00     0.029 A 
ATOM     50  C   UNL     1      -0.203  13.410 -14.725  1.00  0.00     0.049 A 
ATOM     51  H   UNL     1       0.066  15.102 -13.540  1.00  0.00     0.167 HD
ATOM     52  C   UNL     1       0.754  18.623 -11.060  1.00  0.00     0.031 A 
ATOM     53  C   UNL     1      -1.359  13.574 -15.395  1.00  0.00     0.031 A 
ATOM     54  C   UNL     1      -0.449  18.918 -11.791  1.00  0.00     0.049 A 
ATOM     55  C   UNL     1      -2.150  14.839 -15.205  1.00  0.00     0.074 A 
ATOM     56  C   UNL     1      -1.216  20.070 -11.759  1.00  0.00     0.029 A 
ATOM     57  N   UNL     1      -1.060  18.054 -12.685  1.00  0.00    -0.354 N 
ATOM     58  N   UNL     1      -1.873  15.884 -14.463  1.00  0.00    -0.248 NA
ATOM     59  C   UNL     1      -3.408  14.950 -15.957  1.00  0.00     0.031 C 
ATOM     60  C   UNL     1      -2.321  19.883 -12.597  1.00  0.00     0.029 A 
ATOM     61  C   UNL     1      -2.212  18.635 -13.188  1.00  0.00     0.049 A 
ATOM     62  H   UNL     1      -0.726  17.160 -12.926  1.00  0.00     0.167 HD
ATOM     63  C   UNL     1      -2.906  16.786 -14.682  1.00  0.00     0.074 A 
ATOM     64  C   UNL     1      -3.804  16.174 -15.639  1.00  0.00     0.031 C 
ATOM     65  C   UNL     1      -3.095  18.013 -14.139  1.00  0.00     0.031 A 
BRANCH  52  66
ATOM     66  C   UNL     1       1.236  19.629 -10.053  1.00  0.00    -0.014 A 
ATOM     67  C   UNL     1       2.385  20.401 -10.287  1.00  0.00     0.009 A 
ATOM     68  C   UNL     1       0.506  19.839  -8.873  1.00  0.00     0.009 A 
ATOM     69  C   UNL     1       2.812  21.339  -9.343  1.00  0.00     0.001 A 
ATOM     70  C   UNL     1       0.919  20.796  -7.944  1.00  0.00     0.001 A 
ATOM     71  C   UNL     1       2.076  21.539  -8.175  1.00  0.00     0.000 A 
ENDBRANCH  52  66
BRANCH  53  72
ATOM     72  C   UNL     1      -1.837  12.527 -16.336  1.00  0.00    -0.014 A 
ATOM     73  C   UNL     1      -1.835  12.762 -17.720  1.00  0.00     0.009 A 
ATOM     74  C   UNL     1      -2.325  11.302 -15.857  1.00  0.00     0.009 A 
ATOM     75  C   UNL     1      -2.343  11.806 -18.602  1.00  0.00     0.001 A 
ATOM     76  C   UNL     1      -2.806  10.336 -16.743  1.00  0.00     0.001 A 
ATOM     77  C   UNL     1      -2.826  10.593 -18.113  1.00  0.00     0.000 A 
ENDBRANCH  53  72
BRANCH  65  78
ATOM     78  C   UNL     1      -4.304  18.783 -14.590  1.00  0.00    -0.014 A 
ATOM     79  C   UNL     1      -5.596  18.413 -14.184  1.00  0.00     0.009 A 
ATOM     80  C   UNL     1      -4.144  19.910 -15.411  1.00  0.00     0.009 A 
ATOM     81  C   UNL     1      -6.707  19.136 -14.623  1.00  0.00     0.001 A 
ATOM     82  C   UNL     1      -5.255  20.648 -15.824  1.00  0.00     0.001 A 
ATOM     83  C   UNL     1      -6.535  20.255 -15.438  1.00  0.00     0.000 A 
ENDBRANCH  65  78
ENDBRANCH  39  40
ENDBRANCH  31  34
ENDBRANCH  29  30
ENDBRANCH  28  29
ENDBRANCH  27  28
ENDBRANCH   1  27
TORSDOF 16
