REMARK SMILES O=C(NCCCCCCNC(=O)c1ccc(N2C(=O)N=C(O)/C(=C\c3cccs3)C2=O)cc1)c1ccc(-c2c3nc(c(-c4ccccc4)c4ccc([nH]4)c(-c4ccccc4)c4nc(c(-c5ccccc5)c5ccc2[nH]5)C=C4)C=C3)cc1
REMARK SMILES IDX 6 1 5 2 4 3 3 4 1 5 2 6 34 8 35 9 81 10 36 11 80 12 37 13
REMARK SMILES IDX 38 14 39 15 74 16 40 17 79 18 73 19 75 20 41 21 78 22 72 23
REMARK SMILES IDX 71 24 42 26 64 27 49 28 63 29 50 30 53 31 62 32 76 33 51 34
REMARK SMILES IDX 52 35 61 37 77 38 54 39 43 40 44 41 48 42 45 43 47 44 46 45
REMARK SMILES IDX 65 46 66 47 70 48 67 49 69 50 68 51 55 52 56 53 60 54 57 55
REMARK SMILES IDX 59 56 58 57 7 58 8 59 9 60 10 61 11 62 12 64 13 65 14 66
REMARK SMILES IDX 33 67 15 68 32 69 16 70 17 71 18 72 30 73 19 74 20 75 23 76
REMARK SMILES IDX 31 77 21 78 24 79 22 80 25 82 26 83 29 84 27 85 28 86
REMARK H PARENT 3 7 75 25 53 36 10 63 22 81
REMARK Flexibility Score: inf
ROOT
ATOM      1  C   UNL     1       4.146   1.330  -3.666  1.00  0.00     0.002 C 
ENDROOT
BRANCH   1   2
ATOM      2  C   UNL     1       4.593   0.221  -2.719  1.00  0.00     0.021 C 
BRANCH   2   3
ATOM      3  C   UNL     1       4.350   0.503  -1.244  1.00  0.00     0.116 C 
BRANCH   3   4
ATOM      4  N   UNL     1       2.938   0.560  -0.898  1.00  0.00    -0.352 N 
ATOM      5  O   UNL     1       1.046  -0.049   0.183  1.00  0.00    -0.269 OA
ATOM      6  C   UNL     1       2.269  -0.104   0.104  1.00  0.00     0.251 C 
ATOM      7  H   UNL     1       2.387   1.155  -1.456  1.00  0.00     0.163 HD
BRANCH   6   8
ATOM      8  C   UNL     1       3.038  -0.915   1.073  1.00  0.00     0.039 A 
ATOM      9  C   UNL     1       4.214  -0.412   1.629  1.00  0.00     0.014 A 
ATOM     10  C   UNL     1       2.597  -2.199   1.405  1.00  0.00     0.014 A 
ATOM     11  C   UNL     1       5.034  -1.248   2.373  1.00  0.00     0.010 A 
ATOM     12  C   UNL     1       3.371  -3.002   2.250  1.00  0.00     0.010 A 
ATOM     13  C   UNL     1       4.613  -2.545   2.715  1.00  0.00    -0.014 A 
BRANCH  13  14
ATOM     14  C   UNL     1       5.468  -3.345   3.629  1.00  0.00     0.031 A 
ATOM     15  C   UNL     1       6.110  -4.633   3.194  1.00  0.00     0.074 A 
ATOM     16  C   UNL     1       5.722  -2.843   4.854  1.00  0.00     0.049 A 
ATOM     17  N   UNL     1       6.959  -5.386   3.850  1.00  0.00    -0.248 NA
ATOM     18  C   UNL     1       5.755  -5.150   1.864  1.00  0.00     0.031 C 
ATOM     19  C   UNL     1       5.141  -1.609   5.395  1.00  0.00     0.029 A 
ATOM     20  N   UNL     1       6.560  -3.276   5.848  1.00  0.00    -0.354 N 
ATOM     21  C   UNL     1       7.233  -6.466   3.020  1.00  0.00     0.074 A 
ATOM     22  C   UNL     1       6.436  -6.289   1.825  1.00  0.00     0.031 C 
ATOM     23  C   UNL     1       5.696  -1.346   6.585  1.00  0.00     0.029 A 
ATOM     24  C   UNL     1       6.611  -2.427   6.927  1.00  0.00     0.049 A 
ATOM     25  H   UNL     1       7.075  -4.114   5.795  1.00  0.00     0.167 HD
ATOM     26  C   UNL     1       8.077  -7.506   3.233  1.00  0.00     0.031 A 
ATOM     27  C   UNL     1       7.306  -2.509   8.075  1.00  0.00     0.031 A 
ATOM     28  C   UNL     1       8.859  -7.686   4.431  1.00  0.00     0.049 A 
ATOM     29  C   UNL     1       8.214  -3.682   8.289  1.00  0.00     0.074 A 
ATOM     30  C   UNL     1       9.746  -8.705   4.737  1.00  0.00     0.029 A 
ATOM     31  N   UNL     1       8.848  -6.828   5.520  1.00  0.00    -0.354 N 
ATOM     32  N   UNL     1       8.479  -4.678   7.480  1.00  0.00    -0.248 NA
ATOM     33  C   UNL     1       8.922  -3.738   9.574  1.00  0.00     0.031 C 
ATOM     34  C   UNL     1      10.234  -8.488   6.031  1.00  0.00     0.029 A 
ATOM     35  C   UNL     1       9.697  -7.304   6.507  1.00  0.00     0.049 A 
ATOM     36  H   UNL     1       8.314  -6.003   5.584  1.00  0.00     0.167 HD
ATOM     37  C   UNL     1       9.388  -5.479   8.156  1.00  0.00     0.074 A 
ATOM     38  C   UNL     1       9.659  -4.829   9.422  1.00  0.00     0.031 C 
ATOM     39  C   UNL     1       9.942  -6.653   7.768  1.00  0.00     0.031 A 
BRANCH  26  40
ATOM     40  C   UNL     1       8.191  -8.547   2.152  1.00  0.00    -0.014 A 
ATOM     41  C   UNL     1       8.857  -8.273   0.947  1.00  0.00     0.009 A 
ATOM     42  C   UNL     1       7.683  -9.838   2.367  1.00  0.00     0.009 A 
ATOM     43  C   UNL     1       8.990  -9.263  -0.029  1.00  0.00     0.001 A 
ATOM     44  C   UNL     1       7.841 -10.834   1.400  1.00  0.00     0.001 A 
ATOM     45  C   UNL     1       8.488 -10.544   0.200  1.00  0.00     0.000 A 
ENDBRANCH  26  40
BRANCH  27  46
ATOM     46  C   UNL     1       7.139  -1.464   9.118  1.00  0.00    -0.014 A 
ATOM     47  C   UNL     1       8.192  -0.598   9.449  1.00  0.00     0.009 A 
ATOM     48  C   UNL     1       5.913  -1.327   9.789  1.00  0.00     0.009 A 
ATOM     49  C   UNL     1       8.028   0.362  10.450  1.00  0.00     0.001 A 
ATOM     50  C   UNL     1       5.740  -0.343  10.762  1.00  0.00     0.001 A 
ATOM     51  C   UNL     1       6.802   0.493  11.101  1.00  0.00     0.000 A 
ENDBRANCH  27  46
BRANCH  39  52
ATOM     52  C   UNL     1      10.906  -7.291   8.727  1.00  0.00    -0.014 A 
ATOM     53  C   UNL     1      10.463  -7.864   9.931  1.00  0.00     0.009 A 
ATOM     54  C   UNL     1      12.276  -7.314   8.426  1.00  0.00     0.009 A 
ATOM     55  C   UNL     1      11.380  -8.403  10.835  1.00  0.00     0.001 A 
ATOM     56  C   UNL     1      13.187  -7.883   9.318  1.00  0.00     0.001 A 
ATOM     57  C   UNL     1      12.739  -8.414  10.527  1.00  0.00     0.000 A 
ENDBRANCH  39  52
ENDBRANCH  13  14
ENDBRANCH   6   8
ENDBRANCH   3   4
ENDBRANCH   2   3
ENDBRANCH   1   2
BRANCH   1  58
ATOM     58  C   UNL     1       4.733   2.715  -3.378  1.00  0.00     0.002 C 
BRANCH  58  59
ATOM     59  C   UNL     1       6.261   2.783  -3.282  1.00  0.00     0.021 C 
BRANCH  59  60
ATOM     60  C   UNL     1       7.012   2.226  -4.490  1.00  0.00     0.116 C 
BRANCH  60  61
ATOM     61  N   UNL     1       6.674   2.935  -5.711  1.00  0.00    -0.352 N 
ATOM     62  C   UNL     1       7.507   3.567  -6.597  1.00  0.00     0.251 C 
ATOM     63  H   UNL     1       5.715   2.966  -5.933  1.00  0.00     0.163 HD
ATOM     64  O   UNL     1       7.055   4.277  -7.488  1.00  0.00    -0.269 OA
BRANCH  62  65
ATOM     65  C   UNL     1       8.964   3.394  -6.462  1.00  0.00     0.039 A 
ATOM     66  C   UNL     1       9.765   4.523  -6.300  1.00  0.00     0.016 A 
ATOM     67  C   UNL     1       9.535   2.120  -6.508  1.00  0.00     0.016 A 
ATOM     68  C   UNL     1      11.140   4.369  -6.113  1.00  0.00     0.028 A 
ATOM     69  C   UNL     1      10.914   1.973  -6.339  1.00  0.00     0.028 A 
ATOM     70  C   UNL     1      11.733   3.093  -6.120  1.00  0.00     0.054 A 
BRANCH  70  71
ATOM     71  N   UNL     1      13.147   2.951  -5.901  1.00  0.00    -0.226 N 
ATOM     72  C   UNL     1      13.726   3.675  -4.847  1.00  0.00     0.358 C 
ATOM     73  C   UNL     1      13.862   2.052  -6.690  1.00  0.00     0.272 C 
ATOM     74  O   UNL     1      13.039   4.268  -4.008  1.00  0.00    -0.245 OA
ATOM     75  N   UNL     1      15.081   3.703  -4.711  1.00  0.00    -0.156 NA
ATOM     76  C   UNL     1      15.324   1.961  -6.395  1.00  0.00     0.104 C 
ATOM     77  O   UNL     1      13.379   1.374  -7.597  1.00  0.00    -0.268 OA
ATOM     78  C   UNL     1      15.820   2.927  -5.413  1.00  0.00     0.228 C 
ATOM     79  C   UNL     1      15.983   0.996  -7.070  1.00  0.00     0.038 C 
BRANCH  78  80
ATOM     80  O   UNL     1      17.139   3.075  -5.235  1.00  0.00    -0.493 OA
ATOM     81  H   UNL     1      17.460   3.693  -4.608  1.00  0.00     0.295 HD
ENDBRANCH  78  80
BRANCH  79  82
ATOM     82  C   UNL     1      17.354   0.681  -6.911  1.00  0.00     0.028 A 
ATOM     83  C   UNL     1      17.985   0.015  -5.877  1.00  0.00     0.020 A 
ATOM     84  S   UNL     1      18.482   1.161  -8.115  1.00  0.00    -0.144 S 
ATOM     85  C   UNL     1      19.398  -0.052  -6.051  1.00  0.00     0.012 A 
ATOM     86  C   UNL     1      19.801   0.539  -7.226  1.00  0.00     0.065 A 
ENDBRANCH  79  82
ENDBRANCH  70  71
ENDBRANCH  62  65
ENDBRANCH  60  61
ENDBRANCH  59  60
ENDBRANCH  58  59
ENDBRANCH   1  58
TORSDOF 16
