REMARK SMILES O=C(NCCCCCCNC(=O)[C@@H]1[C@H](C(=O)NCc2ccccc2Cl)[C@@H]2C=C[C@H]1C2)c1ccc(-c2c3nc(c(-c4ccccc4)c4ccc([nH]4)c(-c4ccccc4)c4nc(c(-c5ccccc5)c5ccc2[nH]5)C=C4)C=C3)cc1
REMARK SMILES IDX 7 1 6 2 5 3 4 4 3 5 1 6 2 7 31 9 32 10 78 11 33 12 77 13
REMARK SMILES IDX 34 14 35 15 36 16 71 17 37 18 76 19 70 20 72 21 38 22 75 23
REMARK SMILES IDX 69 24 68 25 39 27 61 28 46 29 60 30 47 31 50 32 59 33 73 34
REMARK SMILES IDX 48 35 49 36 58 38 74 39 51 40 40 41 41 42 45 43 42 44 44 45
REMARK SMILES IDX 43 46 62 47 63 48 67 49 64 50 66 51 65 52 52 53 53 54 57 55
REMARK SMILES IDX 54 56 56 57 55 58 8 59 9 60 10 61 11 62 12 64 13 65 14 66
REMARK SMILES IDX 29 67 26 68 28 69 30 70 27 71 15 72 16 73 17 74 18 76 19 77
REMARK SMILES IDX 20 78 24 79 21 80 23 81 25 82 22 83
REMARK H PARENT 3 8 72 26 50 37 10 63 17 75
REMARK Flexibility Score: inf
ROOT
ATOM      1  C   UNL     1       5.127  -3.018  -2.968  1.00  0.00     0.002 C 
ENDROOT
BRANCH   1   2
ATOM      2  C   UNL     1       4.367  -3.526  -1.739  1.00  0.00     0.002 C 
BRANCH   2   3
ATOM      3  C   UNL     1       4.620  -2.755  -0.445  1.00  0.00     0.021 C 
BRANCH   3   4
ATOM      4  C   UNL     1       4.362  -1.256  -0.520  1.00  0.00     0.116 C 
BRANCH   4   5
ATOM      5  N   UNL     1       2.961  -0.915  -0.696  1.00  0.00    -0.352 N 
ATOM      6  O   UNL     1       1.028   0.171  -0.239  1.00  0.00    -0.269 OA
ATOM      7  C   UNL     1       2.232   0.070  -0.061  1.00  0.00     0.251 C 
ATOM      8  H   UNL     1       2.467  -1.457  -1.354  1.00  0.00     0.163 HD
BRANCH   7   9
ATOM      9  C   UNL     1       2.925   0.980   0.880  1.00  0.00     0.039 A 
ATOM     10  C   UNL     1       4.131   1.585   0.523  1.00  0.00     0.014 A 
ATOM     11  C   UNL     1       2.384   1.184   2.152  1.00  0.00     0.014 A 
ATOM     12  C   UNL     1       4.878   2.250   1.489  1.00  0.00     0.010 A 
ATOM     13  C   UNL     1       3.098   1.928   3.097  1.00  0.00     0.010 A 
ATOM     14  C   UNL     1       4.374   2.425   2.789  1.00  0.00    -0.014 A 
BRANCH  14  15
ATOM     15  C   UNL     1       5.199   3.143   3.795  1.00  0.00     0.031 A 
ATOM     16  C   UNL     1       5.727   2.440   5.017  1.00  0.00     0.074 A 
ATOM     17  C   UNL     1       5.520   4.433   3.572  1.00  0.00     0.049 A 
ATOM     18  N   UNL     1       6.518   2.903   5.954  1.00  0.00    -0.248 NA
ATOM     19  C   UNL     1       5.314   1.043   5.221  1.00  0.00     0.031 C 
ATOM     20  C   UNL     1       5.069   5.228   2.427  1.00  0.00     0.029 A 
ATOM     21  N   UNL     1       6.325   5.290   4.277  1.00  0.00    -0.354 N 
ATOM     22  C   UNL     1       6.672   1.869   6.870  1.00  0.00     0.074 A 
ATOM     23  C   UNL     1       5.880   0.758   6.386  1.00  0.00     0.031 C 
ATOM     24  C   UNL     1       5.654   6.434   2.474  1.00  0.00     0.029 A 
ATOM     25  C   UNL     1       6.472   6.517   3.677  1.00  0.00     0.049 A 
ATOM     26  H   UNL     1       6.755   5.050   5.129  1.00  0.00     0.167 HD
ATOM     27  C   UNL     1       7.408   1.844   8.008  1.00  0.00     0.031 A 
ATOM     28  C   UNL     1       7.186   7.594   4.052  1.00  0.00     0.031 A 
ATOM     29  C   UNL     1       8.209   2.941   8.485  1.00  0.00     0.049 A 
ATOM     30  C   UNL     1       7.988   7.539   5.318  1.00  0.00     0.074 A 
ATOM     31  C   UNL     1       9.017   2.995   9.608  1.00  0.00     0.029 A 
ATOM     32  N   UNL     1       8.302   4.178   7.867  1.00  0.00    -0.354 N 
ATOM     33  N   UNL     1       8.148   6.541   6.151  1.00  0.00    -0.248 NA
ATOM     34  C   UNL     1       8.712   8.762   5.691  1.00  0.00     0.031 C 
ATOM     35  C   UNL     1       9.566   4.279   9.692  1.00  0.00     0.029 A 
ATOM     36  C   UNL     1       9.138   5.009   8.595  1.00  0.00     0.049 A 
ATOM     37  H   UNL     1       7.841   4.430   7.034  1.00  0.00     0.167 HD
ATOM     38  C   UNL     1       9.004   7.008   7.138  1.00  0.00     0.074 A 
ATOM     39  C   UNL     1       9.345   8.372   6.788  1.00  0.00     0.031 C 
ATOM     40  C   UNL     1       9.466   6.364   8.237  1.00  0.00     0.031 A 
BRANCH  27  41
ATOM     41  C   UNL     1       7.360   0.592   8.839  1.00  0.00    -0.014 A 
ATOM     42  C   UNL     1       8.018  -0.581   8.436  1.00  0.00     0.009 A 
ATOM     43  C   UNL     1       6.682   0.601  10.069  1.00  0.00     0.009 A 
ATOM     44  C   UNL     1       7.973  -1.727   9.234  1.00  0.00     0.001 A 
ATOM     45  C   UNL     1       6.659  -0.539  10.875  1.00  0.00     0.001 A 
ATOM     46  C   UNL     1       7.297  -1.704  10.454  1.00  0.00     0.000 A 
ENDBRANCH  27  41
BRANCH  28  47
ATOM     47  C   UNL     1       7.176   8.815   3.207  1.00  0.00    -0.014 A 
ATOM     48  C   UNL     1       8.316   9.184   2.477  1.00  0.00     0.009 A 
ATOM     49  C   UNL     1       6.022   9.608   3.116  1.00  0.00     0.009 A 
ATOM     50  C   UNL     1       8.305  10.335   1.686  1.00  0.00     0.001 A 
ATOM     51  C   UNL     1       6.006  10.742   2.303  1.00  0.00     0.001 A 
ATOM     52  C   UNL     1       7.149  11.109   1.595  1.00  0.00     0.000 A 
ENDBRANCH  28  47
BRANCH  40  53
ATOM     53  C   UNL     1      10.416   7.122   9.119  1.00  0.00    -0.014 A 
ATOM     54  C   UNL     1       9.967   8.161   9.948  1.00  0.00     0.009 A 
ATOM     55  C   UNL     1      11.777   6.780   9.128  1.00  0.00     0.009 A 
ATOM     56  C   UNL     1      10.872   8.869  10.741  1.00  0.00     0.001 A 
ATOM     57  C   UNL     1      12.674   7.472   9.941  1.00  0.00     0.001 A 
ATOM     58  C   UNL     1      12.223   8.523  10.739  1.00  0.00     0.000 A 
ENDBRANCH  40  53
ENDBRANCH  14  15
ENDBRANCH   7   9
ENDBRANCH   4   5
ENDBRANCH   3   4
ENDBRANCH   2   3
ENDBRANCH   1   2
BRANCH   1  59
ATOM     59  C   UNL     1       6.655  -2.909  -2.825  1.00  0.00     0.021 C 
BRANCH  59  60
ATOM     60  C   UNL     1       7.381  -4.180  -2.357  1.00  0.00     0.116 C 
BRANCH  60  61
ATOM     61  N   UNL     1       7.056  -5.309  -3.201  1.00  0.00    -0.356 N 
ATOM     62  C   UNL     1       7.749  -5.637  -4.323  1.00  0.00     0.224 C 
ATOM     63  H   UNL     1       6.290  -5.873  -2.948  1.00  0.00     0.163 HD
ATOM     64  O   UNL     1       7.157  -5.566  -5.400  1.00  0.00    -0.275 OA
BRANCH  62  65
ATOM     65  C   UNL     1       9.219  -5.969  -4.247  1.00  0.00     0.098 C 
ATOM     66  C   UNL     1       9.678  -7.094  -5.239  1.00  0.00     0.098 C 
ATOM     67  C   UNL     1       9.889  -6.414  -2.919  1.00  0.00     0.025 C 
ATOM     68  C   UNL     1      10.619  -7.971  -4.369  1.00  0.00     0.025 C 
ATOM     69  C   UNL     1       9.407  -7.758  -2.431  1.00  0.00    -0.027 C 
ATOM     70  C   UNL     1      11.249  -6.892  -3.467  1.00  0.00     0.017 C 
ATOM     71  C   UNL     1       9.868  -8.688  -3.281  1.00  0.00    -0.027 C 
BRANCH  66  72
ATOM     72  C   UNL     1       8.690  -7.794  -6.195  1.00  0.00     0.224 C 
ATOM     73  O   UNL     1       8.959  -7.793  -7.406  1.00  0.00    -0.275 OA
ATOM     74  N   UNL     1       7.539  -8.431  -5.853  1.00  0.00    -0.352 N 
ATOM     75  H   UNL     1       6.915  -8.576  -6.601  1.00  0.00     0.163 HD
BRANCH  74  76
ATOM     76  C   UNL     1       7.073  -8.931  -4.583  1.00  0.00     0.153 C 
BRANCH  76  77
ATOM     77  C   UNL     1       5.581  -8.912  -4.334  1.00  0.00    -0.010 A 
ATOM     78  C   UNL     1       4.862  -7.721  -4.541  1.00  0.00     0.007 A 
ATOM     79  C   UNL     1       4.928  -9.956  -3.657  1.00  0.00     0.046 A 
ATOM     80  C   UNL     1       3.587  -7.536  -4.002  1.00  0.00     0.000 A 
ATOM     81  C   UNL     1       3.635  -9.782  -3.146  1.00  0.00     0.021 A 
ATOM     82  Cl  UNL     1       5.678 -11.489  -3.380  1.00  0.00    -0.084 Cl
ATOM     83  C   UNL     1       2.979  -8.562  -3.289  1.00  0.00     0.002 A 
ENDBRANCH  76  77
ENDBRANCH  74  76
ENDBRANCH  66  72
ENDBRANCH  62  65
ENDBRANCH  60  61
ENDBRANCH  59  60
ENDBRANCH   1  59
TORSDOF 16
