REMARK SMILES O=C(CCCN1C(=O)c2ccc3c4c(ccc(c24)C1=O)C(=O)NC3=O)NCCCCCCNC(=O)c1ccc(-c2c3nc(c(-c4ccccc4)c4ccc([nH]4)c(-c4ccccc4)c4nc(c(-c5ccccc5)c5ccc2[nH]5)C=C4)C=C3)cc1
REMARK SMILES IDX 29 1 28 2 27 3 26 4 1 5 2 6 3 8 4 9 5 10 6 11 19 12 7 13
REMARK SMILES IDX 20 14 17 15 9 16 8 17 16 18 18 19 10 20 15 21 13 22 11 23
REMARK SMILES IDX 14 24 12 25 21 26 24 27 23 28 22 29 25 30 30 32 31 33 32 34
REMARK SMILES IDX 33 35 34 36 35 38 36 39 37 40 83 41 38 42 82 43 39 44 40 45
REMARK SMILES IDX 41 46 76 47 42 48 81 49 75 50 77 51 43 52 80 53 74 54 73 55
REMARK SMILES IDX 44 57 66 58 51 59 65 60 52 61 55 62 64 63 78 64 53 65 54 66
REMARK SMILES IDX 63 68 79 69 56 70 45 71 46 72 50 73 47 74 49 75 48 76 67 77
REMARK SMILES IDX 68 78 72 79 69 80 71 81 70 82 57 83 58 84 62 85 59 86 61 87
REMARK SMILES IDX 60 88
REMARK H PARENT 26 7 23 31 33 37 77 56 55 67
REMARK Flexibility Score: inf
ROOT
ATOM      1  C   UNL     1       3.721  -3.901   0.074  1.00  0.00     0.002 C 
ENDROOT
BRANCH   1   2
ATOM      2  C   UNL     1       2.234  -3.536   0.071  1.00  0.00     0.021 C 
BRANCH   2   3
ATOM      3  C   UNL     1       1.877  -2.287   0.879  1.00  0.00     0.116 C 
BRANCH   3   4
ATOM      4  N   UNL     1       2.634  -1.127   0.450  1.00  0.00    -0.356 N 
ATOM      5  O   UNL     1       0.831   0.273   0.239  1.00  0.00    -0.275 OA
ATOM      6  C   UNL     1       2.038   0.071   0.145  1.00  0.00     0.220 C 
ATOM      7  H   UNL     1       3.612  -1.202   0.374  1.00  0.00     0.163 HD
BRANCH   6   8
ATOM      8  C   UNL     1       2.982   1.139  -0.367  1.00  0.00     0.102 C 
BRANCH   8   9
ATOM      9  C   UNL     1       3.818   1.812   0.720  1.00  0.00     0.032 C 
BRANCH   9  10
ATOM     10  C   UNL     1       5.097   1.074   1.142  1.00  0.00     0.130 C 
BRANCH  10  11
ATOM     11  N   UNL     1       5.951   0.651   0.026  1.00  0.00    -0.274 N 
ATOM     12  C   UNL     1       6.610   1.632  -0.710  1.00  0.00     0.261 C 
ATOM     13  C   UNL     1       6.144  -0.713  -0.160  1.00  0.00     0.261 C 
ATOM     14  O   UNL     1       6.541   2.832  -0.462  1.00  0.00    -0.269 OA
ATOM     15  C   UNL     1       7.437   1.175  -1.855  1.00  0.00     0.049 A 
ATOM     16  C   UNL     1       6.918  -1.150  -1.341  1.00  0.00     0.049 A 
ATOM     17  O   UNL     1       5.689  -1.559   0.601  1.00  0.00    -0.269 OA
ATOM     18  C   UNL     1       8.097   2.120  -2.648  1.00  0.00     0.015 A 
ATOM     19  C   UNL     1       7.540  -0.191  -2.144  1.00  0.00     0.009 A 
ATOM     20  C   UNL     1       7.018  -2.516  -1.646  1.00  0.00     0.015 A 
ATOM     21  C   UNL     1       8.863   1.707  -3.737  1.00  0.00     0.015 A 
ATOM     22  C   UNL     1       8.299  -0.616  -3.265  1.00  0.00     0.009 A 
ATOM     23  C   UNL     1       7.732  -2.934  -2.767  1.00  0.00     0.015 A 
ATOM     24  C   UNL     1       8.959   0.346  -4.044  1.00  0.00     0.048 A 
ATOM     25  C   UNL     1       8.374  -1.986  -3.567  1.00  0.00     0.048 A 
ATOM     26  C   UNL     1       9.777  -0.093  -5.198  1.00  0.00     0.258 C 
ATOM     27  C   UNL     1       9.152  -2.430  -4.748  1.00  0.00     0.258 C 
ATOM     28  N   UNL     1       9.797  -1.442  -5.453  1.00  0.00    -0.288 N 
ATOM     29  O   UNL     1      10.399   0.710  -5.883  1.00  0.00    -0.269 OA
ATOM     30  O   UNL     1       9.210  -3.607  -5.070  1.00  0.00    -0.269 OA
ATOM     31  H   UNL     1      10.334  -1.734  -6.226  1.00  0.00     0.173 HD
ENDBRANCH  10  11
ENDBRANCH   9  10
ENDBRANCH   8   9
ENDBRANCH   6   8
ENDBRANCH   3   4
ENDBRANCH   2   3
ENDBRANCH   1   2
BRANCH   1  32
ATOM     32  C   UNL     1       4.358  -4.040   1.462  1.00  0.00     0.002 C 
BRANCH  32  33
ATOM     33  C   UNL     1       3.801  -5.181   2.306  1.00  0.00     0.021 C 
BRANCH  33  34
ATOM     34  C   UNL     1       3.999  -6.558   1.691  1.00  0.00     0.116 C 
BRANCH  34  35
ATOM     35  N   UNL     1       5.403  -6.928   1.579  1.00  0.00    -0.352 N 
ATOM     36  C   UNL     1       5.984  -8.147   1.829  1.00  0.00     0.251 C 
ATOM     37  H   UNL     1       6.013  -6.213   1.286  1.00  0.00     0.163 HD
ATOM     38  O   UNL     1       7.203  -8.273   1.827  1.00  0.00    -0.269 OA
BRANCH  36  39
ATOM     39  C   UNL     1       5.116  -9.302   2.138  1.00  0.00     0.039 A 
ATOM     40  C   UNL     1       5.410 -10.093   3.249  1.00  0.00     0.014 A 
ATOM     41  C   UNL     1       3.989  -9.570   1.355  1.00  0.00     0.014 A 
ATOM     42  C   UNL     1       4.539 -11.121   3.611  1.00  0.00     0.010 A 
ATOM     43  C   UNL     1       3.080 -10.538   1.766  1.00  0.00     0.010 A 
ATOM     44  C   UNL     1       3.349 -11.330   2.893  1.00  0.00    -0.014 A 
BRANCH  44  45
ATOM     45  C   UNL     1       2.384 -12.386   3.289  1.00  0.00     0.031 A 
ATOM     46  C   UNL     1       2.093 -13.525   2.348  1.00  0.00     0.074 A 
ATOM     47  C   UNL     1       1.733 -12.296   4.465  1.00  0.00     0.049 A 
ATOM     48  N   UNL     1       1.237 -14.506   2.480  1.00  0.00    -0.248 NA
ATOM     49  C   UNL     1       2.847 -13.553   1.083  1.00  0.00     0.031 C 
ATOM     50  C   UNL     1       1.898 -11.225   5.450  1.00  0.00     0.029 A 
ATOM     51  N   UNL     1       0.792 -13.122   5.030  1.00  0.00    -0.354 N 
ATOM     52  C   UNL     1       1.344 -15.258   1.317  1.00  0.00     0.074 A 
ATOM     53  C   UNL     1       2.300 -14.588   0.464  1.00  0.00     0.031 C 
ATOM     54  C   UNL     1       1.106 -11.473   6.507  1.00  0.00     0.029 A 
ATOM     55  C   UNL     1       0.345 -12.692   6.257  1.00  0.00     0.049 A 
ATOM     56  H   UNL     1       0.468 -13.944   4.597  1.00  0.00     0.167 HD
ATOM     57  C   UNL     1       0.725 -16.418   0.997  1.00  0.00     0.031 A 
ATOM     58  C   UNL     1      -0.582 -13.216   7.081  1.00  0.00     0.031 A 
ATOM     59  C   UNL     1      -0.221 -17.090   1.846  1.00  0.00     0.049 A 
ATOM     60  C   UNL     1      -1.280 -14.489   6.683  1.00  0.00     0.074 A 
ATOM     61  C   UNL     1      -0.880 -18.287   1.623  1.00  0.00     0.029 A 
ATOM     62  N   UNL     1      -0.639 -16.625   3.083  1.00  0.00    -0.354 N 
ATOM     63  N   UNL     1      -1.123 -15.217   5.604  1.00  0.00    -0.248 NA
ATOM     64  C   UNL     1      -2.275 -15.020   7.627  1.00  0.00     0.031 C 
ATOM     65  C   UNL     1      -1.735 -18.521   2.704  1.00  0.00     0.029 A 
ATOM     66  C   UNL     1      -1.559 -17.504   3.628  1.00  0.00     0.049 A 
ATOM     67  H   UNL     1      -0.329 -15.794   3.510  1.00  0.00     0.167 HD
ATOM     68  C   UNL     1      -1.969 -16.309   5.758  1.00  0.00     0.074 A 
ATOM     69  C   UNL     1      -2.621 -16.157   7.042  1.00  0.00     0.031 C 
ATOM     70  C   UNL     1      -2.187 -17.346   4.913  1.00  0.00     0.031 A 
BRANCH  57  71
ATOM     71  C   UNL     1       1.060 -17.043  -0.329  1.00  0.00    -0.014 A 
ATOM     72  C   UNL     1       2.320 -17.619  -0.558  1.00  0.00     0.009 A 
ATOM     73  C   UNL     1       0.088 -17.111  -1.339  1.00  0.00     0.009 A 
ATOM     74  C   UNL     1       2.610 -18.224  -1.783  1.00  0.00     0.001 A 
ATOM     75  C   UNL     1       0.370 -17.744  -2.551  1.00  0.00     0.001 A 
ATOM     76  C   UNL     1       1.632 -18.293  -2.774  1.00  0.00     0.000 A 
ENDBRANCH  57  71
BRANCH  58  77
ATOM     77  C   UNL     1      -0.917 -12.545   8.367  1.00  0.00    -0.014 A 
ATOM     78  C   UNL     1      -0.620 -13.158   9.595  1.00  0.00     0.009 A 
ATOM     79  C   UNL     1      -1.582 -11.309   8.373  1.00  0.00     0.009 A 
ATOM     80  C   UNL     1      -1.023 -12.572  10.797  1.00  0.00     0.001 A 
ATOM     81  C   UNL     1      -1.952 -10.707   9.578  1.00  0.00     0.001 A 
ATOM     82  C   UNL     1      -1.687 -11.346  10.787  1.00  0.00     0.000 A 
ENDBRANCH  58  77
BRANCH  70  83
ATOM     83  C   UNL     1      -3.125 -18.427   5.373  1.00  0.00    -0.014 A 
ATOM     84  C   UNL     1      -4.507 -18.208   5.472  1.00  0.00     0.009 A 
ATOM     85  C   UNL     1      -2.615 -19.701   5.673  1.00  0.00     0.009 A 
ATOM     86  C   UNL     1      -5.355 -19.233   5.899  1.00  0.00     0.001 A 
ATOM     87  C   UNL     1      -3.468 -20.732   6.066  1.00  0.00     0.001 A 
ATOM     88  C   UNL     1      -4.835 -20.494   6.189  1.00  0.00     0.000 A 
ENDBRANCH  70  83
ENDBRANCH  44  45
ENDBRANCH  36  39
ENDBRANCH  34  35
ENDBRANCH  33  34
ENDBRANCH  32  33
ENDBRANCH   1  32
TORSDOF 16
