REMARK SMILES CCn1c(N2CCC(C(=O)NCCCCCCNC(=O)c3ccc(-c4c5nc(c(-c6ccccc6)c6ccc([nH]6)c(-c6ccccc6)c6nc(c(-c7ccccc7)c7ccc4[nH]7)C=C6)C=C5)cc3)CC2)nc2cc(C)ccc21
REMARK SMILES IDX 14 1 13 2 12 3 11 4 9 5 10 6 8 8 5 9 6 10 70 11 7 12 69 13
REMARK SMILES IDX 4 14 3 15 78 16 71 17 72 18 77 19 73 20 76 21 74 22 75 23
REMARK SMILES IDX 2 24 1 25 15 26 16 27 17 28 18 29 19 30 20 32 21 33 22 34
REMARK SMILES IDX 68 35 23 36 67 37 24 38 25 39 26 40 61 41 27 42 66 43 60 44
REMARK SMILES IDX 62 45 28 46 65 47 59 48 58 49 29 51 51 52 36 53 50 54 37 55
REMARK SMILES IDX 40 56 49 57 63 58 38 59 39 60 48 62 64 63 41 64 30 65 31 66
REMARK SMILES IDX 35 67 32 68 34 69 33 70 52 71 53 72 57 73 54 74 56 75 55 76
REMARK SMILES IDX 42 77 43 78 47 79 44 80 46 81 45 82
REMARK H PARENT 11 7 18 31 62 50 40 61
REMARK Flexibility Score: inf
ROOT
ATOM      1  C   UNL     1       3.455   0.940   8.653  1.00  0.00     0.002 C 
ENDROOT
BRANCH   1   2
ATOM      2  C   UNL     1       3.422   0.423   7.214  1.00  0.00     0.021 C 
BRANCH   2   3
ATOM      3  C   UNL     1       2.220   0.923   6.424  1.00  0.00     0.116 C 
BRANCH   3   4
ATOM      4  N   UNL     1       2.371   2.330   6.099  1.00  0.00    -0.356 N 
ATOM      5  C   UNL     1       2.476   2.946   4.891  1.00  0.00     0.223 C 
ATOM      6  O   UNL     1       2.682   4.161   4.871  1.00  0.00    -0.275 OA
ATOM      7  H   UNL     1       2.403   2.934   6.875  1.00  0.00     0.163 HD
BRANCH   5   8
ATOM      8  C   UNL     1       2.306   2.168   3.598  1.00  0.00     0.082 C 
ATOM      9  N   UNL     1       1.769  -0.281   2.230  1.00  0.00    -0.342 N 
ATOM     10  C   UNL     1       3.156   0.160   2.249  1.00  0.00     0.120 C 
ATOM     11  C   UNL     1       0.720   0.719   2.291  1.00  0.00     0.120 C 
ATOM     12  C   UNL     1       3.434   1.152   3.372  1.00  0.00     0.035 C 
ATOM     13  C   UNL     1       0.885   1.598   3.512  1.00  0.00     0.035 C 
BRANCH   9  14
ATOM     14  C   UNL     1       1.492  -1.599   2.074  1.00  0.00     0.206 A 
ATOM     15  N   UNL     1       0.922  -2.140   0.938  1.00  0.00    -0.310 N 
ATOM     16  C   UNL     1       0.778  -3.505   1.151  1.00  0.00     0.070 A 
ATOM     17  N   UNL     1       1.772  -2.547   2.949  1.00  0.00    -0.213 NA
ATOM     18  C   UNL     1       1.308  -3.724   2.412  1.00  0.00     0.091 A 
ATOM     19  C   UNL     1       0.250  -4.532   0.357  1.00  0.00     0.029 A 
ATOM     20  C   UNL     1       1.301  -5.033   2.934  1.00  0.00     0.034 A 
ATOM     21  C   UNL     1       0.254  -5.824   0.887  1.00  0.00     0.006 A 
ATOM     22  C   UNL     1       0.764  -6.087   2.164  1.00  0.00    -0.049 A 
ATOM     23  C   UNL     1       0.723  -7.484   2.712  1.00  0.00     0.044 C 
BRANCH  15  24
ATOM     24  C   UNL     1       0.538  -1.564  -0.336  1.00  0.00     0.122 C 
ATOM     25  C   UNL     1       0.973  -0.174  -0.753  1.00  0.00     0.028 C 
ENDBRANCH  15  24
ENDBRANCH   9  14
ENDBRANCH   5   8
ENDBRANCH   3   4
ENDBRANCH   2   3
ENDBRANCH   1   2
BRANCH   1  26
ATOM     26  C   UNL     1       2.242   0.541   9.500  1.00  0.00     0.002 C 
BRANCH  26  27
ATOM     27  C   UNL     1       1.940  -0.963   9.526  1.00  0.00     0.021 C 
BRANCH  27  28
ATOM     28  C   UNL     1       3.139  -1.831   9.908  1.00  0.00     0.116 C 
BRANCH  28  29
ATOM     29  N   UNL     1       3.716  -1.476  11.187  1.00  0.00    -0.352 N 
ATOM     30  C   UNL     1       3.438  -1.787  12.484  1.00  0.00     0.251 C 
ATOM     31  H   UNL     1       4.486  -0.869  11.100  1.00  0.00     0.163 HD
ATOM     32  O   UNL     1       4.211  -1.327  13.333  1.00  0.00    -0.269 OA
BRANCH  30  33
ATOM     33  C   UNL     1       2.259  -2.567  12.944  1.00  0.00     0.039 A 
ATOM     34  C   UNL     1       1.329  -3.203  12.121  1.00  0.00     0.014 A 
ATOM     35  C   UNL     1       2.058  -2.601  14.336  1.00  0.00     0.014 A 
ATOM     36  C   UNL     1       0.172  -3.750  12.660  1.00  0.00     0.010 A 
ATOM     37  C   UNL     1       0.918  -3.171  14.884  1.00  0.00     0.010 A 
ATOM     38  C   UNL     1      -0.052  -3.693  14.037  1.00  0.00    -0.014 A 
BRANCH  38  39
ATOM     39  C   UNL     1      -1.281  -4.289  14.550  1.00  0.00     0.031 A 
ATOM     40  C   UNL     1      -1.439  -5.740  14.253  1.00  0.00     0.074 A 
ATOM     41  C   UNL     1      -2.162  -3.619  15.318  1.00  0.00     0.049 A 
ATOM     42  N   UNL     1      -2.389  -6.327  13.599  1.00  0.00    -0.248 NA
ATOM     43  C   UNL     1      -0.337  -6.634  14.645  1.00  0.00     0.031 C 
ATOM     44  C   UNL     1      -2.013  -2.288  15.912  1.00  0.00     0.029 A 
ATOM     45  N   UNL     1      -3.353  -4.048  15.823  1.00  0.00    -0.354 N 
ATOM     46  C   UNL     1      -2.094  -7.688  13.635  1.00  0.00     0.074 A 
ATOM     47  C   UNL     1      -0.763  -7.805  14.172  1.00  0.00     0.031 C 
ATOM     48  C   UNL     1      -2.945  -2.121  16.878  1.00  0.00     0.029 A 
ATOM     49  C   UNL     1      -3.846  -3.259  16.855  1.00  0.00     0.049 A 
ATOM     50  H   UNL     1      -3.823  -4.845  15.486  1.00  0.00     0.167 HD
ATOM     51  C   UNL     1      -3.044  -8.639  13.421  1.00  0.00     0.031 A 
ATOM     52  C   UNL     1      -4.888  -3.551  17.671  1.00  0.00     0.031 A 
ATOM     53  C   UNL     1      -4.176  -8.115  12.707  1.00  0.00     0.049 A 
ATOM     54  C   UNL     1      -5.713  -4.574  16.995  1.00  0.00     0.074 A 
ATOM     55  C   UNL     1      -4.373  -7.580  11.451  1.00  0.00     0.029 A 
ATOM     56  N   UNL     1      -5.281  -7.769  13.445  1.00  0.00    -0.354 N 
ATOM     57  N   UNL     1      -6.385  -4.356  15.902  1.00  0.00    -0.248 NA
ATOM     58  C   UNL     1      -5.474  -5.971  17.317  1.00  0.00     0.031 C 
ATOM     59  C   UNL     1      -5.348  -6.557  11.636  1.00  0.00     0.029 A 
ATOM     60  C   UNL     1      -5.734  -6.564  12.979  1.00  0.00     0.049 A 
ATOM     61  H   UNL     1      -5.676  -8.294  14.178  1.00  0.00     0.167 HD
ATOM     62  C   UNL     1      -6.277  -5.536  15.183  1.00  0.00     0.074 A 
ATOM     63  C   UNL     1      -5.811  -6.526  16.151  1.00  0.00     0.031 C 
ATOM     64  C   UNL     1      -6.309  -5.533  13.818  1.00  0.00     0.031 A 
BRANCH  51  65
ATOM     65  C   UNL     1      -3.111  -9.923  14.217  1.00  0.00    -0.014 A 
ATOM     66  C   UNL     1      -2.346 -10.154  15.377  1.00  0.00     0.009 A 
ATOM     67  C   UNL     1      -4.165 -10.823  13.974  1.00  0.00     0.009 A 
ATOM     68  C   UNL     1      -2.627 -11.199  16.261  1.00  0.00     0.001 A 
ATOM     69  C   UNL     1      -4.476 -11.847  14.879  1.00  0.00     0.001 A 
ATOM     70  C   UNL     1      -3.710 -12.030  16.026  1.00  0.00     0.000 A 
ENDBRANCH  51  65
BRANCH  52  71
ATOM     71  C   UNL     1      -4.996  -3.300  19.125  1.00  0.00    -0.014 A 
ATOM     72  C   UNL     1      -3.837  -3.301  19.922  1.00  0.00     0.009 A 
ATOM     73  C   UNL     1      -6.239  -3.368  19.775  1.00  0.00     0.009 A 
ATOM     74  C   UNL     1      -3.913  -3.410  21.314  1.00  0.00     0.001 A 
ATOM     75  C   UNL     1      -6.314  -3.477  21.170  1.00  0.00     0.001 A 
ATOM     76  C   UNL     1      -5.152  -3.515  21.937  1.00  0.00     0.000 A 
ENDBRANCH  52  71
BRANCH  64  77
ATOM     77  C   UNL     1      -6.713  -4.257  13.114  1.00  0.00    -0.014 A 
ATOM     78  C   UNL     1      -7.742  -4.323  12.162  1.00  0.00     0.009 A 
ATOM     79  C   UNL     1      -5.984  -3.059  13.221  1.00  0.00     0.009 A 
ATOM     80  C   UNL     1      -8.020  -3.238  11.326  1.00  0.00     0.001 A 
ATOM     81  C   UNL     1      -6.279  -1.963  12.402  1.00  0.00     0.001 A 
ATOM     82  C   UNL     1      -7.288  -2.059  11.445  1.00  0.00     0.000 A 
ENDBRANCH  64  77
ENDBRANCH  38  39
ENDBRANCH  30  33
ENDBRANCH  28  29
ENDBRANCH  27  28
ENDBRANCH  26  27
ENDBRANCH   1  26
TORSDOF 15
