REMARK SMILES COC(=O)[C@H]1Sc2nnc(CCC(=O)NCCCCCCNC(=O)c3ccc(-c4c5nc(c(-c6ccccc6)c6ccc([nH]6)c(-c6ccccc6)c6nc(c(-c7ccccc7)c7ccc4[nH]7)C=C6)C=C5)cc3)c(=O)n2N=C1C
REMARK SMILES IDX 17 1 16 2 15 3 13 4 14 5 12 7 11 8 10 9 5 10 6 11 77 12 7 13
REMARK SMILES IDX 76 14 78 15 8 16 75 17 9 18 73 19 74 20 3 21 4 22 2 23 1 24
REMARK SMILES IDX 18 25 19 26 20 27 21 28 22 29 23 30 24 32 25 33 26 34 72 35
REMARK SMILES IDX 27 36 71 37 28 38 29 39 30 40 65 41 31 42 70 43 64 44 66 45
REMARK SMILES IDX 32 46 69 47 63 48 62 49 33 51 55 52 40 53 54 54 41 55 44 56
REMARK SMILES IDX 53 57 67 58 42 59 43 60 52 62 68 63 45 64 34 65 35 66 39 67
REMARK SMILES IDX 36 68 38 69 37 70 56 71 57 72 61 73 58 74 60 75 59 76 46 77
REMARK SMILES IDX 47 78 51 79 48 80 50 81 49 82
REMARK H PARENT 15 6 22 31 66 50 44 61
REMARK Flexibility Score: inf
ROOT
ATOM      1  C   UNL     1      -2.409   4.185  -3.777  1.00  0.00     0.021 C 
ENDROOT
BRANCH   1   2
ATOM      2  C   UNL     1      -2.824   5.180  -4.866  1.00  0.00     0.116 C 
BRANCH   2   3
ATOM      3  N   UNL     1      -4.000   5.948  -4.472  1.00  0.00    -0.356 N 
ATOM      4  C   UNL     1      -4.170   7.264  -4.160  1.00  0.00     0.220 C 
ATOM      5  O   UNL     1      -5.290   7.632  -3.795  1.00  0.00    -0.275 OA
ATOM      6  H   UNL     1      -4.827   5.416  -4.423  1.00  0.00     0.163 HD
BRANCH   4   7
ATOM      7  C   UNL     1      -3.037   8.268  -4.269  1.00  0.00     0.106 C 
BRANCH   7   8
ATOM      8  C   UNL     1      -2.544   8.744  -2.903  1.00  0.00     0.074 C 
BRANCH   8   9
ATOM      9  C   UNL     1      -1.292   8.003  -2.504  1.00  0.00     0.131 A 
ATOM     10  C   UNL     1       1.533   3.859  -1.925  1.00  0.00     0.210 C 
ATOM     11  S   UNL     1       2.244   5.499  -1.606  1.00  0.00    -0.063 SA
ATOM     12  C   UNL     1       0.206   3.775  -1.199  1.00  0.00     0.061 C 
ATOM     13  C   UNL     1       0.826   6.442  -2.021  1.00  0.00     0.214 A 
ATOM     14  N   UNL     1      -0.633   4.747  -1.039  1.00  0.00    -0.171 NA
ATOM     15  C   UNL     1      -0.270   2.464  -0.615  1.00  0.00     0.065 C 
ATOM     16  N   UNL     1       0.987   7.556  -2.659  1.00  0.00    -0.123 NA
ATOM     17  N   UNL     1      -0.386   5.980  -1.576  1.00  0.00    -0.169 N 
ATOM     18  N   UNL     1      -0.143   8.312  -3.020  1.00  0.00    -0.147 NA
ATOM     19  C   UNL     1      -1.461   6.845  -1.565  1.00  0.00     0.296 A 
ATOM     20  O   UNL     1      -2.485   6.744  -0.918  1.00  0.00    -0.265 OA
BRANCH  10  21
ATOM     21  C   UNL     1       1.518   3.656  -3.433  1.00  0.00     0.325 C 
ATOM     22  O   UNL     1       0.814   4.271  -4.220  1.00  0.00    -0.250 OA
BRANCH  21  23
ATOM     23  O   UNL     1       2.436   2.720  -3.806  1.00  0.00    -0.468 OA
ATOM     24  C   UNL     1       2.581   2.472  -5.215  1.00  0.00     0.282 C 
ENDBRANCH  21  23
ENDBRANCH  10  21
ENDBRANCH   8   9
ENDBRANCH   7   8
ENDBRANCH   4   7
ENDBRANCH   2   3
ENDBRANCH   1   2
BRANCH   1  25
ATOM     25  C   UNL     1      -3.100   2.821  -3.694  1.00  0.00     0.002 C 
BRANCH  25  26
ATOM     26  C   UNL     1      -2.723   1.710  -4.692  1.00  0.00     0.002 C 
BRANCH  26  27
ATOM     27  C   UNL     1      -1.256   1.400  -5.044  1.00  0.00     0.021 C 
BRANCH  27  28
ATOM     28  C   UNL     1      -0.262   0.892  -3.989  1.00  0.00     0.116 C 
BRANCH  28  29
ATOM     29  N   UNL     1      -0.435  -0.440  -3.450  1.00  0.00    -0.352 N 
ATOM     30  C   UNL     1       0.543  -1.301  -2.969  1.00  0.00     0.251 C 
ATOM     31  H   UNL     1      -1.359  -0.777  -3.422  1.00  0.00     0.163 HD
ATOM     32  O   UNL     1       0.230  -2.418  -2.566  1.00  0.00    -0.269 OA
BRANCH  30  33
ATOM     33  C   UNL     1       1.986  -0.917  -2.936  1.00  0.00     0.039 A 
ATOM     34  C   UNL     1       2.917  -1.644  -3.682  1.00  0.00     0.014 A 
ATOM     35  C   UNL     1       2.460   0.071  -2.073  1.00  0.00     0.014 A 
ATOM     36  C   UNL     1       4.290  -1.329  -3.615  1.00  0.00     0.010 A 
ATOM     37  C   UNL     1       3.827   0.417  -2.037  1.00  0.00     0.010 A 
ATOM     38  C   UNL     1       4.768  -0.273  -2.814  1.00  0.00    -0.014 A 
BRANCH  38  39
ATOM     39  C   UNL     1       6.224   0.101  -2.822  1.00  0.00     0.031 A 
ATOM     40  C   UNL     1       7.103  -0.050  -1.599  1.00  0.00     0.074 A 
ATOM     41  C   UNL     1       6.795   0.585  -3.947  1.00  0.00     0.049 A 
ATOM     42  N   UNL     1       8.402   0.119  -1.494  1.00  0.00    -0.248 NA
ATOM     43  C   UNL     1       6.450  -0.429  -0.339  1.00  0.00     0.031 C 
ATOM     44  C   UNL     1       6.098   0.836  -5.207  1.00  0.00     0.029 A 
ATOM     45  N   UNL     1       8.099   0.937  -4.219  1.00  0.00    -0.354 N 
ATOM     46  C   UNL     1       8.722  -0.155  -0.169  1.00  0.00     0.074 A 
ATOM     47  C   UNL     1       7.473  -0.439   0.507  1.00  0.00     0.031 C 
ATOM     48  C   UNL     1       6.980   1.262  -6.125  1.00  0.00     0.029 A 
ATOM     49  C   UNL     1       8.309   1.328  -5.522  1.00  0.00     0.049 A 
ATOM     50  H   UNL     1       8.815   0.911  -3.544  1.00  0.00     0.167 HD
ATOM     51  C   UNL     1       9.938  -0.203   0.432  1.00  0.00     0.031 A 
ATOM     52  C   UNL     1       9.434   1.679  -6.178  1.00  0.00     0.031 A 
ATOM     53  C   UNL     1      11.198   0.075  -0.208  1.00  0.00     0.049 A 
ATOM     54  C   UNL     1      10.767   1.659  -5.479  1.00  0.00     0.074 A 
ATOM     55  C   UNL     1      12.473  -0.013   0.331  1.00  0.00     0.029 A 
ATOM     56  N   UNL     1      11.351   0.502  -1.515  1.00  0.00    -0.354 N 
ATOM     57  N   UNL     1      11.050   1.295  -4.255  1.00  0.00    -0.248 NA
ATOM     58  C   UNL     1      11.938   2.082  -6.266  1.00  0.00     0.031 C 
ATOM     59  C   UNL     1      13.393   0.408  -0.633  1.00  0.00     0.029 A 
ATOM     60  C   UNL     1      12.694   0.710  -1.789  1.00  0.00     0.049 A 
ATOM     61  H   UNL     1      10.615   0.639  -2.155  1.00  0.00     0.167 HD
ATOM     62  C   UNL     1      12.430   1.417  -4.134  1.00  0.00     0.074 A 
ATOM     63  C   UNL     1      12.930   1.876  -5.411  1.00  0.00     0.031 C 
ATOM     64  C   UNL     1      13.207   1.166  -3.053  1.00  0.00     0.031 A 
BRANCH  51  65
ATOM     65  C   UNL     1       9.985  -0.608   1.880  1.00  0.00    -0.014 A 
ATOM     66  C   UNL     1       9.790  -1.947   2.251  1.00  0.00     0.009 A 
ATOM     67  C   UNL     1      10.333   0.329   2.866  1.00  0.00     0.009 A 
ATOM     68  C   UNL     1       9.921  -2.337   3.585  1.00  0.00     0.001 A 
ATOM     69  C   UNL     1      10.486  -0.069   4.196  1.00  0.00     0.001 A 
ATOM     70  C   UNL     1      10.275  -1.400   4.555  1.00  0.00     0.000 A 
ENDBRANCH  51  65
BRANCH  52  71
ATOM     71  C   UNL     1       9.368   2.046  -7.618  1.00  0.00    -0.014 A 
ATOM     72  C   UNL     1       9.882   1.179  -8.595  1.00  0.00     0.009 A 
ATOM     73  C   UNL     1       8.820   3.274  -8.018  1.00  0.00     0.009 A 
ATOM     74  C   UNL     1       9.870   1.544  -9.942  1.00  0.00     0.001 A 
ATOM     75  C   UNL     1       8.786   3.625  -9.370  1.00  0.00     0.001 A 
ATOM     76  C   UNL     1       9.319   2.764 -10.329  1.00  0.00     0.000 A 
ENDBRANCH  52  71
BRANCH  64  77
ATOM     77  C   UNL     1      14.692   1.359  -3.190  1.00  0.00    -0.014 A 
ATOM     78  C   UNL     1      15.255   2.643  -3.243  1.00  0.00     0.009 A 
ATOM     79  C   UNL     1      15.545   0.243  -3.195  1.00  0.00     0.009 A 
ATOM     80  C   UNL     1      16.642   2.805  -3.317  1.00  0.00     0.001 A 
ATOM     81  C   UNL     1      16.931   0.409  -3.244  1.00  0.00     0.001 A 
ATOM     82  C   UNL     1      17.478   1.689  -3.311  1.00  0.00     0.000 A 
ENDBRANCH  64  77
ENDBRANCH  38  39
ENDBRANCH  30  33
ENDBRANCH  28  29
ENDBRANCH  27  28
ENDBRANCH  26  27
ENDBRANCH  25  26
ENDBRANCH   1  25
TORSDOF 17
