REMARK SMILES C[C@@H](C(=O)NCCCCCCNC(=O)c1ccc(-c2c3nc(c(-c4ccccc4)c4ccc([nH]4)c(-c4ccccc4)c4nc(c(-c5ccccc5)c5ccc2[nH]5)C=C4)C=C3)cc1)c1ccc(C[C@H]2CCCC2=O)c(-c2ccc(F)cc2)c1
REMARK SMILES IDX 8 1 7 2 6 3 5 4 3 5 4 6 2 8 1 9 63 10 64 11 82 12 65 13
REMARK SMILES IDX 74 14 66 15 75 16 76 17 81 18 77 19 80 20 78 21 79 22 67 23
REMARK SMILES IDX 68 24 69 25 72 26 70 27 71 28 73 29 9 30 10 31 11 32 12 33
REMARK SMILES IDX 13 34 14 36 15 37 16 38 62 39 17 40 61 41 18 42 19 43 20 44
REMARK SMILES IDX 55 45 21 46 60 47 54 48 56 49 22 50 59 51 53 52 52 53 23 55
REMARK SMILES IDX 45 56 30 57 44 58 31 59 34 60 43 61 57 62 32 63 33 64 42 66
REMARK SMILES IDX 58 67 35 68 24 69 25 70 29 71 26 72 28 73 27 74 46 75 47 76
REMARK SMILES IDX 51 77 48 78 50 79 49 80 36 81 37 82 41 83 38 84 40 85 39 86
REMARK H PARENT 5 7 12 35 56 54 34 65
REMARK Flexibility Score: inf
ROOT
ATOM      1  C   UNL     1       5.020  -2.477  -1.336  1.00  0.00     0.002 C 
ENDROOT
BRANCH   1   2
ATOM      2  C   UNL     1       4.316  -1.250  -0.741  1.00  0.00     0.021 C 
BRANCH   2   3
ATOM      3  C   UNL     1       3.523  -0.421  -1.755  1.00  0.00     0.116 C 
BRANCH   3   4
ATOM      4  N   UNL     1       2.482  -1.218  -2.366  1.00  0.00    -0.356 N 
ATOM      5  C   UNL     1       1.134  -1.226  -2.170  1.00  0.00     0.227 C 
ATOM      6  O   UNL     1       0.509  -2.095  -2.779  1.00  0.00    -0.274 OA
ATOM      7  H   UNL     1       2.801  -1.863  -3.037  1.00  0.00     0.163 HD
BRANCH   5   8
ATOM      8  C   UNL     1       0.474  -0.163  -1.272  1.00  0.00     0.105 C 
ATOM      9  C   UNL     1       0.834  -0.315   0.210  1.00  0.00     0.023 C 
BRANCH   8  10
ATOM     10  C   UNL     1      -1.048  -0.139  -1.374  1.00  0.00    -0.035 A 
ATOM     11  C   UNL     1      -1.723   1.060  -1.598  1.00  0.00     0.005 A 
ATOM     12  C   UNL     1      -1.808  -1.302  -1.165  1.00  0.00     0.013 A 
ATOM     13  C   UNL     1      -3.117   1.094  -1.572  1.00  0.00     0.004 A 
ATOM     14  C   UNL     1      -3.217  -1.300  -1.145  1.00  0.00    -0.015 A 
ATOM     15  C   UNL     1      -3.880  -0.063  -1.306  1.00  0.00    -0.039 A 
BRANCH  14  16
ATOM     16  C   UNL     1      -3.902  -2.596  -0.963  1.00  0.00    -0.018 A 
ATOM     17  C   UNL     1      -4.777  -3.100  -1.942  1.00  0.00     0.012 A 
ATOM     18  C   UNL     1      -3.644  -3.395   0.168  1.00  0.00     0.012 A 
ATOM     19  C   UNL     1      -5.407  -4.336  -1.777  1.00  0.00     0.040 A 
ATOM     20  C   UNL     1      -4.261  -4.638   0.327  1.00  0.00     0.040 A 
ATOM     21  C   UNL     1      -5.143  -5.093  -0.643  1.00  0.00     0.123 A 
ATOM     22  F   UNL     1      -5.743  -6.280  -0.486  1.00  0.00    -0.207 F 
ENDBRANCH  14  16
BRANCH  15  23
ATOM     23  C   UNL     1      -5.380   0.108  -1.153  1.00  0.00     0.047 C 
BRANCH  23  24
ATOM     24  C   UNL     1      -5.871   0.673   0.188  1.00  0.00     0.060 C 
ATOM     25  C   UNL     1      -5.403  -0.045   1.458  1.00  0.00     0.012 C 
ATOM     26  C   UNL     1      -5.396   2.087   0.436  1.00  0.00     0.136 C 
ATOM     27  C   UNL     1      -4.212   0.750   1.981  1.00  0.00     0.009 C 
ATOM     28  C   UNL     1      -4.532   2.203   1.663  1.00  0.00     0.076 C 
ATOM     29  O   UNL     1      -5.699   3.042  -0.270  1.00  0.00    -0.299 OA
ENDBRANCH  23  24
ENDBRANCH  15  23
ENDBRANCH   8  10
ENDBRANCH   5   8
ENDBRANCH   3   4
ENDBRANCH   2   3
ENDBRANCH   1   2
BRANCH   1  30
ATOM     30  C   UNL     1       5.946  -2.190  -2.522  1.00  0.00     0.002 C 
BRANCH  30  31
ATOM     31  C   UNL     1       7.010  -1.121  -2.268  1.00  0.00     0.021 C 
BRANCH  31  32
ATOM     32  C   UNL     1       7.946  -1.422  -1.105  1.00  0.00     0.116 C 
BRANCH  32  33
ATOM     33  N   UNL     1       8.773  -2.591  -1.353  1.00  0.00    -0.352 N 
ATOM     34  C   UNL     1      10.126  -2.736  -1.192  1.00  0.00     0.251 C 
ATOM     35  H   UNL     1       8.296  -3.387  -1.681  1.00  0.00     0.163 HD
ATOM     36  O   UNL     1      10.696  -3.739  -1.619  1.00  0.00    -0.269 OA
BRANCH  34  37
ATOM     37  C   UNL     1      10.908  -1.678  -0.518  1.00  0.00     0.039 A 
ATOM     38  C   UNL     1      12.139  -1.299  -1.059  1.00  0.00     0.014 A 
ATOM     39  C   UNL     1      10.444  -1.082   0.659  1.00  0.00     0.014 A 
ATOM     40  C   UNL     1      12.891  -0.301  -0.437  1.00  0.00     0.010 A 
ATOM     41  C   UNL     1      11.159  -0.037   1.236  1.00  0.00     0.010 A 
ATOM     42  C   UNL     1      12.401   0.346   0.708  1.00  0.00    -0.014 A 
BRANCH  42  43
ATOM     43  C   UNL     1      13.200   1.386   1.402  1.00  0.00     0.031 A 
ATOM     44  C   UNL     1      13.714   1.129   2.793  1.00  0.00     0.074 A 
ATOM     45  C   UNL     1      13.426   2.572   0.807  1.00  0.00     0.049 A 
ATOM     46  N   UNL     1      14.402   1.919   3.580  1.00  0.00    -0.248 NA
ATOM     47  C   UNL     1      13.389  -0.176   3.390  1.00  0.00     0.031 C 
ATOM     48  C   UNL     1      12.955   2.959  -0.524  1.00  0.00     0.029 A 
ATOM     49  N   UNL     1      14.115   3.673   1.250  1.00  0.00    -0.354 N 
ATOM     50  C   UNL     1      14.563   1.218   4.769  1.00  0.00     0.074 A 
ATOM     51  C   UNL     1      13.863  -0.039   4.619  1.00  0.00     0.031 C 
ATOM     52  C   UNL     1      13.399   4.195  -0.804  1.00  0.00     0.029 A 
ATOM     53  C   UNL     1      14.156   4.699   0.338  1.00  0.00     0.049 A 
ATOM     54  H   UNL     1      14.539   3.723   2.137  1.00  0.00     0.167 HD
ATOM     55  C   UNL     1      15.250   1.576   5.880  1.00  0.00     0.031 A 
ATOM     56  C   UNL     1      14.744   5.908   0.412  1.00  0.00     0.031 A 
ATOM     57  C   UNL     1      15.970   2.812   6.020  1.00  0.00     0.049 A 
ATOM     58  C   UNL     1      15.511   6.278   1.651  1.00  0.00     0.074 A 
ATOM     59  C   UNL     1      16.753   3.240   7.078  1.00  0.00     0.029 A 
ATOM     60  N   UNL     1      15.998   3.818   5.067  1.00  0.00    -0.354 N 
ATOM     61  N   UNL     1      15.713   5.577   2.740  1.00  0.00    -0.248 NA
ATOM     62  C   UNL     1      16.148   7.603   1.660  1.00  0.00     0.031 C 
ATOM     63  C   UNL     1      17.219   4.526   6.783  1.00  0.00     0.029 A 
ATOM     64  C   UNL     1      16.769   4.874   5.519  1.00  0.00     0.049 A 
ATOM     65  H   UNL     1      15.537   3.786   4.197  1.00  0.00     0.167 HD
ATOM     66  C   UNL     1      16.530   6.357   3.547  1.00  0.00     0.074 A 
ATOM     67  C   UNL     1      16.792   7.582   2.819  1.00  0.00     0.031 C 
ATOM     68  C   UNL     1      17.026   6.082   4.778  1.00  0.00     0.031 A 
BRANCH  55  69
ATOM     69  C   UNL     1      15.239   0.614   7.036  1.00  0.00    -0.014 A 
ATOM     70  C   UNL     1      15.916  -0.615   6.972  1.00  0.00     0.009 A 
ATOM     71  C   UNL     1      14.551   0.949   8.213  1.00  0.00     0.009 A 
ATOM     72  C   UNL     1      15.865  -1.508   8.044  1.00  0.00     0.001 A 
ATOM     73  C   UNL     1      14.528   0.067   9.295  1.00  0.00     0.001 A 
ATOM     74  C   UNL     1      15.174  -1.165   9.206  1.00  0.00     0.000 A 
ENDBRANCH  55  69
BRANCH  56  75
ATOM     75  C   UNL     1      14.674   6.842  -0.741  1.00  0.00    -0.014 A 
ATOM     76  C   UNL     1      15.813   7.085  -1.523  1.00  0.00     0.009 A 
ATOM     77  C   UNL     1      13.476   7.498  -1.062  1.00  0.00     0.009 A 
ATOM     78  C   UNL     1      15.762   7.987  -2.588  1.00  0.00     0.001 A 
ATOM     79  C   UNL     1      13.421   8.380  -2.144  1.00  0.00     0.001 A 
ATOM     80  C   UNL     1      14.566   8.630  -2.900  1.00  0.00     0.000 A 
ENDBRANCH  56  75
BRANCH  68  81
ATOM     81  C   UNL     1      17.945   7.100   5.391  1.00  0.00    -0.014 A 
ATOM     82  C   UNL     1      17.463   8.322   5.883  1.00  0.00     0.009 A 
ATOM     83  C   UNL     1      19.314   6.810   5.508  1.00  0.00     0.009 A 
ATOM     84  C   UNL     1      18.341   9.250   6.446  1.00  0.00     0.001 A 
ATOM     85  C   UNL     1      20.184   7.727   6.098  1.00  0.00     0.001 A 
ATOM     86  C   UNL     1      19.699   8.951   6.557  1.00  0.00     0.000 A 
ENDBRANCH  68  81
ENDBRANCH  42  43
ENDBRANCH  34  37
ENDBRANCH  32  33
ENDBRANCH  31  32
ENDBRANCH  30  31
ENDBRANCH   1  30
TORSDOF 17
