REMARK SMILES COCc1cc(C)nc2sc3c(c12)N[C@H](c1ccccc1C(=O)NCCCCCCNC(=O)c1ccc(-c2c4nc(c(-c5ccccc5)c5ccc([nH]5)c(-c5ccccc5)c5nc(c(-c6ccccc6)c6ccc2[nH]6)C=C5)C=C4)cc1)n1c-3nc2ccccc21
REMARK SMILES IDX 27 1 26 2 25 3 24 4 22 5 23 6 21 8 16 9 17 10 18 11 20 12
REMARK SMILES IDX 19 13 15 14 4 15 5 16 13 17 6 18 9 19 12 20 7 21 8 22 10 23
REMARK SMILES IDX 11 24 14 25 83 26 82 28 84 29 90 30 85 31 89 32 86 33 88 34
REMARK SMILES IDX 87 35 3 36 2 37 1 38 28 39 29 40 30 41 31 42 32 43 33 45
REMARK SMILES IDX 34 46 35 47 81 48 36 49 80 50 37 51 38 52 39 53 74 54 40 55
REMARK SMILES IDX 79 56 73 57 75 58 41 59 78 60 72 61 71 62 42 64 64 65 49 66
REMARK SMILES IDX 63 67 50 68 53 69 62 70 76 71 51 72 52 73 61 75 77 76 54 77
REMARK SMILES IDX 43 78 44 79 48 80 45 81 47 82 46 83 65 84 66 85 70 86 67 87
REMARK SMILES IDX 69 88 68 89 55 90 56 91 60 92 57 93 59 94 58 95
REMARK H PARENT 24 7 14 27 31 44 75 63 53 74
REMARK Flexibility Score: inf
ROOT
ATOM      1  C   UNL     1      -6.407  -4.034  -1.774  1.00  0.00     0.002 C 
ENDROOT
BRANCH   1   2
ATOM      2  C   UNL     1      -6.280  -5.231  -0.761  1.00  0.00     0.021 C 
BRANCH   2   3
ATOM      3  C   UNL     1      -6.120  -5.075   0.763  1.00  0.00     0.116 C 
BRANCH   3   4
ATOM      4  N   UNL     1      -7.252  -5.565   1.520  1.00  0.00    -0.352 N 
ATOM      5  C   UNL     1      -7.476  -6.057   2.777  1.00  0.00     0.251 C 
ATOM      6  O   UNL     1      -8.670  -6.321   2.990  1.00  0.00    -0.269 OA
ATOM      7  H   UNL     1      -8.082  -5.536   0.991  1.00  0.00     0.163 HD
BRANCH   5   8
ATOM      8  C   UNL     1      -6.505  -6.369   3.904  1.00  0.00     0.046 A 
ATOM      9  C   UNL     1      -5.372  -5.697   4.434  1.00  0.00     0.008 A 
ATOM     10  C   UNL     1      -4.769  -6.228   5.627  1.00  0.00     0.008 A 
ATOM     11  C   UNL     1      -5.302  -7.287   6.350  1.00  0.00     0.000 A 
ATOM     12  C   UNL     1      -7.009  -7.459   4.682  1.00  0.00     0.014 A 
ATOM     13  C   UNL     1      -6.445  -7.894   5.885  1.00  0.00     0.001 A 
BRANCH   9  14
ATOM     14  C   UNL     1      -4.688  -4.401   4.025  1.00  0.00     0.215 C 
ATOM     15  C   UNL     1      -0.789  -3.847   0.599  1.00  0.00    -0.008 A 
ATOM     16  C   UNL     1      -0.619  -3.727  -0.834  1.00  0.00     0.030 A 
ATOM     17  C   UNL     1      -2.140  -4.021   1.072  1.00  0.00     0.041 A 
ATOM     18  C   UNL     1      -1.679  -3.927  -1.716  1.00  0.00     0.039 A 
ATOM     19  C   UNL     1      -3.045  -3.910   0.022  1.00  0.00     0.126 A 
ATOM     20  C   UNL     1      -2.987  -3.794   2.268  1.00  0.00     0.068 A 
ATOM     21  C   UNL     1      -1.633  -3.574  -3.172  1.00  0.00     0.067 C 
ATOM     22  N   UNL     1      -2.901  -4.208  -1.272  1.00  0.00    -0.242 NA
ATOM     23  S   UNL     1      -3.873  -2.472   0.365  1.00  0.00    -0.110 S 
ATOM     24  C   UNL     1      -3.853  -2.749   2.003  1.00  0.00     0.096 A 
ATOM     25  N   UNL     1      -3.430  -4.688   3.215  1.00  0.00    -0.359 N 
ATOM     26  C   UNL     1      -5.038  -2.388   2.700  1.00  0.00     0.155 A 
ATOM     27  H   UNL     1      -2.929  -5.521   3.370  1.00  0.00     0.163 HD
ATOM     28  N   UNL     1      -5.556  -3.282   3.598  1.00  0.00    -0.298 N 
ATOM     29  N   UNL     1      -5.957  -1.579   2.222  1.00  0.00    -0.227 NA
ATOM     30  C   UNL     1      -6.902  -3.006   3.723  1.00  0.00     0.071 A 
ATOM     31  C   UNL     1      -7.131  -2.069   2.709  1.00  0.00     0.089 A 
ATOM     32  C   UNL     1      -7.963  -3.529   4.470  1.00  0.00     0.029 A 
ATOM     33  C   UNL     1      -8.434  -1.814   2.256  1.00  0.00     0.030 A 
ATOM     34  C   UNL     1      -9.262  -3.267   3.999  1.00  0.00     0.002 A 
ATOM     35  C   UNL     1      -9.494  -2.467   2.881  1.00  0.00     0.002 A 
BRANCH  15  36
ATOM     36  C   UNL     1       0.442  -3.562   1.430  1.00  0.00     0.196 C 
BRANCH  36  37
ATOM     37  O   UNL     1       0.470  -2.206   1.863  1.00  0.00    -0.380 OA
ATOM     38  C   UNL     1       1.592  -1.470   1.389  1.00  0.00     0.195 C 
ENDBRANCH  36  37
ENDBRANCH  15  36
ENDBRANCH   9  14
ENDBRANCH   5   8
ENDBRANCH   3   4
ENDBRANCH   2   3
ENDBRANCH   1   2
BRANCH   1  39
ATOM     39  C   UNL     1      -7.153  -2.696  -1.548  1.00  0.00     0.002 C 
BRANCH  39  40
ATOM     40  C   UNL     1      -6.453  -1.292  -1.473  1.00  0.00     0.021 C 
BRANCH  40  41
ATOM     41  C   UNL     1      -5.039  -1.053  -2.038  1.00  0.00     0.116 C 
BRANCH  41  42
ATOM     42  N   UNL     1      -4.783   0.087  -2.901  1.00  0.00    -0.352 N 
ATOM     43  C   UNL     1      -3.791   1.055  -2.802  1.00  0.00     0.251 C 
ATOM     44  H   UNL     1      -5.398   0.188  -3.663  1.00  0.00     0.163 HD
ATOM     45  O   UNL     1      -3.679   1.877  -3.718  1.00  0.00    -0.269 OA
BRANCH  43  46
ATOM     46  C   UNL     1      -2.868   1.191  -1.627  1.00  0.00     0.039 A 
ATOM     47  C   UNL     1      -2.201   0.116  -1.039  1.00  0.00     0.014 A 
ATOM     48  C   UNL     1      -2.604   2.475  -1.129  1.00  0.00     0.014 A 
ATOM     49  C   UNL     1      -1.416   0.294   0.110  1.00  0.00     0.010 A 
ATOM     50  C   UNL     1      -1.765   2.664  -0.018  1.00  0.00     0.010 A 
ATOM     51  C   UNL     1      -1.176   1.569   0.626  1.00  0.00    -0.014 A 
BRANCH  51  52
ATOM     52  C   UNL     1      -0.235   1.717   1.764  1.00  0.00     0.031 A 
ATOM     53  C   UNL     1       0.854   2.720   1.582  1.00  0.00     0.074 A 
ATOM     54  C   UNL     1      -0.577   1.417   3.037  1.00  0.00     0.049 A 
ATOM     55  N   UNL     1       0.613   3.995   1.651  1.00  0.00    -0.248 NA
ATOM     56  C   UNL     1       2.206   2.404   1.124  1.00  0.00     0.031 C 
ATOM     57  C   UNL     1      -1.963   1.360   3.517  1.00  0.00     0.029 A 
ATOM     58  N   UNL     1       0.181   1.363   4.186  1.00  0.00    -0.354 N 
ATOM     59  C   UNL     1       1.709   4.652   1.136  1.00  0.00     0.074 A 
ATOM     60  C   UNL     1       2.693   3.629   0.861  1.00  0.00     0.031 C 
ATOM     61  C   UNL     1      -1.960   1.502   4.859  1.00  0.00     0.029 A 
ATOM     62  C   UNL     1      -0.585   1.480   5.345  1.00  0.00     0.049 A 
ATOM     63  H   UNL     1       1.159   1.254   4.189  1.00  0.00     0.167 HD
ATOM     64  C   UNL     1       1.714   5.995   0.930  1.00  0.00     0.031 A 
ATOM     65  C   UNL     1      -0.159   2.063   6.498  1.00  0.00     0.031 A 
ATOM     66  C   UNL     1       0.512   6.672   1.322  1.00  0.00     0.049 A 
ATOM     67  C   UNL     1      -0.033   3.508   6.074  1.00  0.00     0.074 A 
ATOM     68  C   UNL     1      -0.684   6.999   0.719  1.00  0.00     0.029 A 
ATOM     69  N   UNL     1       0.325   6.965   2.654  1.00  0.00    -0.354 N 
ATOM     70  N   UNL     1      -1.017   4.354   5.910  1.00  0.00    -0.248 NA
ATOM     71  C   UNL     1       1.236   3.941   5.487  1.00  0.00     0.031 C 
ATOM     72  C   UNL     1      -1.648   7.032   1.776  1.00  0.00     0.029 A 
ATOM     73  C   UNL     1      -0.985   6.666   2.947  1.00  0.00     0.049 A 
ATOM     74  H   UNL     1       0.999   7.319   3.277  1.00  0.00     0.167 HD
ATOM     75  C   UNL     1      -0.573   5.264   4.948  1.00  0.00     0.074 A 
ATOM     76  C   UNL     1       0.838   4.986   4.774  1.00  0.00     0.031 C 
ATOM     77  C   UNL     1      -1.398   6.053   4.196  1.00  0.00     0.031 A 
BRANCH  64  78
ATOM     78  C   UNL     1       2.859   6.739   0.375  1.00  0.00    -0.014 A 
ATOM     79  C   UNL     1       3.146   6.728  -0.996  1.00  0.00     0.009 A 
ATOM     80  C   UNL     1       3.591   7.585   1.220  1.00  0.00     0.009 A 
ATOM     81  C   UNL     1       4.143   7.562  -1.510  1.00  0.00     0.001 A 
ATOM     82  C   UNL     1       4.584   8.418   0.705  1.00  0.00     0.001 A 
ATOM     83  C   UNL     1       4.856   8.410  -0.661  1.00  0.00     0.000 A 
ENDBRANCH  64  78
BRANCH  65  84
ATOM     84  C   UNL     1       0.923   1.294   7.201  1.00  0.00    -0.014 A 
ATOM     85  C   UNL     1       2.162   1.807   7.610  1.00  0.00     0.009 A 
ATOM     86  C   UNL     1       0.685  -0.074   7.460  1.00  0.00     0.009 A 
ATOM     87  C   UNL     1       3.173   0.963   8.094  1.00  0.00     0.001 A 
ATOM     88  C   UNL     1       1.680  -0.913   7.973  1.00  0.00     0.001 A 
ATOM     89  C   UNL     1       2.938  -0.399   8.256  1.00  0.00     0.000 A 
ENDBRANCH  65  84
BRANCH  77  90
ATOM     90  C   UNL     1      -2.849   6.053   4.562  1.00  0.00    -0.014 A 
ATOM     91  C   UNL     1      -3.810   5.500   3.698  1.00  0.00     0.009 A 
ATOM     92  C   UNL     1      -3.283   6.684   5.734  1.00  0.00     0.009 A 
ATOM     93  C   UNL     1      -5.173   5.634   3.966  1.00  0.00     0.001 A 
ATOM     94  C   UNL     1      -4.647   6.799   6.013  1.00  0.00     0.001 A 
ATOM     95  C   UNL     1      -5.591   6.292   5.121  1.00  0.00     0.000 A 
ENDBRANCH  77  90
ENDBRANCH  51  52
ENDBRANCH  43  46
ENDBRANCH  41  42
ENDBRANCH  40  41
ENDBRANCH  39  40
ENDBRANCH   1  39
TORSDOF 16
