REMARK SMILES CN(CC(=O)NCCCCCCNC(=O)c1ccc(-c2c3nc(c(-c4ccccc4)c4ccc([nH]4)c(-c4ccccc4)c4nc(c(-c5ccccc5)c5ccc2[nH]5)C=C4)C=C3)cc1)c1ncc(-c2nnnn2-c2ccccc2)c(-c2ccc(Cl)cc2)n1
REMARK SMILES IDX 8 1 7 2 6 3 4 4 5 5 3 7 2 8 1 9 64 10 65 11 87 12 66 13
REMARK SMILES IDX 79 14 67 15 80 16 81 17 86 18 82 19 85 20 83 21 84 22 68 23
REMARK SMILES IDX 69 24 72 25 70 26 71 27 73 28 74 29 78 30 75 31 77 32 76 33
REMARK SMILES IDX 9 34 10 35 11 36 12 37 13 38 14 39 15 41 16 42 17 43 63 44
REMARK SMILES IDX 18 45 62 46 19 47 20 48 21 49 56 50 22 51 61 52 55 53 57 54
REMARK SMILES IDX 23 55 60 56 54 57 53 58 24 60 46 61 31 62 45 63 32 64 35 65
REMARK SMILES IDX 44 66 58 67 33 68 34 69 43 71 59 72 36 73 25 74 26 75 30 76
REMARK SMILES IDX 27 77 29 78 28 79 47 80 48 81 52 82 49 83 51 84 50 85 37 86
REMARK SMILES IDX 38 87 42 88 39 89 41 90 40 91
REMARK H PARENT 6 6 13 40 57 59 35 70
REMARK Flexibility Score: inf
ROOT
ATOM      1  C   UNL     1      -2.211  -0.549  -1.643  1.00  0.00     0.021 C 
ENDROOT
BRANCH   1   2
ATOM      2  C   UNL     1      -2.259  -0.160  -0.167  1.00  0.00     0.116 C 
BRANCH   2   3
ATOM      3  N   UNL     1      -2.550  -1.301   0.670  1.00  0.00    -0.355 N 
ATOM      4  C   UNL     1      -1.701  -1.996   1.487  1.00  0.00     0.239 C 
ATOM      5  O   UNL     1      -2.164  -2.948   2.123  1.00  0.00    -0.273 OA
ATOM      6  H   UNL     1      -3.481  -1.621   0.650  1.00  0.00     0.163 HD
BRANCH   4   7
ATOM      7  C   UNL     1      -0.266  -1.500   1.704  1.00  0.00     0.219 C 
BRANCH   7   8
ATOM      8  N   UNL     1       0.552  -1.414   0.491  1.00  0.00    -0.335 N 
ATOM      9  C   UNL     1       1.362  -0.241   0.243  1.00  0.00     0.147 C 
BRANCH   8  10
ATOM     10  C   UNL     1       0.970  -2.604  -0.066  1.00  0.00     0.226 A 
ATOM     11  N   UNL     1       0.113  -3.626  -0.097  1.00  0.00    -0.221 NA
ATOM     12  N   UNL     1       2.213  -2.695  -0.564  1.00  0.00    -0.212 NA
ATOM     13  C   UNL     1       0.518  -4.766  -0.685  1.00  0.00     0.129 A 
ATOM     14  C   UNL     1       2.620  -3.870  -1.108  1.00  0.00     0.087 A 
ATOM     15  C   UNL     1       1.767  -4.950  -1.243  1.00  0.00     0.066 A 
BRANCH  14  16
ATOM     16  C   UNL     1       4.041  -3.887  -1.497  1.00  0.00     0.001 A 
ATOM     17  C   UNL     1       5.032  -3.675  -0.520  1.00  0.00     0.012 A 
ATOM     18  C   UNL     1       4.456  -4.128  -2.818  1.00  0.00     0.012 A 
ATOM     19  C   UNL     1       6.391  -3.732  -0.844  1.00  0.00     0.021 A 
ATOM     20  C   UNL     1       5.815  -4.187  -3.144  1.00  0.00     0.021 A 
ATOM     21  C   UNL     1       6.776  -3.994  -2.155  1.00  0.00     0.041 A 
ATOM     22  Cl  UNL     1       8.446  -4.077  -2.556  1.00  0.00    -0.084 Cl
ENDBRANCH  14  16
BRANCH  15  23
ATOM     23  C   UNL     1       2.107  -6.203  -1.895  1.00  0.00     0.190 A 
ATOM     24  N   UNL     1       3.053  -7.046  -1.526  1.00  0.00    -0.108 NA
ATOM     25  N   UNL     1       1.393  -6.792  -2.932  1.00  0.00    -0.193 N 
ATOM     26  N   UNL     1       2.857  -8.190  -2.253  1.00  0.00    -0.023 NA
ATOM     27  N   UNL     1       1.809  -8.072  -3.054  1.00  0.00    -0.040 NA
BRANCH  25  28
ATOM     28  C   UNL     1       0.376  -6.254  -3.755  1.00  0.00     0.069 A 
ATOM     29  C   UNL     1      -0.640  -7.096  -4.223  1.00  0.00     0.028 A 
ATOM     30  C   UNL     1       0.367  -4.893  -4.093  1.00  0.00     0.028 A 
ATOM     31  C   UNL     1      -1.691  -6.562  -4.971  1.00  0.00     0.002 A 
ATOM     32  C   UNL     1      -0.671  -4.375  -4.869  1.00  0.00     0.002 A 
ATOM     33  C   UNL     1      -1.706  -5.205  -5.292  1.00  0.00     0.000 A 
ENDBRANCH  25  28
ENDBRANCH  15  23
ENDBRANCH   8  10
ENDBRANCH   7   8
ENDBRANCH   4   7
ENDBRANCH   2   3
ENDBRANCH   1   2
BRANCH   1  34
ATOM     34  C   UNL     1      -3.570  -0.975  -2.214  1.00  0.00     0.002 C 
BRANCH  34  35
ATOM     35  C   UNL     1      -4.692   0.059  -2.060  1.00  0.00     0.002 C 
BRANCH  35  36
ATOM     36  C   UNL     1      -4.378   1.440  -2.636  1.00  0.00     0.021 C 
BRANCH  36  37
ATOM     37  C   UNL     1      -4.098   1.443  -4.133  1.00  0.00     0.116 C 
BRANCH  37  38
ATOM     38  N   UNL     1      -5.269   1.065  -4.910  1.00  0.00    -0.352 N 
ATOM     39  C   UNL     1      -5.862   1.730  -5.952  1.00  0.00     0.251 C 
ATOM     40  H   UNL     1      -5.694   0.215  -4.651  1.00  0.00     0.163 HD
ATOM     41  O   UNL     1      -6.960   1.378  -6.376  1.00  0.00    -0.269 OA
BRANCH  39  42
ATOM     42  C   UNL     1      -5.176   2.891  -6.554  1.00  0.00     0.039 A 
ATOM     43  C   UNL     1      -5.896   4.064  -6.791  1.00  0.00     0.014 A 
ATOM     44  C   UNL     1      -3.816   2.820  -6.868  1.00  0.00     0.014 A 
ATOM     45  C   UNL     1      -5.236   5.189  -7.289  1.00  0.00     0.010 A 
ATOM     46  C   UNL     1      -3.146   3.963  -7.289  1.00  0.00     0.010 A 
ATOM     47  C   UNL     1      -3.850   5.157  -7.511  1.00  0.00    -0.014 A 
BRANCH  47  48
ATOM     48  C   UNL     1      -3.110   6.346  -8.004  1.00  0.00     0.031 A 
ATOM     49  C   UNL     1      -2.412   6.287  -9.337  1.00  0.00     0.074 A 
ATOM     50  C   UNL     1      -3.002   7.445  -7.232  1.00  0.00     0.049 A 
ATOM     51  N   UNL     1      -1.609   7.160  -9.889  1.00  0.00    -0.248 NA
ATOM     52  C   UNL     1      -2.625   5.073 -10.143  1.00  0.00     0.031 C 
ATOM     53  C   UNL     1      -3.613   7.623  -5.912  1.00  0.00     0.029 A 
ATOM     54  N   UNL     1      -2.322   8.620  -7.442  1.00  0.00    -0.354 N 
ATOM     55  C   UNL     1      -1.214   6.597 -11.096  1.00  0.00     0.074 A 
ATOM     56  C   UNL     1      -1.816   5.284 -11.171  1.00  0.00     0.031 C 
ATOM     57  C   UNL     1      -3.293   8.839  -5.440  1.00  0.00     0.029 A 
ATOM     58  C   UNL     1      -2.416   9.507  -6.396  1.00  0.00     0.049 A 
ATOM     59  H   UNL     1      -1.816   8.809  -8.265  1.00  0.00     0.167 HD
ATOM     60  C   UNL     1      -0.438   7.132 -12.067  1.00  0.00     0.031 A 
ATOM     61  C   UNL     1      -1.843  10.714  -6.220  1.00  0.00     0.031 A 
ATOM     62  C   UNL     1       0.152   8.441 -12.000  1.00  0.00     0.049 A 
ATOM     63  C   UNL     1      -0.950  11.266  -7.300  1.00  0.00     0.074 A 
ATOM     64  C   UNL     1       0.933   9.083 -12.945  1.00  0.00     0.029 A 
ATOM     65  N   UNL     1       0.019   9.311 -10.929  1.00  0.00    -0.354 N 
ATOM     66  N   UNL     1      -0.620  10.737  -8.453  1.00  0.00    -0.248 NA
ATOM     67  C   UNL     1      -0.357  12.590  -7.056  1.00  0.00     0.031 C 
ATOM     68  C   UNL     1       1.312  10.324 -12.426  1.00  0.00     0.029 A 
ATOM     69  C   UNL     1       0.714  10.480 -11.187  1.00  0.00     0.049 A 
ATOM     70  H   UNL     1      -0.492   9.125 -10.109  1.00  0.00     0.167 HD
ATOM     71  C   UNL     1       0.177  11.681  -9.088  1.00  0.00     0.074 A 
ATOM     72  C   UNL     1       0.274  12.818  -8.199  1.00  0.00     0.031 C 
ATOM     73  C   UNL     1       0.776  11.613 -10.302  1.00  0.00     0.031 A 
BRANCH  60  74
ATOM     74  C   UNL     1      -0.191   6.305 -13.297  1.00  0.00    -0.014 A 
ATOM     75  C   UNL     1      -1.219   6.057 -14.221  1.00  0.00     0.009 A 
ATOM     76  C   UNL     1       1.098   5.819 -13.569  1.00  0.00     0.009 A 
ATOM     77  C   UNL     1      -0.968   5.317 -15.378  1.00  0.00     0.001 A 
ATOM     78  C   UNL     1       1.353   5.105 -14.742  1.00  0.00     0.001 A 
ATOM     79  C   UNL     1       0.319   4.849 -15.641  1.00  0.00     0.000 A 
ENDBRANCH  60  74
BRANCH  61  80
ATOM     80  C   UNL     1      -2.078  11.490  -4.972  1.00  0.00    -0.014 A 
ATOM     81  C   UNL     1      -2.776  12.708  -5.007  1.00  0.00     0.009 A 
ATOM     82  C   UNL     1      -1.559  11.045  -3.746  1.00  0.00     0.009 A 
ATOM     83  C   UNL     1      -2.904  13.486  -3.854  1.00  0.00     0.001 A 
ATOM     84  C   UNL     1      -1.720  11.807  -2.587  1.00  0.00     0.001 A 
ATOM     85  C   UNL     1      -2.377  13.034  -2.645  1.00  0.00     0.000 A 
ENDBRANCH  61  80
BRANCH  73  86
ATOM     86  C   UNL     1       1.526  12.825 -10.777  1.00  0.00    -0.014 A 
ATOM     87  C   UNL     1       2.756  13.198 -10.215  1.00  0.00     0.009 A 
ATOM     88  C   UNL     1       1.014  13.571 -11.852  1.00  0.00     0.009 A 
ATOM     89  C   UNL     1       3.443  14.312 -10.701  1.00  0.00     0.001 A 
ATOM     90  C   UNL     1       1.719  14.664 -12.356  1.00  0.00     0.001 A 
ATOM     91  C   UNL     1       2.929  15.039 -11.774  1.00  0.00     0.000 A 
ENDBRANCH  73  86
ENDBRANCH  47  48
ENDBRANCH  39  42
ENDBRANCH  37  38
ENDBRANCH  36  37
ENDBRANCH  35  36
ENDBRANCH  34  35
ENDBRANCH   1  34
TORSDOF 18
