REMARK SMILES O=C(C[C@H]1C[C@H]2CC[C@@H](C1)[N@H+]2C[C@@H]1CNC(=O)O1)NCCCCCCNC(=O)c1ccc(-c2c3nc(c(-c4ccccc4)c4ccc([nH]4)c(-c4ccccc4)c4nc(c(-c5ccccc5)c5ccc2[nH]5)C=C4)C=C3)cc1
REMARK SMILES IDX 22 1 21 2 20 3 19 4 1 5 2 6 3 8 4 9 5 10 10 11 6 12 9 13
REMARK SMILES IDX 7 14 11 15 8 16 12 18 13 19 14 20 18 21 15 22 16 23 17 25
REMARK SMILES IDX 23 26 24 27 25 28 26 29 27 30 28 32 29 33 30 34 76 35 31 36
REMARK SMILES IDX 75 37 32 38 33 39 34 40 69 41 35 42 74 43 68 44 70 45 36 46
REMARK SMILES IDX 73 47 67 48 66 49 37 51 59 52 44 53 58 54 45 55 48 56 57 57
REMARK SMILES IDX 71 58 46 59 47 60 56 62 72 63 49 64 38 65 39 66 43 67 40 68
REMARK SMILES IDX 42 69 41 70 60 71 61 72 65 73 62 74 64 75 63 76 50 77 51 78
REMARK SMILES IDX 55 79 52 80 54 81 53 82
REMARK H PARENT 19 7 11 17 15 24 26 31 70 50 48 61
REMARK Flexibility Score: inf
ROOT
ATOM      1  C   UNL     1       4.063   1.754   3.292  1.00  0.00     0.002 C 
ENDROOT
BRANCH   1   2
ATOM      2  C   UNL     1       2.539   1.554   3.240  1.00  0.00     0.021 C 
BRANCH   2   3
ATOM      3  C   UNL     1       1.901   1.814   1.873  1.00  0.00     0.116 C 
BRANCH   3   4
ATOM      4  N   UNL     1       2.393   0.866   0.900  1.00  0.00    -0.356 N 
ATOM      5  O   UNL     1       0.453  -0.313   0.661  1.00  0.00    -0.275 OA
ATOM      6  C   UNL     1       1.649  -0.182   0.415  1.00  0.00     0.220 C 
ATOM      7  H   UNL     1       3.312   0.978   0.565  1.00  0.00     0.163 HD
BRANCH   6   8
ATOM      8  C   UNL     1       2.416  -1.262  -0.351  1.00  0.00     0.104 C 
BRANCH   8   9
ATOM      9  C   UNL     1       3.597  -0.768  -1.204  1.00  0.00     0.010 C 
ATOM     10  C   UNL     1       4.862  -0.514  -0.336  1.00  0.00     0.069 C 
ATOM     11  C   UNL     1       3.819  -1.653  -2.459  1.00  0.00     0.069 C 
ATOM     12  C   UNL     1       6.096  -1.339  -0.671  1.00  0.00     0.184 C 
ATOM     13  C   UNL     1       5.175  -2.352  -2.530  1.00  0.00     0.184 C 
ATOM     14  C   UNL     1       5.872  -2.796  -0.245  1.00  0.00     0.071 C 
ATOM     15  N   UNL     1       6.256  -1.487  -2.096  1.00  0.00    -0.327 N 
ATOM     16  C   UNL     1       5.225  -3.458  -1.461  1.00  0.00     0.071 C 
ATOM     17  H   UNL     1       7.161  -1.905  -2.312  1.00  0.00     0.348 HD
BRANCH  15  18
ATOM     18  C   UNL     1       6.863  -0.475  -2.946  1.00  0.00     0.310 C 
BRANCH  18  19
ATOM     19  C   UNL     1       6.271   0.855  -3.490  1.00  0.00     0.252 C 
ATOM     20  C   UNL     1       5.959   1.987  -2.533  1.00  0.00     0.170 C 
ATOM     21  O   UNL     1       5.086   0.677  -4.279  1.00  0.00    -0.438 OA
ATOM     22  N   UNL     1       4.566   2.191  -2.716  1.00  0.00    -0.318 N 
ATOM     23  C   UNL     1       4.102   1.487  -3.789  1.00  0.00     0.407 C 
ATOM     24  H   UNL     1       4.007   2.764  -2.143  1.00  0.00     0.167 HD
ATOM     25  O   UNL     1       2.969   1.552  -4.227  1.00  0.00    -0.225 OA
ENDBRANCH  18  19
ENDBRANCH  15  18
ENDBRANCH   8   9
ENDBRANCH   6   8
ENDBRANCH   3   4
ENDBRANCH   2   3
ENDBRANCH   1   2
BRANCH   1  26
ATOM     26  C   UNL     1       4.561   3.159   2.937  1.00  0.00     0.002 C 
BRANCH  26  27
ATOM     27  C   UNL     1       3.937   4.297   3.746  1.00  0.00     0.021 C 
BRANCH  27  28
ATOM     28  C   UNL     1       4.105   4.185   5.259  1.00  0.00     0.116 C 
BRANCH  28  29
ATOM     29  N   UNL     1       5.495   4.285   5.673  1.00  0.00    -0.352 N 
ATOM     30  C   UNL     1       6.077   5.109   6.605  1.00  0.00     0.251 C 
ATOM     31  H   UNL     1       6.113   3.670   5.216  1.00  0.00     0.163 HD
ATOM     32  O   UNL     1       7.301   5.166   6.686  1.00  0.00    -0.269 OA
BRANCH  30  33
ATOM     33  C   UNL     1       5.244   5.952   7.493  1.00  0.00     0.039 A 
ATOM     34  C   UNL     1       5.653   7.263   7.746  1.00  0.00     0.014 A 
ATOM     35  C   UNL     1       4.079   5.460   8.088  1.00  0.00     0.014 A 
ATOM     36  C   UNL     1       4.863   8.097   8.541  1.00  0.00     0.010 A 
ATOM     37  C   UNL     1       3.250   6.316   8.812  1.00  0.00     0.010 A 
ATOM     38  C   UNL     1       3.632   7.644   9.048  1.00  0.00    -0.014 A 
BRANCH  38  39
ATOM     39  C   UNL     1       2.735   8.570   9.788  1.00  0.00     0.031 A 
ATOM     40  C   UNL     1       2.389   8.329  11.232  1.00  0.00     0.074 A 
ATOM     41  C   UNL     1       2.202   9.625   9.140  1.00  0.00     0.049 A 
ATOM     42  N   UNL     1       1.663   9.063  12.039  1.00  0.00    -0.248 NA
ATOM     43  C   UNL     1       2.904   7.096  11.845  1.00  0.00     0.031 C 
ATOM     44  C   UNL     1       2.417   9.947   7.727  1.00  0.00     0.029 A 
ATOM     45  N   UNL     1       1.381  10.630   9.587  1.00  0.00    -0.354 N 
ATOM     46  C   UNL     1       1.626   8.377  13.247  1.00  0.00     0.074 A 
ATOM     47  C   UNL     1       2.356   7.144  13.050  1.00  0.00     0.031 C 
ATOM     48  C   UNL     1       1.795  11.100   7.439  1.00  0.00     0.029 A 
ATOM     49  C   UNL     1       1.099  11.575   8.630  1.00  0.00     0.049 A 
ATOM     50  H   UNL     1       1.029  10.671  10.505  1.00  0.00     0.167 HD
ATOM     51  C   UNL     1       1.051   8.746  14.418  1.00  0.00     0.031 A 
ATOM     52  C   UNL     1       0.369  12.704   8.702  1.00  0.00     0.031 A 
ATOM     53  C   UNL     1       0.315   9.970  14.610  1.00  0.00     0.049 A 
ATOM     54  C   UNL     1      -0.277  13.078  10.006  1.00  0.00     0.074 A 
ATOM     55  C   UNL     1      -0.248  10.463  15.775  1.00  0.00     0.029 A 
ATOM     56  N   UNL     1       0.025  10.884  13.609  1.00  0.00    -0.354 N 
ATOM     57  N   UNL     1      -0.222  12.466  11.164  1.00  0.00    -0.248 NA
ATOM     58  C   UNL     1      -1.076  14.311  10.011  1.00  0.00     0.031 C 
ATOM     59  C   UNL     1      -0.942  11.638  15.462  1.00  0.00     0.029 A 
ATOM     60  C   UNL     1      -0.746  11.918  14.119  1.00  0.00     0.049 A 
ATOM     61  H   UNL     1       0.323  10.811  12.674  1.00  0.00     0.167 HD
ATOM     62  C   UNL     1      -0.958  13.251  12.042  1.00  0.00     0.074 A 
ATOM     63  C   UNL     1      -1.423  14.397  11.287  1.00  0.00     0.031 C 
ATOM     64  C   UNL     1      -1.225  13.042  13.355  1.00  0.00     0.031 A 
BRANCH  51  65
ATOM     65  C   UNL     1       1.172   7.793  15.579  1.00  0.00    -0.014 A 
ATOM     66  C   UNL     1       2.409   7.531  16.190  1.00  0.00     0.009 A 
ATOM     67  C   UNL     1       0.023   7.165  16.086  1.00  0.00     0.009 A 
ATOM     68  C   UNL     1       2.500   6.626  17.250  1.00  0.00     0.001 A 
ATOM     69  C   UNL     1       0.111   6.288  17.169  1.00  0.00     0.001 A 
ATOM     70  C   UNL     1       1.351   6.008  17.742  1.00  0.00     0.000 A 
ENDBRANCH  51  65
BRANCH  52  71
ATOM     71  C   UNL     1       0.234  13.581   7.509  1.00  0.00    -0.014 A 
ATOM     72  C   UNL     1       0.836  14.848   7.486  1.00  0.00     0.009 A 
ATOM     73  C   UNL     1      -0.500  13.160   6.389  1.00  0.00     0.009 A 
ATOM     74  C   UNL     1       0.685  15.685   6.378  1.00  0.00     0.001 A 
ATOM     75  C   UNL     1      -0.622  13.985   5.269  1.00  0.00     0.001 A 
ATOM     76  C   UNL     1      -0.038  15.251   5.269  1.00  0.00     0.000 A 
ENDBRANCH  52  71
BRANCH  64  77
ATOM     77  C   UNL     1      -2.042  14.092  14.059  1.00  0.00    -0.014 A 
ATOM     78  C   UNL     1      -3.396  14.300  13.748  1.00  0.00     0.009 A 
ATOM     79  C   UNL     1      -1.447  14.889  15.050  1.00  0.00     0.009 A 
ATOM     80  C   UNL     1      -4.119  15.318  14.374  1.00  0.00     0.001 A 
ATOM     81  C   UNL     1      -2.182  15.880  15.702  1.00  0.00     0.001 A 
ATOM     82  C   UNL     1      -3.513  16.105  15.352  1.00  0.00     0.000 A 
ENDBRANCH  64  77
ENDBRANCH  38  39
ENDBRANCH  30  33
ENDBRANCH  28  29
ENDBRANCH  27  28
ENDBRANCH  26  27
ENDBRANCH   1  26
TORSDOF 16
