REMARK SMILES Cc1c(CC(=O)NCCCCCCNC(=O)c2ccc(-c3c4nc(c(-c5ccccc5)c5ccc([nH]5)c(-c5ccccc5)c5nc(c(-c6ccccc6)c6ccc3[nH]6)C=C5)C=C4)cc2)cc(-c2ccccc2)cc1-c1ccccc1
REMARK SMILES IDX 10 1 9 2 8 3 7 4 5 5 6 6 4 8 3 9 1 10 2 11 74 12 65 13 73 14
REMARK SMILES IDX 66 15 75 16 76 17 80 18 77 19 79 20 78 21 67 22 68 23 72 24
REMARK SMILES IDX 69 25 71 26 70 27 11 28 12 29 13 30 14 31 15 32 16 34 17 35
REMARK SMILES IDX 18 36 64 37 19 38 63 39 20 40 21 41 22 42 57 43 23 44 62 45
REMARK SMILES IDX 56 46 58 47 24 48 61 49 55 50 54 51 25 53 47 54 32 55 46 56
REMARK SMILES IDX 33 57 36 58 45 59 59 60 34 61 35 62 44 64 60 65 37 66 26 67
REMARK SMILES IDX 27 68 31 69 28 70 30 71 29 72 48 73 49 74 53 75 50 76 52 77
REMARK SMILES IDX 51 78 38 79 39 80 43 81 40 82 42 83 41 84
REMARK H PARENT 7 7 14 33 58 52 36 63
REMARK Flexibility Score: inf
ROOT
ATOM      1  C   UNL     1       0.397  -1.430   5.090  1.00  0.00     0.002 C 
ENDROOT
BRANCH   1   2
ATOM      2  C   UNL     1       0.639  -0.964   3.649  1.00  0.00     0.021 C 
BRANCH   2   3
ATOM      3  C   UNL     1       1.529  -1.885   2.813  1.00  0.00     0.116 C 
BRANCH   3   4
ATOM      4  N   UNL     1       0.828  -3.056   2.335  1.00  0.00    -0.356 N 
ATOM      5  C   UNL     1       0.549  -3.423   1.049  1.00  0.00     0.224 C 
ATOM      6  O   UNL     1      -0.036  -4.492   0.862  1.00  0.00    -0.275 OA
ATOM      7  H   UNL     1       0.508  -3.674   3.032  1.00  0.00     0.163 HD
BRANCH   5   8
ATOM      8  C   UNL     1       0.994  -2.552  -0.121  1.00  0.00     0.135 C 
BRANCH   8   9
ATOM      9  C   UNL     1       0.323  -1.190  -0.173  1.00  0.00    -0.035 A 
ATOM     10  C   UNL     1       2.540   0.044  -0.399  1.00  0.00     0.045 C 
ATOM     11  C   UNL     1       1.034   0.037  -0.249  1.00  0.00    -0.040 A 
ATOM     12  C   UNL     1       0.309   1.259  -0.235  1.00  0.00    -0.015 A 
ATOM     13  C   UNL     1      -1.086  -1.174  -0.148  1.00  0.00     0.013 A 
ATOM     14  C   UNL     1      -1.101   1.219  -0.187  1.00  0.00     0.017 A 
ATOM     15  C   UNL     1      -1.817   0.017  -0.158  1.00  0.00    -0.017 A 
BRANCH  12  16
ATOM     16  C   UNL     1       0.959   2.586  -0.235  1.00  0.00    -0.018 A 
ATOM     17  C   UNL     1       0.821   3.443   0.872  1.00  0.00     0.009 A 
ATOM     18  C   UNL     1       1.722   3.032  -1.325  1.00  0.00     0.009 A 
ATOM     19  C   UNL     1       1.438   4.695   0.895  1.00  0.00     0.001 A 
ATOM     20  C   UNL     1       2.353   4.279  -1.297  1.00  0.00     0.001 A 
ATOM     21  C   UNL     1       2.211   5.109  -0.187  1.00  0.00     0.000 A 
ENDBRANCH  12  16
BRANCH  15  22
ATOM     22  C   UNL     1      -3.287  -0.003  -0.154  1.00  0.00    -0.018 A 
ATOM     23  C   UNL     1      -4.003  -0.679   0.848  1.00  0.00     0.009 A 
ATOM     24  C   UNL     1      -4.016   0.632  -1.173  1.00  0.00     0.009 A 
ATOM     25  C   UNL     1      -5.399  -0.725   0.828  1.00  0.00     0.001 A 
ATOM     26  C   UNL     1      -5.412   0.584  -1.196  1.00  0.00     0.001 A 
ATOM     27  C   UNL     1      -6.103  -0.096  -0.196  1.00  0.00     0.000 A 
ENDBRANCH  15  22
ENDBRANCH   8   9
ENDBRANCH   5   8
ENDBRANCH   3   4
ENDBRANCH   2   3
ENDBRANCH   1   2
BRANCH   1  28
ATOM     28  C   UNL     1       1.643  -1.805   5.912  1.00  0.00     0.002 C 
BRANCH  28  29
ATOM     29  C   UNL     1       2.820  -0.827   5.847  1.00  0.00     0.021 C 
BRANCH  29  30
ATOM     30  C   UNL     1       2.566   0.501   6.548  1.00  0.00     0.116 C 
BRANCH  30  31
ATOM     31  N   UNL     1       3.165   0.594   7.874  1.00  0.00    -0.352 N 
ATOM     32  C   UNL     1       3.017   1.576   8.837  1.00  0.00     0.251 C 
ATOM     33  H   UNL     1       3.760  -0.151   8.120  1.00  0.00     0.163 HD
ATOM     34  O   UNL     1       3.623   1.500   9.893  1.00  0.00    -0.269 OA
BRANCH  32  35
ATOM     35  C   UNL     1       2.009   2.647   8.635  1.00  0.00     0.039 A 
ATOM     36  C   UNL     1       1.140   2.923   9.697  1.00  0.00     0.014 A 
ATOM     37  C   UNL     1       1.784   3.210   7.381  1.00  0.00     0.014 A 
ATOM     38  C   UNL     1      -0.080   3.540   9.436  1.00  0.00     0.010 A 
ATOM     39  C   UNL     1       0.539   3.736   7.099  1.00  0.00     0.010 A 
ATOM     40  C   UNL     1      -0.416   3.829   8.113  1.00  0.00    -0.014 A 
BRANCH  40  41
ATOM     41  C   UNL     1      -1.784   4.105   7.698  1.00  0.00     0.031 A 
ATOM     42  C   UNL     1      -2.238   5.495   7.520  1.00  0.00     0.074 A 
ATOM     43  C   UNL     1      -2.639   3.079   7.494  1.00  0.00     0.049 A 
ATOM     44  N   UNL     1      -3.439   5.905   7.755  1.00  0.00    -0.248 NA
ATOM     45  C   UNL     1      -1.327   6.555   7.108  1.00  0.00     0.031 C 
ATOM     46  C   UNL     1      -3.985   3.147   6.931  1.00  0.00     0.029 A 
ATOM     47  N   UNL     1      -2.544   1.777   7.989  1.00  0.00    -0.354 N 
ATOM     48  C   UNL     1      -3.534   7.184   7.255  1.00  0.00     0.074 A 
ATOM     49  C   UNL     1      -2.175   7.576   6.954  1.00  0.00     0.031 C 
ATOM     50  C   UNL     1      -4.685   2.091   7.378  1.00  0.00     0.029 A 
ATOM     51  C   UNL     1      -3.846   1.395   8.342  1.00  0.00     0.049 A 
ATOM     52  H   UNL     1      -1.726   1.235   8.074  1.00  0.00     0.167 HD
ATOM     53  C   UNL     1      -4.758   7.725   6.995  1.00  0.00     0.031 A 
ATOM     54  C   UNL     1      -4.213   1.055   9.611  1.00  0.00     0.031 A 
ATOM     55  C   UNL     1      -5.843   6.821   7.363  1.00  0.00     0.049 A 
ATOM     56  C   UNL     1      -5.339   1.913  10.145  1.00  0.00     0.074 A 
ATOM     57  C   UNL     1      -6.607   5.935   6.620  1.00  0.00     0.029 A 
ATOM     58  N   UNL     1      -6.066   6.513   8.699  1.00  0.00    -0.354 N 
ATOM     59  N   UNL     1      -5.661   3.075   9.651  1.00  0.00    -0.248 NA
ATOM     60  C   UNL     1      -6.135   1.562  11.319  1.00  0.00     0.031 C 
ATOM     61  C   UNL     1      -7.228   5.033   7.519  1.00  0.00     0.029 A 
ATOM     62  C   UNL     1      -6.866   5.392   8.806  1.00  0.00     0.049 A 
ATOM     63  H   UNL     1      -5.705   7.021   9.461  1.00  0.00     0.167 HD
ATOM     64  C   UNL     1      -6.673   3.620  10.396  1.00  0.00     0.074 A 
ATOM     65  C   UNL     1      -6.937   2.636  11.430  1.00  0.00     0.031 C 
ATOM     66  C   UNL     1      -7.204   4.842  10.109  1.00  0.00     0.031 A 
BRANCH  53  67
ATOM     67  C   UNL     1      -4.945   8.927   6.098  1.00  0.00    -0.014 A 
ATOM     68  C   UNL     1      -6.106   9.030   5.308  1.00  0.00     0.009 A 
ATOM     69  C   UNL     1      -3.998   9.952   5.936  1.00  0.00     0.009 A 
ATOM     70  C   UNL     1      -6.257  10.026   4.334  1.00  0.00     0.001 A 
ATOM     71  C   UNL     1      -4.122  10.926   4.935  1.00  0.00     0.001 A 
ATOM     72  C   UNL     1      -5.247  10.954   4.122  1.00  0.00     0.000 A 
ENDBRANCH  53  67
BRANCH  54  73
ATOM     73  C   UNL     1      -3.114   0.522  10.461  1.00  0.00    -0.014 A 
ATOM     74  C   UNL     1      -2.549  -0.725  10.134  1.00  0.00     0.009 A 
ATOM     75  C   UNL     1      -2.418   1.365  11.340  1.00  0.00     0.009 A 
ATOM     76  C   UNL     1      -1.277  -1.077  10.597  1.00  0.00     0.001 A 
ATOM     77  C   UNL     1      -1.149   1.004  11.807  1.00  0.00     0.001 A 
ATOM     78  C   UNL     1      -0.567  -0.200  11.411  1.00  0.00     0.000 A 
ENDBRANCH  54  73
BRANCH  66  79
ATOM     79  C   UNL     1      -8.160   5.604  10.986  1.00  0.00    -0.014 A 
ATOM     80  C   UNL     1      -8.198   5.490  12.382  1.00  0.00     0.009 A 
ATOM     81  C   UNL     1      -8.977   6.597  10.402  1.00  0.00     0.009 A 
ATOM     82  C   UNL     1      -9.046   6.295  13.153  1.00  0.00     0.001 A 
ATOM     83  C   UNL     1      -9.793   7.430  11.171  1.00  0.00     0.001 A 
ATOM     84  C   UNL     1      -9.836   7.270  12.549  1.00  0.00     0.000 A 
ENDBRANCH  66  79
ENDBRANCH  40  41
ENDBRANCH  32  35
ENDBRANCH  30  31
ENDBRANCH  29  30
ENDBRANCH  28  29
ENDBRANCH   1  28
TORSDOF 16
