REMARK SMILES O=C(Cn1ncc2ccccc2c1=O)N[C@@H]1C[NH2+][C@H](C(=O)NCCCCCCNC(=O)c2ccc(-c3c4nc(c(-c5ccccc5)c5ccc([nH]5)c(-c5ccccc5)c5nc(c(-c6ccccc6)c6ccc3[nH]6)C=C5)C=C4)cc2)C1
REMARK SMILES IDX 25 1 24 2 23 3 22 4 20 5 21 6 19 8 16 9 17 10 80 11 18 12
REMARK SMILES IDX 15 15 1 16 2 17 3 19 4 20 5 21 13 22 6 23 12 24 14 25 7 26
REMARK SMILES IDX 11 27 8 28 10 29 9 30 26 31 27 32 28 33 29 34 30 35 31 37
REMARK SMILES IDX 32 38 33 39 79 40 34 41 78 42 35 43 36 44 37 45 72 46 38 47
REMARK SMILES IDX 77 48 71 49 73 50 39 51 76 52 70 53 69 54 40 56 62 57 47 58
REMARK SMILES IDX 61 59 48 60 51 61 60 62 74 63 49 64 50 65 59 67 75 68 52 69
REMARK SMILES IDX 41 70 42 71 46 72 43 73 45 74 44 75 63 76 64 77 68 78 65 79
REMARK SMILES IDX 67 80 66 81 53 82 54 83 58 84 55 85 57 86 56 87
REMARK H PARENT 22 7 18 13 18 14 15 18 29 36 73 55 51 66
REMARK Flexibility Score: inf
ROOT
ATOM      1  C   UNL     1       4.569  -8.561  -3.219  1.00  0.00     0.002 C 
ENDROOT
BRANCH   1   2
ATOM      2  C   UNL     1       3.537  -7.895  -2.304  1.00  0.00     0.021 C 
BRANCH   2   3
ATOM      3  C   UNL     1       3.834  -6.438  -1.956  1.00  0.00     0.116 C 
BRANCH   3   4
ATOM      4  N   UNL     1       3.679  -5.565  -3.103  1.00  0.00    -0.351 N 
ATOM      5  C   UNL     1       2.861  -4.518  -3.376  1.00  0.00     0.278 C 
ATOM      6  O   UNL     1       3.015  -4.002  -4.493  1.00  0.00    -0.268 OA
ATOM      7  H   UNL     1       4.298  -5.777  -3.839  1.00  0.00     0.163 HD
BRANCH   5   8
ATOM      8  C   UNL     1       1.768  -3.958  -2.442  1.00  0.00     0.274 C 
ATOM      9  C   UNL     1       1.874  -2.229  -0.751  1.00  0.00     0.143 C 
ATOM     10  C   UNL     1       2.388  -3.556  -0.220  1.00  0.00     0.286 C 
ATOM     11  C   UNL     1       1.951  -2.439  -2.257  1.00  0.00     0.106 C 
ATOM     12  N   UNL     1       1.718  -4.539  -1.077  1.00  0.00    -0.334 N 
ATOM     13  H   UNL     1       0.751  -4.674  -0.780  1.00  0.00     0.347 HD
ATOM     14  H   UNL     1       2.167  -5.454  -1.034  1.00  0.00     0.347 HD
BRANCH   9  15
ATOM     15  N   UNL     1       2.615  -1.094  -0.259  1.00  0.00    -0.346 N 
ATOM     16  O   UNL     1       0.931   0.417  -0.561  1.00  0.00    -0.273 OA
ATOM     17  C   UNL     1       2.041   0.146  -0.103  1.00  0.00     0.242 C 
ATOM     18  H   UNL     1       3.565  -1.211  -0.028  1.00  0.00     0.164 HD
BRANCH  17  19
ATOM     19  C   UNL     1       2.955   1.219   0.496  1.00  0.00     0.248 C 
BRANCH  19  20
ATOM     20  N   UNL     1       3.850   0.871   1.605  1.00  0.00    -0.220 N 
ATOM     21  N   UNL     1       4.004  -0.454   1.965  1.00  0.00    -0.177 NA
ATOM     22  C   UNL     1       4.497   1.931   2.252  1.00  0.00     0.275 A 
ATOM     23  C   UNL     1       4.756  -0.734   2.983  1.00  0.00     0.142 A 
ATOM     24  C   UNL     1       5.357   1.586   3.397  1.00  0.00     0.050 A 
ATOM     25  O   UNL     1       4.384   3.108   1.920  1.00  0.00    -0.267 OA
ATOM     26  C   UNL     1       5.480   0.257   3.768  1.00  0.00     0.007 A 
ATOM     27  C   UNL     1       6.046   2.571   4.113  1.00  0.00     0.014 A 
ATOM     28  C   UNL     1       6.282  -0.121   4.846  1.00  0.00     0.010 A 
ATOM     29  C   UNL     1       6.855   2.205   5.191  1.00  0.00     0.001 A 
ATOM     30  C   UNL     1       6.973   0.862   5.557  1.00  0.00     0.001 A 
ENDBRANCH  19  20
ENDBRANCH  17  19
ENDBRANCH   9  15
ENDBRANCH   5   8
ENDBRANCH   3   4
ENDBRANCH   2   3
ENDBRANCH   1   2
BRANCH   1  31
ATOM     31  C   UNL     1       6.024  -8.500  -2.737  1.00  0.00     0.002 C 
BRANCH  31  32
ATOM     32  C   UNL     1       6.266  -8.962  -1.299  1.00  0.00     0.021 C 
BRANCH  32  33
ATOM     33  C   UNL     1       5.811 -10.382  -0.991  1.00  0.00     0.116 C 
BRANCH  33  34
ATOM     34  N   UNL     1       6.556 -11.392  -1.724  1.00  0.00    -0.352 N 
ATOM     35  C   UNL     1       7.102 -12.569  -1.269  1.00  0.00     0.251 C 
ATOM     36  H   UNL     1       6.689 -11.207  -2.682  1.00  0.00     0.163 HD
ATOM     37  O   UNL     1       7.817 -13.245  -2.002  1.00  0.00    -0.269 OA
BRANCH  35  38
ATOM     38  C   UNL     1       6.858 -12.999   0.127  1.00  0.00     0.039 A 
ATOM     39  C   UNL     1       5.585 -12.908   0.689  1.00  0.00     0.014 A 
ATOM     40  C   UNL     1       7.929 -13.472   0.891  1.00  0.00     0.014 A 
ATOM     41  C   UNL     1       5.419 -13.116   2.054  1.00  0.00     0.010 A 
ATOM     42  C   UNL     1       7.739 -13.771   2.244  1.00  0.00     0.010 A 
ATOM     43  C   UNL     1       6.495 -13.543   2.851  1.00  0.00    -0.014 A 
BRANCH  43  44
ATOM     44  C   UNL     1       6.283 -13.733   4.310  1.00  0.00     0.031 A 
ATOM     45  C   UNL     1       6.995 -12.869   5.316  1.00  0.00     0.074 A 
ATOM     46  C   UNL     1       5.378 -14.641   4.727  1.00  0.00     0.049 A 
ATOM     47  N   UNL     1       6.856 -12.841   6.619  1.00  0.00    -0.248 NA
ATOM     48  C   UNL     1       7.989 -11.913   4.803  1.00  0.00     0.031 C 
ATOM     49  C   UNL     1       4.617 -15.532   3.849  1.00  0.00     0.029 A 
ATOM     50  N   UNL     1       4.915 -14.937   5.985  1.00  0.00    -0.354 N 
ATOM     51  C   UNL     1       7.748 -11.879   7.077  1.00  0.00     0.074 A 
ATOM     52  C   UNL     1       8.451 -11.370   5.921  1.00  0.00     0.031 C 
ATOM     53  C   UNL     1       3.733 -16.221   4.584  1.00  0.00     0.029 A 
ATOM     54  C   UNL     1       3.908 -15.872   5.991  1.00  0.00     0.049 A 
ATOM     55  H   UNL     1       5.269 -14.520   6.803  1.00  0.00     0.167 HD
ATOM     56  C   UNL     1       7.950 -11.447   8.345  1.00  0.00     0.031 A 
ATOM     57  C   UNL     1       3.199 -16.396   7.009  1.00  0.00     0.031 A 
ATOM     58  C   UNL     1       7.248 -11.952   9.496  1.00  0.00     0.049 A 
ATOM     59  C   UNL     1       3.466 -15.924   8.409  1.00  0.00     0.074 A 
ATOM     60  C   UNL     1       7.386 -11.570  10.820  1.00  0.00     0.029 A 
ATOM     61  N   UNL     1       6.279 -12.942   9.463  1.00  0.00    -0.354 N 
ATOM     62  N   UNL     1       4.303 -15.003   8.820  1.00  0.00    -0.248 NA
ATOM     63  C   UNL     1       2.689 -16.557   9.484  1.00  0.00     0.031 C 
ATOM     64  C   UNL     1       6.541 -12.369  11.594  1.00  0.00     0.029 A 
ATOM     65  C   UNL     1       5.824 -13.197  10.746  1.00  0.00     0.049 A 
ATOM     66  H   UNL     1       5.961 -13.396   8.649  1.00  0.00     0.167 HD
ATOM     67  C   UNL     1       4.145 -14.935  10.198  1.00  0.00     0.074 A 
ATOM     68  C   UNL     1       3.115 -15.891  10.550  1.00  0.00     0.031 C 
ATOM     69  C   UNL     1       4.800 -14.151  11.088  1.00  0.00     0.031 A 
BRANCH  56  70
ATOM     70  C   UNL     1       8.979 -10.371   8.569  1.00  0.00    -0.014 A 
ATOM     71  C   UNL     1      10.156 -10.665   9.276  1.00  0.00     0.009 A 
ATOM     72  C   UNL     1       8.745  -9.047   8.164  1.00  0.00     0.009 A 
ATOM     73  C   UNL     1      11.070  -9.655   9.584  1.00  0.00     0.001 A 
ATOM     74  C   UNL     1       9.676  -8.045   8.447  1.00  0.00     0.001 A 
ATOM     75  C   UNL     1      10.832  -8.348   9.165  1.00  0.00     0.000 A 
ENDBRANCH  56  70
BRANCH  57  76
ATOM     76  C   UNL     1       2.153 -17.412   6.717  1.00  0.00    -0.014 A 
ATOM     77  C   UNL     1       2.511 -18.680   6.227  1.00  0.00     0.009 A 
ATOM     78  C   UNL     1       0.793 -17.102   6.862  1.00  0.00     0.009 A 
ATOM     79  C   UNL     1       1.530 -19.602   5.857  1.00  0.00     0.001 A 
ATOM     80  C   UNL     1      -0.186 -18.040   6.523  1.00  0.00     0.001 A 
ATOM     81  C   UNL     1       0.182 -19.282   6.009  1.00  0.00     0.000 A 
ENDBRANCH  57  76
BRANCH  69  82
ATOM     82  C   UNL     1       4.423 -14.269  12.539  1.00  0.00    -0.014 A 
ATOM     83  C   UNL     1       3.787 -13.194  13.182  1.00  0.00     0.009 A 
ATOM     84  C   UNL     1       4.787 -15.393  13.295  1.00  0.00     0.009 A 
ATOM     85  C   UNL     1       3.535 -13.236  14.554  1.00  0.00     0.001 A 
ATOM     86  C   UNL     1       4.506 -15.446  14.662  1.00  0.00     0.001 A 
ATOM     87  C   UNL     1       3.890 -14.364  15.292  1.00  0.00     0.000 A 
ENDBRANCH  69  82
ENDBRANCH  43  44
ENDBRANCH  35  38
ENDBRANCH  33  34
ENDBRANCH  32  33
ENDBRANCH  31  32
ENDBRANCH   1  31
TORSDOF 16
