REMARK SMILES CCn1c([C@@H]2CCC[N@@H+](Cc3ccc(C(=O)NCCCCCCNC(=O)c4ccc(-c5c6nc(c(-c7ccccc7)c7ccc([nH]7)c(-c7ccccc7)c7nc(c(-c8ccccc8)c8ccc5[nH]8)C=C7)C=C6)cc4)cc3)C2)nn(C)c1=O
REMARK SMILES IDX 19 1 18 2 17 3 15 4 16 5 14 7 11 8 12 9 76 10 13 11 75 12
REMARK SMILES IDX 10 13 9 14 5 15 6 16 77 17 7 18 8 19 4 21 3 22 81 23 78 24
REMARK SMILES IDX 79 25 82 26 80 27 2 28 1 29 20 30 21 31 22 32 23 33 24 34
REMARK SMILES IDX 25 35 26 37 27 38 28 39 74 40 29 41 73 42 30 43 31 44 32 45
REMARK SMILES IDX 67 46 33 47 72 48 66 49 68 50 34 51 71 52 65 53 64 54 35 56
REMARK SMILES IDX 57 57 42 58 56 59 43 60 46 61 55 62 69 63 44 64 45 65 54 67
REMARK SMILES IDX 70 68 47 69 36 70 37 71 41 72 38 73 40 74 39 75 58 76 59 77
REMARK SMILES IDX 63 78 60 79 62 80 61 81 48 82 49 83 53 84 50 85 52 86 51 87
REMARK H PARENT 17 6 9 20 24 36 68 55 46 66
REMARK Flexibility Score: inf
ROOT
ATOM      1  C   UNL     1      -5.450  10.104   2.087  1.00  0.00     0.021 C 
ENDROOT
BRANCH   1   2
ATOM      2  C   UNL     1      -4.595   9.388   3.135  1.00  0.00     0.116 C 
BRANCH   2   3
ATOM      3  N   UNL     1      -5.442   8.686   4.080  1.00  0.00    -0.352 N 
ATOM      4  C   UNL     1      -5.714   7.354   4.257  1.00  0.00     0.251 C 
ATOM      5  O   UNL     1      -6.466   7.032   5.176  1.00  0.00    -0.269 OA
ATOM      6  H   UNL     1      -5.910   9.277   4.714  1.00  0.00     0.163 HD
BRANCH   4   7
ATOM      7  C   UNL     1      -5.074   6.291   3.438  1.00  0.00     0.039 A 
ATOM      8  C   UNL     1      -3.660   4.256   2.091  1.00  0.00     0.006 A 
ATOM      9  C   UNL     1      -4.066   4.081   3.420  1.00  0.00     0.010 A 
ATOM     10  C   UNL     1      -4.066   5.415   1.415  1.00  0.00     0.010 A 
ATOM     11  C   UNL     1      -4.767   5.088   4.086  1.00  0.00     0.014 A 
ATOM     12  C   UNL     1      -4.780   6.418   2.079  1.00  0.00     0.014 A 
BRANCH   8  13
ATOM     13  C   UNL     1      -2.796   3.210   1.419  1.00  0.00     0.299 C 
BRANCH  13  14
ATOM     14  N   UNL     1      -1.358   3.520   1.294  1.00  0.00    -0.331 N 
ATOM     15  C   UNL     1       0.416   4.686  -0.012  1.00  0.00     0.113 C 
ATOM     16  C   UNL     1       1.240   4.875   1.262  1.00  0.00     0.023 C 
ATOM     17  C   UNL     1      -1.075   4.519   0.267  1.00  0.00     0.274 C 
ATOM     18  C   UNL     1       0.821   3.988   2.429  1.00  0.00     0.062 C 
ATOM     19  C   UNL     1      -0.699   3.824   2.568  1.00  0.00     0.262 C 
ATOM     20  H   UNL     1      -0.935   2.649   0.974  1.00  0.00     0.348 HD
BRANCH  15  21
ATOM     21  C   UNL     1       0.985   3.724  -1.056  1.00  0.00     0.142 A 
ATOM     22  N   UNL     1       1.014   2.374  -1.019  1.00  0.00    -0.279 N 
ATOM     23  C   UNL     1       1.556   1.983  -2.228  1.00  0.00     0.345 A 
ATOM     24  N   UNL     1       1.495   4.239  -2.146  1.00  0.00    -0.155 NA
ATOM     25  N   UNL     1       1.868   3.162  -2.891  1.00  0.00    -0.216 N 
ATOM     26  O   UNL     1       1.704   0.854  -2.665  1.00  0.00    -0.246 OA
ATOM     27  C   UNL     1       2.380   3.277  -4.227  1.00  0.00     0.179 C 
BRANCH  22  28
ATOM     28  C   UNL     1       0.419   1.444  -0.071  1.00  0.00     0.125 C 
ATOM     29  C   UNL     1       0.968   0.025  -0.056  1.00  0.00     0.028 C 
ENDBRANCH  22  28
ENDBRANCH  15  21
ENDBRANCH  13  14
ENDBRANCH   8  13
ENDBRANCH   4   7
ENDBRANCH   2   3
ENDBRANCH   1   2
BRANCH   1  30
ATOM     30  C   UNL     1      -6.113  11.388   2.604  1.00  0.00     0.002 C 
BRANCH  30  31
ATOM     31  C   UNL     1      -5.153  12.464   3.137  1.00  0.00     0.002 C 
BRANCH  31  32
ATOM     32  C   UNL     1      -3.992  12.858   2.212  1.00  0.00     0.021 C 
BRANCH  32  33
ATOM     33  C   UNL     1      -4.439  13.549   0.933  1.00  0.00     0.116 C 
BRANCH  33  34
ATOM     34  N   UNL     1      -5.025  14.864   1.187  1.00  0.00    -0.352 N 
ATOM     35  C   UNL     1      -5.592  15.743   0.283  1.00  0.00     0.251 C 
ATOM     36  H   UNL     1      -5.015  15.162   2.125  1.00  0.00     0.163 HD
ATOM     37  O   UNL     1      -5.695  16.931   0.540  1.00  0.00    -0.269 OA
BRANCH  35  38
ATOM     38  C   UNL     1      -6.078  15.212  -1.003  1.00  0.00     0.039 A 
ATOM     39  C   UNL     1      -5.912  15.923  -2.194  1.00  0.00     0.014 A 
ATOM     40  C   UNL     1      -6.695  13.964  -1.000  1.00  0.00     0.014 A 
ATOM     41  C   UNL     1      -6.303  15.322  -3.389  1.00  0.00     0.010 A 
ATOM     42  C   UNL     1      -6.914  13.307  -2.182  1.00  0.00     0.010 A 
ATOM     43  C   UNL     1      -6.781  14.000  -3.377  1.00  0.00    -0.014 A 
BRANCH  43  44
ATOM     44  C   UNL     1      -7.055  13.288  -4.618  1.00  0.00     0.031 A 
ATOM     45  C   UNL     1      -5.934  13.300  -5.592  1.00  0.00     0.074 A 
ATOM     46  C   UNL     1      -8.154  12.530  -4.826  1.00  0.00     0.049 A 
ATOM     47  N   UNL     1      -5.883  13.963  -6.697  1.00  0.00    -0.248 NA
ATOM     48  C   UNL     1      -4.678  12.619  -5.242  1.00  0.00     0.031 C 
ATOM     49  C   UNL     1      -9.216  12.169  -3.879  1.00  0.00     0.029 A 
ATOM     50  N   UNL     1      -8.502  11.831  -5.939  1.00  0.00    -0.354 N 
ATOM     51  C   UNL     1      -4.666  13.641  -7.286  1.00  0.00     0.074 A 
ATOM     52  C   UNL     1      -3.904  12.942  -6.282  1.00  0.00     0.031 C 
ATOM     53  C   UNL     1      -9.948  11.148  -4.382  1.00  0.00     0.029 A 
ATOM     54  C   UNL     1      -9.530  10.915  -5.751  1.00  0.00     0.049 A 
ATOM     55  H   UNL     1      -8.062  11.964  -6.810  1.00  0.00     0.167 HD
ATOM     56  C   UNL     1      -4.481  13.778  -8.627  1.00  0.00     0.031 A 
ATOM     57  C   UNL     1     -10.003  10.029  -6.661  1.00  0.00     0.031 A 
ATOM     58  C   UNL     1      -5.551  14.529  -9.234  1.00  0.00     0.049 A 
ATOM     59  C   UNL     1      -9.620  10.533  -7.997  1.00  0.00     0.074 A 
ATOM     60  C   UNL     1      -6.032  15.816  -9.119  1.00  0.00     0.029 A 
ATOM     61  N   UNL     1      -6.557  13.791  -9.812  1.00  0.00    -0.354 N 
ATOM     62  N   UNL     1     -10.116  11.617  -8.517  1.00  0.00    -0.248 NA
ATOM     63  C   UNL     1      -8.368  10.076  -8.576  1.00  0.00     0.031 C 
ATOM     64  C   UNL     1      -7.450  15.687  -9.207  1.00  0.00     0.029 A 
ATOM     65  C   UNL     1      -7.756  14.345  -9.446  1.00  0.00     0.049 A 
ATOM     66  H   UNL     1      -6.437  13.002 -10.388  1.00  0.00     0.167 HD
ATOM     67  C   UNL     1      -9.039  12.225  -9.144  1.00  0.00     0.074 A 
ATOM     68  C   UNL     1      -8.027  11.176  -9.255  1.00  0.00     0.031 C 
ATOM     69  C   UNL     1      -8.972  13.585  -9.251  1.00  0.00     0.031 A 
BRANCH  56  70
ATOM     70  C   UNL     1      -3.585  12.892  -9.451  1.00  0.00    -0.014 A 
ATOM     71  C   UNL     1      -3.423  13.185 -10.818  1.00  0.00     0.009 A 
ATOM     72  C   UNL     1      -3.140  11.631  -9.014  1.00  0.00     0.009 A 
ATOM     73  C   UNL     1      -2.910  12.237 -11.710  1.00  0.00     0.001 A 
ATOM     74  C   UNL     1      -2.591  10.696  -9.896  1.00  0.00     0.001 A 
ATOM     75  C   UNL     1      -2.503  10.989 -11.250  1.00  0.00     0.000 A 
ENDBRANCH  56  70
BRANCH  57  76
ATOM     76  C   UNL     1     -10.559   8.674  -6.473  1.00  0.00    -0.014 A 
ATOM     77  C   UNL     1     -11.311   8.062  -7.489  1.00  0.00     0.009 A 
ATOM     78  C   UNL     1     -10.088   7.863  -5.425  1.00  0.00     0.009 A 
ATOM     79  C   UNL     1     -11.534   6.679  -7.487  1.00  0.00     0.001 A 
ATOM     80  C   UNL     1     -10.311   6.481  -5.424  1.00  0.00     0.001 A 
ATOM     81  C   UNL     1     -11.018   5.886  -6.465  1.00  0.00     0.000 A 
ENDBRANCH  57  76
BRANCH  69  82
ATOM     82  C   UNL     1     -10.215  14.375  -8.912  1.00  0.00    -0.014 A 
ATOM     83  C   UNL     1     -10.814  14.374  -7.638  1.00  0.00     0.009 A 
ATOM     84  C   UNL     1     -10.720  15.252  -9.882  1.00  0.00     0.009 A 
ATOM     85  C   UNL     1     -11.907  15.204  -7.360  1.00  0.00     0.001 A 
ATOM     86  C   UNL     1     -11.796  16.096  -9.597  1.00  0.00     0.001 A 
ATOM     87  C   UNL     1     -12.394  16.067  -8.339  1.00  0.00     0.000 A 
ENDBRANCH  69  82
ENDBRANCH  43  44
ENDBRANCH  35  38
ENDBRANCH  33  34
ENDBRANCH  32  33
ENDBRANCH  31  32
ENDBRANCH  30  31
ENDBRANCH   1  30
TORSDOF 17
