REMARK SMILES CC[C@@H](C)[C@@H](C(=O)NCCCCCCNC(=O)c1ccc(-c2c3nc(c(-c4ccccc4)c4ccc([nH]4)c(-c4ccccc4)c4nc(c(-c5ccccc5)c5ccc2[nH]5)C=C4)C=C3)cc1)S(=O)(=O)c1ccc(OC)cc1
REMARK SMILES IDX 11 1 10 2 9 3 8 4 6 5 7 6 5 8 3 9 4 10 2 11 1 12 66 13 67 14
REMARK SMILES IDX 68 15 69 16 70 17 76 18 71 19 75 20 72 21 73 22 74 23 12 24
REMARK SMILES IDX 13 25 14 26 15 27 16 28 17 30 18 31 19 32 65 33 20 34 64 35
REMARK SMILES IDX 21 36 22 37 23 38 58 39 24 40 63 41 57 42 59 43 25 44 62 45
REMARK SMILES IDX 56 46 55 47 26 49 48 50 33 51 47 52 34 53 37 54 46 55 60 56
REMARK SMILES IDX 35 57 36 58 45 60 61 61 38 62 27 63 28 64 32 65 29 66 31 67
REMARK SMILES IDX 30 68 49 69 50 70 54 71 51 72 53 73 52 74 39 75 40 76 44 77
REMARK SMILES IDX 41 78 43 79 42 80
REMARK H PARENT 8 7 15 29 59 48 37 59
REMARK Flexibility Score: inf
ROOT
ATOM      1  C   UNL     1       0.807   1.577   4.560  1.00  0.00     0.002 C 
ENDROOT
BRANCH   1   2
ATOM      2  C   UNL     1       0.549   1.444   3.060  1.00  0.00     0.021 C 
BRANCH   2   3
ATOM      3  C   UNL     1      -0.192   2.630   2.415  1.00  0.00     0.116 C 
BRANCH   3   4
ATOM      4  N   UNL     1       0.775   3.640   2.033  1.00  0.00    -0.355 N 
ATOM      5  C   UNL     1       1.429   3.849   0.854  1.00  0.00     0.239 C 
ATOM      6  O   UNL     1       2.555   4.334   0.974  1.00  0.00    -0.274 OA
ATOM      7  H   UNL     1       0.998   4.284   2.744  1.00  0.00     0.163 HD
BRANCH   5   8
ATOM      8  C   UNL     1       0.803   3.537  -0.515  1.00  0.00     0.205 C 
BRANCH   8   9
ATOM      9  C   UNL     1       1.170   2.142  -1.134  1.00  0.00     0.014 C 
ATOM     10  C   UNL     1       0.646   1.952  -2.566  1.00  0.00     0.009 C 
BRANCH   9  11
ATOM     11  C   UNL     1       0.660   0.960  -0.292  1.00  0.00     0.002 C 
ATOM     12  C   UNL     1       1.206  -0.410  -0.675  1.00  0.00     0.004 C 
ENDBRANCH   9  11
ENDBRANCH   8   9
BRANCH   8  13
ATOM     13  S   UNL     1       1.240   4.978  -1.565  1.00  0.00     0.190 S 
ATOM     14  O   UNL     1       0.789   4.763  -2.927  1.00  0.00    -0.223 OA
ATOM     15  O   UNL     1       0.757   6.168  -0.878  1.00  0.00    -0.223 OA
BRANCH  13  16
ATOM     16  C   UNL     1       3.026   5.115  -1.661  1.00  0.00     0.068 A 
ATOM     17  C   UNL     1       3.809   4.015  -2.011  1.00  0.00     0.024 A 
ATOM     18  C   UNL     1       3.646   6.319  -1.308  1.00  0.00     0.024 A 
ATOM     19  C   UNL     1       5.196   4.077  -1.871  1.00  0.00     0.048 A 
ATOM     20  C   UNL     1       5.044   6.392  -1.228  1.00  0.00     0.048 A 
ATOM     21  C   UNL     1       5.821   5.260  -1.479  1.00  0.00     0.118 A 
BRANCH  21  22
ATOM     22  O   UNL     1       7.180   5.167  -1.362  1.00  0.00    -0.497 OA
ATOM     23  C   UNL     1       7.901   6.390  -1.323  1.00  0.00     0.278 C 
ENDBRANCH  21  22
ENDBRANCH  13  16
ENDBRANCH   8  13
ENDBRANCH   5   8
ENDBRANCH   3   4
ENDBRANCH   2   3
ENDBRANCH   1   2
BRANCH   1  24
ATOM     24  C   UNL     1      -0.445   1.499   5.432  1.00  0.00     0.002 C 
BRANCH  24  25
ATOM     25  C   UNL     1      -1.325   0.271   5.192  1.00  0.00     0.021 C 
BRANCH  25  26
ATOM     26  C   UNL     1      -0.602  -1.067   5.315  1.00  0.00     0.116 C 
BRANCH  26  27
ATOM     27  N   UNL     1      -0.076  -1.278   6.655  1.00  0.00    -0.352 N 
ATOM     28  C   UNL     1      -0.415  -2.237   7.573  1.00  0.00     0.251 C 
ATOM     29  H   UNL     1       0.619  -0.642   6.942  1.00  0.00     0.163 HD
ATOM     30  O   UNL     1      -0.056  -2.134   8.746  1.00  0.00    -0.269 OA
BRANCH  28  31
ATOM     31  C   UNL     1      -1.220  -3.398   7.149  1.00  0.00     0.039 A 
ATOM     32  C   UNL     1      -2.308  -3.799   7.929  1.00  0.00     0.014 A 
ATOM     33  C   UNL     1      -0.891  -4.093   5.982  1.00  0.00     0.014 A 
ATOM     34  C   UNL     1      -3.098  -4.871   7.510  1.00  0.00     0.010 A 
ATOM     35  C   UNL     1      -1.723  -5.110   5.528  1.00  0.00     0.010 A 
ATOM     36  C   UNL     1      -2.827  -5.518   6.294  1.00  0.00    -0.014 A 
BRANCH  36  37
ATOM     37  C   UNL     1      -3.659  -6.647   5.810  1.00  0.00     0.031 A 
ATOM     38  C   UNL     1      -3.045  -8.011   5.653  1.00  0.00     0.074 A 
ATOM     39  C   UNL     1      -4.937  -6.434   5.443  1.00  0.00     0.049 A 
ATOM     40  N   UNL     1      -3.566  -9.100   5.147  1.00  0.00    -0.248 NA
ATOM     41  C   UNL     1      -1.649  -8.163   6.098  1.00  0.00     0.031 C 
ATOM     42  C   UNL     1      -5.643  -5.154   5.524  1.00  0.00     0.029 A 
ATOM     43  N   UNL     1      -5.868  -7.293   4.913  1.00  0.00    -0.354 N 
ATOM     44  C   UNL     1      -2.557 -10.054   5.192  1.00  0.00     0.074 A 
ATOM     45  C   UNL     1      -1.380  -9.405   5.725  1.00  0.00     0.031 C 
ATOM     46  C   UNL     1      -6.900  -5.316   5.081  1.00  0.00     0.029 A 
ATOM     47  C   UNL     1      -7.075  -6.697   4.640  1.00  0.00     0.049 A 
ATOM     48  H   UNL     1      -5.687  -8.246   4.745  1.00  0.00     0.167 HD
ATOM     49  C   UNL     1      -2.610 -11.360   4.838  1.00  0.00     0.031 A 
ATOM     50  C   UNL     1      -8.192  -7.202   4.084  1.00  0.00     0.031 A 
ATOM     51  C   UNL     1      -3.784 -12.007   4.319  1.00  0.00     0.049 A 
ATOM     52  C   UNL     1      -8.218  -8.650   3.674  1.00  0.00     0.074 A 
ATOM     53  C   UNL     1      -3.955 -13.337   3.976  1.00  0.00     0.029 A 
ATOM     54  N   UNL     1      -4.989 -11.369   4.067  1.00  0.00    -0.354 N 
ATOM     55  N   UNL     1      -7.274  -9.554   3.772  1.00  0.00    -0.248 NA
ATOM     56  C   UNL     1      -9.469  -9.149   3.085  1.00  0.00     0.031 C 
ATOM     57  C   UNL     1      -5.247 -13.492   3.464  1.00  0.00     0.029 A 
ATOM     58  C   UNL     1      -5.902 -12.274   3.553  1.00  0.00     0.049 A 
ATOM     59  H   UNL     1      -5.169 -10.415   4.231  1.00  0.00     0.167 HD
ATOM     60  C   UNL     1      -7.829 -10.735   3.297  1.00  0.00     0.074 A 
ATOM     61  C   UNL     1      -9.193 -10.434   2.916  1.00  0.00     0.031 C 
ATOM     62  C   UNL     1      -7.260 -11.961   3.192  1.00  0.00     0.031 A 
BRANCH  49  63
ATOM     63  C   UNL     1      -1.353 -12.172   4.990  1.00  0.00    -0.014 A 
ATOM     64  C   UNL     1      -0.836 -12.488   6.258  1.00  0.00     0.009 A 
ATOM     65  C   UNL     1      -0.691 -12.655   3.850  1.00  0.00     0.009 A 
ATOM     66  C   UNL     1       0.338 -13.235   6.378  1.00  0.00     0.001 A 
ATOM     67  C   UNL     1       0.464 -13.429   3.974  1.00  0.00     0.001 A 
ATOM     68  C   UNL     1       0.983 -13.709   5.237  1.00  0.00     0.000 A 
ENDBRANCH  49  63
BRANCH  50  69
ATOM     69  C   UNL     1      -9.387  -6.338   3.890  1.00  0.00    -0.014 A 
ATOM     70  C   UNL     1     -10.548  -6.547   4.651  1.00  0.00     0.009 A 
ATOM     71  C   UNL     1      -9.378  -5.306   2.938  1.00  0.00     0.009 A 
ATOM     72  C   UNL     1     -11.684  -5.762   4.440  1.00  0.00     0.001 A 
ATOM     73  C   UNL     1     -10.504  -4.502   2.753  1.00  0.00     0.001 A 
ATOM     74  C   UNL     1     -11.660  -4.737   3.495  1.00  0.00     0.000 A 
ENDBRANCH  50  69
BRANCH  62  75
ATOM     75  C   UNL     1      -8.125 -13.088   2.701  1.00  0.00    -0.014 A 
ATOM     76  C   UNL     1      -8.517 -13.183   1.357  1.00  0.00     0.009 A 
ATOM     77  C   UNL     1      -8.498 -14.107   3.593  1.00  0.00     0.009 A 
ATOM     78  C   UNL     1      -9.290 -14.264   0.924  1.00  0.00     0.001 A 
ATOM     79  C   UNL     1      -9.243 -15.200   3.151  1.00  0.00     0.001 A 
ATOM     80  C   UNL     1      -9.644 -15.274   1.818  1.00  0.00     0.000 A 
ENDBRANCH  62  75
ENDBRANCH  36  37
ENDBRANCH  28  31
ENDBRANCH  26  27
ENDBRANCH  25  26
ENDBRANCH  24  25
ENDBRANCH   1  24
TORSDOF 18
