REMARK SMILES CC(=O)Nc1cnc(N2CC=C(c3ccccc3C)CC2)c(C(=O)NCCCCCCNC(=O)c2ccc(-c3c4nc(c(-c5ccccc5)c5ccc([nH]5)c(-c5ccccc5)c5nc(c(-c6ccccc6)c6ccc3[nH]6)C=C5)C=C4)cc2)c1
REMARK SMILES IDX 28 1 27 2 26 3 25 4 23 5 24 6 22 8 5 9 6 10 83 11 7 12 8 13
REMARK SMILES IDX 4 14 1 15 2 16 3 17 9 19 10 20 21 21 11 22 20 23 12 24 13 25
REMARK SMILES IDX 14 26 18 27 15 28 17 29 19 30 16 31 29 32 30 33 31 34 32 35
REMARK SMILES IDX 33 36 34 38 35 39 36 40 82 41 37 42 81 43 38 44 39 45 40 46
REMARK SMILES IDX 75 47 41 48 80 49 74 50 76 51 42 52 79 53 73 54 72 55 43 57
REMARK SMILES IDX 65 58 50 59 64 60 51 61 54 62 63 63 77 64 52 65 53 66 62 68
REMARK SMILES IDX 78 69 55 70 44 71 45 72 49 73 46 74 48 75 47 76 66 77 67 78
REMARK SMILES IDX 71 79 68 80 70 81 69 82 56 83 57 84 61 85 58 86 60 87 59 88
REMARK H PARENT 25 7 4 18 32 37 76 56 54 67
REMARK Flexibility Score: inf
ROOT
ATOM      1  C   UNL     1       6.780  -0.369   1.353  1.00  0.00     0.002 C 
ENDROOT
BRANCH   1   2
ATOM      2  C   UNL     1       5.558  -0.802   0.530  1.00  0.00     0.021 C 
BRANCH   2   3
ATOM      3  C   UNL     1       4.665   0.349   0.073  1.00  0.00     0.116 C 
BRANCH   3   4
ATOM      4  N   UNL     1       5.177   1.006  -1.106  1.00  0.00    -0.352 N 
ATOM      5  C   UNL     1       4.740   1.282  -2.376  1.00  0.00     0.255 C 
ATOM      6  O   UNL     1       5.399   2.186  -2.894  1.00  0.00    -0.269 OA
ATOM      7  H   UNL     1       6.088   1.347  -0.958  1.00  0.00     0.163 HD
BRANCH   5   8
ATOM      8  C   UNL     1       3.581   0.644  -3.098  1.00  0.00     0.084 A 
ATOM      9  C   UNL     1       1.532  -0.693  -3.058  1.00  0.00     0.060 A 
ATOM     10  C   UNL     1       1.298  -0.295  -4.354  1.00  0.00     0.139 A 
ATOM     11  C   UNL     1       2.722  -0.271  -2.468  1.00  0.00     0.045 A 
ATOM     12  N   UNL     1       2.121   0.529  -5.027  1.00  0.00    -0.236 NA
ATOM     13  C   UNL     1       3.255   0.999  -4.427  1.00  0.00     0.141 A 
BRANCH   9  14
ATOM     14  N   UNL     1       0.602  -1.514  -2.401  1.00  0.00    -0.325 N 
ATOM     15  C   UNL     1       0.596  -0.345  -0.206  1.00  0.00     0.114 C 
ATOM     16  C   UNL     1       0.237  -1.519  -1.081  1.00  0.00     0.221 C 
ATOM     17  O   UNL     1      -0.442  -2.448  -0.642  1.00  0.00    -0.275 OA
ATOM     18  H   UNL     1       0.149  -2.179  -2.969  1.00  0.00     0.169 HD
ENDBRANCH   9  14
BRANCH  13  19
ATOM     19  N   UNL     1       4.008   1.779  -5.266  1.00  0.00    -0.352 N 
ATOM     20  C   UNL     1       3.406   2.997  -5.780  1.00  0.00     0.146 C 
ATOM     21  C   UNL     1       5.415   1.521  -5.543  1.00  0.00     0.123 C 
ATOM     22  C   UNL     1       4.007   3.380  -7.104  1.00  0.00    -0.002 C 
ATOM     23  C   UNL     1       5.647   1.516  -7.058  1.00  0.00     0.057 C 
ATOM     24  C   UNL     1       5.012   2.719  -7.710  1.00  0.00    -0.041 C 
BRANCH  24  25
ATOM     25  C   UNL     1       5.527   3.179  -9.014  1.00  0.00    -0.020 A 
ATOM     26  C   UNL     1       6.052   4.482  -9.092  1.00  0.00     0.008 A 
ATOM     27  C   UNL     1       5.502   2.380 -10.175  1.00  0.00    -0.044 A 
ATOM     28  C   UNL     1       6.543   4.990 -10.294  1.00  0.00     0.001 A 
ATOM     29  C   UNL     1       6.016   2.902 -11.375  1.00  0.00     0.004 A 
ATOM     30  C   UNL     1       4.960   0.977 -10.181  1.00  0.00     0.045 C 
ATOM     31  C   UNL     1       6.526   4.199 -11.436  1.00  0.00     0.000 A 
ENDBRANCH  24  25
ENDBRANCH  13  19
ENDBRANCH   5   8
ENDBRANCH   3   4
ENDBRANCH   2   3
ENDBRANCH   1   2
BRANCH   1  32
ATOM     32  C   UNL     1       6.509   0.570   2.545  1.00  0.00     0.002 C 
BRANCH  32  33
ATOM     33  C   UNL     1       5.295   0.235   3.419  1.00  0.00     0.021 C 
BRANCH  33  34
ATOM     34  C   UNL     1       5.430  -1.065   4.193  1.00  0.00     0.116 C 
BRANCH  34  35
ATOM     35  N   UNL     1       5.840  -0.891   5.579  1.00  0.00    -0.352 N 
ATOM     36  C   UNL     1       6.265  -1.846   6.486  1.00  0.00     0.251 C 
ATOM     37  H   UNL     1       5.811   0.033   5.917  1.00  0.00     0.163 HD
ATOM     38  O   UNL     1       6.552  -1.528   7.630  1.00  0.00    -0.269 OA
BRANCH  36  39
ATOM     39  C   UNL     1       6.497  -3.234   6.017  1.00  0.00     0.039 A 
ATOM     40  C   UNL     1       7.714  -3.836   6.353  1.00  0.00     0.014 A 
ATOM     41  C   UNL     1       5.639  -3.845   5.104  1.00  0.00     0.014 A 
ATOM     42  C   UNL     1       8.174  -4.910   5.596  1.00  0.00     0.010 A 
ATOM     43  C   UNL     1       6.132  -4.847   4.290  1.00  0.00     0.010 A 
ATOM     44  C   UNL     1       7.425  -5.330   4.495  1.00  0.00    -0.014 A 
BRANCH  44  45
ATOM     45  C   UNL     1       7.980  -6.185   3.455  1.00  0.00     0.031 A 
ATOM     46  C   UNL     1       7.718  -7.634   3.468  1.00  0.00     0.074 A 
ATOM     47  C   UNL     1       8.780  -5.664   2.498  1.00  0.00     0.049 A 
ATOM     48  N   UNL     1       8.588  -8.525   3.123  1.00  0.00    -0.248 NA
ATOM     49  C   UNL     1       6.449  -8.193   3.920  1.00  0.00     0.031 C 
ATOM     50  C   UNL     1       9.306  -6.351   1.321  1.00  0.00     0.029 A 
ATOM     51  N   UNL     1       9.482  -4.459   2.530  1.00  0.00    -0.354 N 
ATOM     52  C   UNL     1       7.916  -9.719   3.026  1.00  0.00     0.074 A 
ATOM     53  C   UNL     1       6.618  -9.484   3.619  1.00  0.00     0.031 C 
ATOM     54  C   UNL     1      10.436  -5.734   0.939  1.00  0.00     0.029 A 
ATOM     55  C   UNL     1      10.725  -4.709   1.930  1.00  0.00     0.049 A 
ATOM     56  H   UNL     1       9.168  -3.602   2.899  1.00  0.00     0.167 HD
ATOM     57  C   UNL     1       8.441 -10.750   2.309  1.00  0.00     0.031 A 
ATOM     58  C   UNL     1      11.922  -4.523   2.556  1.00  0.00     0.031 A 
ATOM     59  C   UNL     1       9.720 -10.410   1.699  1.00  0.00     0.049 A 
ATOM     60  C   UNL     1      12.777  -5.770   2.582  1.00  0.00     0.074 A 
ATOM     61  C   UNL     1      10.063  -9.999   0.421  1.00  0.00     0.029 A 
ATOM     62  N   UNL     1      10.827 -10.173   2.502  1.00  0.00    -0.354 N 
ATOM     63  N   UNL     1      12.315  -6.971   2.373  1.00  0.00    -0.248 NA
ATOM     64  C   UNL     1      14.198  -5.772   2.918  1.00  0.00     0.031 C 
ATOM     65  C   UNL     1      11.374  -9.466   0.468  1.00  0.00     0.029 A 
ATOM     66  C   UNL     1      11.832  -9.574   1.768  1.00  0.00     0.049 A 
ATOM     67  H   UNL     1      10.887 -10.399   3.458  1.00  0.00     0.167 HD
ATOM     68  C   UNL     1      13.323  -7.886   2.537  1.00  0.00     0.074 A 
ATOM     69  C   UNL     1      14.485  -7.085   2.872  1.00  0.00     0.031 C 
ATOM     70  C   UNL     1      13.100  -9.225   2.393  1.00  0.00     0.031 A 
BRANCH  57  71
ATOM     71  C   UNL     1       7.605 -11.933   1.904  1.00  0.00    -0.014 A 
ATOM     72  C   UNL     1       7.744 -12.484   0.617  1.00  0.00     0.009 A 
ATOM     73  C   UNL     1       6.629 -12.512   2.733  1.00  0.00     0.009 A 
ATOM     74  C   UNL     1       6.884 -13.481   0.144  1.00  0.00     0.001 A 
ATOM     75  C   UNL     1       5.739 -13.483   2.252  1.00  0.00     0.001 A 
ATOM     76  C   UNL     1       5.859 -13.957   0.951  1.00  0.00     0.000 A 
ENDBRANCH  57  71
BRANCH  58  77
ATOM     77  C   UNL     1      11.902  -3.510   3.645  1.00  0.00    -0.014 A 
ATOM     78  C   UNL     1      11.709  -2.158   3.303  1.00  0.00     0.009 A 
ATOM     79  C   UNL     1      11.713  -3.900   4.978  1.00  0.00     0.009 A 
ATOM     80  C   UNL     1      11.240  -1.241   4.248  1.00  0.00     0.001 A 
ATOM     81  C   UNL     1      11.251  -2.976   5.923  1.00  0.00     0.001 A 
ATOM     82  C   UNL     1      10.985  -1.658   5.552  1.00  0.00     0.000 A 
ENDBRANCH  58  77
BRANCH  70  83
ATOM     83  C   UNL     1      14.051 -10.346   2.739  1.00  0.00    -0.014 A 
ATOM     84  C   UNL     1      15.142 -10.227   3.609  1.00  0.00     0.009 A 
ATOM     85  C   UNL     1      13.768 -11.647   2.259  1.00  0.00     0.009 A 
ATOM     86  C   UNL     1      15.928 -11.338   3.950  1.00  0.00     0.001 A 
ATOM     87  C   UNL     1      14.521 -12.764   2.631  1.00  0.00     0.001 A 
ATOM     88  C   UNL     1      15.611 -12.606   3.471  1.00  0.00     0.000 A 
ENDBRANCH  70  83
ENDBRANCH  44  45
ENDBRANCH  36  39
ENDBRANCH  34  35
ENDBRANCH  33  34
ENDBRANCH  32  33
ENDBRANCH   1  32
TORSDOF 16
