REMARK SMILES O=C(NCCCCCCNC(=O)c1nnn(-c2cccc(Br)c2)c1[C@@H]1COc2ccccc2O1)c1ccc(-c2c3nc(c(-c4ccccc4)c4ccc([nH]4)c(-c4ccccc4)c4nc(c(-c5ccccc5)c5ccc2[nH]5)C=C4)C=C3)cc1
REMARK SMILES IDX 6 1 5 2 4 3 3 4 1 5 2 6 35 8 36 9 82 10 37 11 81 12 38 13
REMARK SMILES IDX 39 14 40 15 75 16 41 17 80 18 74 19 76 20 42 21 79 22 73 23
REMARK SMILES IDX 72 24 43 26 65 27 50 28 64 29 51 30 54 31 63 32 77 33 52 34
REMARK SMILES IDX 53 35 62 37 78 38 55 39 44 40 45 41 49 42 46 43 48 44 47 45
REMARK SMILES IDX 66 46 67 47 71 48 68 49 70 50 69 51 56 52 57 53 61 54 58 55
REMARK SMILES IDX 60 56 59 57 7 58 8 59 9 60 10 61 11 62 12 64 13 65 14 66
REMARK SMILES IDX 24 67 15 68 16 69 25 70 26 71 34 72 27 73 33 74 28 75 32 76
REMARK SMILES IDX 29 77 31 78 30 79 17 80 18 81 23 82 19 83 21 84 20 85 22 86
REMARK H PARENT 3 7 76 25 54 36 10 63
REMARK Flexibility Score: inf
ROOT
ATOM      1  C   UNL     1       3.456   1.744  -3.422  1.00  0.00     0.002 C 
ENDROOT
BRANCH   1   2
ATOM      2  C   UNL     1       4.411   0.936  -2.527  1.00  0.00     0.021 C 
BRANCH   2   3
ATOM      3  C   UNL     1       4.404   1.208  -1.018  1.00  0.00     0.116 C 
BRANCH   3   4
ATOM      4  N   UNL     1       3.111   1.267  -0.360  1.00  0.00    -0.352 N 
ATOM      5  O   UNL     1       1.233   0.803   0.719  1.00  0.00    -0.269 OA
ATOM      6  C   UNL     1       2.169   0.361   0.041  1.00  0.00     0.251 C 
ATOM      7  H   UNL     1       2.846   2.191  -0.150  1.00  0.00     0.163 HD
BRANCH   6   8
ATOM      8  C   UNL     1       2.149  -1.079  -0.321  1.00  0.00     0.039 A 
ATOM      9  C   UNL     1       3.260  -1.828  -0.702  1.00  0.00     0.014 A 
ATOM     10  C   UNL     1       0.897  -1.721  -0.243  1.00  0.00     0.014 A 
ATOM     11  C   UNL     1       3.109  -3.161  -1.091  1.00  0.00     0.010 A 
ATOM     12  C   UNL     1       0.747  -3.058  -0.604  1.00  0.00     0.010 A 
ATOM     13  C   UNL     1       1.850  -3.772  -1.066  1.00  0.00    -0.014 A 
BRANCH  13  14
ATOM     14  C   UNL     1       1.754  -5.189  -1.427  1.00  0.00     0.031 A 
ATOM     15  C   UNL     1       2.473  -6.151  -0.539  1.00  0.00     0.074 A 
ATOM     16  C   UNL     1       0.938  -5.669  -2.388  1.00  0.00     0.049 A 
ATOM     17  N   UNL     1       3.360  -7.040  -0.860  1.00  0.00    -0.248 NA
ATOM     18  C   UNL     1       2.180  -6.089   0.901  1.00  0.00     0.031 C 
ATOM     19  C   UNL     1      -0.090  -4.944  -3.138  1.00  0.00     0.029 A 
ATOM     20  N   UNL     1       0.781  -6.960  -2.810  1.00  0.00    -0.354 N 
ATOM     21  C   UNL     1       3.636  -7.753   0.308  1.00  0.00     0.074 A 
ATOM     22  C   UNL     1       2.953  -7.066   1.376  1.00  0.00     0.031 C 
ATOM     23  C   UNL     1      -0.907  -5.835  -3.743  1.00  0.00     0.029 A 
ATOM     24  C   UNL     1      -0.382  -7.174  -3.533  1.00  0.00     0.049 A 
ATOM     25  H   UNL     1       1.434  -7.671  -2.618  1.00  0.00     0.167 HD
ATOM     26  C   UNL     1       4.263  -8.963   0.304  1.00  0.00     0.031 A 
ATOM     27  C   UNL     1      -0.920  -8.368  -3.879  1.00  0.00     0.031 A 
ATOM     28  C   UNL     1       4.968  -9.215  -0.921  1.00  0.00     0.049 A 
ATOM     29  C   UNL     1       0.128  -9.404  -3.771  1.00  0.00     0.074 A 
ATOM     30  C   UNL     1       6.001  -8.607  -1.605  1.00  0.00     0.029 A 
ATOM     31  N   UNL     1       4.420 -10.112  -1.803  1.00  0.00    -0.354 N 
ATOM     32  N   UNL     1       1.148  -9.495  -4.574  1.00  0.00    -0.248 NA
ATOM     33  C   UNL     1       0.240 -10.156  -2.532  1.00  0.00     0.031 C 
ATOM     34  C   UNL     1       5.704  -8.814  -2.985  1.00  0.00     0.029 A 
ATOM     35  C   UNL     1       4.521  -9.553  -3.048  1.00  0.00     0.049 A 
ATOM     36  H   UNL     1       4.029 -10.989  -1.583  1.00  0.00     0.167 HD
ATOM     37  C   UNL     1       2.185  -9.956  -3.778  1.00  0.00     0.074 A 
ATOM     38  C   UNL     1       1.538 -10.467  -2.574  1.00  0.00     0.031 C 
ATOM     39  C   UNL     1       3.482  -9.624  -4.049  1.00  0.00     0.031 A 
BRANCH  26  40
ATOM     40  C   UNL     1       3.943 -10.077   1.275  1.00  0.00    -0.014 A 
ATOM     41  C   UNL     1       4.683 -11.274   1.208  1.00  0.00     0.009 A 
ATOM     42  C   UNL     1       2.767 -10.107   2.046  1.00  0.00     0.009 A 
ATOM     43  C   UNL     1       4.225 -12.453   1.809  1.00  0.00     0.001 A 
ATOM     44  C   UNL     1       2.331 -11.271   2.687  1.00  0.00     0.001 A 
ATOM     45  C   UNL     1       3.044 -12.453   2.542  1.00  0.00     0.000 A 
ENDBRANCH  26  40
BRANCH  27  46
ATOM     46  C   UNL     1      -2.345  -8.709  -4.067  1.00  0.00    -0.014 A 
ATOM     47  C   UNL     1      -2.728  -9.849  -4.789  1.00  0.00     0.009 A 
ATOM     48  C   UNL     1      -3.333  -8.041  -3.321  1.00  0.00     0.009 A 
ATOM     49  C   UNL     1      -4.049 -10.317  -4.743  1.00  0.00     0.001 A 
ATOM     50  C   UNL     1      -4.652  -8.503  -3.280  1.00  0.00     0.001 A 
ATOM     51  C   UNL     1      -5.006  -9.650  -3.981  1.00  0.00     0.000 A 
ENDBRANCH  27  46
BRANCH  39  52
ATOM     52  C   UNL     1       3.786  -8.978  -5.376  1.00  0.00    -0.014 A 
ATOM     53  C   UNL     1       3.222  -7.750  -5.763  1.00  0.00     0.009 A 
ATOM     54  C   UNL     1       4.786  -9.537  -6.186  1.00  0.00     0.009 A 
ATOM     55  C   UNL     1       3.620  -7.119  -6.945  1.00  0.00     0.001 A 
ATOM     56  C   UNL     1       5.200  -8.895  -7.355  1.00  0.00     0.001 A 
ATOM     57  C   UNL     1       4.614  -7.689  -7.737  1.00  0.00     0.000 A 
ENDBRANCH  39  52
ENDBRANCH  13  14
ENDBRANCH   6   8
ENDBRANCH   3   4
ENDBRANCH   2   3
ENDBRANCH   1   2
BRANCH   1  58
ATOM     58  C   UNL     1       3.587   3.268  -3.455  1.00  0.00     0.002 C 
BRANCH  58  59
ATOM     59  C   UNL     1       4.859   3.857  -4.073  1.00  0.00     0.021 C 
BRANCH  59  60
ATOM     60  C   UNL     1       5.241   3.591  -5.569  1.00  0.00     0.116 C 
BRANCH  60  61
ATOM     61  N   UNL     1       6.117   4.629  -6.254  1.00  0.00    -0.351 N 
ATOM     62  C   UNL     1       7.380   5.071  -6.655  1.00  0.00     0.273 C 
ATOM     63  H   UNL     1       5.493   5.324  -6.565  1.00  0.00     0.163 HD
ATOM     64  O   UNL     1       7.193   6.060  -7.393  1.00  0.00    -0.267 OA
BRANCH  62  65
ATOM     65  C   UNL     1       8.842   4.687  -6.444  1.00  0.00     0.178 A 
ATOM     66  N   UNL     1       9.720   5.468  -7.214  1.00  0.00    -0.124 NA
ATOM     67  C   UNL     1       9.687   3.814  -5.712  1.00  0.00     0.122 A 
ATOM     68  N   UNL     1      10.969   5.079  -7.048  1.00  0.00    -0.061 NA
ATOM     69  N   UNL     1      10.985   4.147  -6.092  1.00  0.00    -0.213 N 
BRANCH  67  70
ATOM     70  C   UNL     1       9.509   2.664  -4.735  1.00  0.00     0.262 C 
ATOM     71  C   UNL     1       8.070   2.313  -4.618  1.00  0.00     0.281 C 
ATOM     72  O   UNL     1       9.992   2.990  -3.388  1.00  0.00    -0.477 OA
ATOM     73  O   UNL     1       7.441   3.550  -4.303  1.00  0.00    -0.485 OA
ATOM     74  C   UNL     1       9.183   3.885  -2.737  1.00  0.00     0.162 A 
ATOM     75  C   UNL     1       8.026   4.312  -3.343  1.00  0.00     0.161 A 
ATOM     76  C   UNL     1       9.512   4.429  -1.508  1.00  0.00     0.050 A 
ATOM     77  C   UNL     1       7.427   5.514  -2.996  1.00  0.00     0.050 A 
ATOM     78  C   UNL     1       8.778   5.524  -1.024  1.00  0.00     0.004 A 
ATOM     79  C   UNL     1       7.797   6.125  -1.814  1.00  0.00     0.004 A 
ENDBRANCH  67  70
BRANCH  69  80
ATOM     80  C   UNL     1      12.112   3.312  -5.912  1.00  0.00     0.068 A 
ATOM     81  C   UNL     1      12.434   2.442  -6.962  1.00  0.00     0.028 A 
ATOM     82  C   UNL     1      12.644   3.124  -4.631  1.00  0.00     0.044 A 
ATOM     83  C   UNL     1      13.213   1.318  -6.699  1.00  0.00     0.003 A 
ATOM     84  C   UNL     1      13.427   1.998  -4.387  1.00  0.00     0.020 A 
ATOM     85  C   UNL     1      13.691   1.083  -5.407  1.00  0.00     0.016 A 
ATOM     86  Br  UNL     1      14.047   1.650  -2.635  1.00  0.00    -0.051 Br
ENDBRANCH  69  80
ENDBRANCH  62  65
ENDBRANCH  60  61
ENDBRANCH  59  60
ENDBRANCH  58  59
ENDBRANCH   1  58
TORSDOF 15
