REMARK SMILES O=C(Cn1nc(C(=O)NCCCCCCNC(=O)c2ccc(-c3c4nc(c(-c5ccccc5)c5ccc([nH]5)c(-c5ccccc5)c5nc(c(-c6ccccc6)c6ccc3[nH]6)C=C5)C=C4)cc2)c2ccccc2c1=O)Nc1ccc2c(c1)C(=O)c1ccccc1C2=O
REMARK SMILES IDX 12 1 11 2 10 3 9 4 7 5 8 6 6 8 4 9 5 10 73 11 72 12 74 13
REMARK SMILES IDX 67 14 71 15 68 16 70 17 69 18 3 19 2 20 1 21 75 22 76 24
REMARK SMILES IDX 77 25 81 26 78 27 80 28 79 29 82 30 90 31 83 32 84 33 89 34
REMARK SMILES IDX 91 35 85 36 88 37 86 38 87 39 13 40 14 41 15 42 16 43 17 44
REMARK SMILES IDX 18 46 19 47 20 48 66 49 21 50 65 51 22 52 23 53 24 54 59 55
REMARK SMILES IDX 25 56 64 57 58 58 60 59 26 60 63 61 57 62 56 63 27 65 49 66
REMARK SMILES IDX 34 67 48 68 35 69 38 70 47 71 61 72 36 73 37 74 46 76 62 77
REMARK SMILES IDX 39 78 28 79 29 80 33 81 30 82 32 83 31 84 50 85 51 86 55 87
REMARK SMILES IDX 52 88 54 89 53 90 40 91 41 92 45 93 42 94 44 95 43 96
REMARK H PARENT 9 7 75 23 16 45 60 64 38 75
REMARK Flexibility Score: inf
ROOT
ATOM      1  C   UNL     1       0.442  -6.933   1.380  1.00  0.00     0.002 C 
ENDROOT
BRANCH   1   2
ATOM      2  C   UNL     1       0.811  -5.480   1.071  1.00  0.00     0.021 C 
BRANCH   2   3
ATOM      3  C   UNL     1       2.244  -5.054   1.371  1.00  0.00     0.116 C 
BRANCH   3   4
ATOM      4  N   UNL     1       3.243  -5.773   0.602  1.00  0.00    -0.351 N 
ATOM      5  C   UNL     1       4.364  -5.312  -0.055  1.00  0.00     0.272 C 
ATOM      6  O   UNL     1       5.221  -6.121  -0.397  1.00  0.00    -0.267 OA
ATOM      7  H   UNL     1       3.098  -6.745   0.539  1.00  0.00     0.163 HD
BRANCH   5   8
ATOM      8  C   UNL     1       4.568  -3.818  -0.356  1.00  0.00     0.156 A 
ATOM      9  N   UNL     1       4.207  -1.623   0.281  1.00  0.00    -0.219 N 
ATOM     10  N   UNL     1       4.104  -2.967   0.512  1.00  0.00    -0.163 NA
ATOM     11  C   UNL     1       4.941  -1.068  -0.758  1.00  0.00     0.275 A 
ATOM     12  C   UNL     1       5.536  -2.018  -1.718  1.00  0.00     0.051 A 
ATOM     13  O   UNL     1       5.074   0.143  -0.926  1.00  0.00    -0.267 OA
ATOM     14  C   UNL     1       5.306  -3.386  -1.572  1.00  0.00     0.020 A 
ATOM     15  C   UNL     1       6.293  -1.528  -2.794  1.00  0.00     0.014 A 
ATOM     16  C   UNL     1       5.810  -4.261  -2.544  1.00  0.00     0.011 A 
ATOM     17  C   UNL     1       6.819  -2.410  -3.736  1.00  0.00     0.001 A 
ATOM     18  C   UNL     1       6.569  -3.774  -3.615  1.00  0.00     0.001 A 
BRANCH   9  19
ATOM     19  C   UNL     1       3.415  -0.749   1.149  1.00  0.00     0.248 C 
BRANCH  19  20
ATOM     20  C   UNL     1       2.147  -0.361   0.377  1.00  0.00     0.246 C 
ATOM     21  O   UNL     1       1.340  -1.197  -0.025  1.00  0.00    -0.273 OA
ATOM     22  N   UNL     1       2.090   0.992   0.073  1.00  0.00    -0.324 N 
ATOM     23  H   UNL     1       2.269   1.634   0.798  1.00  0.00     0.169 HD
BRANCH  22  24
ATOM     24  C   UNL     1       1.791   1.512  -1.206  1.00  0.00     0.042 A 
ATOM     25  C   UNL     1       1.951   2.893  -1.395  1.00  0.00     0.027 A 
ATOM     26  C   UNL     1       1.589   0.683  -2.311  1.00  0.00     0.039 A 
ATOM     27  C   UNL     1       2.058   3.425  -2.683  1.00  0.00     0.015 A 
ATOM     28  C   UNL     1       1.766   1.206  -3.593  1.00  0.00     0.036 A 
ATOM     29  C   UNL     1       2.046   2.559  -3.777  1.00  0.00     0.034 A 
ATOM     30  C   UNL     1       1.880   0.276  -4.731  1.00  0.00     0.194 C 
ATOM     31  C   UNL     1       2.528   3.027  -5.093  1.00  0.00     0.194 C 
ATOM     32  O   UNL     1       1.314  -0.808  -4.736  1.00  0.00    -0.289 OA
ATOM     33  C   UNL     1       2.803   0.665  -5.811  1.00  0.00     0.034 A 
ATOM     34  C   UNL     1       3.129   2.011  -5.983  1.00  0.00     0.034 A 
ATOM     35  O   UNL     1       2.531   4.215  -5.385  1.00  0.00    -0.289 OA
ATOM     36  C   UNL     1       3.428  -0.322  -6.576  1.00  0.00     0.013 A 
ATOM     37  C   UNL     1       4.095   2.379  -6.923  1.00  0.00     0.013 A 
ATOM     38  C   UNL     1       4.412   0.043  -7.493  1.00  0.00     0.001 A 
ATOM     39  C   UNL     1       4.747   1.390  -7.664  1.00  0.00     0.001 A 
ENDBRANCH  22  24
ENDBRANCH  19  20
ENDBRANCH   9  19
ENDBRANCH   5   8
ENDBRANCH   3   4
ENDBRANCH   2   3
ENDBRANCH   1   2
BRANCH   1  40
ATOM     40  C   UNL     1       0.746  -7.449   2.789  1.00  0.00     0.002 C 
BRANCH  40  41
ATOM     41  C   UNL     1       0.285  -6.584   3.964  1.00  0.00     0.021 C 
BRANCH  41  42
ATOM     42  C   UNL     1      -1.187  -6.187   3.983  1.00  0.00     0.116 C 
BRANCH  42  43
ATOM     43  N   UNL     1      -2.089  -7.310   4.169  1.00  0.00    -0.352 N 
ATOM     44  C   UNL     1      -3.209  -7.409   4.961  1.00  0.00     0.251 C 
ATOM     45  H   UNL     1      -1.865  -8.118   3.654  1.00  0.00     0.163 HD
ATOM     46  O   UNL     1      -3.794  -8.485   5.056  1.00  0.00    -0.269 OA
BRANCH  44  47
ATOM     47  C   UNL     1      -3.702  -6.242   5.735  1.00  0.00     0.039 A 
ATOM     48  C   UNL     1      -3.769  -4.964   5.177  1.00  0.00     0.014 A 
ATOM     49  C   UNL     1      -4.141  -6.446   7.050  1.00  0.00     0.014 A 
ATOM     50  C   UNL     1      -4.148  -3.878   5.966  1.00  0.00     0.010 A 
ATOM     51  C   UNL     1      -4.578  -5.364   7.824  1.00  0.00     0.010 A 
ATOM     52  C   UNL     1      -4.550  -4.065   7.299  1.00  0.00    -0.014 A 
BRANCH  52  53
ATOM     53  C   UNL     1      -4.954  -2.886   8.106  1.00  0.00     0.031 A 
ATOM     54  C   UNL     1      -4.083  -2.371   9.218  1.00  0.00     0.074 A 
ATOM     55  C   UNL     1      -6.082  -2.225   7.782  1.00  0.00     0.049 A 
ATOM     56  N   UNL     1      -4.213  -1.271   9.919  1.00  0.00    -0.248 NA
ATOM     57  C   UNL     1      -2.921  -3.189   9.593  1.00  0.00     0.031 C 
ATOM     58  C   UNL     1      -7.021  -2.624   6.732  1.00  0.00     0.029 A 
ATOM     59  N   UNL     1      -6.605  -1.056   8.274  1.00  0.00    -0.354 N 
ATOM     60  C   UNL     1      -3.156  -1.269  10.820  1.00  0.00     0.074 A 
ATOM     61  C   UNL     1      -2.406  -2.486  10.594  1.00  0.00     0.031 C 
ATOM     62  C   UNL     1      -7.965  -1.678   6.608  1.00  0.00     0.029 A 
ATOM     63  C   UNL     1      -7.712  -0.624   7.586  1.00  0.00     0.049 A 
ATOM     64  H   UNL     1      -6.225  -0.575   9.044  1.00  0.00     0.167 HD
ATOM     65  C   UNL     1      -2.832  -0.335  11.745  1.00  0.00     0.031 A 
ATOM     66  C   UNL     1      -8.432   0.506   7.708  1.00  0.00     0.031 A 
ATOM     67  C   UNL     1      -3.562   0.882  11.975  1.00  0.00     0.049 A 
ATOM     68  C   UNL     1      -8.056   1.523   8.743  1.00  0.00     0.074 A 
ATOM     69  C   UNL     1      -3.284   1.898  12.874  1.00  0.00     0.029 A 
ATOM     70  N   UNL     1      -4.717   1.247  11.303  1.00  0.00    -0.354 N 
ATOM     71  N   UNL     1      -7.037   1.520   9.566  1.00  0.00    -0.248 NA
ATOM     72  C   UNL     1      -8.934   2.696   8.866  1.00  0.00     0.031 C 
ATOM     73  C   UNL     1      -4.289   2.867  12.766  1.00  0.00     0.029 A 
ATOM     74  C   UNL     1      -5.174   2.464  11.780  1.00  0.00     0.049 A 
ATOM     75  H   UNL     1      -5.148   0.720  10.592  1.00  0.00     0.167 HD
ATOM     76  C   UNL     1      -7.153   2.686  10.309  1.00  0.00     0.074 A 
ATOM     77  C   UNL     1      -8.327   3.383   9.826  1.00  0.00     0.031 C 
ATOM     78  C   UNL     1      -6.355   3.135  11.308  1.00  0.00     0.031 A 
BRANCH  65  79
ATOM     79  C   UNL     1      -1.623  -0.597  12.593  1.00  0.00    -0.014 A 
ATOM     80  C   UNL     1      -1.778  -1.033  13.918  1.00  0.00     0.009 A 
ATOM     81  C   UNL     1      -0.332  -0.359  12.097  1.00  0.00     0.009 A 
ATOM     82  C   UNL     1      -0.661  -1.232  14.730  1.00  0.00     0.001 A 
ATOM     83  C   UNL     1       0.784  -0.573  12.909  1.00  0.00     0.001 A 
ATOM     84  C   UNL     1       0.619  -1.005  14.225  1.00  0.00     0.000 A 
ENDBRANCH  65  79
BRANCH  66  85
ATOM     85  C   UNL     1      -9.568   0.747   6.788  1.00  0.00    -0.014 A 
ATOM     86  C   UNL     1     -10.792   0.089   6.975  1.00  0.00     0.009 A 
ATOM     87  C   UNL     1      -9.415   1.613   5.695  1.00  0.00     0.009 A 
ATOM     88  C   UNL     1     -11.842   0.288   6.077  1.00  0.00     0.001 A 
ATOM     89  C   UNL     1     -10.471   1.820   4.807  1.00  0.00     0.001 A 
ATOM     90  C   UNL     1     -11.682   1.154   4.996  1.00  0.00     0.000 A 
ENDBRANCH  66  85
BRANCH  78  91
ATOM     91  C   UNL     1      -6.738   4.430  11.958  1.00  0.00    -0.014 A 
ATOM     92  C   UNL     1      -6.049   5.609  11.639  1.00  0.00     0.009 A 
ATOM     93  C   UNL     1      -7.755   4.468  12.924  1.00  0.00     0.009 A 
ATOM     94  C   UNL     1      -6.376   6.808  12.274  1.00  0.00     0.001 A 
ATOM     95  C   UNL     1      -8.088   5.672  13.546  1.00  0.00     0.001 A 
ATOM     96  C   UNL     1      -7.397   6.840  13.223  1.00  0.00     0.000 A 
ENDBRANCH  78  91
ENDBRANCH  52  53
ENDBRANCH  44  47
ENDBRANCH  42  43
ENDBRANCH  41  42
ENDBRANCH  40  41
ENDBRANCH   1  40
TORSDOF 16
