REMARK SMILES O=C(NCCCCCCNC(=O)c1cc(S(=O)(=O)NNC(=O)[C@H]2C=C(c3ccccc3)N=N2)ccc1F)c1ccc(-c2c3nc(c(-c4ccccc4)c4ccc([nH]4)c(-c4ccccc4)c4nc(c(-c5ccccc5)c5ccc2[nH]5)C=C4)C=C3)cc1
REMARK SMILES IDX 8 1 7 2 6 3 5 4 4 5 3 6 1 7 2 8 38 10 39 11 85 12 40 13
REMARK SMILES IDX 84 14 41 15 42 16 43 17 78 18 44 19 83 20 77 21 79 22 45 23
REMARK SMILES IDX 82 24 76 25 75 26 46 28 68 29 53 30 67 31 54 32 57 33 66 34
REMARK SMILES IDX 80 35 55 36 56 37 65 39 81 40 58 41 47 42 48 43 52 44 49 45
REMARK SMILES IDX 51 46 50 47 69 48 70 49 74 50 71 51 73 52 72 53 59 54 60 55
REMARK SMILES IDX 64 56 61 57 63 58 62 59 9 60 10 61 11 62 12 64 13 65 14 66
REMARK SMILES IDX 36 67 15 68 35 69 37 70 34 71 16 72 17 73 18 74 19 75 20 77
REMARK SMILES IDX 21 78 22 80 23 81 24 82 33 83 25 84 32 85 26 86 27 87 31 88
REMARK SMILES IDX 28 89 30 90 29 91
REMARK H PARENT 3 9 79 27 57 38 10 63 19 76 20 79
REMARK Flexibility Score: inf
ROOT
ATOM      1  C   UNL     1      21.433 -15.655  -7.826  1.00  0.00     0.021 C 
ENDROOT
BRANCH   1   2
ATOM      2  C   UNL     1      22.095 -16.864  -8.490  1.00  0.00     0.002 C 
BRANCH   2   3
ATOM      3  C   UNL     1      23.582 -17.054  -8.180  1.00  0.00     0.002 C 
BRANCH   3   4
ATOM      4  C   UNL     1      23.955 -17.077  -6.694  1.00  0.00     0.021 C 
BRANCH   4   5
ATOM      5  C   UNL     1      23.150 -18.053  -5.834  1.00  0.00     0.116 C 
BRANCH   5   6
ATOM      6  N   UNL     1      23.204 -19.427  -6.284  1.00  0.00    -0.352 N 
ATOM      7  O   UNL     1      23.749 -21.544  -6.595  1.00  0.00    -0.269 OA
ATOM      8  C   UNL     1      24.099 -20.450  -6.146  1.00  0.00     0.251 C 
ATOM      9  H   UNL     1      22.413 -19.684  -6.812  1.00  0.00     0.163 HD
BRANCH   8  10
ATOM     10  C   UNL     1      25.458 -20.326  -5.547  1.00  0.00     0.039 A 
ATOM     11  C   UNL     1      25.963 -19.202  -4.894  1.00  0.00     0.014 A 
ATOM     12  C   UNL     1      26.299 -21.447  -5.690  1.00  0.00     0.014 A 
ATOM     13  C   UNL     1      27.289 -19.160  -4.471  1.00  0.00     0.010 A 
ATOM     14  C   UNL     1      27.617 -21.421  -5.245  1.00  0.00     0.010 A 
ATOM     15  C   UNL     1      28.123 -20.260  -4.666  1.00  0.00    -0.014 A 
BRANCH  15  16
ATOM     16  C   UNL     1      29.498 -20.163  -4.186  1.00  0.00     0.031 A 
ATOM     17  C   UNL     1      29.697 -20.078  -2.711  1.00  0.00     0.074 A 
ATOM     18  C   UNL     1      30.572 -20.293  -4.989  1.00  0.00     0.049 A 
ATOM     19  N   UNL     1      30.343 -19.182  -2.033  1.00  0.00    -0.248 NA
ATOM     20  C   UNL     1      29.080 -21.127  -1.885  1.00  0.00     0.031 C 
ATOM     21  C   UNL     1      30.594 -20.706  -6.394  1.00  0.00     0.029 A 
ATOM     22  N   UNL     1      31.894 -20.199  -4.664  1.00  0.00    -0.354 N 
ATOM     23  C   UNL     1      30.348 -19.626  -0.711  1.00  0.00     0.074 A 
ATOM     24  C   UNL     1      29.486 -20.782  -0.664  1.00  0.00     0.031 C 
ATOM     25  C   UNL     1      31.856 -21.053  -6.728  1.00  0.00     0.029 A 
ATOM     26  C   UNL     1      32.737 -20.761  -5.608  1.00  0.00     0.049 A 
ATOM     27  H   UNL     1      32.218 -19.774  -3.837  1.00  0.00     0.167 HD
ATOM     28  C   UNL     1      31.193 -19.128   0.233  1.00  0.00     0.031 A 
ATOM     29  C   UNL     1      34.053 -21.039  -5.461  1.00  0.00     0.031 A 
ATOM     30  C   UNL     1      31.758 -17.860  -0.134  1.00  0.00     0.049 A 
ATOM     31  C   UNL     1      34.578 -20.255  -4.324  1.00  0.00     0.074 A 
ATOM     32  C   UNL     1      31.259 -16.608  -0.433  1.00  0.00     0.029 A 
ATOM     33  N   UNL     1      33.077 -17.830  -0.511  1.00  0.00    -0.354 N 
ATOM     34  N   UNL     1      34.738 -18.964  -4.340  1.00  0.00    -0.248 NA
ATOM     35  C   UNL     1      34.622 -20.870  -3.007  1.00  0.00     0.031 C 
ATOM     36  C   UNL     1      32.160 -16.069  -1.398  1.00  0.00     0.029 A 
ATOM     37  C   UNL     1      33.151 -17.027  -1.617  1.00  0.00     0.049 A 
ATOM     38  H   UNL     1      33.825 -18.296  -0.072  1.00  0.00     0.167 HD
ATOM     39  C   UNL     1      34.487 -18.558  -3.039  1.00  0.00     0.074 A 
ATOM     40  C   UNL     1      34.562 -19.777  -2.243  1.00  0.00     0.031 C 
ATOM     41  C   UNL     1      33.964 -17.323  -2.775  1.00  0.00     0.031 A 
BRANCH  28  42
ATOM     42  C   UNL     1      31.779 -19.957   1.350  1.00  0.00    -0.014 A 
ATOM     43  C   UNL     1      32.553 -19.323   2.342  1.00  0.00     0.009 A 
ATOM     44  C   UNL     1      31.838 -21.363   1.304  1.00  0.00     0.009 A 
ATOM     45  C   UNL     1      33.389 -20.055   3.195  1.00  0.00     0.001 A 
ATOM     46  C   UNL     1      32.637 -22.099   2.185  1.00  0.00     0.001 A 
ATOM     47  C   UNL     1      33.434 -21.442   3.113  1.00  0.00     0.000 A 
ENDBRANCH  28  42
BRANCH  29  48
ATOM     48  C   UNL     1      34.828 -22.118  -6.103  1.00  0.00    -0.014 A 
ATOM     49  C   UNL     1      36.226 -22.054  -6.182  1.00  0.00     0.009 A 
ATOM     50  C   UNL     1      34.204 -23.335  -6.435  1.00  0.00     0.009 A 
ATOM     51  C   UNL     1      36.973 -23.177  -6.561  1.00  0.00     0.001 A 
ATOM     52  C   UNL     1      34.947 -24.452  -6.821  1.00  0.00     0.001 A 
ATOM     53  C   UNL     1      36.334 -24.377  -6.872  1.00  0.00     0.000 A 
ENDBRANCH  29  48
BRANCH  41  54
ATOM     54  C   UNL     1      33.930 -16.317  -3.896  1.00  0.00    -0.014 A 
ATOM     55  C   UNL     1      33.224 -16.546  -5.090  1.00  0.00     0.009 A 
ATOM     56  C   UNL     1      34.496 -15.051  -3.690  1.00  0.00     0.009 A 
ATOM     57  C   UNL     1      33.124 -15.552  -6.067  1.00  0.00     0.001 A 
ATOM     58  C   UNL     1      34.377 -14.049  -4.657  1.00  0.00     0.001 A 
ATOM     59  C   UNL     1      33.699 -14.303  -5.848  1.00  0.00     0.000 A 
ENDBRANCH  41  54
ENDBRANCH  15  16
ENDBRANCH   8  10
ENDBRANCH   5   6
ENDBRANCH   4   5
ENDBRANCH   3   4
ENDBRANCH   2   3
ENDBRANCH   1   2
BRANCH   1  60
ATOM     60  C   UNL     1      22.055 -14.308  -8.175  1.00  0.00     0.116 C 
BRANCH  60  61
ATOM     61  N   UNL     1      21.846 -13.949  -9.566  1.00  0.00    -0.352 N 
ATOM     62  C   UNL     1      21.268 -12.821 -10.089  1.00  0.00     0.254 C 
ATOM     63  H   UNL     1      22.163 -14.607 -10.225  1.00  0.00     0.163 HD
ATOM     64  O   UNL     1      21.070 -12.725 -11.297  1.00  0.00    -0.269 OA
BRANCH  62  65
ATOM     65  C   UNL     1      20.811 -11.742  -9.199  1.00  0.00     0.076 A 
ATOM     66  C   UNL     1      19.488 -11.308  -9.306  1.00  0.00     0.038 A 
ATOM     67  C   UNL     1      21.666 -11.136  -8.281  1.00  0.00     0.136 A 
ATOM     68  C   UNL     1      19.011 -10.323  -8.431  1.00  0.00     0.085 A 
ATOM     69  C   UNL     1      21.187 -10.172  -7.396  1.00  0.00     0.041 A 
ATOM     70  F   UNL     1      22.958 -11.486  -8.207  1.00  0.00    -0.206 F 
ATOM     71  C   UNL     1      19.848  -9.775  -7.452  1.00  0.00     0.025 A 
BRANCH  68  72
ATOM     72  S   UNL     1      17.354  -9.744  -8.697  1.00  0.00     0.257 S 
ATOM     73  O   UNL     1      17.221  -9.494 -10.118  1.00  0.00    -0.205 OA
ATOM     74  O   UNL     1      16.476 -10.634  -7.980  1.00  0.00    -0.205 OA
BRANCH  72  75
ATOM     75  N   UNL     1      17.256  -8.240  -7.925  1.00  0.00    -0.123 NA
ATOM     76  H   UNL     1      17.391  -8.416  -6.929  1.00  0.00     0.167 HD
BRANCH  75  77
ATOM     77  N   UNL     1      18.148  -7.168  -8.275  1.00  0.00    -0.275 N 
ATOM     78  C   UNL     1      17.923  -5.838  -8.025  1.00  0.00     0.265 C 
ATOM     79  H   UNL     1      18.988  -7.408  -8.730  1.00  0.00     0.186 HD
ATOM     80  O   UNL     1      18.880  -5.060  -8.094  1.00  0.00    -0.271 OA
BRANCH  78  81
ATOM     81  C   UNL     1      16.500  -5.393  -7.663  1.00  0.00     0.244 C 
ATOM     82  C   UNL     1      16.405  -3.914  -7.623  1.00  0.00     0.042 C 
ATOM     83  N   UNL     1      15.615  -5.733  -8.815  1.00  0.00    -0.171 NA
ATOM     84  C   UNL     1      15.689  -3.577  -8.696  1.00  0.00     0.091 C 
ATOM     85  N   UNL     1      15.203  -4.671  -9.366  1.00  0.00    -0.155 NA
BRANCH  84  86
ATOM     86  C   UNL     1      15.482  -2.204  -9.158  1.00  0.00     0.002 A 
ATOM     87  C   UNL     1      14.208  -1.751  -9.518  1.00  0.00     0.010 A 
ATOM     88  C   UNL     1      16.572  -1.326  -9.272  1.00  0.00     0.010 A 
ATOM     89  C   UNL     1      14.022  -0.435  -9.950  1.00  0.00     0.001 A 
ATOM     90  C   UNL     1      16.387  -0.015  -9.713  1.00  0.00     0.001 A 
ATOM     91  C   UNL     1      15.110   0.432 -10.044  1.00  0.00     0.000 A 
ENDBRANCH  84  86
ENDBRANCH  78  81
ENDBRANCH  75  77
ENDBRANCH  72  75
ENDBRANCH  68  72
ENDBRANCH  62  65
ENDBRANCH  60  61
ENDBRANCH   1  60
TORSDOF 18
