REMARK SMILES C[N@H+]1[C@H]2CC[C@@H]1C[N@@H+]([C@H](C(=O)NCCCCCCNC(=O)c1ccc(-c3c4nc(c(-c5ccccc5)c5ccc([nH]5)c(-c5ccccc5)c5nc(c(-c6ccccc6)c6ccc3[nH]6)C=C5)C=C4)cc1)c1ccccc1)CC2
REMARK SMILES IDX 15 1 14 2 13 3 12 4 10 5 11 6 9 8 8 9 7 11 6 12 1 13 2 14
REMARK SMILES IDX 3 15 4 17 5 19 76 20 77 21 70 23 71 24 75 25 72 26 74 27
REMARK SMILES IDX 73 28 16 29 17 30 18 31 19 32 20 33 21 35 22 36 23 37 69 38
REMARK SMILES IDX 24 39 68 40 25 41 26 42 27 43 62 44 28 45 67 46 61 47 63 48
REMARK SMILES IDX 29 49 66 50 60 51 59 52 30 54 52 55 37 56 51 57 38 58 41 59
REMARK SMILES IDX 50 60 64 61 39 62 40 63 49 65 65 66 42 67 31 68 32 69 36 70
REMARK SMILES IDX 33 71 35 72 34 73 53 74 54 75 58 76 55 77 57 78 56 79 43 80
REMARK SMILES IDX 44 81 48 82 45 83 47 84 46 85
REMARK H PARENT 12 7 8 10 2 16 19 34 63 53 41 64
REMARK Flexibility Score: 90.00
ROOT
ATOM      1  C   UNL     1      -0.662  -1.469  -2.837  1.00  0.00     0.002 C 
ENDROOT
BRANCH   1   2
ATOM      2  C   UNL     1      -0.629  -1.293  -1.318  1.00  0.00     0.021 C 
BRANCH   2   3
ATOM      3  C   UNL     1      -1.898  -1.763  -0.585  1.00  0.00     0.116 C 
BRANCH   3   4
ATOM      4  N   UNL     1      -1.623  -3.004   0.114  1.00  0.00    -0.351 N 
ATOM      5  C   UNL     1      -1.291  -3.291   1.403  1.00  0.00     0.283 C 
ATOM      6  O   UNL     1      -0.946  -4.469   1.595  1.00  0.00    -0.268 OA
ATOM      7  H   UNL     1      -1.691  -3.801  -0.460  1.00  0.00     0.163 HD
BRANCH   5   8
ATOM      8  C   UNL     1      -1.385  -2.307   2.616  1.00  0.00     0.305 C 
BRANCH   8   9
ATOM      9  N   UNL     1      -0.146  -1.472   2.799  1.00  0.00    -0.316 N 
ATOM     10  H   UNL     1       0.611  -2.081   2.487  1.00  0.00     0.349 HD
BRANCH   9  11
ATOM     11  C   UNL     1       0.051  -1.113   4.231  1.00  0.00     0.328 C 
BRANCH  11  12
ATOM     12  C   UNL     1       1.420  -0.493   4.656  1.00  0.00     0.240 C 
ATOM     13  C   UNL     1       2.623   1.633   4.610  1.00  0.00     0.333 C 
ATOM     14  N   UNL     1       1.760   0.716   3.872  1.00  0.00    -0.328 N 
ATOM     15  C   UNL     1       2.417   0.201   2.657  1.00  0.00     0.190 CG0
ATOM     16  H   UNL     1       0.930   1.268   3.655  1.00  0.00     0.348 HD
ATOM     17  C   UNL     1       3.007  -1.174   2.991  1.00  0.00     0.071 C 
ATOM     18  G   UNL     1       1.388   0.121   1.529  1.00  0.00     0.000 G0
ATOM     19  C   UNL     1       2.580  -1.453   4.417  1.00  0.00     0.077 C 
ENDBRANCH  11  12
ENDBRANCH   9  11
BRANCH   9  20
ATOM     20  C   UNL     1      -0.029  -0.299   1.943  1.00  0.00     0.269 C 
BRANCH  20  21
ATOM     21  C   UNL     1       1.388   0.121   1.529  1.00  0.00     0.126 CG0
ATOM     22  G   UNL     1       2.417   0.201   2.657  1.00  0.00     0.000 G0
ENDBRANCH  20  21
ENDBRANCH   9  20
ENDBRANCH   8   9
BRANCH   8  23
ATOM     23  C   UNL     1      -2.795  -1.762   2.883  1.00  0.00     0.019 A 
ATOM     24  C   UNL     1      -3.107  -0.426   3.165  1.00  0.00     0.010 A 
ATOM     25  C   UNL     1      -3.854  -2.695   2.965  1.00  0.00     0.010 A 
ATOM     26  C   UNL     1      -4.406  -0.035   3.512  1.00  0.00     0.001 A 
ATOM     27  C   UNL     1      -5.152  -2.307   3.308  1.00  0.00     0.001 A 
ATOM     28  C   UNL     1      -5.428  -0.974   3.585  1.00  0.00     0.000 A 
ENDBRANCH   8  23
ENDBRANCH   5   8
ENDBRANCH   3   4
ENDBRANCH   2   3
ENDBRANCH   1   2
BRANCH   1  29
ATOM     29  C   UNL     1      -1.568  -0.478  -3.575  1.00  0.00     0.002 C 
BRANCH  29  30
ATOM     30  C   UNL     1      -1.308   1.008  -3.293  1.00  0.00     0.021 C 
BRANCH  30  31
ATOM     31  C   UNL     1       0.136   1.473  -3.484  1.00  0.00     0.116 C 
BRANCH  31  32
ATOM     32  N   UNL     1       0.592   1.296  -4.851  1.00  0.00    -0.352 N 
ATOM     33  C   UNL     1       0.859   2.229  -5.821  1.00  0.00     0.251 C 
ATOM     34  H   UNL     1       0.732   0.361  -5.125  1.00  0.00     0.163 HD
ATOM     35  O   UNL     1       1.015   1.871  -6.990  1.00  0.00    -0.269 OA
BRANCH  33  36
ATOM     36  C   UNL     1       0.954   3.665  -5.485  1.00  0.00     0.039 A 
ATOM     37  C   UNL     1       0.329   4.596  -6.319  1.00  0.00     0.014 A 
ATOM     38  C   UNL     1       1.702   4.101  -4.388  1.00  0.00     0.014 A 
ATOM     39  C   UNL     1       0.405   5.959  -6.023  1.00  0.00     0.010 A 
ATOM     40  C   UNL     1       1.731   5.457  -4.060  1.00  0.00     0.010 A 
ATOM     41  C   UNL     1       1.084   6.399  -4.875  1.00  0.00    -0.014 A 
BRANCH  41  42
ATOM     42  C   UNL     1       1.123   7.838  -4.508  1.00  0.00     0.031 A 
ATOM     43  C   UNL     1       2.424   8.592  -4.523  1.00  0.00     0.074 A 
ATOM     44  C   UNL     1      -0.005   8.450  -4.097  1.00  0.00     0.049 A 
ATOM     45  N   UNL     1       2.665   9.828  -4.162  1.00  0.00    -0.248 NA
ATOM     46  C   UNL     1       3.611   7.858  -4.986  1.00  0.00     0.031 C 
ATOM     47  C   UNL     1      -1.326   7.825  -4.009  1.00  0.00     0.029 A 
ATOM     48  N   UNL     1      -0.216   9.736  -3.666  1.00  0.00    -0.354 N 
ATOM     49  C   UNL     1       4.031  10.012  -4.335  1.00  0.00     0.074 A 
ATOM     50  C   UNL     1       4.572   8.752  -4.799  1.00  0.00     0.031 C 
ATOM     51  C   UNL     1      -2.212   8.732  -3.568  1.00  0.00     0.029 A 
ATOM     52  C   UNL     1      -1.518   9.988  -3.306  1.00  0.00     0.049 A 
ATOM     53  H   UNL     1       0.497  10.413  -3.618  1.00  0.00     0.167 HD
ATOM     54  C   UNL     1       4.768  11.132  -4.139  1.00  0.00     0.031 A 
ATOM     55  C   UNL     1      -2.088  11.103  -2.810  1.00  0.00     0.031 A 
ATOM     56  C   UNL     1       4.232  12.390  -3.691  1.00  0.00     0.049 A 
ATOM     57  C   UNL     1      -1.245  12.327  -2.588  1.00  0.00     0.074 A 
ATOM     58  C   UNL     1       4.891  13.595  -3.517  1.00  0.00     0.029 A 
ATOM     59  N   UNL     1       2.907  12.605  -3.347  1.00  0.00    -0.354 N 
ATOM     60  N   UNL     1       0.035  12.500  -2.812  1.00  0.00    -0.248 NA
ATOM     61  C   UNL     1      -1.929  13.512  -2.053  1.00  0.00     0.031 C 
ATOM     62  C   UNL     1       3.974  14.528  -3.023  1.00  0.00     0.029 A 
ATOM     63  C   UNL     1       2.733  13.917  -2.939  1.00  0.00     0.049 A 
ATOM     64  H   UNL     1       2.195  11.926  -3.386  1.00  0.00     0.167 HD
ATOM     65  C   UNL     1       0.303  13.819  -2.471  1.00  0.00     0.074 A 
ATOM     66  C   UNL     1      -0.949  14.405  -2.039  1.00  0.00     0.031 C 
ATOM     67  C   UNL     1       1.482  14.486  -2.513  1.00  0.00     0.031 A 
BRANCH  54  68
ATOM     68  C   UNL     1       6.245  11.045  -4.402  1.00  0.00    -0.014 A 
ATOM     69  C   UNL     1       6.746  10.954  -5.711  1.00  0.00     0.009 A 
ATOM     70  C   UNL     1       7.150  11.104  -3.331  1.00  0.00     0.009 A 
ATOM     71  C   UNL     1       8.123  10.890  -5.938  1.00  0.00     0.001 A 
ATOM     72  C   UNL     1       8.527  11.066  -3.563  1.00  0.00     0.001 A 
ATOM     73  C   UNL     1       9.011  10.951  -4.865  1.00  0.00     0.000 A 
ENDBRANCH  54  68
BRANCH  55  74
ATOM     74  C   UNL     1      -3.539  11.119  -2.494  1.00  0.00    -0.014 A 
ATOM     75  C   UNL     1      -4.431  11.857  -3.288  1.00  0.00     0.009 A 
ATOM     76  C   UNL     1      -4.039  10.410  -1.391  1.00  0.00     0.009 A 
ATOM     77  C   UNL     1      -5.790  11.905  -2.968  1.00  0.00     0.001 A 
ATOM     78  C   UNL     1      -5.402  10.438  -1.089  1.00  0.00     0.001 A 
ATOM     79  C   UNL     1      -6.274  11.193  -1.872  1.00  0.00     0.000 A 
ENDBRANCH  55  74
BRANCH  67  80
ATOM     80  C   UNL     1       1.465  15.933  -2.113  1.00  0.00    -0.014 A 
ATOM     81  C   UNL     1       1.335  16.316  -0.769  1.00  0.00     0.009 A 
ATOM     82  C   UNL     1       1.617  16.926  -3.094  1.00  0.00     0.009 A 
ATOM     83  C   UNL     1       1.326  17.668  -0.420  1.00  0.00     0.001 A 
ATOM     84  C   UNL     1       1.634  18.275  -2.738  1.00  0.00     0.001 A 
ATOM     85  C   UNL     1       1.480  18.645  -1.403  1.00  0.00     0.000 A 
ENDBRANCH  67  80
ENDBRANCH  41  42
ENDBRANCH  33  36
ENDBRANCH  31  32
ENDBRANCH  30  31
ENDBRANCH  29  30
ENDBRANCH   1  29
TORSDOF 15
