REMARK SMILES O=C(NCCCCCCNC(=O)[C@]12C[NH2+]C[C@H]1CN(C(=O)c1ccccc1-n1cncn1)C2)c1ccc(-c2c3nc(c(-c4ccccc4)c4ccc([nH]4)c(-c4ccccc4)c4nc(c(-c5ccccc5)c5ccc2[nH]5)C=C4)C=C3)cc1
REMARK SMILES IDX 7 1 6 2 5 3 4 4 3 5 1 6 2 7 34 9 35 10 81 11 36 12 80 13
REMARK SMILES IDX 37 14 38 15 39 16 74 17 40 18 79 19 73 20 75 21 41 22 78 23
REMARK SMILES IDX 72 24 71 25 42 27 64 28 49 29 63 30 50 31 53 32 62 33 76 34
REMARK SMILES IDX 51 35 52 36 61 38 77 39 54 40 43 41 44 42 48 43 45 44 47 45
REMARK SMILES IDX 46 46 65 47 66 48 70 49 67 50 69 51 68 52 55 53 56 54 60 55
REMARK SMILES IDX 57 56 59 57 58 58 8 59 9 60 10 61 11 62 12 64 13 65 14 66
REMARK SMILES IDX 17 67 33 68 15 69 16 70 18 71 19 72 20 75 21 76 22 77 23 78
REMARK SMILES IDX 27 79 24 80 26 81 25 82 28 83 29 84 32 85 30 86 31 87
REMARK H PARENT 3 8 75 26 53 37 10 63 15 73 15 74
REMARK Flexibility Score: inf
ROOT
ATOM      1  C   UNL     1       4.231   2.958   3.155  1.00  0.00     0.002 C 
ENDROOT
BRANCH   1   2
ATOM      2  C   UNL     1       3.799   3.135   1.698  1.00  0.00     0.002 C 
BRANCH   2   3
ATOM      3  C   UNL     1       4.456   2.218   0.661  1.00  0.00     0.021 C 
BRANCH   3   4
ATOM      4  C   UNL     1       4.405   0.718   0.952  1.00  0.00     0.116 C 
BRANCH   4   5
ATOM      5  N   UNL     1       3.083   0.131   1.016  1.00  0.00    -0.352 N 
ATOM      6  O   UNL     1       1.127  -0.765   0.459  1.00  0.00    -0.269 OA
ATOM      7  C   UNL     1       2.132  -0.161   0.080  1.00  0.00     0.251 C 
ATOM      8  H   UNL     1       2.811  -0.109   1.931  1.00  0.00     0.163 HD
BRANCH   7   9
ATOM      9  C   UNL     1       2.214   0.265  -1.338  1.00  0.00     0.039 A 
ATOM     10  C   UNL     1       3.400   0.421  -2.057  1.00  0.00     0.014 A 
ATOM     11  C   UNL     1       0.988   0.479  -1.990  1.00  0.00     0.014 A 
ATOM     12  C   UNL     1       3.367   0.866  -3.376  1.00  0.00     0.010 A 
ATOM     13  C   UNL     1       0.949   0.885  -3.319  1.00  0.00     0.010 A 
ATOM     14  C   UNL     1       2.142   1.103  -4.007  1.00  0.00    -0.014 A 
BRANCH  14  15
ATOM     15  C   UNL     1       2.155   1.409  -5.438  1.00  0.00     0.031 A 
ATOM     16  C   UNL     1       2.687   0.334  -6.332  1.00  0.00     0.074 A 
ATOM     17  C   UNL     1       1.556   2.484  -5.987  1.00  0.00     0.049 A 
ATOM     18  N   UNL     1       3.612   0.415  -7.234  1.00  0.00    -0.248 NA
ATOM     19  C   UNL     1       2.126  -1.017  -6.168  1.00  0.00     0.031 C 
ATOM     20  C   UNL     1       0.693   3.466  -5.326  1.00  0.00     0.029 A 
ATOM     21  N   UNL     1       1.494   2.845  -7.302  1.00  0.00    -0.354 N 
ATOM     22  C   UNL     1       3.661  -0.834  -7.852  1.00  0.00     0.074 A 
ATOM     23  C   UNL     1       2.787  -1.700  -7.101  1.00  0.00     0.031 C 
ATOM     24  C   UNL     1       0.015   4.160  -6.267  1.00  0.00     0.029 A 
ATOM     25  C   UNL     1       0.492   3.762  -7.582  1.00  0.00     0.049 A 
ATOM     26  H   UNL     1       2.103   2.488  -7.988  1.00  0.00     0.167 HD
ATOM     27  C   UNL     1       4.287  -1.050  -9.042  1.00  0.00     0.031 A 
ATOM     28  C   UNL     1       0.034   4.120  -8.805  1.00  0.00     0.031 A 
ATOM     29  C   UNL     1       5.218  -0.013  -9.378  1.00  0.00     0.049 A 
ATOM     30  C   UNL     1       1.037   3.725  -9.816  1.00  0.00     0.074 A 
ATOM     31  C   UNL     1       6.366   0.496  -8.803  1.00  0.00     0.029 A 
ATOM     32  N   UNL     1       4.852   0.894 -10.340  1.00  0.00    -0.354 N 
ATOM     33  N   UNL     1       2.195   4.300  -9.957  1.00  0.00    -0.248 NA
ATOM     34  C   UNL     1       0.898   2.435 -10.472  1.00  0.00     0.031 C 
ATOM     35  C   UNL     1       6.343   1.889  -9.105  1.00  0.00     0.029 A 
ATOM     36  C   UNL     1       5.196   2.132  -9.864  1.00  0.00     0.049 A 
ATOM     37  H   UNL     1       4.424   0.695 -11.204  1.00  0.00     0.167 HD
ATOM     38  C   UNL     1       3.052   3.281 -10.344  1.00  0.00     0.074 A 
ATOM     39  C   UNL     1       2.176   2.195 -10.772  1.00  0.00     0.031 C 
ATOM     40  C   UNL     1       4.377   3.313 -10.016  1.00  0.00     0.031 A 
BRANCH  27  41
ATOM     41  C   UNL     1       3.810  -2.053 -10.063  1.00  0.00    -0.014 A 
ATOM     42  C   UNL     1       4.603  -2.316 -11.195  1.00  0.00     0.009 A 
ATOM     43  C   UNL     1       2.489  -2.540 -10.087  1.00  0.00     0.009 A 
ATOM     44  C   UNL     1       4.084  -2.987 -12.309  1.00  0.00     0.001 A 
ATOM     45  C   UNL     1       1.981  -3.248 -11.179  1.00  0.00     0.001 A 
ATOM     46  C   UNL     1       2.772  -3.450 -12.302  1.00  0.00     0.000 A 
ENDBRANCH  27  41
BRANCH  28  47
ATOM     47  C   UNL     1      -1.318   4.576  -9.185  1.00  0.00    -0.014 A 
ATOM     48  C   UNL     1      -1.533   5.267 -10.387  1.00  0.00     0.009 A 
ATOM     49  C   UNL     1      -2.446   4.109  -8.485  1.00  0.00     0.009 A 
ATOM     50  C   UNL     1      -2.829   5.459 -10.883  1.00  0.00     0.001 A 
ATOM     51  C   UNL     1      -3.739   4.306  -8.976  1.00  0.00     0.001 A 
ATOM     52  C   UNL     1      -3.930   4.969 -10.183  1.00  0.00     0.000 A 
ENDBRANCH  28  47
BRANCH  40  53
ATOM     53  C   UNL     1       4.941   4.601  -9.467  1.00  0.00    -0.014 A 
ATOM     54  C   UNL     1       4.447   5.207  -8.299  1.00  0.00     0.009 A 
ATOM     55  C   UNL     1       6.093   5.139 -10.059  1.00  0.00     0.009 A 
ATOM     56  C   UNL     1       5.062   6.343  -7.764  1.00  0.00     0.001 A 
ATOM     57  C   UNL     1       6.723   6.259  -9.510  1.00  0.00     0.001 A 
ATOM     58  C   UNL     1       6.203   6.865  -8.368  1.00  0.00     0.000 A 
ENDBRANCH  40  53
ENDBRANCH  14  15
ENDBRANCH   7   9
ENDBRANCH   4   5
ENDBRANCH   3   4
ENDBRANCH   2   3
ENDBRANCH   1   2
BRANCH   1  59
ATOM     59  C   UNL     1       5.725   2.777   3.422  1.00  0.00     0.021 C 
BRANCH  59  60
ATOM     60  C   UNL     1       6.680   3.916   3.066  1.00  0.00     0.116 C 
BRANCH  60  61
ATOM     61  N   UNL     1       6.521   5.060   3.936  1.00  0.00    -0.355 N 
ATOM     62  C   UNL     1       7.190   5.527   5.019  1.00  0.00     0.234 C 
ATOM     63  H   UNL     1       5.756   5.627   3.685  1.00  0.00     0.163 HD
ATOM     64  O   UNL     1       6.614   6.472   5.576  1.00  0.00    -0.274 OA
BRANCH  62  65
ATOM     65  C   UNL     1       8.466   4.903   5.631  1.00  0.00     0.125 C 
ATOM     66  C   UNL     1       9.021   5.855   6.713  1.00  0.00     0.280 C 
ATOM     67  C   UNL     1       9.732   4.690   4.777  1.00  0.00     0.087 C 
ATOM     68  C   UNL     1       8.140   3.506   6.182  1.00  0.00     0.143 C 
ATOM     69  N   UNL     1       9.990   6.709   6.015  1.00  0.00    -0.345 N 
ATOM     70  C   UNL     1      10.614   5.919   4.963  1.00  0.00     0.267 C 
ATOM     71  C   UNL     1      10.407   3.471   5.423  1.00  0.00     0.130 C 
ATOM     72  N   UNL     1       9.311   2.675   5.910  1.00  0.00    -0.337 N 
ATOM     73  H   UNL     1      10.701   7.034   6.671  1.00  0.00     0.346 HD
ATOM     74  H   UNL     1       9.522   7.523   5.616  1.00  0.00     0.346 HD
BRANCH  72  75
ATOM     75  C   UNL     1       9.472   1.329   6.155  1.00  0.00     0.256 C 
ATOM     76  O   UNL     1      10.550   0.775   6.334  1.00  0.00    -0.269 OA
BRANCH  75  77
ATOM     77  C   UNL     1       8.278   0.485   5.978  1.00  0.00     0.065 A 
ATOM     78  C   UNL     1       7.482   0.211   7.093  1.00  0.00     0.016 A 
ATOM     79  C   UNL     1       7.868   0.100   4.688  1.00  0.00     0.079 A 
ATOM     80  C   UNL     1       6.250  -0.418   6.918  1.00  0.00     0.001 A 
ATOM     81  C   UNL     1       6.606  -0.487   4.519  1.00  0.00     0.029 A 
ATOM     82  C   UNL     1       5.806  -0.749   5.635  1.00  0.00     0.002 A 
BRANCH  79  83
ATOM     83  N   UNL     1       8.679   0.324   3.549  1.00  0.00    -0.220 N 
ATOM     84  C   UNL     1      10.041   0.217   3.410  1.00  0.00     0.225 A 
ATOM     85  N   UNL     1       8.148   0.717   2.362  1.00  0.00    -0.155 NA
ATOM     86  N   UNL     1      10.423   0.697   2.248  1.00  0.00    -0.223 NA
ATOM     87  C   UNL     1       9.242   1.015   1.657  1.00  0.00     0.246 A 
ENDBRANCH  79  83
ENDBRANCH  75  77
ENDBRANCH  72  75
ENDBRANCH  62  65
ENDBRANCH  60  61
ENDBRANCH  59  60
ENDBRANCH   1  59
TORSDOF 16
