REMARK SMILES C[C@H](NC(=O)c1cccc(NC(=O)c2ccccc2C(=O)NCCCCCCNC(=O)c2ccc(-c3c4nc(c(-c5ccccc5)c5ccc([nH]5)c(-c5ccccc5)c5nc(c(-c6ccccc6)c6ccc3[nH]6)C=C5)C=C4)cc2)c1)c1ccccc1
REMARK SMILES IDX 24 1 23 2 22 3 20 4 21 5 19 7 14 8 15 9 16 10 18 11 17 12
REMARK SMILES IDX 12 13 11 14 13 16 10 17 6 18 7 19 80 20 8 21 9 22 4 23 3 24
REMARK SMILES IDX 5 26 2 27 1 28 81 29 82 30 86 31 83 32 85 33 84 34 25 35
REMARK SMILES IDX 26 36 27 37 28 38 29 39 30 40 31 42 32 43 33 44 79 45 34 46
REMARK SMILES IDX 78 47 35 48 36 49 37 50 72 51 38 52 77 53 71 54 73 55 39 56
REMARK SMILES IDX 76 57 70 58 69 59 40 61 62 62 47 63 61 64 48 65 51 66 60 67
REMARK SMILES IDX 74 68 49 69 50 70 59 72 75 73 52 74 41 75 42 76 46 77 43 78
REMARK SMILES IDX 45 79 44 80 63 81 64 82 68 83 65 84 67 85 66 86 53 87 54 88
REMARK SMILES IDX 58 89 55 90 57 91 56 92
REMARK H PARENT 22 6 11 15 3 25 29 41 73 60 51 71
REMARK Flexibility Score: inf
ROOT
ATOM      1  C   UNL     1       2.371  -1.951   6.279  1.00  0.00     0.021 C 
ENDROOT
BRANCH   1   2
ATOM      2  C   UNL     1       3.431  -0.937   5.869  1.00  0.00     0.116 C 
BRANCH   2   3
ATOM      3  N   UNL     1       2.912   0.374   5.561  1.00  0.00    -0.352 N 
ATOM      4  C   UNL     1       3.548   1.581   5.427  1.00  0.00     0.252 C 
ATOM      5  O   UNL     1       2.856   2.550   5.108  1.00  0.00    -0.269 OA
ATOM      6  H   UNL     1       1.938   0.406   5.424  1.00  0.00     0.163 HD
BRANCH   4   7
ATOM      7  C   UNL     1       4.986   1.810   5.742  1.00  0.00     0.052 A 
ATOM      8  C   UNL     1       6.086   1.009   5.399  1.00  0.00     0.052 A 
ATOM      9  C   UNL     1       7.375   1.359   5.855  1.00  0.00     0.014 A 
ATOM     10  C   UNL     1       7.597   2.547   6.547  1.00  0.00     0.001 A 
ATOM     11  C   UNL     1       5.242   3.032   6.407  1.00  0.00     0.014 A 
ATOM     12  C   UNL     1       6.532   3.402   6.795  1.00  0.00     0.001 A 
BRANCH   8  13
ATOM     13  C   UNL     1       6.063  -0.207   4.564  1.00  0.00     0.256 C 
ATOM     14  N   UNL     1       5.486  -0.275   3.317  1.00  0.00    -0.322 N 
ATOM     15  H   UNL     1       5.486  -1.179   2.927  1.00  0.00     0.170 HD
ATOM     16  O   UNL     1       6.553  -1.233   5.043  1.00  0.00    -0.269 OA
BRANCH  14  17
ATOM     17  C   UNL     1       4.897   0.696   2.495  1.00  0.00     0.042 A 
ATOM     18  C   UNL     1       3.207   1.188   0.835  1.00  0.00     0.041 A 
ATOM     19  C   UNL     1       3.466   2.554   0.971  1.00  0.00     0.014 A 
ATOM     20  C   UNL     1       3.948   0.252   1.562  1.00  0.00     0.040 A 
ATOM     21  C   UNL     1       4.469   2.986   1.833  1.00  0.00     0.003 A 
ATOM     22  C   UNL     1       5.193   2.057   2.580  1.00  0.00     0.026 A 
BRANCH  18  23
ATOM     23  C   UNL     1       2.189   0.786  -0.149  1.00  0.00     0.251 C 
ATOM     24  N   UNL     1       0.981   0.261   0.221  1.00  0.00    -0.346 N 
ATOM     25  H   UNL     1       0.336   0.208  -0.520  1.00  0.00     0.164 HD
ATOM     26  O   UNL     1       2.422   1.000  -1.337  1.00  0.00    -0.269 OA
BRANCH  24  27
ATOM     27  C   UNL     1       0.451  -0.238   1.485  1.00  0.00     0.109 C 
ATOM     28  C   UNL     1       0.770   0.601   2.721  1.00  0.00     0.036 C 
BRANCH  27  29
ATOM     29  C   UNL     1      -1.063  -0.394   1.390  1.00  0.00    -0.026 A 
ATOM     30  C   UNL     1      -1.891   0.740   1.319  1.00  0.00     0.006 A 
ATOM     31  C   UNL     1      -1.663  -1.661   1.443  1.00  0.00     0.006 A 
ATOM     32  C   UNL     1      -3.280   0.614   1.358  1.00  0.00     0.000 A 
ATOM     33  C   UNL     1      -3.056  -1.785   1.473  1.00  0.00     0.000 A 
ATOM     34  C   UNL     1      -3.862  -0.648   1.444  1.00  0.00     0.000 A 
ENDBRANCH  27  29
ENDBRANCH  24  27
ENDBRANCH  18  23
ENDBRANCH  14  17
ENDBRANCH   8  13
ENDBRANCH   4   7
ENDBRANCH   2   3
ENDBRANCH   1   2
BRANCH   1  35
ATOM     35  C   UNL     1       1.352  -2.332   5.196  1.00  0.00     0.002 C 
BRANCH  35  36
ATOM     36  C   UNL     1       1.898  -2.718   3.817  1.00  0.00     0.002 C 
BRANCH  36  37
ATOM     37  C   UNL     1       2.962  -3.811   3.757  1.00  0.00     0.021 C 
BRANCH  37  38
ATOM     38  C   UNL     1       2.632  -5.095   4.499  1.00  0.00     0.116 C 
BRANCH  38  39
ATOM     39  N   UNL     1       1.383  -5.698   4.072  1.00  0.00    -0.352 N 
ATOM     40  C   UNL     1       1.081  -7.017   3.842  1.00  0.00     0.251 C 
ATOM     41  H   UNL     1       0.641  -5.067   3.926  1.00  0.00     0.163 HD
ATOM     42  O   UNL     1      -0.014  -7.316   3.378  1.00  0.00    -0.269 OA
BRANCH  40  43
ATOM     43  C   UNL     1       2.074  -8.078   4.130  1.00  0.00     0.039 A 
ATOM     44  C   UNL     1       2.163  -9.162   3.252  1.00  0.00     0.014 A 
ATOM     45  C   UNL     1       2.883  -8.039   5.269  1.00  0.00     0.014 A 
ATOM     46  C   UNL     1       3.077 -10.188   3.502  1.00  0.00     0.010 A 
ATOM     47  C   UNL     1       3.856  -9.015   5.469  1.00  0.00     0.010 A 
ATOM     48  C   UNL     1       3.941 -10.116   4.606  1.00  0.00    -0.014 A 
BRANCH  48  49
ATOM     49  C   UNL     1       4.889 -11.218   4.910  1.00  0.00     0.031 A 
ATOM     50  C   UNL     1       4.730 -12.012   6.182  1.00  0.00     0.074 A 
ATOM     51  C   UNL     1       5.904 -11.486   4.067  1.00  0.00     0.049 A 
ATOM     52  N   UNL     1       5.464 -12.994   6.641  1.00  0.00    -0.248 NA
ATOM     53  C   UNL     1       3.614 -11.637   7.069  1.00  0.00     0.031 C 
ATOM     54  C   UNL     1       6.191 -10.765   2.824  1.00  0.00     0.029 A 
ATOM     55  N   UNL     1       6.887 -12.441   4.130  1.00  0.00    -0.354 N 
ATOM     56  C   UNL     1       4.914 -13.334   7.871  1.00  0.00     0.074 A 
ATOM     57  C   UNL     1       3.820 -12.423   8.115  1.00  0.00     0.031 C 
ATOM     58  C   UNL     1       7.256 -11.325   2.228  1.00  0.00     0.029 A 
ATOM     59  C   UNL     1       7.749 -12.417   3.060  1.00  0.00     0.049 A 
ATOM     60  H   UNL     1       6.966 -13.084   4.872  1.00  0.00     0.167 HD
ATOM     61  C   UNL     1       5.271 -14.332   8.713  1.00  0.00     0.031 A 
ATOM     62  C   UNL     1       8.817 -13.190   2.784  1.00  0.00     0.031 A 
ATOM     63  C   UNL     1       6.341 -15.258   8.458  1.00  0.00     0.049 A 
ATOM     64  C   UNL     1       9.184 -14.297   3.734  1.00  0.00     0.074 A 
ATOM     65  C   UNL     1       6.743 -16.341   9.220  1.00  0.00     0.029 A 
ATOM     66  N   UNL     1       7.175 -15.211   7.353  1.00  0.00    -0.354 N 
ATOM     67  N   UNL     1       8.607 -14.651   4.857  1.00  0.00    -0.248 NA
ATOM     68  C   UNL     1      10.339 -15.127   3.364  1.00  0.00     0.031 C 
ATOM     69  C   UNL     1       7.854 -16.921   8.600  1.00  0.00     0.029 A 
ATOM     70  C   UNL     1       8.102 -16.237   7.420  1.00  0.00     0.049 A 
ATOM     71  H   UNL     1       7.117 -14.548   6.627  1.00  0.00     0.167 HD
ATOM     72  C   UNL     1       9.303 -15.767   5.305  1.00  0.00     0.074 A 
ATOM     73  C   UNL     1      10.331 -16.041   4.323  1.00  0.00     0.031 C 
ATOM     74  C   UNL     1       9.109 -16.502   6.427  1.00  0.00     0.031 A 
BRANCH  61  75
ATOM     75  C   UNL     1       4.495 -14.479   9.993  1.00  0.00    -0.014 A 
ATOM     76  C   UNL     1       3.165 -14.930   9.992  1.00  0.00     0.009 A 
ATOM     77  C   UNL     1       5.119 -14.213  11.221  1.00  0.00     0.009 A 
ATOM     78  C   UNL     1       2.469 -15.085  11.193  1.00  0.00     0.001 A 
ATOM     79  C   UNL     1       4.431 -14.398  12.422  1.00  0.00     0.001 A 
ATOM     80  C   UNL     1       3.104 -14.826  12.406  1.00  0.00     0.000 A 
ENDBRANCH  61  75
BRANCH  62  81
ATOM     81  C   UNL     1       9.613 -12.964   1.548  1.00  0.00    -0.014 A 
ATOM     82  C   UNL     1       9.616 -13.914   0.514  1.00  0.00     0.009 A 
ATOM     83  C   UNL     1      10.410 -11.816   1.413  1.00  0.00     0.009 A 
ATOM     84  C   UNL     1      10.434 -13.744  -0.605  1.00  0.00     0.001 A 
ATOM     85  C   UNL     1      11.201 -11.632   0.277  1.00  0.00     0.001 A 
ATOM     86  C   UNL     1      11.225 -12.602  -0.723  1.00  0.00     0.000 A 
ENDBRANCH  62  81
BRANCH  74  87
ATOM     87  C   UNL     1       9.988 -17.706   6.620  1.00  0.00    -0.014 A 
ATOM     88  C   UNL     1      11.353 -17.581   6.916  1.00  0.00     0.009 A 
ATOM     89  C   UNL     1       9.426 -18.990   6.527  1.00  0.00     0.009 A 
ATOM     90  C   UNL     1      12.149 -18.719   7.068  1.00  0.00     0.001 A 
ATOM     91  C   UNL     1      10.216 -20.125   6.714  1.00  0.00     0.001 A 
ATOM     92  C   UNL     1      11.579 -19.988   6.971  1.00  0.00     0.000 A 
ENDBRANCH  74  87
ENDBRANCH  48  49
ENDBRANCH  40  43
ENDBRANCH  38  39
ENDBRANCH  37  38
ENDBRANCH  36  37
ENDBRANCH  35  36
ENDBRANCH   1  35
TORSDOF 18
