REMARK SMILES CC(C)[C@@H](NC(=O)[C@@H]1CCCCC[C@H]1[NH3+])C(=O)NCCCCCCNC(=O)c1ccc(-c2c3nc(c(-c4ccccc4)c4ccc([nH]4)c(-c4ccccc4)c4nc(c(-c5ccccc5)c5ccc2[nH]5)C=C4)C=C3)cc1
REMARK SMILES IDX 20 1 19 2 18 3 16 4 17 5 4 7 2 8 1 9 3 10 5 11 6 12 7 14
REMARK SMILES IDX 8 15 9 16 10 17 11 18 14 20 13 21 12 22 15 24 21 28 22 29
REMARK SMILES IDX 23 30 24 31 25 32 26 33 27 35 28 36 29 37 75 38 30 39 74 40
REMARK SMILES IDX 31 41 32 42 33 43 68 44 34 45 73 46 67 47 69 48 35 49 72 50
REMARK SMILES IDX 66 51 65 52 36 54 58 55 43 56 57 57 44 58 47 59 56 60 70 61
REMARK SMILES IDX 45 62 46 63 55 65 71 66 48 67 37 68 38 69 42 70 39 71 41 72
REMARK SMILES IDX 40 73 59 74 60 75 64 76 61 77 63 78 62 79 49 80 50 81 54 82
REMARK SMILES IDX 51 83 53 84 52 85
REMARK H PARENT 18 6 5 13 15 25 15 26 15 27 25 34 69 53 47 64
REMARK Flexibility Score: 90.00
ROOT
ATOM      1  C   UNL     1       1.916  -1.555   5.093  1.00  0.00     0.021 C 
ENDROOT
BRANCH   1   2
ATOM      2  C   UNL     1       1.248  -1.182   3.766  1.00  0.00     0.116 C 
BRANCH   2   3
ATOM      3  N   UNL     1       0.529   0.079   3.854  1.00  0.00    -0.354 N 
ATOM      4  C   UNL     1      -0.304   0.720   2.981  1.00  0.00     0.242 C 
ATOM      5  O   UNL     1      -0.753   1.812   3.352  1.00  0.00    -0.273 OA
ATOM      6  H   UNL     1       0.670   0.562   4.700  1.00  0.00     0.163 HD
BRANCH   4   7
ATOM      7  C   UNL     1      -0.603   0.198   1.551  1.00  0.00     0.173 C 
BRANCH   7   8
ATOM      8  C   UNL     1       0.761   0.242   0.773  1.00  0.00     0.015 C 
ATOM      9  C   UNL     1       0.617   0.114  -0.745  1.00  0.00     0.010 C 
ATOM     10  C   UNL     1       1.557   1.539   1.047  1.00  0.00     0.010 C 
ENDBRANCH   7   8
BRANCH   7  11
ATOM     11  N   UNL     1      -1.315  -1.120   1.411  1.00  0.00    -0.344 N 
ATOM     12  C   UNL     1      -2.686  -1.345   1.551  1.00  0.00     0.229 C 
ATOM     13  H   UNL     1      -0.758  -1.903   1.199  1.00  0.00     0.164 HD
ATOM     14  O   UNL     1      -3.333  -1.538   0.519  1.00  0.00    -0.275 OA
BRANCH  12  15
ATOM     15  C   UNL     1      -3.279  -1.655   2.958  1.00  0.00     0.136 C 
BRANCH  15  16
ATOM     16  C   UNL     1      -4.732  -2.160   2.957  1.00  0.00     0.020 C 
BRANCH  16  17
ATOM     17  C   UNL     1      -5.160  -2.607   4.363  1.00  0.00     0.001 C 
BRANCH  17  18
ATOM     18  C   UNL     1      -5.821  -1.518   5.208  1.00  0.00     0.000 CG0
ATOM     19  G   UNL     1      -5.378  -0.097   4.896  1.00  0.00     0.000 G0
ENDBRANCH  17  18
ENDBRANCH  16  17
ENDBRANCH  15  16
BRANCH  15  20
ATOM     20  C   UNL     1      -2.979  -0.523   3.949  1.00  0.00     0.193 C 
BRANCH  20  21
ATOM     21  C   UNL     1      -3.886   0.050   5.041  1.00  0.00     0.066 C 
BRANCH  21  22
ATOM     22  C   UNL     1      -5.378  -0.097   4.896  1.00  0.00     0.006 CG0
ATOM     23  G   UNL     1      -5.821  -1.518   5.208  1.00  0.00     0.000 G0
ENDBRANCH  21  22
ENDBRANCH  20  21
BRANCH  20  24
ATOM     24  N   UNL     1      -1.846  -1.003   4.734  1.00  0.00    -0.354 N 
ATOM     25  H   UNL     1      -2.144  -1.781   5.322  1.00  0.00     0.344 HD
ATOM     26  H   UNL     1      -1.495  -0.247   5.322  1.00  0.00     0.344 HD
ATOM     27  H   UNL     1      -1.106  -1.316   4.106  1.00  0.00     0.344 HD
ENDBRANCH  20  24
ENDBRANCH  15  20
ENDBRANCH  12  15
ENDBRANCH   7  11
ENDBRANCH   4   7
ENDBRANCH   2   3
ENDBRANCH   1   2
BRANCH   1  28
ATOM     28  C   UNL     1       1.016  -1.808   6.313  1.00  0.00     0.002 C 
BRANCH  28  29
ATOM     29  C   UNL     1       0.106  -3.042   6.308  1.00  0.00     0.002 C 
BRANCH  29  30
ATOM     30  C   UNL     1       0.726  -4.364   5.880  1.00  0.00     0.021 C 
BRANCH  30  31
ATOM     31  C   UNL     1       2.002  -4.756   6.604  1.00  0.00     0.116 C 
BRANCH  31  32
ATOM     32  N   UNL     1       1.855  -4.836   8.045  1.00  0.00    -0.352 N 
ATOM     33  C   UNL     1       2.389  -5.760   8.914  1.00  0.00     0.251 C 
ATOM     34  H   UNL     1       1.299  -4.136   8.457  1.00  0.00     0.163 HD
ATOM     35  O   UNL     1       2.111  -5.730  10.103  1.00  0.00    -0.269 OA
BRANCH  33  36
ATOM     36  C   UNL     1       3.266  -6.827   8.383  1.00  0.00     0.039 A 
ATOM     37  C   UNL     1       3.000  -8.148   8.749  1.00  0.00     0.014 A 
ATOM     38  C   UNL     1       4.307  -6.536   7.497  1.00  0.00     0.014 A 
ATOM     39  C   UNL     1       3.725  -9.185   8.162  1.00  0.00     0.010 A 
ATOM     40  C   UNL     1       4.978  -7.574   6.857  1.00  0.00     0.010 A 
ATOM     41  C   UNL     1       4.685  -8.908   7.175  1.00  0.00    -0.014 A 
BRANCH  41  42
ATOM     42  C   UNL     1       5.358 -10.004   6.435  1.00  0.00     0.031 A 
ATOM     43  C   UNL     1       6.842 -10.206   6.553  1.00  0.00     0.074 A 
ATOM     44  C   UNL     1       4.635 -10.775   5.599  1.00  0.00     0.049 A 
ATOM     45  N   UNL     1       7.605 -11.076   5.943  1.00  0.00    -0.248 NA
ATOM     46  C   UNL     1       7.566  -9.299   7.458  1.00  0.00     0.031 C 
ATOM     47  C   UNL     1       3.194 -10.651   5.365  1.00  0.00     0.029 A 
ATOM     48  N   UNL     1       5.015 -11.812   4.785  1.00  0.00    -0.354 N 
ATOM     49  C   UNL     1       8.898 -10.816   6.381  1.00  0.00     0.074 A 
ATOM     50  C   UNL     1       8.822  -9.677   7.269  1.00  0.00     0.031 C 
ATOM     51  C   UNL     1       2.808 -11.593   4.490  1.00  0.00     0.029 A 
ATOM     52  C   UNL     1       3.978 -12.355   4.065  1.00  0.00     0.049 A 
ATOM     53  H   UNL     1       5.942 -12.136   4.722  1.00  0.00     0.167 HD
ATOM     54  C   UNL     1      10.041 -11.477   6.082  1.00  0.00     0.031 A 
ATOM     55  C   UNL     1       3.969 -13.346   3.155  1.00  0.00     0.031 A 
ATOM     56  C   UNL     1      10.113 -12.610   5.197  1.00  0.00     0.049 A 
ATOM     57  C   UNL     1       5.258 -14.038   2.812  1.00  0.00     0.074 A 
ATOM     58  C   UNL     1      11.214 -13.387   4.882  1.00  0.00     0.029 A 
ATOM     59  N   UNL     1       9.044 -13.119   4.477  1.00  0.00    -0.354 N 
ATOM     60  N   UNL     1       6.458 -13.833   3.297  1.00  0.00    -0.248 NA
ATOM     61  C   UNL     1       5.190 -15.097   1.796  1.00  0.00     0.031 C 
ATOM     62  C   UNL     1      10.824 -14.326   3.921  1.00  0.00     0.029 A 
ATOM     63  C   UNL     1       9.468 -14.172   3.684  1.00  0.00     0.049 A 
ATOM     64  H   UNL     1       8.120 -12.781   4.522  1.00  0.00     0.167 HD
ATOM     65  C   UNL     1       7.286 -14.747   2.658  1.00  0.00     0.074 A 
ATOM     66  C   UNL     1       6.446 -15.523   1.769  1.00  0.00     0.031 C 
ATOM     67  C   UNL     1       8.623 -14.924   2.792  1.00  0.00     0.031 A 
BRANCH  54  68
ATOM     68  C   UNL     1      11.314 -10.979   6.709  1.00  0.00    -0.014 A 
ATOM     69  C   UNL     1      11.554 -11.123   8.085  1.00  0.00     0.009 A 
ATOM     70  C   UNL     1      12.306 -10.395   5.906  1.00  0.00     0.009 A 
ATOM     71  C   UNL     1      12.744 -10.657   8.649  1.00  0.00     0.001 A 
ATOM     72  C   UNL     1      13.507  -9.957   6.467  1.00  0.00     0.001 A 
ATOM     73  C   UNL     1      13.721 -10.080   7.839  1.00  0.00     0.000 A 
ENDBRANCH  54  68
BRANCH  55  74
ATOM     74  C   UNL     1       2.695 -13.742   2.498  1.00  0.00    -0.014 A 
ATOM     75  C   UNL     1       2.101 -14.981   2.780  1.00  0.00     0.009 A 
ATOM     76  C   UNL     1       2.066 -12.880   1.585  1.00  0.00     0.009 A 
ATOM     77  C   UNL     1       0.916 -15.359   2.144  1.00  0.00     0.001 A 
ATOM     78  C   UNL     1       0.865 -13.248   0.974  1.00  0.00     0.001 A 
ATOM     79  C   UNL     1       0.296 -14.491   1.247  1.00  0.00     0.000 A 
ENDBRANCH  55  74
BRANCH  67  80
ATOM     80  C   UNL     1       9.258 -16.002   1.961  1.00  0.00    -0.014 A 
ATOM     81  C   UNL     1       9.425 -15.845   0.576  1.00  0.00     0.009 A 
ATOM     82  C   UNL     1       9.738 -17.169   2.576  1.00  0.00     0.009 A 
ATOM     83  C   UNL     1      10.033 -16.849  -0.180  1.00  0.00     0.001 A 
ATOM     84  C   UNL     1      10.372 -18.157   1.822  1.00  0.00     0.001 A 
ATOM     85  C   UNL     1      10.511 -18.000   0.444  1.00  0.00     0.000 A 
ENDBRANCH  67  80
ENDBRANCH  41  42
ENDBRANCH  33  36
ENDBRANCH  31  32
ENDBRANCH  30  31
ENDBRANCH  29  30
ENDBRANCH  28  29
ENDBRANCH   1  28
TORSDOF 17
