REMARK SMILES Cc1cccc(OCC(=O)Nc2cc(C(=O)NCCCCCCNC(=O)c3ccc(-c4c5nc(c(-c6ccccc6)c6ccc([nH]6)c(-c6ccccc6)c6nc(c(-c7ccccc7)c7ccc4[nH]7)C=C6)C=C5)cc3)c(Cl)cc2Cl)c1
REMARK SMILES IDX 19 1 18 2 17 3 15 4 16 5 14 7 12 8 13 9 78 10 77 11 79 12
REMARK SMILES IDX 75 13 76 14 11 15 9 16 10 17 8 19 7 20 6 21 1 22 2 23 3 24
REMARK SMILES IDX 80 25 4 26 5 27 20 28 21 29 22 30 23 31 24 32 25 33 26 35
REMARK SMILES IDX 27 36 28 37 74 38 29 39 73 40 30 41 31 42 32 43 67 44 33 45
REMARK SMILES IDX 72 46 66 47 68 48 34 49 71 50 65 51 64 52 35 54 57 55 42 56
REMARK SMILES IDX 56 57 43 58 46 59 55 60 69 61 44 62 45 63 54 65 70 66 47 67
REMARK SMILES IDX 36 68 37 69 41 70 38 71 40 72 39 73 58 74 59 75 63 76 60 77
REMARK SMILES IDX 62 78 61 79 48 80 49 81 53 82 50 83 52 84 51 85
REMARK H PARENT 17 6 11 18 24 34 68 53 46 64
REMARK Flexibility Score: inf
ROOT
ATOM      1  C   UNL     1      -3.837  -1.241   0.268  1.00  0.00     0.021 C 
ENDROOT
BRANCH   1   2
ATOM      2  C   UNL     1      -3.862   0.290   0.314  1.00  0.00     0.116 C 
BRANCH   2   3
ATOM      3  N   UNL     1      -5.164   0.906   0.395  1.00  0.00    -0.352 N 
ATOM      4  C   UNL     1      -5.551   2.072   1.025  1.00  0.00     0.252 C 
ATOM      5  O   UNL     1      -6.675   2.507   0.785  1.00  0.00    -0.269 OA
ATOM      6  H   UNL     1      -5.886   0.422  -0.068  1.00  0.00     0.163 HD
BRANCH   4   7
ATOM      7  C   UNL     1      -4.671   2.823   1.978  1.00  0.00     0.060 A 
ATOM      8  C   UNL     1      -2.522   3.868   2.545  1.00  0.00     0.061 A 
ATOM      9  C   UNL     1      -3.333   3.155   1.649  1.00  0.00     0.043 A 
ATOM     10  C   UNL     1      -3.101   4.317   3.753  1.00  0.00     0.066 A 
ATOM     11  C   UNL     1      -4.429   4.046   4.068  1.00  0.00     0.044 A 
ATOM     12  Cl  UNL     1      -2.182   5.243   4.898  1.00  0.00    -0.082 Cl
ATOM     13  C   UNL     1      -5.209   3.285   3.195  1.00  0.00     0.055 A 
ATOM     14  Cl  UNL     1      -6.811   2.923   3.740  1.00  0.00    -0.083 Cl
BRANCH   8  15
ATOM     15  N   UNL     1      -1.148   4.143   2.378  1.00  0.00    -0.322 N 
ATOM     16  C   UNL     1      -0.220   4.037   1.390  1.00  0.00     0.262 C 
ATOM     17  O   UNL     1       0.948   4.316   1.689  1.00  0.00    -0.271 OA
ATOM     18  H   UNL     1      -0.753   4.512   3.201  1.00  0.00     0.170 HD
BRANCH  16  19
ATOM     19  C   UNL     1      -0.568   3.686  -0.053  1.00  0.00     0.329 C 
BRANCH  19  20
ATOM     20  O   UNL     1      -0.834   2.329  -0.362  1.00  0.00    -0.484 OA
BRANCH  20  21
ATOM     21  C   UNL     1       0.120   1.415  -0.019  1.00  0.00     0.120 A 
ATOM     22  C   UNL     1       3.836   0.694   0.312  1.00  0.00     0.044 C 
ATOM     23  C   UNL     1       2.345   0.560   0.386  1.00  0.00    -0.047 A 
ATOM     24  C   UNL     1       1.800  -0.659   0.808  1.00  0.00     0.003 A 
ATOM     25  C   UNL     1       1.497   1.604  -0.025  1.00  0.00     0.049 A 
ATOM     26  C   UNL     1       0.433  -0.869   0.756  1.00  0.00     0.004 A 
ATOM     27  C   UNL     1      -0.383   0.164   0.326  1.00  0.00     0.046 A 
ENDBRANCH  20  21
ENDBRANCH  19  20
ENDBRANCH  16  19
ENDBRANCH   8  15
ENDBRANCH   4   7
ENDBRANCH   2   3
ENDBRANCH   1   2
BRANCH   1  28
ATOM     28  C   UNL     1      -3.849  -2.019  -1.067  1.00  0.00     0.002 C 
BRANCH  28  29
ATOM     29  C   UNL     1      -3.600  -1.351  -2.426  1.00  0.00     0.002 C 
BRANCH  29  30
ATOM     30  C   UNL     1      -2.187  -0.883  -2.796  1.00  0.00     0.021 C 
BRANCH  30  31
ATOM     31  C   UNL     1      -1.067  -1.932  -2.814  1.00  0.00     0.116 C 
BRANCH  31  32
ATOM     32  N   UNL     1      -0.716  -2.439  -4.143  1.00  0.00    -0.352 N 
ATOM     33  C   UNL     1       0.318  -3.294  -4.532  1.00  0.00     0.251 C 
ATOM     34  H   UNL     1      -1.298  -2.130  -4.874  1.00  0.00     0.163 HD
ATOM     35  O   UNL     1       0.427  -3.655  -5.677  1.00  0.00    -0.269 OA
BRANCH  33  36
ATOM     36  C   UNL     1       1.214  -3.860  -3.486  1.00  0.00     0.039 A 
ATOM     37  C   UNL     1       1.378  -5.250  -3.439  1.00  0.00     0.014 A 
ATOM     38  C   UNL     1       1.709  -3.064  -2.463  1.00  0.00     0.014 A 
ATOM     39  C   UNL     1       1.751  -5.852  -2.237  1.00  0.00     0.010 A 
ATOM     40  C   UNL     1       2.009  -3.663  -1.255  1.00  0.00     0.010 A 
ATOM     41  C   UNL     1       1.923  -5.048  -1.114  1.00  0.00    -0.014 A 
BRANCH  41  42
ATOM     42  C   UNL     1       1.778  -5.536   0.255  1.00  0.00     0.031 A 
ATOM     43  C   UNL     1       2.931  -5.681   1.161  1.00  0.00     0.074 A 
ATOM     44  C   UNL     1       0.538  -5.797   0.728  1.00  0.00     0.049 A 
ATOM     45  N   UNL     1       2.955  -6.478   2.178  1.00  0.00    -0.248 NA
ATOM     46  C   UNL     1       4.182  -4.963   0.960  1.00  0.00     0.031 C 
ATOM     47  C   UNL     1       0.128  -6.010   2.115  1.00  0.00     0.029 A 
ATOM     48  N   UNL     1      -0.603  -6.109   0.016  1.00  0.00    -0.354 N 
ATOM     49  C   UNL     1       4.067  -6.165   2.922  1.00  0.00     0.074 A 
ATOM     50  C   UNL     1       4.848  -5.295   2.071  1.00  0.00     0.031 C 
ATOM     51  C   UNL     1      -1.054  -6.651   2.125  1.00  0.00     0.029 A 
ATOM     52  C   UNL     1      -1.362  -7.013   0.751  1.00  0.00     0.049 A 
ATOM     53  H   UNL     1      -0.840  -5.749  -0.870  1.00  0.00     0.167 HD
ATOM     54  C   UNL     1       4.133  -6.550   4.229  1.00  0.00     0.031 A 
ATOM     55  C   UNL     1      -1.582  -8.291   0.321  1.00  0.00     0.031 A 
ATOM     56  C   UNL     1       2.987  -7.374   4.621  1.00  0.00     0.049 A 
ATOM     57  C   UNL     1      -1.055  -9.358   1.262  1.00  0.00     0.074 A 
ATOM     58  C   UNL     1       1.839  -7.110   5.351  1.00  0.00     0.029 A 
ATOM     59  N   UNL     1       2.793  -8.613   4.021  1.00  0.00    -0.354 N 
ATOM     60  N   UNL     1      -0.162  -9.146   2.188  1.00  0.00    -0.248 NA
ATOM     61  C   UNL     1      -1.456 -10.761   1.189  1.00  0.00     0.031 C 
ATOM     62  C   UNL     1       0.930  -8.181   5.148  1.00  0.00     0.029 A 
ATOM     63  C   UNL     1       1.535  -9.104   4.313  1.00  0.00     0.049 A 
ATOM     64  H   UNL     1       3.460  -9.076   3.464  1.00  0.00     0.167 HD
ATOM     65  C   UNL     1       0.149 -10.329   2.809  1.00  0.00     0.074 A 
ATOM     66  C   UNL     1      -0.706 -11.307   2.162  1.00  0.00     0.031 C 
ATOM     67  C   UNL     1       1.103 -10.394   3.786  1.00  0.00     0.031 A 
BRANCH  54  68
ATOM     68  C   UNL     1       5.085  -5.939   5.237  1.00  0.00    -0.014 A 
ATOM     69  C   UNL     1       4.754  -5.954   6.607  1.00  0.00     0.009 A 
ATOM     70  C   UNL     1       6.284  -5.284   4.912  1.00  0.00     0.009 A 
ATOM     71  C   UNL     1       5.512  -5.269   7.568  1.00  0.00     0.001 A 
ATOM     72  C   UNL     1       7.029  -4.566   5.858  1.00  0.00     0.001 A 
ATOM     73  C   UNL     1       6.635  -4.547   7.187  1.00  0.00     0.000 A 
ENDBRANCH  54  68
BRANCH  55  74
ATOM     74  C   UNL     1      -1.597  -8.444  -1.161  1.00  0.00    -0.014 A 
ATOM     75  C   UNL     1      -2.625  -7.820  -1.894  1.00  0.00     0.009 A 
ATOM     76  C   UNL     1      -0.458  -8.886  -1.849  1.00  0.00     0.009 A 
ATOM     77  C   UNL     1      -2.468  -7.544  -3.255  1.00  0.00     0.001 A 
ATOM     78  C   UNL     1      -0.312  -8.623  -3.217  1.00  0.00     0.001 A 
ATOM     79  C   UNL     1      -1.299  -7.922  -3.909  1.00  0.00     0.000 A 
ENDBRANCH  55  74
BRANCH  67  80
ATOM     80  C   UNL     1       1.693 -11.648   4.396  1.00  0.00    -0.014 A 
ATOM     81  C   UNL     1       1.584 -12.934   3.853  1.00  0.00     0.009 A 
ATOM     82  C   UNL     1       2.514 -11.525   5.543  1.00  0.00     0.009 A 
ATOM     83  C   UNL     1       2.220 -14.039   4.442  1.00  0.00     0.001 A 
ATOM     84  C   UNL     1       3.187 -12.613   6.107  1.00  0.00     0.001 A 
ATOM     85  C   UNL     1       3.029 -13.876   5.561  1.00  0.00     0.000 A 
ENDBRANCH  67  80
ENDBRANCH  41  42
ENDBRANCH  33  36
ENDBRANCH  31  32
ENDBRANCH  30  31
ENDBRANCH  29  30
ENDBRANCH  28  29
ENDBRANCH   1  28
TORSDOF 17
