REMARK SMILES C[N@H+]1CCO[C@H](CNC(=O)N2CC[C@@](C)(C(=O)NCCCCCCNC(=O)c3ccc(-c4c5nc(c(-c6ccccc6)c6ccc([nH]6)c(-c6ccccc6)c6nc(c(-c7ccccc7)c7ccc4[nH]7)C=C6)C=C5)cc3)C2)C1
REMARK SMILES IDX 21 1 20 2 19 3 18 4 16 5 17 6 14 8 11 9 12 10 76 11 13 12
REMARK SMILES IDX 15 13 9 14 8 15 10 17 7 18 6 19 1 20 2 21 3 22 77 23 4 25
REMARK SMILES IDX 5 26 22 27 23 28 24 29 25 30 26 31 27 33 28 34 29 35 75 36
REMARK SMILES IDX 30 37 74 38 31 39 32 40 33 41 68 42 34 43 73 44 67 45 69 46
REMARK SMILES IDX 35 47 72 48 66 49 65 50 36 52 58 53 43 54 57 55 44 56 47 57
REMARK SMILES IDX 56 58 70 59 45 60 46 61 55 63 71 64 48 65 37 66 38 67 42 68
REMARK SMILES IDX 39 69 41 70 40 71 59 72 60 73 64 74 61 75 63 76 62 77 49 78
REMARK SMILES IDX 50 79 54 80 51 81 53 82 52 83
REMARK H PARENT 18 7 8 16 2 24 25 32 69 51 47 62
REMARK Flexibility Score: inf
ROOT
ATOM      1  C   UNL     1       5.028  -0.919  -3.289  1.00  0.00     0.002 C 
ENDROOT
BRANCH   1   2
ATOM      2  C   UNL     1       3.688  -1.545  -3.693  1.00  0.00     0.021 C 
BRANCH   2   3
ATOM      3  C   UNL     1       3.219  -1.178  -5.102  1.00  0.00     0.116 C 
BRANCH   3   4
ATOM      4  N   UNL     1       3.990  -1.881  -6.108  1.00  0.00    -0.356 N 
ATOM      5  C   UNL     1       3.729  -2.898  -6.964  1.00  0.00     0.227 C 
ATOM      6  O   UNL     1       4.728  -3.334  -7.551  1.00  0.00    -0.274 OA
ATOM      7  H   UNL     1       4.911  -1.544  -6.187  1.00  0.00     0.163 HD
BRANCH   5   8
ATOM      8  C   UNL     1       2.324  -3.428  -7.324  1.00  0.00     0.066 C 
ATOM      9  N   UNL     1       0.382  -2.482  -6.285  1.00  0.00    -0.324 N 
ATOM     10  C   UNL     1       0.674  -1.655  -7.444  1.00  0.00     0.122 C 
ATOM     11  C   UNL     1       1.334  -3.583  -6.165  1.00  0.00     0.138 C 
ATOM     12  C   UNL     1       1.631  -2.459  -8.297  1.00  0.00     0.040 C 
ATOM     13  C   UNL     1       2.495  -4.801  -8.011  1.00  0.00     0.024 C 
BRANCH   9  14
ATOM     14  C   UNL     1      -0.798  -2.305  -5.632  1.00  0.00     0.317 C 
ATOM     15  N   UNL     1      -1.034  -2.888  -4.443  1.00  0.00    -0.335 N 
ATOM     16  H   UNL     1      -1.955  -3.219  -4.335  1.00  0.00     0.165 HD
ATOM     17  O   UNL     1      -1.705  -1.616  -6.104  1.00  0.00    -0.249 OA
BRANCH  15  18
ATOM     18  C   UNL     1      -0.183  -3.120  -3.287  1.00  0.00     0.155 C 
BRANCH  18  19
ATOM     19  C   UNL     1      -0.208  -1.925  -2.307  1.00  0.00     0.192 C 
ATOM     20  C   UNL     1       1.115  -0.500   0.147  1.00  0.00     0.332 C 
ATOM     21  N   UNL     1      -0.057  -1.356   0.167  1.00  0.00    -0.333 N 
ATOM     22  C   UNL     1      -1.298  -0.577  -0.044  1.00  0.00     0.290 C 
ATOM     23  C   UNL     1       0.040  -2.416  -0.858  1.00  0.00     0.296 C 
ATOM     24  H   UNL     1      -0.095  -1.790   1.090  1.00  0.00     0.348 HD
ATOM     25  C   UNL     1      -1.500  -0.121  -1.495  1.00  0.00     0.222 C 
ATOM     26  O   UNL     1      -1.482  -1.252  -2.377  1.00  0.00    -0.365 OA
ENDBRANCH  18  19
ENDBRANCH  15  18
ENDBRANCH   9  14
ENDBRANCH   5   8
ENDBRANCH   3   4
ENDBRANCH   2   3
ENDBRANCH   1   2
BRANCH   1  27
ATOM     27  C   UNL     1       5.084   0.612  -3.357  1.00  0.00     0.002 C 
BRANCH  27  28
ATOM     28  C   UNL     1       3.981   1.348  -2.590  1.00  0.00     0.021 C 
BRANCH  28  29
ATOM     29  C   UNL     1       3.968   1.098  -1.084  1.00  0.00     0.116 C 
BRANCH  29  30
ATOM     30  N   UNL     1       5.155   1.603  -0.418  1.00  0.00    -0.352 N 
ATOM     31  C   UNL     1       5.255   2.421   0.683  1.00  0.00     0.251 C 
ATOM     32  H   UNL     1       6.011   1.319  -0.811  1.00  0.00     0.163 HD
ATOM     33  O   UNL     1       6.341   2.878   1.016  1.00  0.00    -0.269 OA
BRANCH  31  34
ATOM     34  C   UNL     1       4.044   2.767   1.459  1.00  0.00     0.039 A 
ATOM     35  C   UNL     1       3.790   4.103   1.772  1.00  0.00     0.014 A 
ATOM     36  C   UNL     1       3.167   1.774   1.893  1.00  0.00     0.014 A 
ATOM     37  C   UNL     1       2.617   4.449   2.454  1.00  0.00     0.010 A 
ATOM     38  C   UNL     1       1.966   2.131   2.511  1.00  0.00     0.010 A 
ATOM     39  C   UNL     1       1.665   3.471   2.791  1.00  0.00    -0.014 A 
BRANCH  39  40
ATOM     40  C   UNL     1       0.357   3.834   3.412  1.00  0.00     0.031 A 
ATOM     41  C   UNL     1      -0.058   3.256   4.743  1.00  0.00     0.074 A 
ATOM     42  C   UNL     1      -0.503   4.637   2.750  1.00  0.00     0.049 A 
ATOM     43  N   UNL     1      -1.169   3.443   5.415  1.00  0.00    -0.248 NA
ATOM     44  C   UNL     1       0.877   2.321   5.388  1.00  0.00     0.031 C 
ATOM     45  C   UNL     1      -0.275   5.220   1.425  1.00  0.00     0.029 A 
ATOM     46  N   UNL     1      -1.746   5.108   3.105  1.00  0.00    -0.354 N 
ATOM     47  C   UNL     1      -1.070   2.639   6.545  1.00  0.00     0.074 A 
ATOM     48  C   UNL     1       0.175   1.911   6.433  1.00  0.00     0.031 C 
ATOM     49  C   UNL     1      -1.314   6.008   1.105  1.00  0.00     0.029 A 
ATOM     50  C   UNL     1      -2.304   5.952   2.175  1.00  0.00     0.049 A 
ATOM     51  H   UNL     1      -2.194   4.862   3.946  1.00  0.00     0.167 HD
ATOM     52  C   UNL     1      -1.917   2.530   7.596  1.00  0.00     0.031 A 
ATOM     53  C   UNL     1      -3.479   6.613   2.176  1.00  0.00     0.031 A 
ATOM     54  C   UNL     1      -3.150   3.261   7.727  1.00  0.00     0.049 A 
ATOM     55  C   UNL     1      -4.406   6.476   3.352  1.00  0.00     0.074 A 
ATOM     56  C   UNL     1      -4.037   3.270   8.790  1.00  0.00     0.029 A 
ATOM     57  N   UNL     1      -3.673   4.108   6.763  1.00  0.00    -0.354 N 
ATOM     58  N   UNL     1      -4.251   5.780   4.452  1.00  0.00    -0.248 NA
ATOM     59  C   UNL     1      -5.668   7.229   3.291  1.00  0.00     0.031 C 
ATOM     60  C   UNL     1      -5.127   4.075   8.444  1.00  0.00     0.029 A 
ATOM     61  C   UNL     1      -4.885   4.622   7.195  1.00  0.00     0.049 A 
ATOM     62  H   UNL     1      -3.247   4.314   5.900  1.00  0.00     0.167 HD
ATOM     63  C   UNL     1      -5.378   6.034   5.224  1.00  0.00     0.074 A 
ATOM     64  C   UNL     1      -6.200   6.962   4.476  1.00  0.00     0.031 C 
ATOM     65  C   UNL     1      -5.700   5.543   6.445  1.00  0.00     0.031 A 
BRANCH  52  66
ATOM     66  C   UNL     1      -1.534   1.579   8.700  1.00  0.00    -0.014 A 
ATOM     67  C   UNL     1      -0.431   1.833   9.532  1.00  0.00     0.009 A 
ATOM     68  C   UNL     1      -2.306   0.430   8.933  1.00  0.00     0.009 A 
ATOM     69  C   UNL     1      -0.082   0.934  10.541  1.00  0.00     0.001 A 
ATOM     70  C   UNL     1      -1.976  -0.449   9.966  1.00  0.00     0.001 A 
ATOM     71  C   UNL     1      -0.857  -0.204  10.761  1.00  0.00     0.000 A 
ENDBRANCH  52  66
BRANCH  53  72
ATOM     72  C   UNL     1      -3.842   7.493   1.032  1.00  0.00    -0.014 A 
ATOM     73  C   UNL     1      -3.889   8.887   1.192  1.00  0.00     0.009 A 
ATOM     74  C   UNL     1      -4.157   6.945  -0.221  1.00  0.00     0.009 A 
ATOM     75  C   UNL     1      -4.271   9.710   0.130  1.00  0.00     0.001 A 
ATOM     76  C   UNL     1      -4.508   7.773  -1.290  1.00  0.00     0.001 A 
ATOM     77  C   UNL     1      -4.575   9.153  -1.111  1.00  0.00     0.000 A 
ENDBRANCH  53  72
BRANCH  65  78
ATOM     78  C   UNL     1      -6.979   6.027   7.072  1.00  0.00    -0.014 A 
ATOM     79  C   UNL     1      -8.233   5.638   6.576  1.00  0.00     0.009 A 
ATOM     80  C   UNL     1      -6.925   6.851   8.208  1.00  0.00     0.009 A 
ATOM     81  C   UNL     1      -9.406   6.094   7.183  1.00  0.00     0.001 A 
ATOM     82  C   UNL     1      -8.098   7.279   8.832  1.00  0.00     0.001 A 
ATOM     83  C   UNL     1      -9.337   6.908   8.313  1.00  0.00     0.000 A 
ENDBRANCH  65  78
ENDBRANCH  39  40
ENDBRANCH  31  34
ENDBRANCH  29  30
ENDBRANCH  28  29
ENDBRANCH  27  28
ENDBRANCH   1  27
TORSDOF 16
