REMARK SMILES O=C(NCCCCCCNC(=O)c1ccc(-c2c3nc(c(-c4ccccc4)c4ccc([nH]4)c(-c4ccccc4)c4nc(c(-c5ccccc5)c5ccc2[nH]5)C=C4)C=C3)cc1)c1ccc(NC(=O)[C@@H]2CC=CC[C@H]2C(=O)Nc2cccc([N+](=O)[O-])c2)cc1
REMARK SMILES IDX 5 1 4 2 3 3 1 4 2 5 61 7 62 8 87 9 63 10 86 11 64 12 65 13
REMARK SMILES IDX 66 14 67 16 68 17 69 18 73 19 70 20 72 21 71 22 74 23 75 24
REMARK SMILES IDX 76 25 77 27 78 28 85 29 79 30 81 31 80 32 82 33 83 34 84 35
REMARK SMILES IDX 6 36 7 37 8 38 9 39 10 40 11 41 12 43 13 44 14 45 60 46
REMARK SMILES IDX 15 47 59 48 16 49 17 50 18 51 53 52 19 53 58 54 52 55 54 56
REMARK SMILES IDX 20 57 57 58 51 59 50 60 21 62 43 63 28 64 42 65 29 66 32 67
REMARK SMILES IDX 41 68 55 69 30 70 31 71 40 73 56 74 33 75 22 76 23 77 27 78
REMARK SMILES IDX 24 79 26 80 25 81 44 82 45 83 49 84 46 85 48 86 47 87 34 88
REMARK SMILES IDX 35 89 39 90 36 91 38 92 37 93
REMARK H PARENT 3 6 65 15 76 26 10 42 54 61 32 72
REMARK Flexibility Score: inf
ROOT
ATOM      1  C   UNL     1      14.074   2.549  -5.739  1.00  0.00     0.021 C 
ENDROOT
BRANCH   1   2
ATOM      2  C   UNL     1      12.772   1.895  -6.174  1.00  0.00     0.116 C 
BRANCH   2   3
ATOM      3  N   UNL     1      12.945   0.528  -6.648  1.00  0.00    -0.352 N 
ATOM      4  O   UNL     1      12.537  -1.708  -6.681  1.00  0.00    -0.269 OA
ATOM      5  C   UNL     1      12.219  -0.595  -6.302  1.00  0.00     0.251 C 
ATOM      6  H   UNL     1      13.671   0.387  -7.297  1.00  0.00     0.163 HD
BRANCH   5   7
ATOM      7  C   UNL     1      11.039  -0.408  -5.434  1.00  0.00     0.039 A 
ATOM      8  C   UNL     1      10.107   0.562  -5.779  1.00  0.00     0.016 A 
ATOM      9  C   UNL     1      10.933  -1.094  -4.224  1.00  0.00     0.016 A 
ATOM     10  C   UNL     1       9.173   0.966  -4.840  1.00  0.00     0.027 A 
ATOM     11  C   UNL     1       9.937  -0.723  -3.313  1.00  0.00     0.027 A 
ATOM     12  C   UNL     1       9.057   0.326  -3.612  1.00  0.00     0.041 A 
BRANCH  12  13
ATOM     13  N   UNL     1       8.133   0.715  -2.635  1.00  0.00    -0.326 N 
ATOM     14  C   UNL     1       6.996   1.460  -2.671  1.00  0.00     0.228 C 
ATOM     15  H   UNL     1       8.351   0.379  -1.736  1.00  0.00     0.169 HD
ATOM     16  O   UNL     1       6.538   1.825  -1.579  1.00  0.00    -0.274 OA
BRANCH  14  17
ATOM     17  C   UNL     1       6.222   1.831  -3.940  1.00  0.00     0.095 C 
ATOM     18  C   UNL     1       6.077   0.690  -4.968  1.00  0.00     0.041 C 
ATOM     19  C   UNL     1       6.568   3.250  -4.436  1.00  0.00     0.095 C 
ATOM     20  C   UNL     1       6.251   1.064  -6.404  1.00  0.00    -0.030 C 
ATOM     21  C   UNL     1       6.403   3.515  -5.948  1.00  0.00     0.041 C 
ATOM     22  C   UNL     1       6.401   2.318  -6.839  1.00  0.00    -0.030 C 
BRANCH  19  23
ATOM     23  C   UNL     1       5.951   4.433  -3.655  1.00  0.00     0.228 C 
ATOM     24  O   UNL     1       6.707   5.209  -3.056  1.00  0.00    -0.274 OA
ATOM     25  N   UNL     1       4.634   4.802  -3.750  1.00  0.00    -0.326 N 
ATOM     26  H   UNL     1       4.425   5.699  -3.402  1.00  0.00     0.169 HD
BRANCH  25  27
ATOM     27  C   UNL     1       3.543   4.099  -4.265  1.00  0.00     0.048 A 
ATOM     28  C   UNL     1       2.804   4.649  -5.313  1.00  0.00     0.026 A 
ATOM     29  C   UNL     1       3.162   2.878  -3.724  1.00  0.00     0.111 A 
ATOM     30  C   UNL     1       1.803   3.893  -5.931  1.00  0.00     0.009 A 
ATOM     31  C   UNL     1       2.213   2.093  -4.382  1.00  0.00     0.271 A 
ATOM     32  C   UNL     1       1.532   2.594  -5.495  1.00  0.00     0.086 A 
BRANCH  31  33
ATOM     33  N   UNL     1       1.998   0.710  -3.942  1.00  0.00     0.062 N 
ATOM     34  O   UNL     1       1.167   0.032  -4.561  1.00  0.00    -0.258 OA
ATOM     35  O   UNL     1       2.689   0.290  -3.003  1.00  0.00    -0.258 OA
ENDBRANCH  31  33
ENDBRANCH  25  27
ENDBRANCH  19  23
ENDBRANCH  14  17
ENDBRANCH  12  13
ENDBRANCH   5   7
ENDBRANCH   2   3
ENDBRANCH   1   2
BRANCH   1  36
ATOM     36  C   UNL     1      15.075   2.795  -6.864  1.00  0.00     0.002 C 
BRANCH  36  37
ATOM     37  C   UNL     1      14.561   3.642  -8.032  1.00  0.00     0.002 C 
BRANCH  37  38
ATOM     38  C   UNL     1      13.984   5.012  -7.665  1.00  0.00     0.021 C 
BRANCH  38  39
ATOM     39  C   UNL     1      14.877   5.896  -6.799  1.00  0.00     0.116 C 
BRANCH  39  40
ATOM     40  N   UNL     1      16.185   6.125  -7.387  1.00  0.00    -0.352 N 
ATOM     41  C   UNL     1      16.891   7.292  -7.530  1.00  0.00     0.251 C 
ATOM     42  H   UNL     1      16.633   5.320  -7.735  1.00  0.00     0.163 HD
ATOM     43  O   UNL     1      17.940   7.299  -8.169  1.00  0.00    -0.269 OA
BRANCH  41  44
ATOM     44  C   UNL     1      16.383   8.550  -6.944  1.00  0.00     0.039 A 
ATOM     45  C   UNL     1      16.424   9.711  -7.722  1.00  0.00     0.014 A 
ATOM     46  C   UNL     1      15.893   8.600  -5.636  1.00  0.00     0.014 A 
ATOM     47  C   UNL     1      15.922  10.909  -7.211  1.00  0.00     0.010 A 
ATOM     48  C   UNL     1      15.339   9.782  -5.148  1.00  0.00     0.010 A 
ATOM     49  C   UNL     1      15.350  10.947  -5.930  1.00  0.00    -0.014 A 
BRANCH  49  50
ATOM     50  C   UNL     1      14.757  12.196  -5.394  1.00  0.00     0.031 A 
ATOM     51  C   UNL     1      15.382  12.888  -4.216  1.00  0.00     0.074 A 
ATOM     52  C   UNL     1      13.619  12.676  -5.930  1.00  0.00     0.049 A 
ATOM     53  N   UNL     1      14.974  13.953  -3.572  1.00  0.00    -0.248 NA
ATOM     54  C   UNL     1      16.615  12.293  -3.677  1.00  0.00     0.031 C 
ATOM     55  C   UNL     1      12.891  12.078  -7.051  1.00  0.00     0.029 A 
ATOM     56  N   UNL     1      12.869  13.775  -5.593  1.00  0.00    -0.354 N 
ATOM     57  C   UNL     1      15.888  14.144  -2.544  1.00  0.00     0.074 A 
ATOM     58  C   UNL     1      16.847  13.063  -2.624  1.00  0.00     0.031 C 
ATOM     59  C   UNL     1      11.809  12.826  -7.319  1.00  0.00     0.029 A 
ATOM     60  C   UNL     1      11.749  13.934  -6.371  1.00  0.00     0.049 A 
ATOM     61  H   UNL     1      13.111  14.390  -4.864  1.00  0.00     0.167 HD
ATOM     62  C   UNL     1      15.935  15.137  -1.624  1.00  0.00     0.031 A 
ATOM     63  C   UNL     1      10.777  14.864  -6.324  1.00  0.00     0.031 A 
ATOM     64  C   UNL     1      14.988  16.217  -1.546  1.00  0.00     0.049 A 
ATOM     65  C   UNL     1      10.851  15.957  -5.296  1.00  0.00     0.074 A 
ATOM     66  C   UNL     1      14.981  17.298  -0.681  1.00  0.00     0.029 A 
ATOM     67  N   UNL     1      13.878  16.352  -2.364  1.00  0.00    -0.354 N 
ATOM     68  N   UNL     1      11.753  16.156  -4.367  1.00  0.00    -0.248 NA
ATOM     69  C   UNL     1       9.776  16.959  -5.320  1.00  0.00     0.031 C 
ATOM     70  C   UNL     1      13.844  18.068  -0.952  1.00  0.00     0.029 A 
ATOM     71  C   UNL     1      13.168  17.489  -2.014  1.00  0.00     0.049 A 
ATOM     72  H   UNL     1      13.630  15.731  -3.087  1.00  0.00     0.167 HD
ATOM     73  C   UNL     1      11.367  17.315  -3.708  1.00  0.00     0.074 A 
ATOM     74  C   UNL     1      10.158  17.783  -4.354  1.00  0.00     0.031 C 
ATOM     75  C   UNL     1      11.964  17.937  -2.662  1.00  0.00     0.031 A 
BRANCH  62  76
ATOM     76  C   UNL     1      17.053  15.090  -0.621  1.00  0.00    -0.014 A 
ATOM     77  C   UNL     1      18.377  15.366  -0.998  1.00  0.00     0.009 A 
ATOM     78  C   UNL     1      16.778  14.781   0.720  1.00  0.00     0.009 A 
ATOM     79  C   UNL     1      19.409  15.295  -0.060  1.00  0.00     0.001 A 
ATOM     80  C   UNL     1      17.808  14.736   1.661  1.00  0.00     0.001 A 
ATOM     81  C   UNL     1      19.123  14.982   1.268  1.00  0.00     0.000 A 
ENDBRANCH  62  76
BRANCH  63  82
ATOM     82  C   UNL     1       9.656  14.808  -7.295  1.00  0.00    -0.014 A 
ATOM     83  C   UNL     1       9.593  15.720  -8.359  1.00  0.00     0.009 A 
ATOM     84  C   UNL     1       8.653  13.835  -7.171  1.00  0.00     0.009 A 
ATOM     85  C   UNL     1       8.536  15.670  -9.270  1.00  0.00     0.001 A 
ATOM     86  C   UNL     1       7.610  13.773  -8.097  1.00  0.00     0.001 A 
ATOM     87  C   UNL     1       7.548  14.694  -9.141  1.00  0.00     0.000 A 
ENDBRANCH  63  82
BRANCH  75  88
ATOM     88  C   UNL     1      11.329  19.204  -2.168  1.00  0.00    -0.014 A 
ATOM     89  C   UNL     1      10.148  19.176  -1.410  1.00  0.00     0.009 A 
ATOM     90  C   UNL     1      11.941  20.439  -2.434  1.00  0.00     0.009 A 
ATOM     91  C   UNL     1       9.577  20.365  -0.951  1.00  0.00     0.001 A 
ATOM     92  C   UNL     1      11.380  21.624  -1.954  1.00  0.00     0.001 A 
ATOM     93  C   UNL     1      10.195  21.586  -1.220  1.00  0.00     0.000 A 
ENDBRANCH  75  88
ENDBRANCH  49  50
ENDBRANCH  41  44
ENDBRANCH  39  40
ENDBRANCH  38  39
ENDBRANCH  37  38
ENDBRANCH  36  37
ENDBRANCH   1  36
TORSDOF 18
