REMARK SMILES CC[C@H](NC(=O)Cc1c(C)c2cc(Cl)c(OC)cc2oc1=O)C(=O)NCCCCCCNC(=O)c1ccc(-c2c3nc(c(-c4ccccc4)c4ccc([nH]4)c(-c4ccccc4)c4nc(c(-c5ccccc5)c5ccc2[nH]5)C=C4)C=C3)cc1
REMARK SMILES IDX 27 1 26 2 25 3 23 4 24 5 3 7 2 8 1 9 4 10 5 11 6 13 7 14
REMARK SMILES IDX 8 15 9 16 21 17 10 18 11 19 20 20 22 21 12 22 19 23 13 24
REMARK SMILES IDX 18 25 14 26 15 27 16 28 17 29 28 30 29 31 30 32 31 33 32 34
REMARK SMILES IDX 33 35 34 37 35 38 36 39 82 40 37 41 81 42 38 43 39 44 40 45
REMARK SMILES IDX 75 46 41 47 80 48 74 49 76 50 42 51 79 52 73 53 72 54 43 56
REMARK SMILES IDX 65 57 50 58 64 59 51 60 54 61 63 62 77 63 52 64 53 65 62 67
REMARK SMILES IDX 78 68 55 69 44 70 45 71 49 72 46 73 48 74 47 75 66 76 67 77
REMARK SMILES IDX 71 78 68 79 70 80 69 81 56 82 57 83 61 84 58 85 60 86 59 87
REMARK H PARENT 25 6 4 12 32 36 76 55 54 66
REMARK Flexibility Score: inf
ROOT
ATOM      1  C   UNL     1      -3.082  -1.285  -2.909  1.00  0.00     0.021 C 
ENDROOT
BRANCH   1   2
ATOM      2  C   UNL     1      -2.333  -2.293  -2.051  1.00  0.00     0.116 C 
BRANCH   2   3
ATOM      3  N   UNL     1      -1.251  -2.884  -2.801  1.00  0.00    -0.354 N 
ATOM      4  C   UNL     1       0.089  -2.712  -2.658  1.00  0.00     0.242 C 
ATOM      5  O   UNL     1       0.835  -3.230  -3.493  1.00  0.00    -0.273 OA
ATOM      6  H   UNL     1      -1.522  -3.501  -3.518  1.00  0.00     0.163 HD
BRANCH   4   7
ATOM      7  C   UNL     1       0.662  -2.022  -1.409  1.00  0.00     0.171 C 
BRANCH   7   8
ATOM      8  C   UNL     1       0.372  -2.901  -0.176  1.00  0.00     0.031 C 
ATOM      9  C   UNL     1       1.005  -2.412   1.117  1.00  0.00     0.006 C 
ENDBRANCH   7   8
BRANCH   7  10
ATOM     10  N   UNL     1       0.274  -0.624  -1.234  1.00  0.00    -0.344 N 
ATOM     11  C   UNL     1       0.891   0.529  -1.632  1.00  0.00     0.225 C 
ATOM     12  H   UNL     1      -0.571  -0.490  -0.748  1.00  0.00     0.164 HD
ATOM     13  O   UNL     1       0.356   1.585  -1.287  1.00  0.00    -0.275 OA
BRANCH  11  14
ATOM     14  C   UNL     1       2.201   0.515  -2.426  1.00  0.00     0.143 C 
BRANCH  14  15
ATOM     15  C   UNL     1       3.364   0.725  -1.479  1.00  0.00     0.051 A 
ATOM     16  C   UNL     1       4.045  -0.266  -0.871  1.00  0.00    -0.029 A 
ATOM     17  C   UNL     1       3.839   2.137  -1.309  1.00  0.00     0.340 A 
ATOM     18  C   UNL     1       4.059  -1.712  -1.273  1.00  0.00     0.046 C 
ATOM     19  C   UNL     1       4.911   0.073   0.256  1.00  0.00     0.023 A 
ATOM     20  O   UNL     1       5.016   2.328  -0.572  1.00  0.00    -0.422 OA
ATOM     21  O   UNL     1       3.317   3.074  -1.903  1.00  0.00    -0.246 OA
ATOM     22  C   UNL     1       5.175  -0.823   1.294  1.00  0.00     0.036 A 
ATOM     23  C   UNL     1       5.477   1.333   0.306  1.00  0.00     0.142 A 
ATOM     24  C   UNL     1       6.095  -0.495   2.287  1.00  0.00     0.083 A 
ATOM     25  C   UNL     1       6.455   1.658   1.251  1.00  0.00     0.095 A 
ATOM     26  Cl  UNL     1       6.352  -1.646   3.550  1.00  0.00    -0.080 Cl
ATOM     27  C   UNL     1       6.791   0.722   2.239  1.00  0.00     0.141 A 
BRANCH  27  28
ATOM     28  O   UNL     1       7.727   0.919   3.217  1.00  0.00    -0.495 OA
ATOM     29  C   UNL     1       8.736   1.885   2.964  1.00  0.00     0.278 C 
ENDBRANCH  27  28
ENDBRANCH  14  15
ENDBRANCH  11  14
ENDBRANCH   7  10
ENDBRANCH   4   7
ENDBRANCH   2   3
ENDBRANCH   1   2
BRANCH   1  30
ATOM     30  C   UNL     1      -3.772  -1.910  -4.126  1.00  0.00     0.002 C 
BRANCH  30  31
ATOM     31  C   UNL     1      -4.648  -3.130  -3.823  1.00  0.00     0.002 C 
BRANCH  31  32
ATOM     32  C   UNL     1      -5.658  -2.940  -2.692  1.00  0.00     0.021 C 
BRANCH  32  33
ATOM     33  C   UNL     1      -6.555  -1.725  -2.853  1.00  0.00     0.116 C 
BRANCH  33  34
ATOM     34  N   UNL     1      -7.405  -1.819  -4.024  1.00  0.00    -0.352 N 
ATOM     35  C   UNL     1      -8.764  -1.625  -4.110  1.00  0.00     0.251 C 
ATOM     36  H   UNL     1      -6.952  -2.052  -4.866  1.00  0.00     0.163 HD
ATOM     37  O   UNL     1      -9.375  -1.907  -5.126  1.00  0.00    -0.269 OA
BRANCH  35  38
ATOM     38  C   UNL     1      -9.477  -1.098  -2.926  1.00  0.00     0.039 A 
ATOM     39  C   UNL     1      -8.959  -0.010  -2.219  1.00  0.00     0.014 A 
ATOM     40  C   UNL     1     -10.646  -1.730  -2.499  1.00  0.00     0.014 A 
ATOM     41  C   UNL     1      -9.521   0.344  -1.001  1.00  0.00     0.010 A 
ATOM     42  C   UNL     1     -11.267  -1.305  -1.323  1.00  0.00     0.010 A 
ATOM     43  C   UNL     1     -10.688  -0.291  -0.545  1.00  0.00    -0.014 A 
BRANCH  43  44
ATOM     44  C   UNL     1     -11.300   0.159   0.730  1.00  0.00     0.031 A 
ATOM     45  C   UNL     1     -11.385  -0.756   1.918  1.00  0.00     0.074 A 
ATOM     46  C   UNL     1     -11.728   1.432   0.823  1.00  0.00     0.049 A 
ATOM     47  N   UNL     1     -11.842  -0.499   3.118  1.00  0.00    -0.248 NA
ATOM     48  C   UNL     1     -10.899  -2.134   1.744  1.00  0.00     0.031 C 
ATOM     49  C   UNL     1     -11.686   2.413  -0.264  1.00  0.00     0.029 A 
ATOM     50  N   UNL     1     -12.244   2.131   1.883  1.00  0.00    -0.354 N 
ATOM     51  C   UNL     1     -11.709  -1.680   3.837  1.00  0.00     0.074 A 
ATOM     52  C   UNL     1     -11.162  -2.666   2.930  1.00  0.00     0.031 C 
ATOM     53  C   UNL     1     -12.086   3.603   0.204  1.00  0.00     0.029 A 
ATOM     54  C   UNL     1     -12.483   3.453   1.600  1.00  0.00     0.049 A 
ATOM     55  H   UNL     1     -12.425   1.726   2.762  1.00  0.00     0.167 HD
ATOM     56  C   UNL     1     -12.003  -1.915   5.138  1.00  0.00     0.031 A 
ATOM     57  C   UNL     1     -12.974   4.442   2.369  1.00  0.00     0.031 A 
ATOM     58  C   UNL     1     -12.556  -0.931   6.033  1.00  0.00     0.049 A 
ATOM     59  C   UNL     1     -13.334   4.146   3.794  1.00  0.00     0.074 A 
ATOM     60  C   UNL     1     -12.894  -1.077   7.367  1.00  0.00     0.029 A 
ATOM     61  N   UNL     1     -12.848   0.380   5.687  1.00  0.00    -0.354 N 
ATOM     62  N   UNL     1     -13.207   3.021   4.456  1.00  0.00    -0.248 NA
ATOM     63  C   UNL     1     -13.903   5.249   4.577  1.00  0.00     0.031 C 
ATOM     64  C   UNL     1     -13.443   0.129   7.813  1.00  0.00     0.029 A 
ATOM     65  C   UNL     1     -13.382   1.048   6.777  1.00  0.00     0.049 A 
ATOM     66  H   UNL     1     -12.698   0.777   4.799  1.00  0.00     0.167 HD
ATOM     67  C   UNL     1     -13.678   3.280   5.735  1.00  0.00     0.074 A 
ATOM     68  C   UNL     1     -14.065   4.676   5.763  1.00  0.00     0.031 C 
ATOM     69  C   UNL     1     -13.784   2.432   6.787  1.00  0.00     0.031 A 
BRANCH  56  70
ATOM     70  C   UNL     1     -11.745  -3.296   5.677  1.00  0.00    -0.014 A 
ATOM     71  C   UNL     1     -12.822  -4.117   6.048  1.00  0.00     0.009 A 
ATOM     72  C   UNL     1     -10.437  -3.761   5.885  1.00  0.00     0.009 A 
ATOM     73  C   UNL     1     -12.596  -5.369   6.622  1.00  0.00     0.001 A 
ATOM     74  C   UNL     1     -10.213  -5.027   6.432  1.00  0.00     0.001 A 
ATOM     75  C   UNL     1     -11.292  -5.826   6.807  1.00  0.00     0.000 A 
ENDBRANCH  56  70
BRANCH  57  76
ATOM     76  C   UNL     1     -13.131   5.798   1.784  1.00  0.00    -0.014 A 
ATOM     77  C   UNL     1     -14.081   6.032   0.775  1.00  0.00     0.009 A 
ATOM     78  C   UNL     1     -12.273   6.841   2.163  1.00  0.00     0.009 A 
ATOM     79  C   UNL     1     -14.142   7.268   0.130  1.00  0.00     0.001 A 
ATOM     80  C   UNL     1     -12.359   8.087   1.537  1.00  0.00     0.001 A 
ATOM     81  C   UNL     1     -13.283   8.295   0.513  1.00  0.00     0.000 A 
ENDBRANCH  57  76
BRANCH  69  82
ATOM     82  C   UNL     1     -14.349   2.982   8.067  1.00  0.00    -0.014 A 
ATOM     83  C   UNL     1     -13.522   3.124   9.193  1.00  0.00     0.009 A 
ATOM     84  C   UNL     1     -15.715   3.281   8.185  1.00  0.00     0.009 A 
ATOM     85  C   UNL     1     -14.052   3.543  10.413  1.00  0.00     0.001 A 
ATOM     86  C   UNL     1     -16.237   3.730   9.399  1.00  0.00     0.001 A 
ATOM     87  C   UNL     1     -15.408   3.852  10.514  1.00  0.00     0.000 A 
ENDBRANCH  69  82
ENDBRANCH  43  44
ENDBRANCH  35  38
ENDBRANCH  33  34
ENDBRANCH  32  33
ENDBRANCH  31  32
ENDBRANCH  30  31
ENDBRANCH   1  30
TORSDOF 18
