REMARK SMILES CCn1cccc1C(=O)N(C)c1snc(C)c1C(=O)NCCCCCCNC(=O)c1ccc(-c2c3nc(c(-c4ccccc4)c4ccc([nH]4)c(-c4ccccc4)c4nc(c(-c5ccccc5)c5ccc2[nH]5)C=C4)C=C3)cc1
REMARK SMILES IDX 22 1 21 2 20 3 18 4 19 5 17 7 12 8 13 9 14 10 15 11 16 12
REMARK SMILES IDX 10 13 11 14 8 15 9 16 7 17 3 18 4 19 5 20 6 21 2 22 1 23
REMARK SMILES IDX 23 24 24 25 25 26 26 27 27 28 28 29 29 31 30 32 31 33 77 34
REMARK SMILES IDX 32 35 76 36 33 37 34 38 35 39 70 40 36 41 75 42 69 43 71 44
REMARK SMILES IDX 37 45 74 46 68 47 67 48 38 50 60 51 45 52 59 53 46 54 49 55
REMARK SMILES IDX 58 56 72 57 47 58 48 59 57 61 73 62 50 63 39 64 40 65 44 66
REMARK SMILES IDX 41 67 43 68 42 69 61 70 62 71 66 72 63 73 65 74 64 75 51 76
REMARK SMILES IDX 52 77 56 78 53 79 55 80 54 81
REMARK H PARENT 20 6 27 30 71 49 49 60
REMARK Flexibility Score: inf
ROOT
ATOM      1  C   UNL     1      -1.448  -1.042   4.323  1.00  0.00     0.021 C 
ENDROOT
BRANCH   1   2
ATOM      2  C   UNL     1       0.042  -1.310   4.487  1.00  0.00     0.116 C 
BRANCH   2   3
ATOM      3  N   UNL     1       0.484  -1.722   5.789  1.00  0.00    -0.352 N 
ATOM      4  C   UNL     1       1.628  -2.396   6.165  1.00  0.00     0.256 C 
ATOM      5  O   UNL     1       1.875  -2.381   7.373  1.00  0.00    -0.269 OA
ATOM      6  H   UNL     1      -0.122  -1.487   6.528  1.00  0.00     0.163 HD
BRANCH   4   7
ATOM      7  C   UNL     1       2.418  -3.227   5.242  1.00  0.00     0.097 A 
ATOM      8  C   UNL     1       2.822  -3.007   3.916  1.00  0.00     0.131 A 
ATOM      9  S   UNL     1       3.624  -4.429   3.365  1.00  0.00    -0.017 S 
ATOM     10  N   UNL     1       3.587  -5.254   4.768  1.00  0.00    -0.195 NA
ATOM     11  C   UNL     1       2.940  -4.532   5.680  1.00  0.00     0.066 A 
ATOM     12  C   UNL     1       2.811  -5.179   7.023  1.00  0.00     0.069 C 
BRANCH   8  13
ATOM     13  N   UNL     1       2.774  -1.924   2.986  1.00  0.00    -0.300 N 
ATOM     14  C   UNL     1       2.797  -2.168   1.547  1.00  0.00     0.154 C 
BRANCH  13  15
ATOM     15  C   UNL     1       2.896  -0.628   3.533  1.00  0.00     0.275 C 
ATOM     16  O   UNL     1       3.308  -0.511   4.692  1.00  0.00    -0.267 OA
BRANCH  15  17
ATOM     17  C   UNL     1       2.552   0.621   2.803  1.00  0.00     0.107 A 
ATOM     18  N   UNL     1       1.755   0.952   1.705  1.00  0.00    -0.344 N 
ATOM     19  C   UNL     1       1.758   2.326   1.519  1.00  0.00     0.086 A 
ATOM     20  C   UNL     1       2.434   2.912   2.553  1.00  0.00     0.020 A 
ATOM     21  C   UNL     1       2.928   1.862   3.341  1.00  0.00     0.033 A 
BRANCH  18  22
ATOM     22  C   UNL     1       0.806   0.154   0.941  1.00  0.00     0.119 C 
ATOM     23  C   UNL     1       1.164   0.039  -0.536  1.00  0.00     0.027 C 
ENDBRANCH  18  22
ENDBRANCH  15  17
ENDBRANCH  13  15
ENDBRANCH   8  13
ENDBRANCH   4   7
ENDBRANCH   2   3
ENDBRANCH   1   2
BRANCH   1  24
ATOM     24  C   UNL     1      -2.061   0.081   5.168  1.00  0.00     0.002 C 
BRANCH  24  25
ATOM     25  C   UNL     1      -1.372   1.455   5.176  1.00  0.00     0.002 C 
BRANCH  25  26
ATOM     26  C   UNL     1      -0.960   2.045   3.826  1.00  0.00     0.021 C 
BRANCH  26  27
ATOM     27  C   UNL     1      -2.078   2.236   2.813  1.00  0.00     0.116 C 
BRANCH  27  28
ATOM     28  N   UNL     1      -2.896   3.394   3.103  1.00  0.00    -0.352 N 
ATOM     29  C   UNL     1      -3.822   4.024   2.306  1.00  0.00     0.251 C 
ATOM     30  H   UNL     1      -2.772   3.785   3.998  1.00  0.00     0.163 HD
ATOM     31  O   UNL     1      -4.113   5.189   2.544  1.00  0.00    -0.269 OA
BRANCH  29  32
ATOM     32  C   UNL     1      -4.480   3.329   1.169  1.00  0.00     0.039 A 
ATOM     33  C   UNL     1      -4.971   4.115   0.116  1.00  0.00     0.014 A 
ATOM     34  C   UNL     1      -4.727   1.952   1.174  1.00  0.00     0.014 A 
ATOM     35  C   UNL     1      -5.674   3.522  -0.929  1.00  0.00     0.010 A 
ATOM     36  C   UNL     1      -5.387   1.347   0.114  1.00  0.00     0.010 A 
ATOM     37  C   UNL     1      -5.864   2.135  -0.932  1.00  0.00    -0.014 A 
BRANCH  37  38
ATOM     38  C   UNL     1      -6.459   1.488  -2.117  1.00  0.00     0.031 A 
ATOM     39  C   UNL     1      -5.424   1.330  -3.246  1.00  0.00     0.074 A 
ATOM     40  C   UNL     1      -7.789   1.172  -2.030  1.00  0.00     0.049 A 
ATOM     41  N   UNL     1      -5.606   1.219  -4.523  1.00  0.00    -0.248 NA
ATOM     42  C   UNL     1      -3.968   1.339  -2.920  1.00  0.00     0.031 C 
ATOM     43  C   UNL     1      -8.618   1.335  -0.810  1.00  0.00     0.029 A 
ATOM     44  N   UNL     1      -8.718   0.661  -2.914  1.00  0.00    -0.354 N 
ATOM     45  C   UNL     1      -4.346   1.024  -5.134  1.00  0.00     0.074 A 
ATOM     46  C   UNL     1      -3.367   1.173  -4.102  1.00  0.00     0.031 C 
ATOM     47  C   UNL     1      -9.911   1.022  -1.053  1.00  0.00     0.029 A 
ATOM     48  C   UNL     1     -10.058   0.629  -2.439  1.00  0.00     0.049 A 
ATOM     49  H   UNL     1      -8.470   0.341  -3.812  1.00  0.00     0.167 HD
ATOM     50  C   UNL     1      -4.205   0.656  -6.442  1.00  0.00     0.031 A 
ATOM     51  C   UNL     1     -11.212   0.365  -3.127  1.00  0.00     0.031 A 
ATOM     52  C   UNL     1      -5.478   0.620  -7.075  1.00  0.00     0.049 A 
ATOM     53  C   UNL     1     -10.788  -0.041  -4.471  1.00  0.00     0.074 A 
ATOM     54  C   UNL     1      -6.332   1.616  -7.466  1.00  0.00     0.029 A 
ATOM     55  N   UNL     1      -6.164  -0.567  -6.998  1.00  0.00    -0.354 N 
ATOM     56  N   UNL     1     -10.260  -1.187  -4.767  1.00  0.00    -0.248 NA
ATOM     57  C   UNL     1     -10.887   0.931  -5.567  1.00  0.00     0.031 C 
ATOM     58  C   UNL     1      -7.594   1.108  -7.095  1.00  0.00     0.029 A 
ATOM     59  C   UNL     1      -7.473  -0.244  -6.750  1.00  0.00     0.049 A 
ATOM     60  H   UNL     1      -5.790  -1.472  -7.101  1.00  0.00     0.167 HD
ATOM     61  C   UNL     1      -9.611  -0.905  -5.942  1.00  0.00     0.074 A 
ATOM     62  C   UNL     1     -10.293   0.229  -6.529  1.00  0.00     0.031 C 
ATOM     63  C   UNL     1      -8.294  -1.211  -6.066  1.00  0.00     0.031 A 
BRANCH  50  64
ATOM     64  C   UNL     1      -3.048   0.108  -7.225  1.00  0.00    -0.014 A 
ATOM     65  C   UNL     1      -3.157   0.118  -8.638  1.00  0.00     0.009 A 
ATOM     66  C   UNL     1      -2.063  -0.709  -6.663  1.00  0.00     0.009 A 
ATOM     67  C   UNL     1      -2.411  -0.744  -9.444  1.00  0.00     0.001 A 
ATOM     68  C   UNL     1      -1.288  -1.551  -7.476  1.00  0.00     0.001 A 
ATOM     69  C   UNL     1      -1.488  -1.596  -8.857  1.00  0.00     0.000 A 
ENDBRANCH  50  64
BRANCH  51  70
ATOM     70  C   UNL     1     -12.705   0.467  -2.925  1.00  0.00    -0.014 A 
ATOM     71  C   UNL     1     -13.366   0.719  -1.722  1.00  0.00     0.009 A 
ATOM     72  C   UNL     1     -13.549   0.360  -4.069  1.00  0.00     0.009 A 
ATOM     73  C   UNL     1     -14.761   0.948  -1.691  1.00  0.00     0.001 A 
ATOM     74  C   UNL     1     -14.919   0.632  -4.055  1.00  0.00     0.001 A 
ATOM     75  C   UNL     1     -15.528   0.943  -2.857  1.00  0.00     0.000 A 
ENDBRANCH  51  70
BRANCH  63  76
ATOM     76  C   UNL     1      -7.790  -2.293  -5.118  1.00  0.00    -0.014 A 
ATOM     77  C   UNL     1      -8.401  -3.558  -5.120  1.00  0.00     0.009 A 
ATOM     78  C   UNL     1      -6.819  -2.058  -4.128  1.00  0.00     0.009 A 
ATOM     79  C   UNL     1      -8.083  -4.530  -4.161  1.00  0.00     0.001 A 
ATOM     80  C   UNL     1      -6.493  -3.030  -3.167  1.00  0.00     0.001 A 
ATOM     81  C   UNL     1      -7.131  -4.266  -3.181  1.00  0.00     0.000 A 
ENDBRANCH  63  76
ENDBRANCH  37  38
ENDBRANCH  29  32
ENDBRANCH  27  28
ENDBRANCH  26  27
ENDBRANCH  25  26
ENDBRANCH  24  25
ENDBRANCH   1  24
TORSDOF 17
