REMARK SMILES CCc1cccc(CC)c1NC(=O)C[C@@](C)(C(=O)NCCCCCCNC(=O)c1ccc(-c2c3nc(c(-c4ccccc4)c4ccc([nH]4)c(-c4ccccc4)c4nc(c(-c5ccccc5)c5ccc2[nH]5)C=C4)C=C3)cc1)c1ccccc1
REMARK SMILES IDX 21 1 20 2 19 3 17 4 18 5 15 7 16 8 14 9 12 10 11 11 13 13
REMARK SMILES IDX 10 14 3 15 4 16 5 17 7 18 6 19 2 20 1 21 8 22 9 23 77 24
REMARK SMILES IDX 78 25 82 26 79 27 81 28 80 29 22 30 23 31 24 32 25 33 26 34
REMARK SMILES IDX 27 35 28 37 29 38 30 39 76 40 31 41 75 42 32 43 33 44 34 45
REMARK SMILES IDX 69 46 35 47 74 48 68 49 70 50 36 51 73 52 67 53 66 54 37 56
REMARK SMILES IDX 59 57 44 58 58 59 45 60 48 61 57 62 71 63 46 64 47 65 56 67
REMARK SMILES IDX 72 68 49 69 38 70 39 71 43 72 40 73 42 74 41 75 60 76 61 77
REMARK SMILES IDX 65 78 62 79 64 80 63 81 50 82 51 83 55 84 52 85 54 86 53 87
REMARK H PARENT 19 6 11 12 26 36 70 55 48 66
REMARK Flexibility Score: inf
ROOT
ATOM      1  C   UNL     1       3.765  -4.223  -7.776  1.00  0.00     0.021 C 
ENDROOT
BRANCH   1   2
ATOM      2  C   UNL     1       4.013  -3.868  -6.306  1.00  0.00     0.116 C 
BRANCH   2   3
ATOM      3  N   UNL     1       5.374  -3.451  -5.940  1.00  0.00    -0.355 N 
ATOM      4  C   UNL     1       5.845  -3.204  -4.659  1.00  0.00     0.230 C 
ATOM      5  O   UNL     1       6.652  -4.058  -4.265  1.00  0.00    -0.274 OA
ATOM      6  H   UNL     1       6.016  -3.336  -6.678  1.00  0.00     0.163 HD
BRANCH   4   7
ATOM      7  C   UNL     1       5.495  -1.912  -3.768  1.00  0.00     0.080 C 
ATOM      8  C   UNL     1       5.044  -2.329  -2.334  1.00  0.00     0.027 C 
BRANCH   7   9
ATOM      9  C   UNL     1       4.416  -1.039  -4.460  1.00  0.00     0.121 C 
BRANCH   9  10
ATOM     10  C   UNL     1       3.473  -0.225  -3.608  1.00  0.00     0.225 C 
ATOM     11  N   UNL     1       2.340  -0.581  -2.966  1.00  0.00    -0.326 N 
ATOM     12  H   UNL     1       2.018   0.239  -2.527  1.00  0.00     0.169 HD
ATOM     13  O   UNL     1       3.712   0.993  -3.511  1.00  0.00    -0.275 OA
BRANCH  11  14
ATOM     14  C   UNL     1       1.391  -1.591  -2.628  1.00  0.00     0.047 A 
ATOM     15  C   UNL     1       0.288  -1.111  -1.839  1.00  0.00    -0.024 A 
ATOM     16  C   UNL     1      -0.772  -1.963  -1.453  1.00  0.00     0.006 A 
ATOM     17  C   UNL     1      -0.781  -3.295  -1.802  1.00  0.00     0.001 A 
ATOM     18  C   UNL     1       1.371  -2.973  -2.937  1.00  0.00    -0.024 A 
ATOM     19  C   UNL     1       0.281  -3.788  -2.529  1.00  0.00     0.006 A 
BRANCH  15  20
ATOM     20  C   UNL     1       0.187   0.299  -1.266  1.00  0.00     0.034 C 
ATOM     21  C   UNL     1       1.032   0.427  -0.004  1.00  0.00     0.009 C 
ENDBRANCH  15  20
BRANCH  18  22
ATOM     22  C   UNL     1       2.402  -3.767  -3.670  1.00  0.00     0.034 C 
ATOM     23  C   UNL     1       3.070  -4.883  -2.860  1.00  0.00     0.009 C 
ENDBRANCH  18  22
ENDBRANCH  11  14
ENDBRANCH   9  10
ENDBRANCH   7   9
BRANCH   7  24
ATOM     24  C   UNL     1       6.815  -1.133  -3.344  1.00  0.00    -0.032 A 
ATOM     25  C   UNL     1       7.877  -1.846  -2.732  1.00  0.00     0.005 A 
ATOM     26  C   UNL     1       6.832   0.266  -3.184  1.00  0.00     0.005 A 
ATOM     27  C   UNL     1       8.812  -1.219  -1.902  1.00  0.00     0.000 A 
ATOM     28  C   UNL     1       7.771   0.893  -2.351  1.00  0.00     0.000 A 
ATOM     29  C   UNL     1       8.739   0.149  -1.685  1.00  0.00     0.000 A 
ENDBRANCH   7  24
ENDBRANCH   4   7
ENDBRANCH   2   3
ENDBRANCH   1   2
BRANCH   1  30
ATOM     30  C   UNL     1       3.607  -5.721  -8.083  1.00  0.00     0.002 C 
BRANCH  30  31
ATOM     31  C   UNL     1       2.530  -6.511  -7.322  1.00  0.00     0.002 C 
BRANCH  31  32
ATOM     32  C   UNL     1       1.090  -5.987  -7.354  1.00  0.00     0.021 C 
BRANCH  32  33
ATOM     33  C   UNL     1       0.462  -5.753  -8.727  1.00  0.00     0.116 C 
BRANCH  33  34
ATOM     34  N   UNL     1       0.465  -6.929  -9.582  1.00  0.00    -0.352 N 
ATOM     35  C   UNL     1      -0.523  -7.449 -10.377  1.00  0.00     0.251 C 
ATOM     36  H   UNL     1       1.311  -7.432  -9.591  1.00  0.00     0.163 HD
ATOM     37  O   UNL     1      -0.320  -8.518 -10.970  1.00  0.00    -0.269 OA
BRANCH  35  38
ATOM     38  C   UNL     1      -1.838  -6.786 -10.524  1.00  0.00     0.039 A 
ATOM     39  C   UNL     1      -2.991  -7.581 -10.532  1.00  0.00     0.014 A 
ATOM     40  C   UNL     1      -1.953  -5.404 -10.697  1.00  0.00     0.014 A 
ATOM     41  C   UNL     1      -4.253  -6.990 -10.648  1.00  0.00     0.010 A 
ATOM     42  C   UNL     1      -3.216  -4.809 -10.753  1.00  0.00     0.010 A 
ATOM     43  C   UNL     1      -4.379  -5.595 -10.727  1.00  0.00    -0.014 A 
BRANCH  43  44
ATOM     44  C   UNL     1      -5.715  -4.943 -10.780  1.00  0.00     0.031 A 
ATOM     45  C   UNL     1      -6.145  -4.185 -12.007  1.00  0.00     0.074 A 
ATOM     46  C   UNL     1      -6.519  -4.982  -9.699  1.00  0.00     0.049 A 
ATOM     47  N   UNL     1      -7.242  -3.498 -12.211  1.00  0.00    -0.248 NA
ATOM     48  C   UNL     1      -5.213  -4.179 -13.146  1.00  0.00     0.031 C 
ATOM     49  C   UNL     1      -6.210  -5.653  -8.435  1.00  0.00     0.029 A 
ATOM     50  N   UNL     1      -7.761  -4.434  -9.488  1.00  0.00    -0.354 N 
ATOM     51  C   UNL     1      -7.122  -2.964 -13.488  1.00  0.00     0.074 A 
ATOM     52  C   UNL     1      -5.832  -3.374 -13.998  1.00  0.00     0.031 C 
ATOM     53  C   UNL     1      -7.241  -5.493  -7.588  1.00  0.00     0.029 A 
ATOM     54  C   UNL     1      -8.265  -4.678  -8.232  1.00  0.00     0.049 A 
ATOM     55  H   UNL     1      -8.244  -3.915 -10.171  1.00  0.00     0.167 HD
ATOM     56  C   UNL     1      -8.011  -2.211 -14.180  1.00  0.00     0.031 A 
ATOM     57  C   UNL     1      -9.419  -4.284  -7.661  1.00  0.00     0.031 A 
ATOM     58  C   UNL     1      -9.304  -1.820 -13.685  1.00  0.00     0.049 A 
ATOM     59  C   UNL     1     -10.386  -3.447  -8.452  1.00  0.00     0.074 A 
ATOM     60  C   UNL     1     -10.297  -1.110 -14.338  1.00  0.00     0.029 A 
ATOM     61  N   UNL     1      -9.782  -2.104 -12.416  1.00  0.00    -0.354 N 
ATOM     62  N   UNL     1     -10.284  -3.009  -9.683  1.00  0.00    -0.248 NA
ATOM     63  C   UNL     1     -11.633  -3.059  -7.776  1.00  0.00     0.031 C 
ATOM     64  C   UNL     1     -11.360  -0.927 -13.448  1.00  0.00     0.029 A 
ATOM     65  C   UNL     1     -11.048  -1.566 -12.259  1.00  0.00     0.049 A 
ATOM     66  H   UNL     1      -9.294  -2.613 -11.729  1.00  0.00     0.167 HD
ATOM     67  C   UNL     1     -11.464  -2.322  -9.938  1.00  0.00     0.074 A 
ATOM     68  C   UNL     1     -12.272  -2.414  -8.741  1.00  0.00     0.031 C 
ATOM     69  C   UNL     1     -11.843  -1.673 -11.065  1.00  0.00     0.031 A 
BRANCH  56  70
ATOM     70  C   UNL     1      -7.616  -1.754 -15.557  1.00  0.00    -0.014 A 
ATOM     71  C   UNL     1      -7.562  -2.653 -16.633  1.00  0.00     0.009 A 
ATOM     72  C   UNL     1      -7.355  -0.395 -15.793  1.00  0.00     0.009 A 
ATOM     73  C   UNL     1      -7.226  -2.205 -17.913  1.00  0.00     0.001 A 
ATOM     74  C   UNL     1      -7.045   0.054 -17.078  1.00  0.00     0.001 A 
ATOM     75  C   UNL     1      -6.974  -0.852 -18.135  1.00  0.00     0.000 A 
ENDBRANCH  56  70
BRANCH  57  76
ATOM     76  C   UNL     1      -9.738  -4.679  -6.263  1.00  0.00    -0.014 A 
ATOM     77  C   UNL     1     -10.764  -5.599  -5.998  1.00  0.00     0.009 A 
ATOM     78  C   UNL     1      -9.038  -4.116  -5.184  1.00  0.00     0.009 A 
ATOM     79  C   UNL     1     -11.106  -5.920  -4.683  1.00  0.00     0.001 A 
ATOM     80  C   UNL     1      -9.362  -4.462  -3.871  1.00  0.00     0.001 A 
ATOM     81  C   UNL     1     -10.403  -5.355  -3.621  1.00  0.00     0.000 A 
ENDBRANCH  57  76
BRANCH  69  82
ATOM     82  C   UNL     1     -13.209  -1.047 -11.071  1.00  0.00    -0.014 A 
ATOM     83  C   UNL     1     -13.479   0.121 -10.342  1.00  0.00     0.009 A 
ATOM     84  C   UNL     1     -14.228  -1.615 -11.851  1.00  0.00     0.009 A 
ATOM     85  C   UNL     1     -14.754   0.689 -10.369  1.00  0.00     0.001 A 
ATOM     86  C   UNL     1     -15.494  -1.030 -11.898  1.00  0.00     0.001 A 
ATOM     87  C   UNL     1     -15.758   0.117 -11.150  1.00  0.00     0.000 A 
ENDBRANCH  69  82
ENDBRANCH  43  44
ENDBRANCH  35  38
ENDBRANCH  33  34
ENDBRANCH  32  33
ENDBRANCH  31  32
ENDBRANCH  30  31
ENDBRANCH   1  30
TORSDOF 19
