REMARK SMILES CC(C)c1ccc(OCC[C@H]2CCC[C@@]2([NH3+])C(=O)NCCCCCCNC(=O)c2ccc(-c3c4nc(c(-c5ccccc5)c5ccc([nH]5)c(-c5ccccc5)c5nc(c(-c6ccccc6)c6ccc3[nH]6)C=C5)C=C4)cc2)cc1
REMARK SMILES IDX 21 1 20 2 19 3 17 4 18 5 15 7 11 8 12 9 13 10 14 11 10 12
REMARK SMILES IDX 9 13 8 14 7 15 4 16 5 17 78 18 6 19 77 20 2 21 1 22 3 23
REMARK SMILES IDX 16 24 22 28 23 29 24 30 25 31 26 32 27 33 28 35 29 36 30 37
REMARK SMILES IDX 76 38 31 39 75 40 32 41 33 42 34 43 69 44 35 45 74 46 68 47
REMARK SMILES IDX 70 48 36 49 73 50 67 51 66 52 37 54 59 55 44 56 58 57 45 58
REMARK SMILES IDX 48 59 57 60 71 61 46 62 47 63 56 65 72 66 49 67 38 68 39 69
REMARK SMILES IDX 43 70 40 71 42 72 41 73 60 74 61 75 65 76 62 77 64 78 63 79
REMARK SMILES IDX 50 80 51 81 55 82 52 83 54 84 53 85
REMARK H PARENT 19 6 16 25 16 26 16 27 26 34 70 53 48 64
REMARK Flexibility Score: inf
ROOT
ATOM      1  C   UNL     1      -4.246   2.920   3.012  1.00  0.00     0.021 C 
ENDROOT
BRANCH   1   2
ATOM      2  C   UNL     1      -5.074   2.539   1.777  1.00  0.00     0.116 C 
BRANCH   2   3
ATOM      3  N   UNL     1      -4.226   2.193   0.654  1.00  0.00    -0.351 N 
ATOM      4  C   UNL     1      -3.540   1.040   0.389  1.00  0.00     0.281 C 
ATOM      5  O   UNL     1      -2.776   1.071  -0.583  1.00  0.00    -0.268 OA
ATOM      6  H   UNL     1      -4.128   2.899  -0.025  1.00  0.00     0.163 HD
BRANCH   4   7
ATOM      7  C   UNL     1      -3.654  -0.229   1.283  1.00  0.00     0.176 C 
ATOM      8  C   UNL     1      -4.085  -1.556   0.574  1.00  0.00     0.064 C 
ATOM      9  C   UNL     1      -3.782  -2.554   1.691  1.00  0.00     0.011 C 
ATOM     10  C   UNL     1      -2.535  -2.011   2.421  1.00  0.00     0.008 C 
ATOM     11  C   UNL     1      -2.290  -0.615   1.851  1.00  0.00     0.079 C 
BRANCH   8  12
ATOM     12  C   UNL     1      -3.488  -1.975  -0.816  1.00  0.00     0.052 C 
BRANCH  12  13
ATOM     13  C   UNL     1      -2.201  -2.835  -0.964  1.00  0.00     0.230 C 
BRANCH  13  14
ATOM     14  O   UNL     1      -2.419  -4.264  -1.087  1.00  0.00    -0.494 OA
BRANCH  14  15
ATOM     15  C   UNL     1      -2.294  -5.046   0.030  1.00  0.00     0.119 A 
ATOM     16  C   UNL     1      -2.889  -6.096   2.554  1.00  0.00    -0.045 A 
ATOM     17  C   UNL     1      -3.485  -6.640   1.410  1.00  0.00     0.008 A 
ATOM     18  C   UNL     1      -1.782  -5.257   2.373  1.00  0.00     0.008 A 
ATOM     19  C   UNL     1      -3.190  -6.109   0.147  1.00  0.00     0.047 A 
ATOM     20  C   UNL     1      -1.455  -4.770   1.099  1.00  0.00     0.047 A 
BRANCH  16  21
ATOM     21  C   UNL     1      -3.515  -6.224   3.934  1.00  0.00     0.013 C 
ATOM     22  C   UNL     1      -4.907  -5.568   3.958  1.00  0.00     0.012 C 
ATOM     23  C   UNL     1      -3.600  -7.657   4.442  1.00  0.00     0.012 C 
ENDBRANCH  16  21
ENDBRANCH  14  15
ENDBRANCH  13  14
ENDBRANCH  12  13
ENDBRANCH   8  12
BRANCH   7  24
ATOM     24  N   UNL     1      -4.554  -0.018   2.460  1.00  0.00    -0.345 N 
ATOM     25  H   UNL     1      -4.597  -0.874   3.013  1.00  0.00     0.345 HD
ATOM     26  H   UNL     1      -5.490   0.222   2.133  1.00  0.00     0.345 HD
ATOM     27  H   UNL     1      -4.190   0.741   3.035  1.00  0.00     0.345 HD
ENDBRANCH   7  24
ENDBRANCH   4   7
ENDBRANCH   2   3
ENDBRANCH   1   2
BRANCH   1  28
ATOM     28  C   UNL     1      -3.767   4.372   2.976  1.00  0.00     0.002 C 
BRANCH  28  29
ATOM     29  C   UNL     1      -4.896   5.388   2.778  1.00  0.00     0.002 C 
BRANCH  29  30
ATOM     30  C   UNL     1      -6.049   5.237   3.776  1.00  0.00     0.021 C 
BRANCH  30  31
ATOM     31  C   UNL     1      -5.625   5.514   5.212  1.00  0.00     0.116 C 
BRANCH  31  32
ATOM     32  N   UNL     1      -5.176   6.893   5.348  1.00  0.00    -0.352 N 
ATOM     33  C   UNL     1      -5.789   7.923   6.015  1.00  0.00     0.251 C 
ATOM     34  H   UNL     1      -4.325   7.113   4.905  1.00  0.00     0.163 HD
ATOM     35  O   UNL     1      -5.532   9.087   5.749  1.00  0.00    -0.269 OA
BRANCH  33  36
ATOM     36  C   UNL     1      -6.758   7.589   7.074  1.00  0.00     0.039 A 
ATOM     37  C   UNL     1      -7.970   8.277   7.140  1.00  0.00     0.014 A 
ATOM     38  C   UNL     1      -6.453   6.582   7.995  1.00  0.00     0.014 A 
ATOM     39  C   UNL     1      -8.905   7.916   8.109  1.00  0.00     0.010 A 
ATOM     40  C   UNL     1      -7.414   6.173   8.906  1.00  0.00     0.010 A 
ATOM     41  C   UNL     1      -8.645   6.842   8.976  1.00  0.00    -0.014 A 
BRANCH  41  42
ATOM     42  C   UNL     1      -9.645   6.391   9.970  1.00  0.00     0.031 A 
ATOM     43  C   UNL     1      -9.336   6.484  11.437  1.00  0.00     0.074 A 
ATOM     44  C   UNL     1     -10.790   5.825   9.546  1.00  0.00     0.049 A 
ATOM     45  N   UNL     1     -10.040   6.060  12.456  1.00  0.00    -0.248 NA
ATOM     46  C   UNL     1      -8.057   7.111  11.809  1.00  0.00     0.031 C 
ATOM     47  C   UNL     1     -11.182   5.648   8.145  1.00  0.00     0.029 A 
ATOM     48  N   UNL     1     -11.831   5.281  10.253  1.00  0.00    -0.354 N 
ATOM     49  C   UNL     1      -9.283   6.353  13.582  1.00  0.00     0.074 A 
ATOM     50  C   UNL     1      -8.045   6.943  13.122  1.00  0.00     0.031 C 
ATOM     51  C   UNL     1     -12.387   5.061   8.098  1.00  0.00     0.029 A 
ATOM     52  C   UNL     1     -12.829   4.774   9.458  1.00  0.00     0.049 A 
ATOM     53  H   UNL     1     -11.860   5.257  11.237  1.00  0.00     0.167 HD
ATOM     54  C   UNL     1      -9.599   6.164  14.885  1.00  0.00     0.031 A 
ATOM     55  C   UNL     1     -13.966   4.134   9.790  1.00  0.00     0.031 A 
ATOM     56  C   UNL     1     -10.833   5.578  15.335  1.00  0.00     0.049 A 
ATOM     57  C   UNL     1     -14.276   3.904  11.242  1.00  0.00     0.074 A 
ATOM     58  C   UNL     1     -11.275   5.393  16.633  1.00  0.00     0.029 A 
ATOM     59  N   UNL     1     -11.819   5.076  14.499  1.00  0.00    -0.354 N 
ATOM     60  N   UNL     1     -13.584   4.251  12.300  1.00  0.00    -0.248 NA
ATOM     61  C   UNL     1     -15.528   3.197  11.546  1.00  0.00     0.031 C 
ATOM     62  C   UNL     1     -12.500   4.721  16.583  1.00  0.00     0.029 A 
ATOM     63  C   UNL     1     -12.852   4.548  15.254  1.00  0.00     0.049 A 
ATOM     64  H   UNL     1     -11.788   5.092  13.515  1.00  0.00     0.167 HD
ATOM     65  C   UNL     1     -14.329   3.831  13.395  1.00  0.00     0.074 A 
ATOM     66  C   UNL     1     -15.533   3.219  12.871  1.00  0.00     0.031 C 
ATOM     67  C   UNL     1     -14.041   3.940  14.715  1.00  0.00     0.031 A 
BRANCH  54  68
ATOM     68  C   UNL     1      -8.585   6.581  15.914  1.00  0.00    -0.014 A 
ATOM     69  C   UNL     1      -8.286   7.935  16.138  1.00  0.00     0.009 A 
ATOM     70  C   UNL     1      -7.945   5.607  16.696  1.00  0.00     0.009 A 
ATOM     71  C   UNL     1      -7.341   8.302  17.099  1.00  0.00     0.001 A 
ATOM     72  C   UNL     1      -7.024   5.978  17.678  1.00  0.00     0.001 A 
ATOM     73  C   UNL     1      -6.716   7.324  17.871  1.00  0.00     0.000 A 
ENDBRANCH  54  68
BRANCH  55  74
ATOM     74  C   UNL     1     -14.893   3.663   8.727  1.00  0.00    -0.014 A 
ATOM     75  C   UNL     1     -16.152   4.261   8.564  1.00  0.00     0.009 A 
ATOM     76  C   UNL     1     -14.528   2.610   7.874  1.00  0.00     0.009 A 
ATOM     77  C   UNL     1     -17.037   3.794   7.589  1.00  0.00     0.001 A 
ATOM     78  C   UNL     1     -15.401   2.167   6.879  1.00  0.00     0.001 A 
ATOM     79  C   UNL     1     -16.659   2.751   6.745  1.00  0.00     0.000 A 
ENDBRANCH  55  74
BRANCH  67  80
ATOM     80  C   UNL     1     -15.060   3.414  15.687  1.00  0.00    -0.014 A 
ATOM     81  C   UNL     1     -15.271   2.036  15.849  1.00  0.00     0.009 A 
ATOM     82  C   UNL     1     -15.783   4.313  16.488  1.00  0.00     0.009 A 
ATOM     83  C   UNL     1     -16.209   1.571  16.773  1.00  0.00     0.001 A 
ATOM     84  C   UNL     1     -16.694   3.844  17.433  1.00  0.00     0.001 A 
ATOM     85  C   UNL     1     -16.913   2.474  17.569  1.00  0.00     0.000 A 
ENDBRANCH  67  80
ENDBRANCH  41  42
ENDBRANCH  33  36
ENDBRANCH  31  32
ENDBRANCH  30  31
ENDBRANCH  29  30
ENDBRANCH  28  29
ENDBRANCH   1  28
TORSDOF 19
