REMARK SMILES O=C(NCCCCCCNC(=O)c1ccc(-c2c3nc(c(-c4ccccc4)c4ccc([nH]4)c(-c4ccccc4)c4nc(c(-c5ccccc5)c5ccc2[nH]5)C=C4)C=C3)cc1)C1=CCc2ccccc21
REMARK SMILES IDX 7 1 6 2 5 3 4 4 3 5 1 6 2 7 61 9 62 10 69 11 63 12 64 13
REMARK SMILES IDX 68 14 65 15 67 16 66 17 8 18 9 19 10 20 11 21 12 23 13 24
REMARK SMILES IDX 14 25 60 26 15 27 59 28 16 29 17 30 18 31 53 32 19 33 58 34
REMARK SMILES IDX 52 35 54 36 20 37 57 38 51 39 50 40 21 42 43 43 28 44 42 45
REMARK SMILES IDX 29 46 32 47 41 48 55 49 30 50 31 51 40 53 56 54 33 55 22 56
REMARK SMILES IDX 23 57 27 58 24 59 26 60 25 61 44 62 45 63 49 64 46 65 48 66
REMARK SMILES IDX 47 67 34 68 35 69 39 70 36 71 38 72 37 73
REMARK H PARENT 3 8 10 22 54 41 32 52
REMARK Flexibility Score: inf
ROOT
ATOM      1  C   UNL     1       4.619   3.530  -2.731  1.00  0.00     0.002 C 
ENDROOT
BRANCH   1   2
ATOM      2  C   UNL     1       3.904   2.411  -3.492  1.00  0.00     0.002 C 
BRANCH   2   3
ATOM      3  C   UNL     1       4.197   0.975  -3.068  1.00  0.00     0.021 C 
BRANCH   3   4
ATOM      4  C   UNL     1       4.236   0.697  -1.576  1.00  0.00     0.116 C 
BRANCH   4   5
ATOM      5  N   UNL     1       3.026   1.016  -0.843  1.00  0.00    -0.352 N 
ATOM      6  O   UNL     1       1.869   1.244   1.107  1.00  0.00    -0.269 OA
ATOM      7  C   UNL     1       2.863   0.844   0.515  1.00  0.00     0.251 C 
ATOM      8  H   UNL     1       2.267   1.383  -1.351  1.00  0.00     0.163 HD
BRANCH   7   9
ATOM      9  C   UNL     1       3.972   0.151   1.203  1.00  0.00     0.043 C 
ATOM     10  C   UNL     1       4.241  -1.152   0.995  1.00  0.00    -0.008 C 
ATOM     11  C   UNL     1       5.132   0.762   1.841  1.00  0.00    -0.010 A 
ATOM     12  C   UNL     1       5.653  -1.508   1.377  1.00  0.00     0.064 C 
ATOM     13  C   UNL     1       6.150  -0.200   1.912  1.00  0.00    -0.036 A 
ATOM     14  C   UNL     1       5.338   2.048   2.311  1.00  0.00     0.009 A 
ATOM     15  C   UNL     1       7.404   0.109   2.409  1.00  0.00     0.004 A 
ATOM     16  C   UNL     1       6.592   2.363   2.845  1.00  0.00     0.001 A 
ATOM     17  C   UNL     1       7.620   1.404   2.882  1.00  0.00     0.000 A 
ENDBRANCH   7   9
ENDBRANCH   4   5
ENDBRANCH   3   4
ENDBRANCH   2   3
ENDBRANCH   1   2
BRANCH   1  18
ATOM     18  C   UNL     1       6.143   3.452  -2.629  1.00  0.00     0.021 C 
BRANCH  18  19
ATOM     19  C   UNL     1       6.897   3.183  -3.924  1.00  0.00     0.116 C 
BRANCH  19  20
ATOM     20  N   UNL     1       6.606   4.150  -4.967  1.00  0.00    -0.352 N 
ATOM     21  C   UNL     1       7.462   4.886  -5.745  1.00  0.00     0.251 C 
ATOM     22  H   UNL     1       5.649   4.301  -5.142  1.00  0.00     0.163 HD
ATOM     23  O   UNL     1       7.018   5.746  -6.502  1.00  0.00    -0.269 OA
BRANCH  21  24
ATOM     24  C   UNL     1       8.924   4.675  -5.657  1.00  0.00     0.039 A 
ATOM     25  C   UNL     1       9.757   5.796  -5.602  1.00  0.00     0.014 A 
ATOM     26  C   UNL     1       9.477   3.391  -5.643  1.00  0.00     0.014 A 
ATOM     27  C   UNL     1      11.137   5.630  -5.471  1.00  0.00     0.010 A 
ATOM     28  C   UNL     1      10.846   3.227  -5.439  1.00  0.00     0.010 A 
ATOM     29  C   UNL     1      11.690   4.345  -5.354  1.00  0.00    -0.014 A 
BRANCH  29  30
ATOM     30  C   UNL     1      13.148   4.155  -5.142  1.00  0.00     0.031 A 
ATOM     31  C   UNL     1      13.982   3.460  -6.182  1.00  0.00     0.074 A 
ATOM     32  C   UNL     1      13.713   4.565  -3.989  1.00  0.00     0.049 A 
ATOM     33  N   UNL     1      15.256   3.156  -6.151  1.00  0.00    -0.248 NA
ATOM     34  C   UNL     1      13.293   3.031  -7.410  1.00  0.00     0.031 C 
ATOM     35  C   UNL     1      13.008   5.220  -2.885  1.00  0.00     0.029 A 
ATOM     36  N   UNL     1      15.011   4.483  -3.551  1.00  0.00    -0.354 N 
ATOM     37  C   UNL     1      15.515   2.495  -7.345  1.00  0.00     0.074 A 
ATOM     38  C   UNL     1      14.259   2.394  -8.054  1.00  0.00     0.031 C 
ATOM     39  C   UNL     1      13.885   5.500  -1.907  1.00  0.00     0.029 A 
ATOM     40  C   UNL     1      15.203   5.009  -2.296  1.00  0.00     0.049 A 
ATOM     41  H   UNL     1      15.736   4.086  -4.085  1.00  0.00     0.167 HD
ATOM     42  C   UNL     1      16.697   2.034  -7.820  1.00  0.00     0.031 A 
ATOM     43  C   UNL     1      16.313   5.078  -1.537  1.00  0.00     0.031 A 
ATOM     44  C   UNL     1      17.948   2.135  -7.117  1.00  0.00     0.049 A 
ATOM     45  C   UNL     1      17.607   4.536  -2.077  1.00  0.00     0.074 A 
ATOM     46  C   UNL     1      19.205   1.731  -7.532  1.00  0.00     0.029 A 
ATOM     47  N   UNL     1      18.100   2.681  -5.852  1.00  0.00    -0.354 N 
ATOM     48  N   UNL     1      17.846   3.966  -3.234  1.00  0.00    -0.248 NA
ATOM     49  C   UNL     1      18.789   4.659  -1.211  1.00  0.00     0.031 C 
ATOM     50  C   UNL     1      20.110   1.986  -6.497  1.00  0.00     0.029 A 
ATOM     51  C   UNL     1      19.427   2.605  -5.462  1.00  0.00     0.049 A 
ATOM     52  H   UNL     1      17.373   3.066  -5.311  1.00  0.00     0.167 HD
ATOM     53  C   UNL     1      19.207   3.689  -3.245  1.00  0.00     0.074 A 
ATOM     54  C   UNL     1      19.744   4.170  -1.990  1.00  0.00     0.031 C 
ATOM     55  C   UNL     1      19.946   3.089  -4.210  1.00  0.00     0.031 A 
BRANCH  42  56
ATOM     56  C   UNL     1      16.689   1.372  -9.171  1.00  0.00    -0.014 A 
ATOM     57  C   UNL     1      16.475   2.116 -10.342  1.00  0.00     0.009 A 
ATOM     58  C   UNL     1      16.942  -0.005  -9.279  1.00  0.00     0.009 A 
ATOM     59  C   UNL     1      16.479   1.490 -11.590  1.00  0.00     0.001 A 
ATOM     60  C   UNL     1      16.975  -0.623 -10.531  1.00  0.00     0.001 A 
ATOM     61  C   UNL     1      16.734   0.123 -11.684  1.00  0.00     0.000 A 
ENDBRANCH  42  56
BRANCH  43  62
ATOM     62  C   UNL     1      16.254   5.686  -0.181  1.00  0.00    -0.014 A 
ATOM     63  C   UNL     1      16.890   6.909   0.084  1.00  0.00     0.009 A 
ATOM     64  C   UNL     1      15.575   5.037   0.862  1.00  0.00     0.009 A 
ATOM     65  C   UNL     1      16.874   7.452   1.371  1.00  0.00     0.001 A 
ATOM     66  C   UNL     1      15.534   5.597   2.140  1.00  0.00     0.001 A 
ATOM     67  C   UNL     1      16.194   6.798   2.397  1.00  0.00     0.000 A 
ENDBRANCH  43  62
BRANCH  55  68
ATOM     68  C   UNL     1      21.422   2.954  -3.961  1.00  0.00    -0.014 A 
ATOM     69  C   UNL     1      21.924   2.044  -3.018  1.00  0.00     0.009 A 
ATOM     70  C   UNL     1      22.325   3.722  -4.713  1.00  0.00     0.009 A 
ATOM     71  C   UNL     1      23.300   1.933  -2.808  1.00  0.00     0.001 A 
ATOM     72  C   UNL     1      23.701   3.587  -4.523  1.00  0.00     0.001 A 
ATOM     73  C   UNL     1      24.187   2.700  -3.564  1.00  0.00     0.000 A 
ENDBRANCH  55  68
ENDBRANCH  29  30
ENDBRANCH  21  24
ENDBRANCH  19  20
ENDBRANCH  18  19
ENDBRANCH   1  18
TORSDOF 13
