REMARK SMILES Cc1c(Cc2nc(C(C)(C)C)cs2)cccc1C(=O)NCCCCCCNC(=O)c1ccc(-c2c3nc(c(-c4ccccc4)c4ccc([nH]4)c(-c4ccccc4)c4nc(c(-c5ccccc5)c5ccc2[nH]5)C=C4)C=C3)cc1
REMARK SMILES IDX 23 1 22 2 21 3 20 4 18 5 19 6 17 8 1 9 2 10 3 11 14 12 16 13
REMARK SMILES IDX 15 14 4 15 5 16 6 17 13 18 7 19 12 20 8 21 9 22 10 23 11 24
REMARK SMILES IDX 24 25 25 26 26 27 27 28 28 29 29 31 30 32 31 33 77 34 32 35
REMARK SMILES IDX 76 36 33 37 34 38 35 39 70 40 36 41 75 42 69 43 71 44 37 45
REMARK SMILES IDX 74 46 68 47 67 48 38 50 60 51 45 52 59 53 46 54 49 55 58 56
REMARK SMILES IDX 72 57 47 58 48 59 57 61 73 62 50 63 39 64 40 65 44 66 41 67
REMARK SMILES IDX 43 68 42 69 61 70 62 71 66 72 63 73 65 74 64 75 51 76 52 77
REMARK SMILES IDX 56 78 53 79 55 80 54 81
REMARK H PARENT 20 7 27 30 71 49 49 60
REMARK Flexibility Score: inf
ROOT
ATOM      1  C   UNL     1       5.395   2.902  -0.705  1.00  0.00     0.002 C 
ENDROOT
BRANCH   1   2
ATOM      2  C   UNL     1       4.335   1.792  -0.685  1.00  0.00     0.021 C 
BRANCH   2   3
ATOM      3  C   UNL     1       3.232   1.952   0.372  1.00  0.00     0.116 C 
BRANCH   3   4
ATOM      4  N   UNL     1       2.121   2.693  -0.190  1.00  0.00    -0.352 N 
ATOM      5  C   UNL     1       0.850   2.348  -0.569  1.00  0.00     0.251 C 
ATOM      6  O   UNL     1       0.166   3.237  -1.082  1.00  0.00    -0.269 OA
ATOM      7  H   UNL     1       2.321   3.647  -0.329  1.00  0.00     0.163 HD
BRANCH   5   8
ATOM      8  C   UNL     1       0.207   1.024  -0.302  1.00  0.00     0.043 A 
ATOM      9  C   UNL     1       2.006  -0.473  -1.323  1.00  0.00     0.045 C 
ATOM     10  C   UNL     1       0.735  -0.265  -0.553  1.00  0.00    -0.035 A 
ATOM     11  C   UNL     1      -0.013  -1.406  -0.150  1.00  0.00    -0.037 A 
ATOM     12  C   UNL     1      -1.351  -1.240   0.258  1.00  0.00     0.004 A 
ATOM     13  C   UNL     1      -1.122   1.139   0.156  1.00  0.00     0.014 A 
ATOM     14  C   UNL     1      -1.909   0.021   0.395  1.00  0.00     0.001 A 
BRANCH  11  15
ATOM     15  C   UNL     1       0.555  -2.825  -0.157  1.00  0.00     0.103 C 
BRANCH  15  16
ATOM     16  C   UNL     1       0.339  -3.528   1.162  1.00  0.00     0.097 A 
ATOM     17  N   UNL     1      -0.798  -4.093   1.510  1.00  0.00    -0.245 NA
ATOM     18  S   UNL     1       1.563  -3.560   2.367  1.00  0.00    -0.127 S 
ATOM     19  C   UNL     1      -0.777  -4.466   2.845  1.00  0.00     0.057 A 
ATOM     20  C   UNL     1       0.455  -4.292   3.453  1.00  0.00     0.091 A 
BRANCH  19  21
ATOM     21  C   UNL     1      -2.057  -4.991   3.481  1.00  0.00     0.005 C 
ATOM     22  C   UNL     1      -1.906  -6.484   3.821  1.00  0.00     0.017 C 
ATOM     23  C   UNL     1      -2.379  -4.206   4.769  1.00  0.00     0.017 C 
ATOM     24  C   UNL     1      -3.260  -4.830   2.525  1.00  0.00     0.017 C 
ENDBRANCH  19  21
ENDBRANCH  15  16
ENDBRANCH  11  15
ENDBRANCH   5   8
ENDBRANCH   3   4
ENDBRANCH   2   3
ENDBRANCH   1   2
BRANCH   1  25
ATOM     25  C   UNL     1       6.272   3.034   0.549  1.00  0.00     0.002 C 
BRANCH  25  26
ATOM     26  C   UNL     1       6.830   1.728   1.118  1.00  0.00     0.021 C 
BRANCH  26  27
ATOM     27  C   UNL     1       7.846   1.031   0.218  1.00  0.00     0.116 C 
BRANCH  27  28
ATOM     28  N   UNL     1       9.231   1.376   0.516  1.00  0.00    -0.352 N 
ATOM     29  C   UNL     1      10.384   1.059  -0.172  1.00  0.00     0.251 C 
ATOM     30  H   UNL     1       9.363   1.915   1.330  1.00  0.00     0.163 HD
ATOM     31  O   UNL     1      11.477   1.418   0.265  1.00  0.00    -0.269 OA
BRANCH  29  32
ATOM     32  C   UNL     1      10.303   0.397  -1.496  1.00  0.00     0.039 A 
ATOM     33  C   UNL     1      11.100   0.903  -2.531  1.00  0.00     0.014 A 
ATOM     34  C   UNL     1       9.350  -0.582  -1.766  1.00  0.00     0.014 A 
ATOM     35  C   UNL     1      10.778   0.606  -3.852  1.00  0.00     0.010 A 
ATOM     36  C   UNL     1       8.975  -0.815  -3.075  1.00  0.00     0.010 A 
ATOM     37  C   UNL     1       9.646  -0.166  -4.115  1.00  0.00    -0.014 A 
BRANCH  37  38
ATOM     38  C   UNL     1       9.025  -0.241  -5.431  1.00  0.00     0.031 A 
ATOM     39  C   UNL     1       9.214  -1.419  -6.293  1.00  0.00     0.074 A 
ATOM     40  C   UNL     1       8.246   0.778  -5.856  1.00  0.00     0.049 A 
ATOM     41  N   UNL     1       9.098  -1.396  -7.579  1.00  0.00    -0.248 NA
ATOM     42  C   UNL     1       9.604  -2.721  -5.768  1.00  0.00     0.031 C 
ATOM     43  C   UNL     1       7.359   0.807  -7.014  1.00  0.00     0.029 A 
ATOM     44  N   UNL     1       8.307   2.103  -5.430  1.00  0.00    -0.354 N 
ATOM     45  C   UNL     1       9.127  -2.695  -8.020  1.00  0.00     0.074 A 
ATOM     46  C   UNL     1       9.515  -3.478  -6.867  1.00  0.00     0.031 C 
ATOM     47  C   UNL     1       7.161   2.086  -7.371  1.00  0.00     0.029 A 
ATOM     48  C   UNL     1       8.035   2.908  -6.551  1.00  0.00     0.049 A 
ATOM     49  H   UNL     1       8.502   2.417  -4.518  1.00  0.00     0.167 HD
ATOM     50  C   UNL     1       8.702  -2.988  -9.280  1.00  0.00     0.031 A 
ATOM     51  C   UNL     1       8.984   3.767  -7.029  1.00  0.00     0.031 A 
ATOM     52  C   UNL     1       8.345  -1.795 -10.044  1.00  0.00     0.049 A 
ATOM     53  C   UNL     1       9.450   3.471  -8.442  1.00  0.00     0.074 A 
ATOM     54  C   UNL     1       7.149  -1.198 -10.408  1.00  0.00     0.029 A 
ATOM     55  N   UNL     1       9.334  -0.867 -10.323  1.00  0.00    -0.354 N 
ATOM     56  N   UNL     1       9.079   2.437  -9.145  1.00  0.00    -0.248 NA
ATOM     57  C   UNL     1      10.467   4.273  -9.128  1.00  0.00     0.031 C 
ATOM     58  C   UNL     1       7.436   0.102 -10.913  1.00  0.00     0.029 A 
ATOM     59  C   UNL     1       8.805   0.286 -10.865  1.00  0.00     0.049 A 
ATOM     60  H   UNL     1      10.294  -1.012 -10.155  1.00  0.00     0.167 HD
ATOM     61  C   UNL     1       9.807   2.393 -10.303  1.00  0.00     0.074 A 
ATOM     62  C   UNL     1      10.660   3.565 -10.254  1.00  0.00     0.031 C 
ATOM     63  C   UNL     1       9.703   1.375 -11.203  1.00  0.00     0.031 A 
BRANCH  50  64
ATOM     64  C   UNL     1       8.397  -4.391  -9.739  1.00  0.00    -0.014 A 
ATOM     65  C   UNL     1       7.400  -4.604 -10.708  1.00  0.00     0.009 A 
ATOM     66  C   UNL     1       9.023  -5.542  -9.232  1.00  0.00     0.009 A 
ATOM     67  C   UNL     1       6.982  -5.891 -11.072  1.00  0.00     0.001 A 
ATOM     68  C   UNL     1       8.582  -6.832  -9.557  1.00  0.00     0.001 A 
ATOM     69  C   UNL     1       7.551  -7.006 -10.470  1.00  0.00     0.000 A 
ENDBRANCH  50  64
BRANCH  51  70
ATOM     70  C   UNL     1       9.860   4.330  -5.961  1.00  0.00    -0.014 A 
ATOM     71  C   UNL     1       9.271   5.128  -4.959  1.00  0.00     0.009 A 
ATOM     72  C   UNL     1      11.146   3.819  -5.741  1.00  0.00     0.009 A 
ATOM     73  C   UNL     1       9.901   5.305  -3.724  1.00  0.00     0.001 A 
ATOM     74  C   UNL     1      11.783   4.018  -4.510  1.00  0.00     0.001 A 
ATOM     75  C   UNL     1      11.145   4.727  -3.492  1.00  0.00     0.000 A 
ENDBRANCH  51  70
BRANCH  63  76
ATOM     76  C   UNL     1      10.483   1.316 -12.482  1.00  0.00    -0.014 A 
ATOM     77  C   UNL     1      10.636   2.431 -13.318  1.00  0.00     0.009 A 
ATOM     78  C   UNL     1      10.986   0.085 -12.947  1.00  0.00     0.009 A 
ATOM     79  C   UNL     1      11.311   2.328 -14.541  1.00  0.00     0.001 A 
ATOM     80  C   UNL     1      11.640  -0.025 -14.176  1.00  0.00     0.001 A 
ATOM     81  C   UNL     1      11.812   1.101 -14.969  1.00  0.00     0.000 A 
ENDBRANCH  63  76
ENDBRANCH  37  38
ENDBRANCH  29  32
ENDBRANCH  27  28
ENDBRANCH  26  27
ENDBRANCH  25  26
ENDBRANCH   1  25
TORSDOF 16
