REMARK SMILES O=C(NCCCCCCNC(=O)[C@H]1CC[C@@H](C(F)F)[NH2+]1)c1ccc(-c2c3nc(c(-c4ccccc4)c4ccc([nH]4)c(-c4ccccc4)c4nc(c(-c5ccccc5)c5ccc2[nH]5)C=C4)C=C3)cc1
REMARK SMILES IDX 6 1 5 2 4 3 3 4 1 5 2 6 21 8 22 9 68 10 23 11 67 12 24 13
REMARK SMILES IDX 25 14 26 15 61 16 27 17 66 18 60 19 62 20 28 21 65 22 59 23
REMARK SMILES IDX 58 24 29 26 51 27 36 28 50 29 37 30 40 31 49 32 63 33 38 34
REMARK SMILES IDX 39 35 48 37 64 38 41 39 30 40 31 41 35 42 32 43 34 44 33 45
REMARK SMILES IDX 52 46 53 47 57 48 54 49 56 50 55 51 42 52 43 53 47 54 44 55
REMARK SMILES IDX 46 56 45 57 7 58 8 59 9 60 10 61 11 62 12 64 13 65 14 66
REMARK SMILES IDX 20 67 15 68 16 69 17 72 18 73 19 74
REMARK H PARENT 3 7 62 25 40 36 10 63 20 70 20 71
REMARK Flexibility Score: inf
ROOT
ATOM      1  C   UNL     1      12.085 -10.979  -5.525  1.00  0.00     0.002 C 
ENDROOT
BRANCH   1   2
ATOM      2  C   UNL     1      12.545 -11.987  -4.472  1.00  0.00     0.021 C 
BRANCH   2   3
ATOM      3  C   UNL     1      11.853 -13.343  -4.534  1.00  0.00     0.116 C 
BRANCH   3   4
ATOM      4  N   UNL     1      12.169 -14.077  -5.747  1.00  0.00    -0.352 N 
ATOM      5  O   UNL     1      13.050 -15.739  -6.993  1.00  0.00    -0.269 OA
ATOM      6  C   UNL     1      12.700 -15.338  -5.892  1.00  0.00     0.251 C 
ATOM      7  H   UNL     1      11.974 -13.604  -6.588  1.00  0.00     0.163 HD
BRANCH   6   8
ATOM      8  C   UNL     1      12.874 -16.201  -4.702  1.00  0.00     0.039 A 
ATOM      9  C   UNL     1      11.858 -16.325  -3.753  1.00  0.00     0.014 A 
ATOM     10  C   UNL     1      14.076 -16.895  -4.538  1.00  0.00     0.014 A 
ATOM     11  C   UNL     1      12.101 -17.016  -2.570  1.00  0.00     0.010 A 
ATOM     12  C   UNL     1      14.286 -17.659  -3.387  1.00  0.00     0.010 A 
ATOM     13  C   UNL     1      13.316 -17.692  -2.374  1.00  0.00    -0.014 A 
BRANCH  13  14
ATOM     14  C   UNL     1      13.532 -18.448  -1.113  1.00  0.00     0.031 A 
ATOM     15  C   UNL     1      14.595 -18.034  -0.131  1.00  0.00     0.074 A 
ATOM     16  C   UNL     1      12.731 -19.494  -0.835  1.00  0.00     0.049 A 
ATOM     17  N   UNL     1      14.875 -18.546   1.042  1.00  0.00    -0.248 NA
ATOM     18  C   UNL     1      15.460 -16.908  -0.515  1.00  0.00     0.031 C 
ATOM     19  C   UNL     1      11.667 -19.997  -1.708  1.00  0.00     0.029 A 
ATOM     20  N   UNL     1      12.666 -20.304   0.269  1.00  0.00    -0.354 N 
ATOM     21  C   UNL     1      15.961 -17.826   1.523  1.00  0.00     0.074 A 
ATOM     22  C   UNL     1      16.304 -16.854   0.507  1.00  0.00     0.031 C 
ATOM     23  C   UNL     1      11.017 -20.989  -1.080  1.00  0.00     0.029 A 
ATOM     24  C   UNL     1      11.652 -21.229   0.210  1.00  0.00     0.049 A 
ATOM     25  H   UNL     1      13.286 -20.230   1.031  1.00  0.00     0.167 HD
ATOM     26  C   UNL     1      16.613 -17.959   2.704  1.00  0.00     0.031 A 
ATOM     27  C   UNL     1      11.274 -22.170   1.094  1.00  0.00     0.031 A 
ATOM     28  C   UNL     1      16.267 -18.919   3.720  1.00  0.00     0.049 A 
ATOM     29  C   UNL     1      12.020 -22.302   2.388  1.00  0.00     0.074 A 
ATOM     30  C   UNL     1      16.844 -19.102   4.965  1.00  0.00     0.029 A 
ATOM     31  N   UNL     1      15.257 -19.860   3.606  1.00  0.00    -0.354 N 
ATOM     32  N   UNL     1      13.018 -21.584   2.843  1.00  0.00    -0.248 NA
ATOM     33  C   UNL     1      11.582 -23.373   3.293  1.00  0.00     0.031 C 
ATOM     34  C   UNL     1      16.212 -20.186   5.586  1.00  0.00     0.029 A 
ATOM     35  C   UNL     1      15.206 -20.641   4.749  1.00  0.00     0.049 A 
ATOM     36  H   UNL     1      14.662 -19.960   2.827  1.00  0.00     0.167 HD
ATOM     37  C   UNL     1      13.312 -22.100   4.098  1.00  0.00     0.074 A 
ATOM     38  C   UNL     1      12.375 -23.180   4.338  1.00  0.00     0.031 C 
ATOM     39  C   UNL     1      14.270 -21.712   4.974  1.00  0.00     0.031 A 
BRANCH  26  40
ATOM     40  C   UNL     1      17.793 -17.059   2.951  1.00  0.00    -0.014 A 
ATOM     41  C   UNL     1      17.629 -15.691   3.218  1.00  0.00     0.009 A 
ATOM     42  C   UNL     1      19.088 -17.600   2.953  1.00  0.00     0.009 A 
ATOM     43  C   UNL     1      18.741 -14.877   3.448  1.00  0.00     0.001 A 
ATOM     44  C   UNL     1      20.196 -16.789   3.208  1.00  0.00     0.001 A 
ATOM     45  C   UNL     1      20.023 -15.427   3.446  1.00  0.00     0.000 A 
ENDBRANCH  26  40
BRANCH  27  46
ATOM     46  C   UNL     1      10.120 -23.053   0.785  1.00  0.00    -0.014 A 
ATOM     47  C   UNL     1       8.912 -22.915   1.485  1.00  0.00     0.009 A 
ATOM     48  C   UNL     1      10.218 -24.029  -0.218  1.00  0.00     0.009 A 
ATOM     49  C   UNL     1       7.832 -23.753   1.200  1.00  0.00     0.001 A 
ATOM     50  C   UNL     1       9.127 -24.845  -0.520  1.00  0.00     0.001 A 
ATOM     51  C   UNL     1       7.938 -24.712   0.194  1.00  0.00     0.000 A 
ENDBRANCH  27  46
BRANCH  39  52
ATOM     52  C   UNL     1      14.322 -22.434   6.289  1.00  0.00    -0.014 A 
ATOM     53  C   UNL     1      14.795 -23.752   6.381  1.00  0.00     0.009 A 
ATOM     54  C   UNL     1      13.905 -21.776   7.457  1.00  0.00     0.009 A 
ATOM     55  C   UNL     1      14.812 -24.410   7.613  1.00  0.00     0.001 A 
ATOM     56  C   UNL     1      13.949 -22.427   8.690  1.00  0.00     0.001 A 
ATOM     57  C   UNL     1      14.392 -23.747   8.766  1.00  0.00     0.000 A 
ENDBRANCH  39  52
ENDBRANCH  13  14
ENDBRANCH   6   8
ENDBRANCH   3   4
ENDBRANCH   2   3
ENDBRANCH   1   2
BRANCH   1  58
ATOM     58  C   UNL     1      10.580 -10.685  -5.545  1.00  0.00     0.002 C 
BRANCH  58  59
ATOM     59  C   UNL     1       9.954 -10.343  -4.188  1.00  0.00     0.021 C 
BRANCH  59  60
ATOM     60  C   UNL     1      10.573  -9.133  -3.490  1.00  0.00     0.116 C 
BRANCH  60  61
ATOM     61  N   UNL     1      10.172  -7.904  -4.135  1.00  0.00    -0.351 N 
ATOM     62  C   UNL     1       9.400  -6.851  -3.783  1.00  0.00     0.278 C 
ATOM     63  H   UNL     1      10.549  -7.811  -5.040  1.00  0.00     0.163 HD
ATOM     64  O   UNL     1       9.077  -6.116  -4.728  1.00  0.00    -0.268 OA
BRANCH  62  65
ATOM     65  C   UNL     1       8.912  -6.506  -2.344  1.00  0.00     0.273 C 
ATOM     66  C   UNL     1       9.368  -7.222  -1.091  1.00  0.00     0.082 C 
ATOM     67  N   UNL     1       9.363  -5.117  -2.041  1.00  0.00    -0.329 N 
ATOM     68  C   UNL     1      10.763  -6.676  -0.864  1.00  0.00     0.078 C 
ATOM     69  C   UNL     1      10.646  -5.212  -1.294  1.00  0.00     0.251 C 
ATOM     70  H   UNL     1       8.664  -4.640  -1.472  1.00  0.00     0.347 HD
ATOM     71  H   UNL     1       9.490  -4.586  -2.903  1.00  0.00     0.347 HD
BRANCH  69  72
ATOM     72  C   UNL     1      11.904  -4.730  -2.044  1.00  0.00     0.399 C 
ATOM     73  F   UNL     1      12.112  -5.453  -3.171  1.00  0.00    -0.204 F 
ATOM     74  F   UNL     1      11.774  -3.432  -2.411  1.00  0.00    -0.204 F 
ENDBRANCH  69  72
ENDBRANCH  62  65
ENDBRANCH  60  61
ENDBRANCH  59  60
ENDBRANCH  58  59
ENDBRANCH   1  58
TORSDOF 14
