REMARK SMILES CC(C)[C@@H](NC(=O)[C@H]1CCCO1)C(=O)NCCCCCCNC(=O)c1ccc(-c2c3nc(c(-c4ccccc4)c4ccc([nH]4)c(-c4ccccc4)c4nc(c(-c5ccccc5)c5ccc2[nH]5)C=C4)C=C3)cc1
REMARK SMILES IDX 18 1 17 2 16 3 15 4 13 5 14 6 4 8 2 9 1 10 3 11 5 12 6 13
REMARK SMILES IDX 7 15 8 16 9 17 12 18 10 19 11 20 19 21 20 22 21 23 22 24
REMARK SMILES IDX 23 25 24 27 25 28 26 29 72 30 27 31 71 32 28 33 29 34 30 35
REMARK SMILES IDX 65 36 31 37 70 38 64 39 66 40 32 41 69 42 63 43 62 44 33 46
REMARK SMILES IDX 55 47 40 48 54 49 41 50 44 51 53 52 67 53 42 54 43 55 52 57
REMARK SMILES IDX 68 58 45 59 34 60 35 61 39 62 36 63 38 64 37 65 56 66 57 67
REMARK SMILES IDX 61 68 58 69 60 70 59 71 46 72 47 73 51 74 48 75 50 76 49 77
REMARK H PARENT 15 7 5 14 22 26 66 45 44 56
REMARK Flexibility Score: inf
ROOT
ATOM      1  C   UNL     1      -6.598  -4.085   4.946  1.00  0.00     0.002 C 
ENDROOT
BRANCH   1   2
ATOM      2  C   UNL     1      -5.441  -4.132   5.946  1.00  0.00     0.021 C 
BRANCH   2   3
ATOM      3  C   UNL     1      -4.219  -3.368   5.466  1.00  0.00     0.116 C 
BRANCH   3   4
ATOM      4  N   UNL     1      -4.478  -1.941   5.488  1.00  0.00    -0.354 N 
ATOM      5  C   UNL     1      -3.612  -0.894   5.587  1.00  0.00     0.242 C 
ATOM      6  O   UNL     1      -4.100   0.237   5.684  1.00  0.00    -0.273 OA
ATOM      7  H   UNL     1      -5.427  -1.690   5.421  1.00  0.00     0.163 HD
BRANCH   5   8
ATOM      8  C   UNL     1      -2.115  -1.148   5.815  1.00  0.00     0.174 C 
BRANCH   8   9
ATOM      9  C   UNL     1      -1.964  -1.576   7.323  1.00  0.00     0.015 C 
ATOM     10  C   UNL     1      -0.516  -1.698   7.800  1.00  0.00     0.010 C 
ATOM     11  C   UNL     1      -2.723  -0.652   8.293  1.00  0.00     0.010 C 
ENDBRANCH   8   9
BRANCH   8  12
ATOM     12  N   UNL     1      -1.581  -2.181   4.902  1.00  0.00    -0.342 N 
ATOM     13  C   UNL     1      -1.539  -2.262   3.540  1.00  0.00     0.249 C 
ATOM     14  H   UNL     1      -1.182  -2.954   5.362  1.00  0.00     0.164 HD
ATOM     15  O   UNL     1      -0.817  -3.157   3.078  1.00  0.00    -0.272 OA
BRANCH  13  16
ATOM     16  C   UNL     1      -2.400  -1.409   2.567  1.00  0.00     0.207 C 
ATOM     17  C   UNL     1      -3.498  -2.248   1.901  1.00  0.00     0.044 C 
ATOM     18  O   UNL     1      -3.002  -0.205   3.010  1.00  0.00    -0.368 OA
ATOM     19  C   UNL     1      -4.780  -1.495   2.161  1.00  0.00     0.032 C 
ATOM     20  C   UNL     1      -4.299  -0.087   2.409  1.00  0.00     0.161 C 
ENDBRANCH  13  16
ENDBRANCH   8  12
ENDBRANCH   5   8
ENDBRANCH   3   4
ENDBRANCH   2   3
ENDBRANCH   1   2
BRANCH   1  21
ATOM     21  C   UNL     1      -6.309  -4.771   3.607  1.00  0.00     0.002 C 
BRANCH  21  22
ATOM     22  C   UNL     1      -5.911  -6.241   3.713  1.00  0.00     0.021 C 
BRANCH  22  23
ATOM     23  C   UNL     1      -6.907  -7.094   4.484  1.00  0.00     0.116 C 
BRANCH  23  24
ATOM     24  N   UNL     1      -8.232  -7.074   3.884  1.00  0.00    -0.352 N 
ATOM     25  C   UNL     1      -9.087  -8.128   3.663  1.00  0.00     0.251 C 
ATOM     26  H   UNL     1      -8.560  -6.191   3.599  1.00  0.00     0.163 HD
ATOM     27  O   UNL     1     -10.107  -7.991   3.010  1.00  0.00    -0.269 OA
BRANCH  25  28
ATOM     28  C   UNL     1      -8.714  -9.448   4.209  1.00  0.00     0.039 A 
ATOM     29  C   UNL     1      -8.666 -10.545   3.349  1.00  0.00     0.014 A 
ATOM     30  C   UNL     1      -8.324  -9.564   5.546  1.00  0.00     0.014 A 
ATOM     31  C   UNL     1      -8.140 -11.750   3.812  1.00  0.00     0.010 A 
ATOM     32  C   UNL     1      -7.729 -10.740   5.981  1.00  0.00     0.010 A 
ATOM     33  C   UNL     1      -7.621 -11.839   5.115  1.00  0.00    -0.014 A 
BRANCH  33  34
ATOM     34  C   UNL     1      -6.923 -13.059   5.584  1.00  0.00     0.031 A 
ATOM     35  C   UNL     1      -7.478 -13.848   6.734  1.00  0.00     0.074 A 
ATOM     36  C   UNL     1      -5.743 -13.400   5.029  1.00  0.00     0.049 A 
ATOM     37  N   UNL     1      -6.968 -14.890   7.340  1.00  0.00    -0.248 NA
ATOM     38  C   UNL     1      -8.760 -13.391   7.295  1.00  0.00     0.031 C 
ATOM     39  C   UNL     1      -5.079 -12.684   3.937  1.00  0.00     0.029 A 
ATOM     40  N   UNL     1      -4.885 -14.431   5.318  1.00  0.00    -0.354 N 
ATOM     41  C   UNL     1      -7.857 -15.202   8.360  1.00  0.00     0.074 A 
ATOM     42  C   UNL     1      -8.910 -14.211   8.325  1.00  0.00     0.031 C 
ATOM     43  C   UNL     1      -3.933 -13.313   3.631  1.00  0.00     0.029 A 
ATOM     44  C   UNL     1      -3.757 -14.445   4.534  1.00  0.00     0.049 A 
ATOM     45  H   UNL     1      -5.062 -15.098   6.021  1.00  0.00     0.167 HD
ATOM     46  C   UNL     1      -7.810 -16.233   9.235  1.00  0.00     0.031 A 
ATOM     47  C   UNL     1      -2.692 -15.269   4.550  1.00  0.00     0.031 A 
ATOM     48  C   UNL     1      -6.764 -17.220   9.262  1.00  0.00     0.049 A 
ATOM     49  C   UNL     1      -2.648 -16.386   5.554  1.00  0.00     0.074 A 
ATOM     50  C   UNL     1      -6.660 -18.343  10.063  1.00  0.00     0.029 A 
ATOM     51  N   UNL     1      -5.637 -17.195   8.456  1.00  0.00    -0.354 N 
ATOM     52  N   UNL     1      -3.537 -16.717   6.459  1.00  0.00    -0.248 NA
ATOM     53  C   UNL     1      -1.454 -17.241   5.540  1.00  0.00     0.031 C 
ATOM     54  C   UNL     1      -5.439 -18.965   9.784  1.00  0.00     0.029 A 
ATOM     55  C   UNL     1      -4.811 -18.261   8.769  1.00  0.00     0.049 A 
ATOM     56  H   UNL     1      -5.451 -16.520   7.763  1.00  0.00     0.167 HD
ATOM     57  C   UNL     1      -3.018 -17.828   7.111  1.00  0.00     0.074 A 
ATOM     58  C   UNL     1      -1.748 -18.127   6.482  1.00  0.00     0.031 C 
ATOM     59  C   UNL     1      -3.545 -18.535   8.140  1.00  0.00     0.031 A 
BRANCH  46  60
ATOM     60  C   UNL     1      -8.920 -16.338  10.242  1.00  0.00    -0.014 A 
ATOM     61  C   UNL     1     -10.225 -16.684   9.855  1.00  0.00     0.009 A 
ATOM     62  C   UNL     1      -8.652 -16.121  11.603  1.00  0.00     0.009 A 
ATOM     63  C   UNL     1     -11.245 -16.774  10.804  1.00  0.00     0.001 A 
ATOM     64  C   UNL     1      -9.667 -16.241  12.553  1.00  0.00     0.001 A 
ATOM     65  C   UNL     1     -10.964 -16.558  12.153  1.00  0.00     0.000 A 
ENDBRANCH  46  60
BRANCH  47  66
ATOM     66  C   UNL     1      -1.579 -15.067   3.586  1.00  0.00    -0.014 A 
ATOM     67  C   UNL     1      -1.364 -15.983   2.545  1.00  0.00     0.009 A 
ATOM     68  C   UNL     1      -0.726 -13.958   3.700  1.00  0.00     0.009 A 
ATOM     69  C   UNL     1      -0.304 -15.806   1.653  1.00  0.00     0.001 A 
ATOM     70  C   UNL     1       0.316 -13.768   2.789  1.00  0.00     0.001 A 
ATOM     71  C   UNL     1       0.532 -14.697   1.773  1.00  0.00     0.000 A 
ENDBRANCH  47  66
BRANCH  59  72
ATOM     72  C   UNL     1      -2.751 -19.705   8.646  1.00  0.00    -0.014 A 
ATOM     73  C   UNL     1      -1.586 -19.515   9.405  1.00  0.00     0.009 A 
ATOM     74  C   UNL     1      -3.204 -21.012   8.408  1.00  0.00     0.009 A 
ATOM     75  C   UNL     1      -0.877 -20.613   9.895  1.00  0.00     0.001 A 
ATOM     76  C   UNL     1      -2.509 -22.106   8.924  1.00  0.00     0.001 A 
ATOM     77  C   UNL     1      -1.343 -21.906   9.660  1.00  0.00     0.000 A 
ENDBRANCH  59  72
ENDBRANCH  33  34
ENDBRANCH  25  28
ENDBRANCH  23  24
ENDBRANCH  22  23
ENDBRANCH  21  22
ENDBRANCH   1  21
TORSDOF 16
