REMARK SMILES C[C@H]1SCCC[C@]1(Nc1ccc(Cl)cc1)C(=O)NCCCCCCNC(=O)c1ccc(-c2c3nc(c(-c4ccccc4)c4ccc([nH]4)c(-c4ccccc4)c4nc(c(-c5ccccc5)c5ccc2[nH]5)C=C4)C=C3)cc1
REMARK SMILES IDX 21 1 20 2 19 3 18 4 16 5 17 6 7 8 1 9 2 10 3 11 4 12 6 13
REMARK SMILES IDX 5 14 8 15 9 17 10 18 15 19 11 20 14 21 12 22 13 23 22 24
REMARK SMILES IDX 23 25 24 26 25 27 26 28 27 30 28 31 29 32 75 33 30 34 74 35
REMARK SMILES IDX 31 36 32 37 33 38 68 39 34 40 73 41 67 42 69 43 35 44 72 45
REMARK SMILES IDX 66 46 65 47 36 49 58 50 43 51 57 52 44 53 47 54 56 55 70 56
REMARK SMILES IDX 45 57 46 58 55 60 71 61 48 62 37 63 38 64 42 65 39 66 41 67
REMARK SMILES IDX 40 68 59 69 60 70 64 71 61 72 63 73 62 74 49 75 50 76 54 77
REMARK SMILES IDX 51 78 53 79 52 80
REMARK H PARENT 18 7 8 16 25 29 69 48 47 59
REMARK Flexibility Score: inf
ROOT
ATOM      1  C   UNL     1       3.453   1.066   5.176  1.00  0.00     0.002 C 
ENDROOT
BRANCH   1   2
ATOM      2  C   UNL     1       2.274   0.876   4.221  1.00  0.00     0.021 C 
BRANCH   2   3
ATOM      3  C   UNL     1       1.965   2.111   3.382  1.00  0.00     0.116 C 
BRANCH   3   4
ATOM      4  N   UNL     1       2.755   2.121   2.170  1.00  0.00    -0.354 N 
ATOM      5  C   UNL     1       2.421   2.327   0.867  1.00  0.00     0.246 C 
ATOM      6  O   UNL     1       3.390   2.337   0.093  1.00  0.00    -0.272 OA
ATOM      7  H   UNL     1       3.713   1.946   2.315  1.00  0.00     0.163 HD
BRANCH   5   8
ATOM      8  C   UNL     1       0.948   2.503   0.322  1.00  0.00     0.128 C 
ATOM      9  C   UNL     1      -0.024   0.356   1.560  1.00  0.00     0.022 C 
ATOM     10  C   UNL     1       0.231   1.102   0.253  1.00  0.00     0.078 C 
ATOM     11  S   UNL     1      -1.440   1.207  -0.528  1.00  0.00    -0.156 SA
ATOM     12  C   UNL     1      -0.912   1.811  -2.142  1.00  0.00     0.070 C 
ATOM     13  C   UNL     1       1.093   3.037  -1.147  1.00  0.00     0.040 C 
ATOM     14  C   UNL     1      -0.183   3.134  -1.986  1.00  0.00     0.014 C 
BRANCH   8  15
ATOM     15  N   UNL     1       0.120   3.476   1.088  1.00  0.00    -0.370 N 
ATOM     16  H   UNL     1      -0.855   3.364   1.012  1.00  0.00     0.161 HD
BRANCH  15  17
ATOM     17  C   UNL     1       0.547   4.516   1.889  1.00  0.00     0.035 A 
ATOM     18  C   UNL     1       1.738   5.221   1.685  1.00  0.00     0.027 A 
ATOM     19  C   UNL     1      -0.152   4.754   3.085  1.00  0.00     0.027 A 
ATOM     20  C   UNL     1       2.261   6.067   2.672  1.00  0.00     0.022 A 
ATOM     21  C   UNL     1       0.374   5.578   4.087  1.00  0.00     0.022 A 
ATOM     22  C   UNL     1       1.592   6.215   3.882  1.00  0.00     0.041 A 
ATOM     23  Cl  UNL     1       2.295   7.146   5.146  1.00  0.00    -0.084 Cl
ENDBRANCH  15  17
ENDBRANCH   8  15
ENDBRANCH   5   8
ENDBRANCH   3   4
ENDBRANCH   2   3
ENDBRANCH   1   2
BRANCH   1  24
ATOM     24  C   UNL     1       3.240   2.129   6.259  1.00  0.00     0.002 C 
BRANCH  24  25
ATOM     25  C   UNL     1       1.948   1.987   7.067  1.00  0.00     0.021 C 
BRANCH  25  26
ATOM     26  C   UNL     1       1.735   0.612   7.692  1.00  0.00     0.116 C 
BRANCH  26  27
ATOM     27  N   UNL     1       2.830   0.239   8.571  1.00  0.00    -0.352 N 
ATOM     28  C   UNL     1       2.800  -0.111   9.896  1.00  0.00     0.251 C 
ATOM     29  H   UNL     1       3.723   0.238   8.156  1.00  0.00     0.163 HD
ATOM     30  O   UNL     1       3.837  -0.189  10.543  1.00  0.00    -0.269 OA
BRANCH  28  31
ATOM     31  C   UNL     1       1.503  -0.386  10.544  1.00  0.00     0.039 A 
ATOM     32  C   UNL     1       1.245   0.167  11.800  1.00  0.00     0.014 A 
ATOM     33  C   UNL     1       0.552  -1.198   9.919  1.00  0.00     0.014 A 
ATOM     34  C   UNL     1       0.011  -0.057  12.410  1.00  0.00     0.010 A 
ATOM     35  C   UNL     1      -0.704  -1.359  10.495  1.00  0.00     0.010 A 
ATOM     36  C   UNL     1      -0.982  -0.800  11.751  1.00  0.00    -0.014 A 
BRANCH  36  37
ATOM     37  C   UNL     1      -2.314  -1.010  12.366  1.00  0.00     0.031 A 
ATOM     38  C   UNL     1      -2.763  -2.395  12.743  1.00  0.00     0.074 A 
ATOM     39  C   UNL     1      -3.141   0.040  12.534  1.00  0.00     0.049 A 
ATOM     40  N   UNL     1      -3.905  -2.782  13.250  1.00  0.00    -0.248 NA
ATOM     41  C   UNL     1      -1.812  -3.491  12.495  1.00  0.00     0.031 C 
ATOM     42  C   UNL     1      -2.837   1.426  12.172  1.00  0.00     0.029 A 
ATOM     43  N   UNL     1      -4.411   0.103  13.051  1.00  0.00    -0.354 N 
ATOM     44  C   UNL     1      -3.817  -4.164  13.366  1.00  0.00     0.074 A 
ATOM     45  C   UNL     1      -2.531  -4.553  12.829  1.00  0.00     0.031 C 
ATOM     46  C   UNL     1      -3.879   2.205  12.502  1.00  0.00     0.029 A 
ATOM     47  C   UNL     1      -4.939   1.371  13.060  1.00  0.00     0.049 A 
ATOM     48  H   UNL     1      -4.897  -0.686  13.383  1.00  0.00     0.167 HD
ATOM     49  C   UNL     1      -4.717  -5.029  13.889  1.00  0.00     0.031 A 
ATOM     50  C   UNL     1      -6.144   1.812  13.466  1.00  0.00     0.031 A 
ATOM     51  C   UNL     1      -5.992  -4.639  14.430  1.00  0.00     0.049 A 
ATOM     52  C   UNL     1      -7.130   0.829  14.032  1.00  0.00     0.074 A 
ATOM     53  C   UNL     1      -6.950  -5.432  15.034  1.00  0.00     0.029 A 
ATOM     54  N   UNL     1      -6.486  -3.344  14.426  1.00  0.00    -0.354 N 
ATOM     55  N   UNL     1      -7.003  -0.466  14.200  1.00  0.00    -0.248 NA
ATOM     56  C   UNL     1      -8.421   1.371  14.477  1.00  0.00     0.031 C 
ATOM     57  C   UNL     1      -8.050  -4.626  15.345  1.00  0.00     0.029 A 
ATOM     58  C   UNL     1      -7.749  -3.320  14.993  1.00  0.00     0.049 A 
ATOM     59  H   UNL     1      -6.011  -2.558  14.072  1.00  0.00     0.167 HD
ATOM     60  C   UNL     1      -8.185  -0.888  14.795  1.00  0.00     0.074 A 
ATOM     61  C   UNL     1      -9.008   0.291  14.975  1.00  0.00     0.031 C 
ATOM     62  C   UNL     1      -8.556  -2.139  15.161  1.00  0.00     0.031 A 
BRANCH  49  63
ATOM     63  C   UNL     1      -4.355  -6.489  13.893  1.00  0.00    -0.014 A 
ATOM     64  C   UNL     1      -3.338  -6.987  14.723  1.00  0.00     0.009 A 
ATOM     65  C   UNL     1      -5.067  -7.387  13.082  1.00  0.00     0.009 A 
ATOM     66  C   UNL     1      -3.017  -8.347  14.713  1.00  0.00     0.001 A 
ATOM     67  C   UNL     1      -4.766  -8.750  13.097  1.00  0.00     0.001 A 
ATOM     68  C   UNL     1      -3.734  -9.227  13.905  1.00  0.00     0.000 A 
ENDBRANCH  49  63
BRANCH  50  69
ATOM     69  C   UNL     1      -6.481   3.256  13.364  1.00  0.00    -0.014 A 
ATOM     70  C   UNL     1      -6.608   4.043  14.518  1.00  0.00     0.009 A 
ATOM     71  C   UNL     1      -6.680   3.854  12.110  1.00  0.00     0.009 A 
ATOM     72  C   UNL     1      -6.955   5.393  14.420  1.00  0.00     0.001 A 
ATOM     73  C   UNL     1      -6.997   5.211  12.013  1.00  0.00     0.001 A 
ATOM     74  C   UNL     1      -7.144   5.976  13.169  1.00  0.00     0.000 A 
ENDBRANCH  50  69
BRANCH  62  75
ATOM     75  C   UNL     1      -9.895  -2.292  15.826  1.00  0.00    -0.014 A 
ATOM     76  C   UNL     1     -11.090  -2.149  15.104  1.00  0.00     0.009 A 
ATOM     77  C   UNL     1      -9.958  -2.627  17.188  1.00  0.00     0.009 A 
ATOM     78  C   UNL     1     -12.322  -2.303  15.743  1.00  0.00     0.001 A 
ATOM     79  C   UNL     1     -11.190  -2.812  17.816  1.00  0.00     0.001 A 
ATOM     80  C   UNL     1     -12.371  -2.639  17.096  1.00  0.00     0.000 A 
ENDBRANCH  62  75
ENDBRANCH  36  37
ENDBRANCH  28  31
ENDBRANCH  26  27
ENDBRANCH  25  26
ENDBRANCH  24  25
ENDBRANCH   1  24
TORSDOF 15
