REMARK SMILES CC(C)[C@H](NC(=O)[C@H]1CC(=O)N(c2ccc(F)cc2)C1)C(=O)N1CCC[C@@H]1C(=O)NCCCCCCNC(=O)c1ccc(-c2c3nc(c(-c4ccccc4)c4ccc([nH]4)c(-c4ccccc4)c4nc(c(-c5ccccc5)c5ccc2[nH]5)C=C4)C=C3)cc1
REMARK SMILES IDX 32 1 31 2 30 3 28 4 29 5 27 7 23 8 24 9 25 10 26 11 21 12
REMARK SMILES IDX 22 13 4 14 2 15 1 16 3 17 5 18 6 19 7 21 8 22 9 23 20 24
REMARK SMILES IDX 10 25 12 26 11 27 13 28 14 29 19 30 15 31 18 32 16 33 17 34
REMARK SMILES IDX 33 35 34 36 35 37 36 38 37 39 38 40 39 42 40 43 41 44 87 45
REMARK SMILES IDX 42 46 86 47 43 48 44 49 45 50 80 51 46 52 85 53 79 54 81 55
REMARK SMILES IDX 47 56 84 57 78 58 77 59 48 61 70 62 55 63 69 64 56 65 59 66
REMARK SMILES IDX 68 67 82 68 57 69 58 70 67 72 83 73 60 74 49 75 50 76 54 77
REMARK SMILES IDX 51 78 53 79 52 80 71 81 72 82 76 83 73 84 75 85 74 86 61 87
REMARK SMILES IDX 62 88 66 89 63 90 65 91 64 92
REMARK H PARENT 30 6 5 20 37 41 81 60 59 71
REMARK Flexibility Score: inf
ROOT
ATOM      1  C   UNL     1       1.654   4.835  -0.839  1.00  0.00     0.021 C 
ENDROOT
BRANCH   1   2
ATOM      2  C   UNL     1       1.590   3.575   0.009  1.00  0.00     0.116 C 
BRANCH   2   3
ATOM      3  N   UNL     1       2.649   2.642  -0.282  1.00  0.00    -0.354 N 
ATOM      4  C   UNL     1       3.223   1.704   0.527  1.00  0.00     0.242 C 
ATOM      5  O   UNL     1       4.239   1.146   0.100  1.00  0.00    -0.273 OA
ATOM      6  H   UNL     1       3.011   2.688  -1.196  1.00  0.00     0.163 HD
BRANCH   4   7
ATOM      7  C   UNL     1       2.707   1.432   1.961  1.00  0.00     0.174 C 
ATOM      8  N   UNL     1       1.280   1.115   2.017  1.00  0.00    -0.329 N 
ATOM      9  C   UNL     1       0.529   2.096   2.774  1.00  0.00     0.120 C 
ATOM     10  C   UNL     1       1.550   3.003   3.444  1.00  0.00     0.024 C 
ATOM     11  C   UNL     1       2.925   2.597   2.920  1.00  0.00     0.037 C 
BRANCH   8  12
ATOM     12  C   UNL     1       0.878  -0.107   1.526  1.00  0.00     0.246 C 
ATOM     13  O   UNL     1       1.698  -0.862   0.988  1.00  0.00    -0.272 OA
BRANCH  12  14
ATOM     14  C   UNL     1      -0.603  -0.559   1.532  1.00  0.00     0.174 C 
BRANCH  14  15
ATOM     15  C   UNL     1      -1.353  -0.084   0.240  1.00  0.00     0.015 C 
ATOM     16  C   UNL     1      -2.274   1.127   0.435  1.00  0.00     0.010 C 
ATOM     17  C   UNL     1      -0.427   0.161  -0.960  1.00  0.00     0.010 C 
ENDBRANCH  14  15
BRANCH  14  18
ATOM     18  N   UNL     1      -1.377  -0.329   2.760  1.00  0.00    -0.344 N 
ATOM     19  C   UNL     1      -1.117  -0.766   4.029  1.00  0.00     0.226 C 
ATOM     20  H   UNL     1      -2.192   0.212   2.654  1.00  0.00     0.164 HD
ATOM     21  O   UNL     1      -2.055  -0.823   4.822  1.00  0.00    -0.275 OA
BRANCH  19  22
ATOM     22  C   UNL     1       0.301  -1.059   4.458  1.00  0.00     0.107 C 
ATOM     23  C   UNL     1       0.703  -0.235   5.681  1.00  0.00     0.116 C 
ATOM     24  C   UNL     1       0.484  -2.483   4.924  1.00  0.00     0.139 C 
ATOM     25  C   UNL     1       1.741  -1.098   6.341  1.00  0.00     0.227 C 
ATOM     26  N   UNL     1       1.614  -2.385   5.819  1.00  0.00    -0.312 N 
ATOM     27  O   UNL     1       2.552  -0.676   7.158  1.00  0.00    -0.274 OA
BRANCH  26  28
ATOM     28  C   UNL     1       2.404  -3.490   6.182  1.00  0.00     0.044 A 
ATOM     29  C   UNL     1       2.849  -3.637   7.501  1.00  0.00     0.029 A 
ATOM     30  C   UNL     1       2.761  -4.452   5.227  1.00  0.00     0.029 A 
ATOM     31  C   UNL     1       3.605  -4.750   7.871  1.00  0.00     0.041 A 
ATOM     32  C   UNL     1       3.554  -5.543   5.590  1.00  0.00     0.041 A 
ATOM     33  C   UNL     1       3.955  -5.689   6.911  1.00  0.00     0.123 A 
ATOM     34  F   UNL     1       4.693  -6.750   7.263  1.00  0.00    -0.207 F 
ENDBRANCH  26  28
ENDBRANCH  19  22
ENDBRANCH  14  18
ENDBRANCH  12  14
ENDBRANCH   8  12
ENDBRANCH   4   7
ENDBRANCH   2   3
ENDBRANCH   1   2
BRANCH   1  35
ATOM     35  C   UNL     1       1.391   4.627  -2.329  1.00  0.00     0.002 C 
BRANCH  35  36
ATOM     36  C   UNL     1       0.102   3.882  -2.684  1.00  0.00     0.002 C 
BRANCH  36  37
ATOM     37  C   UNL     1      -1.183   4.423  -2.056  1.00  0.00     0.021 C 
BRANCH  37  38
ATOM     38  C   UNL     1      -1.414   5.919  -2.223  1.00  0.00     0.116 C 
BRANCH  38  39
ATOM     39  N   UNL     1      -1.398   6.343  -3.611  1.00  0.00    -0.352 N 
ATOM     40  C   UNL     1      -2.250   7.194  -4.268  1.00  0.00     0.251 C 
ATOM     41  H   UNL     1      -0.672   5.966  -4.159  1.00  0.00     0.163 HD
ATOM     42  O   UNL     1      -2.160   7.344  -5.482  1.00  0.00    -0.269 OA
BRANCH  40  43
ATOM     43  C   UNL     1      -3.301   7.905  -3.512  1.00  0.00     0.039 A 
ATOM     44  C   UNL     1      -4.596   7.934  -4.035  1.00  0.00     0.014 A 
ATOM     45  C   UNL     1      -3.019   8.530  -2.294  1.00  0.00     0.014 A 
ATOM     46  C   UNL     1      -5.620   8.541  -3.307  1.00  0.00     0.010 A 
ATOM     47  C   UNL     1      -4.055   9.063  -1.534  1.00  0.00     0.010 A 
ATOM     48  C   UNL     1      -5.365   9.079  -2.035  1.00  0.00    -0.014 A 
BRANCH  48  49
ATOM     49  C   UNL     1      -6.457   9.663  -1.218  1.00  0.00     0.031 A 
ATOM     50  C   UNL     1      -6.434  11.122  -0.857  1.00  0.00     0.074 A 
ATOM     51  C   UNL     1      -7.443   8.868  -0.759  1.00  0.00     0.049 A 
ATOM     52  N   UNL     1      -7.273  11.803  -0.117  1.00  0.00    -0.248 NA
ATOM     53  C   UNL     1      -5.308  11.917  -1.373  1.00  0.00     0.031 C 
ATOM     54  C   UNL     1      -7.560   7.429  -1.011  1.00  0.00     0.029 A 
ATOM     55  N   UNL     1      -8.535   9.157   0.020  1.00  0.00    -0.354 N 
ATOM     56  C   UNL     1      -6.770  13.097  -0.070  1.00  0.00     0.074 A 
ATOM     57  C   UNL     1      -5.525  13.095  -0.806  1.00  0.00     0.031 C 
ATOM     58  C   UNL     1      -8.679   6.971  -0.427  1.00  0.00     0.029 A 
ATOM     59  C   UNL     1      -9.332   8.068   0.278  1.00  0.00     0.049 A 
ATOM     60  H   UNL     1      -8.729  10.060   0.361  1.00  0.00     0.167 HD
ATOM     61  C   UNL     1      -7.306  14.194   0.516  1.00  0.00     0.031 A 
ATOM     62  C   UNL     1     -10.460   7.964   1.005  1.00  0.00     0.031 A 
ATOM     63  C   UNL     1      -8.547  14.195   1.244  1.00  0.00     0.049 A 
ATOM     64  C   UNL     1     -11.019   9.191   1.670  1.00  0.00     0.074 A 
ATOM     65  C   UNL     1      -9.200  15.264   1.831  1.00  0.00     0.029 A 
ATOM     66  N   UNL     1      -9.320  13.070   1.487  1.00  0.00    -0.354 N 
ATOM     67  N   UNL     1     -10.566  10.421   1.649  1.00  0.00    -0.248 NA
ATOM     68  C   UNL     1     -12.251   9.016   2.451  1.00  0.00     0.031 C 
ATOM     69  C   UNL     1     -10.336  14.776   2.483  1.00  0.00     0.029 A 
ATOM     70  C   UNL     1     -10.428  13.415   2.243  1.00  0.00     0.049 A 
ATOM     71  H   UNL     1      -9.111  12.162   1.171  1.00  0.00     0.167 HD
ATOM     72  C   UNL     1     -11.473  11.171   2.386  1.00  0.00     0.074 A 
ATOM     73  C   UNL     1     -12.511  10.261   2.825  1.00  0.00     0.031 C 
ATOM     74  C   UNL     1     -11.450  12.496   2.673  1.00  0.00     0.031 A 
BRANCH  61  75
ATOM     75  C   UNL     1      -6.542  15.485   0.400  1.00  0.00    -0.014 A 
ATOM     76  C   UNL     1      -6.412  16.148  -0.832  1.00  0.00     0.009 A 
ATOM     77  C   UNL     1      -5.975  16.066   1.544  1.00  0.00     0.009 A 
ATOM     78  C   UNL     1      -5.697  17.345  -0.920  1.00  0.00     0.001 A 
ATOM     79  C   UNL     1      -5.289  17.279   1.459  1.00  0.00     0.001 A 
ATOM     80  C   UNL     1      -5.141  17.912   0.226  1.00  0.00     0.000 A 
ENDBRANCH  61  75
BRANCH  62  81
ATOM     81  C   UNL     1     -11.145   6.650   1.137  1.00  0.00    -0.014 A 
ATOM     82  C   UNL     1     -12.395   6.433   0.536  1.00  0.00     0.009 A 
ATOM     83  C   UNL     1     -10.558   5.609   1.874  1.00  0.00     0.009 A 
ATOM     84  C   UNL     1     -13.056   5.213   0.696  1.00  0.00     0.001 A 
ATOM     85  C   UNL     1     -11.207   4.379   2.005  1.00  0.00     0.001 A 
ATOM     86  C   UNL     1     -12.459   4.186   1.426  1.00  0.00     0.000 A 
ENDBRANCH  62  81
BRANCH  74  87
ATOM     87  C   UNL     1     -12.601  13.048   3.468  1.00  0.00    -0.014 A 
ATOM     88  C   UNL     1     -12.763  12.748   4.829  1.00  0.00     0.009 A 
ATOM     89  C   UNL     1     -13.515  13.917   2.850  1.00  0.00     0.009 A 
ATOM     90  C   UNL     1     -13.837  13.279   5.546  1.00  0.00     0.001 A 
ATOM     91  C   UNL     1     -14.568  14.473   3.578  1.00  0.00     0.001 A 
ATOM     92  C   UNL     1     -14.735  14.145   4.922  1.00  0.00     0.000 A 
ENDBRANCH  74  87
ENDBRANCH  48  49
ENDBRANCH  40  43
ENDBRANCH  38  39
ENDBRANCH  37  38
ENDBRANCH  36  37
ENDBRANCH  35  36
ENDBRANCH   1  35
TORSDOF 19
