REMARK SMILES CS(=O)(=O)c1ccc(C2=NN(c3ccc(C(=O)NCCCCCCNC(=O)c4ccc(-c5c6nc(c(-c7ccccc7)c7ccc([nH]7)c(-c7ccccc7)c7nc(c(-c8ccccc8)c8ccc5[nH]8)C=C7)C=C6)cc4)cc3)[C@H](c3ccccc3)C2)cc1
REMARK SMILES IDX 21 1 20 2 19 3 18 4 16 5 17 6 15 8 12 9 13 10 77 11 14 12
REMARK SMILES IDX 76 13 11 14 9 15 10 16 85 17 78 18 8 19 5 20 6 21 87 22 7 23
REMARK SMILES IDX 86 24 2 25 1 26 3 27 4 28 79 29 80 30 84 31 81 32 83 33
REMARK SMILES IDX 82 34 22 35 23 36 24 37 25 38 26 39 27 41 28 42 29 43 75 44
REMARK SMILES IDX 30 45 74 46 31 47 32 48 33 49 68 50 34 51 73 52 67 53 69 54
REMARK SMILES IDX 35 55 72 56 66 57 65 58 36 60 58 61 43 62 57 63 44 64 47 65
REMARK SMILES IDX 56 66 70 67 45 68 46 69 55 71 71 72 48 73 37 74 38 75 42 76
REMARK SMILES IDX 39 77 41 78 40 79 59 80 60 81 64 82 61 83 63 84 62 85 49 86
REMARK SMILES IDX 50 87 54 88 51 89 53 90 52 91
REMARK H PARENT 18 7 25 40 69 59 47 70
REMARK Flexibility Score: inf
ROOT
ATOM      1  C   UNL     1       8.272   5.393  13.134  1.00  0.00     0.002 C 
ENDROOT
BRANCH   1   2
ATOM      2  C   UNL     1       7.109   5.303  12.139  1.00  0.00     0.021 C 
BRANCH   2   3
ATOM      3  C   UNL     1       6.829   6.620  11.412  1.00  0.00     0.116 C 
BRANCH   3   4
ATOM      4  N   UNL     1       7.804   6.832  10.359  1.00  0.00    -0.352 N 
ATOM      5  C   UNL     1       7.702   6.716   8.995  1.00  0.00     0.251 C 
ATOM      6  O   UNL     1       8.679   7.007   8.307  1.00  0.00    -0.269 OA
ATOM      7  H   UNL     1       8.694   7.106  10.678  1.00  0.00     0.163 HD
BRANCH   5   8
ATOM      8  C   UNL     1       6.434   6.318   8.333  1.00  0.00     0.039 A 
ATOM      9  C   UNL     1       3.996   5.752   7.042  1.00  0.00     0.060 A 
ATOM     10  C   UNL     1       4.906   6.649   6.474  1.00  0.00     0.029 A 
ATOM     11  C   UNL     1       4.352   5.091   8.221  1.00  0.00     0.029 A 
ATOM     12  C   UNL     1       6.116   6.933   7.115  1.00  0.00     0.016 A 
ATOM     13  C   UNL     1       5.570   5.351   8.849  1.00  0.00     0.016 A 
BRANCH   9  14
ATOM     14  N   UNL     1       2.764   5.481   6.465  1.00  0.00    -0.257 N 
ATOM     15  C   UNL     1       1.659   4.957   4.728  1.00  0.00     0.071 C 
ATOM     16  N   UNL     1       2.744   4.681   5.375  1.00  0.00    -0.176 NA
ATOM     17  C   UNL     1       0.815   6.064   5.294  1.00  0.00     0.091 C 
ATOM     18  C   UNL     1       1.635   6.417   6.550  1.00  0.00     0.144 C 
BRANCH  15  19
ATOM     19  C   UNL     1       1.274   4.206   3.526  1.00  0.00    -0.002 A 
ATOM     20  C   UNL     1       0.657   2.680   1.287  1.00  0.00     0.067 A 
ATOM     21  C   UNL     1       1.095   2.043   2.448  1.00  0.00     0.021 A 
ATOM     22  C   UNL     1       0.536   4.077   1.239  1.00  0.00     0.021 A 
ATOM     23  C   UNL     1       1.416   2.813   3.565  1.00  0.00     0.011 A 
ATOM     24  C   UNL     1       0.835   4.845   2.368  1.00  0.00     0.011 A 
BRANCH  20  25
ATOM     25  S   UNL     1       0.255   1.761  -0.181  1.00  0.00     0.175 S 
ATOM     26  C   UNL     1       0.993   0.160  -0.017  1.00  0.00     0.163 C 
ATOM     27  O   UNL     1       0.918   2.430  -1.281  1.00  0.00    -0.224 OA
ATOM     28  O   UNL     1      -1.188   1.591  -0.164  1.00  0.00    -0.224 OA
ENDBRANCH  20  25
ENDBRANCH  15  19
BRANCH  18  29
ATOM     29  C   UNL     1       0.958   6.300   7.913  1.00  0.00    -0.023 A 
ATOM     30  C   UNL     1      -0.180   5.518   8.164  1.00  0.00     0.006 A 
ATOM     31  C   UNL     1       1.546   6.965   9.009  1.00  0.00     0.006 A 
ATOM     32  C   UNL     1      -0.714   5.418   9.455  1.00  0.00     0.000 A 
ATOM     33  C   UNL     1       1.029   6.843  10.301  1.00  0.00     0.000 A 
ATOM     34  C   UNL     1      -0.106   6.073  10.523  1.00  0.00     0.000 A 
ENDBRANCH  18  29
ENDBRANCH   9  14
ENDBRANCH   5   8
ENDBRANCH   3   4
ENDBRANCH   2   3
ENDBRANCH   1   2
BRANCH   1  35
ATOM     35  C   UNL     1       8.040   6.352  14.307  1.00  0.00     0.002 C 
BRANCH  35  36
ATOM     36  C   UNL     1       6.774   6.080  15.122  1.00  0.00     0.021 C 
BRANCH  36  37
ATOM     37  C   UNL     1       6.731   4.702  15.774  1.00  0.00     0.116 C 
BRANCH  37  38
ATOM     38  N   UNL     1       7.776   4.546  16.773  1.00  0.00    -0.352 N 
ATOM     39  C   UNL     1       7.667   4.212  18.099  1.00  0.00     0.251 C 
ATOM     40  H   UNL     1       8.693   4.702  16.451  1.00  0.00     0.163 HD
ATOM     41  O   UNL     1       8.626   4.347  18.852  1.00  0.00    -0.269 OA
BRANCH  39  42
ATOM     42  C   UNL     1       6.386   3.698  18.624  1.00  0.00     0.039 A 
ATOM     43  C   UNL     1       5.913   4.178  19.848  1.00  0.00     0.014 A 
ATOM     44  C   UNL     1       5.664   2.728  17.921  1.00  0.00     0.014 A 
ATOM     45  C   UNL     1       4.691   3.722  20.344  1.00  0.00     0.010 A 
ATOM     46  C   UNL     1       4.414   2.327  18.382  1.00  0.00     0.010 A 
ATOM     47  C   UNL     1       3.920   2.812  19.602  1.00  0.00    -0.014 A 
BRANCH  47  48
ATOM     48  C   UNL     1       2.598   2.348  20.091  1.00  0.00     0.031 A 
ATOM     49  C   UNL     1       2.386   0.900  20.437  1.00  0.00     0.074 A 
ATOM     50  C   UNL     1       1.572   3.218  20.167  1.00  0.00     0.049 A 
ATOM     51  N   UNL     1       1.292   0.295  20.826  1.00  0.00    -0.248 NA
ATOM     52  C   UNL     1       3.551   0.009  20.305  1.00  0.00     0.031 C 
ATOM     53  C   UNL     1       1.638   4.640  19.825  1.00  0.00     0.029 A 
ATOM     54  N   UNL     1       0.269   3.029  20.552  1.00  0.00    -0.354 N 
ATOM     55  C   UNL     1       1.632  -1.044  20.967  1.00  0.00     0.074 A 
ATOM     56  C   UNL     1       3.018  -1.173  20.574  1.00  0.00     0.031 C 
ATOM     57  C   UNL     1       0.436   5.199  20.040  1.00  0.00     0.029 A 
ATOM     58  C   UNL     1      -0.493   4.171  20.496  1.00  0.00     0.049 A 
ATOM     59  H   UNL     1      -0.087   2.157  20.841  1.00  0.00     0.167 HD
ATOM     60  C   UNL     1       0.865  -2.073  21.401  1.00  0.00     0.031 A 
ATOM     61  C   UNL     1      -1.795   4.367  20.775  1.00  0.00     0.031 A 
ATOM     62  C   UNL     1      -0.510  -1.942  21.802  1.00  0.00     0.049 A 
ATOM     63  C   UNL     1      -2.628   3.207  21.246  1.00  0.00     0.074 A 
ATOM     64  C   UNL     1      -1.356  -2.913  22.309  1.00  0.00     0.029 A 
ATOM     65  N   UNL     1      -1.242  -0.766  21.739  1.00  0.00    -0.354 N 
ATOM     66  N   UNL     1      -2.274   1.959  21.436  1.00  0.00    -0.248 NA
ATOM     67  C   UNL     1      -4.037   3.488  21.552  1.00  0.00     0.031 C 
ATOM     68  C   UNL     1      -2.615  -2.336  22.505  1.00  0.00     0.029 A 
ATOM     69  C   UNL     1      -2.536  -0.992  22.176  1.00  0.00     0.049 A 
ATOM     70  H   UNL     1      -0.893   0.101  21.430  1.00  0.00     0.167 HD
ATOM     71  C   UNL     1      -3.408   1.313  21.912  1.00  0.00     0.074 A 
ATOM     72  C   UNL     1      -4.455   2.310  21.995  1.00  0.00     0.031 C 
ATOM     73  C   UNL     1      -3.566   0.011  22.252  1.00  0.00     0.031 A 
BRANCH  60  74
ATOM     74  C   UNL     1       1.500  -3.435  21.457  1.00  0.00    -0.014 A 
ATOM     75  C   UNL     1       2.496  -3.736  22.401  1.00  0.00     0.009 A 
ATOM     76  C   UNL     1       1.075  -4.441  20.576  1.00  0.00     0.009 A 
ATOM     77  C   UNL     1       3.079  -5.005  22.434  1.00  0.00     0.001 A 
ATOM     78  C   UNL     1       1.638  -5.717  20.631  1.00  0.00     0.001 A 
ATOM     79  C   UNL     1       2.646  -5.995  21.552  1.00  0.00     0.000 A 
ENDBRANCH  60  74
BRANCH  61  80
ATOM     80  C   UNL     1      -2.391   5.721  20.634  1.00  0.00    -0.014 A 
ATOM     81  C   UNL     1      -2.768   6.455  21.769  1.00  0.00     0.009 A 
ATOM     82  C   UNL     1      -2.591   6.285  19.364  1.00  0.00     0.009 A 
ATOM     83  C   UNL     1      -3.359   7.713  21.634  1.00  0.00     0.001 A 
ATOM     84  C   UNL     1      -3.155   7.556  19.234  1.00  0.00     0.001 A 
ATOM     85  C   UNL     1      -3.548   8.264  20.368  1.00  0.00     0.000 A 
ENDBRANCH  61  80
BRANCH  73  86
ATOM     86  C   UNL     1      -4.911  -0.402  22.782  1.00  0.00    -0.014 A 
ATOM     87  C   UNL     1      -6.030  -0.497  21.942  1.00  0.00     0.009 A 
ATOM     88  C   UNL     1      -5.047  -0.739  24.138  1.00  0.00     0.009 A 
ATOM     89  C   UNL     1      -7.268  -0.888  22.457  1.00  0.00     0.001 A 
ATOM     90  C   UNL     1      -6.277  -1.159  24.644  1.00  0.00     0.001 A 
ATOM     91  C   UNL     1      -7.389  -1.224  23.805  1.00  0.00     0.000 A 
ENDBRANCH  73  86
ENDBRANCH  47  48
ENDBRANCH  39  42
ENDBRANCH  37  38
ENDBRANCH  36  37
ENDBRANCH  35  36
ENDBRANCH   1  35
TORSDOF 17
