REMARK SMILES O=C(NCCCCCCNC(=O)c1cn(C[C@@H]2CCS(=O)(=O)C2)c(=O)[nH]c1=O)c1ccc(-c2c3nc(c(-c4ccccc4)c4ccc([nH]4)c(-c4ccccc4)c4nc(c(-c5ccccc5)c5ccc2[nH]5)C=C4)C=C3)cc1
REMARK SMILES IDX 6 1 5 2 4 3 3 4 1 5 2 6 29 8 30 9 76 10 31 11 75 12 32 13
REMARK SMILES IDX 33 14 34 15 69 16 35 17 74 18 68 19 70 20 36 21 73 22 67 23
REMARK SMILES IDX 66 24 37 26 59 27 44 28 58 29 45 30 48 31 57 32 71 33 46 34
REMARK SMILES IDX 47 35 56 37 72 38 49 39 38 40 39 41 43 42 40 43 42 44 41 45
REMARK SMILES IDX 60 46 61 47 65 48 62 49 64 50 63 51 50 52 51 53 55 54 52 55
REMARK SMILES IDX 54 56 53 57 7 58 8 59 9 60 10 61 11 62 12 64 13 65 14 66
REMARK SMILES IDX 27 67 15 68 26 69 28 70 24 71 25 73 16 74 17 75 18 76 23 77
REMARK SMILES IDX 19 78 20 79 21 80 22 81
REMARK H PARENT 3 7 70 25 48 36 10 63 26 72
REMARK Flexibility Score: inf
ROOT
ATOM      1  C   UNL     1       4.164  -2.546   2.892  1.00  0.00     0.002 C 
ENDROOT
BRANCH   1   2
ATOM      2  C   UNL     1       4.693  -1.224   2.329  1.00  0.00     0.021 C 
BRANCH   2   3
ATOM      3  C   UNL     1       4.419  -1.009   0.845  1.00  0.00     0.116 C 
BRANCH   3   4
ATOM      4  N   UNL     1       2.997  -0.984   0.562  1.00  0.00    -0.352 N 
ATOM      5  O   UNL     1       1.004  -0.050   0.103  1.00  0.00    -0.269 OA
ATOM      6  C   UNL     1       2.228   0.020   0.036  1.00  0.00     0.251 C 
ATOM      7  H   UNL     1       2.511  -1.812   0.782  1.00  0.00     0.163 HD
BRANCH   6   8
ATOM      8  C   UNL     1       2.859   1.181  -0.629  1.00  0.00     0.039 A 
ATOM      9  C   UNL     1       2.280   2.444  -0.468  1.00  0.00     0.014 A 
ATOM     10  C   UNL     1       3.949   1.015  -1.488  1.00  0.00     0.014 A 
ATOM     11  C   UNL     1       2.784   3.536  -1.177  1.00  0.00     0.010 A 
ATOM     12  C   UNL     1       4.496   2.117  -2.138  1.00  0.00     0.010 A 
ATOM     13  C   UNL     1       3.889   3.377  -2.025  1.00  0.00    -0.014 A 
BRANCH  13  14
ATOM     14  C   UNL     1       4.352   4.473  -2.913  1.00  0.00     0.031 A 
ATOM     15  C   UNL     1       4.211   4.305  -4.403  1.00  0.00     0.074 A 
ATOM     16  C   UNL     1       4.923   5.581  -2.404  1.00  0.00     0.049 A 
ATOM     17  N   UNL     1       4.681   5.056  -5.365  1.00  0.00    -0.248 NA
ATOM     18  C   UNL     1       3.461   3.127  -4.876  1.00  0.00     0.031 C 
ATOM     19  C   UNL     1       5.091   5.868  -0.980  1.00  0.00     0.029 A 
ATOM     20  N   UNL     1       5.479   6.668  -3.033  1.00  0.00    -0.354 N 
ATOM     21  C   UNL     1       4.305   4.429  -6.547  1.00  0.00     0.074 A 
ATOM     22  C   UNL     1       3.607   3.216  -6.190  1.00  0.00     0.031 C 
ATOM     23  C   UNL     1       5.705   7.055  -0.844  1.00  0.00     0.029 A 
ATOM     24  C   UNL     1       6.025   7.586  -2.168  1.00  0.00     0.049 A 
ATOM     25  H   UNL     1       5.487   6.779  -4.012  1.00  0.00     0.167 HD
ATOM     26  C   UNL     1       4.505   4.844  -7.817  1.00  0.00     0.031 A 
ATOM     27  C   UNL     1       6.728   8.712  -2.411  1.00  0.00     0.031 A 
ATOM     28  C   UNL     1       5.158   6.075  -8.164  1.00  0.00     0.049 A 
ATOM     29  C   UNL     1       6.976   9.130  -3.838  1.00  0.00     0.074 A 
ATOM     30  C   UNL     1       5.366   6.601  -9.426  1.00  0.00     0.029 A 
ATOM     31  N   UNL     1       5.692   6.973  -7.255  1.00  0.00    -0.354 N 
ATOM     32  N   UNL     1       6.589   8.542  -4.945  1.00  0.00    -0.248 NA
ATOM     33  C   UNL     1       7.748  10.363  -4.056  1.00  0.00     0.031 C 
ATOM     34  C   UNL     1       6.092   7.781  -9.286  1.00  0.00     0.029 A 
ATOM     35  C   UNL     1       6.258   8.035  -7.933  1.00  0.00     0.049 A 
ATOM     36  H   UNL     1       5.672   6.870  -6.276  1.00  0.00     0.167 HD
ATOM     37  C   UNL     1       7.041   9.348  -5.984  1.00  0.00     0.074 A 
ATOM     38  C   UNL     1       7.722  10.472  -5.379  1.00  0.00     0.031 C 
ATOM     39  C   UNL     1       6.904   9.166  -7.318  1.00  0.00     0.031 A 
BRANCH  26  40
ATOM     40  C   UNL     1       4.005   3.990  -8.948  1.00  0.00    -0.014 A 
ATOM     41  C   UNL     1       4.926   3.406  -9.834  1.00  0.00     0.009 A 
ATOM     42  C   UNL     1       2.635   3.902  -9.235  1.00  0.00     0.009 A 
ATOM     43  C   UNL     1       4.487   2.787 -11.005  1.00  0.00     0.001 A 
ATOM     44  C   UNL     1       2.198   3.255 -10.392  1.00  0.00     0.001 A 
ATOM     45  C   UNL     1       3.124   2.715 -11.284  1.00  0.00     0.000 A 
ENDBRANCH  26  40
BRANCH  27  46
ATOM     46  C   UNL     1       7.253   9.513  -1.270  1.00  0.00    -0.014 A 
ATOM     47  C   UNL     1       8.228   8.976  -0.410  1.00  0.00     0.009 A 
ATOM     48  C   UNL     1       6.769  10.804  -1.011  1.00  0.00     0.009 A 
ATOM     49  C   UNL     1       8.685   9.699   0.693  1.00  0.00     0.001 A 
ATOM     50  C   UNL     1       7.257  11.542   0.072  1.00  0.00     0.001 A 
ATOM     51  C   UNL     1       8.205  10.985   0.929  1.00  0.00     0.000 A 
ENDBRANCH  27  46
BRANCH  39  52
ATOM     52  C   UNL     1       7.459  10.202  -8.256  1.00  0.00    -0.014 A 
ATOM     53  C   UNL     1       6.577  10.953  -9.052  1.00  0.00     0.009 A 
ATOM     54  C   UNL     1       8.837  10.287  -8.500  1.00  0.00     0.009 A 
ATOM     55  C   UNL     1       7.059  11.731 -10.105  1.00  0.00     0.001 A 
ATOM     56  C   UNL     1       9.319  11.093  -9.534  1.00  0.00     0.001 A 
ATOM     57  C   UNL     1       8.430  11.797 -10.347  1.00  0.00     0.000 A 
ENDBRANCH  39  52
ENDBRANCH  13  14
ENDBRANCH   6   8
ENDBRANCH   3   4
ENDBRANCH   2   3
ENDBRANCH   1   2
BRANCH   1  58
ATOM     58  C   UNL     1       4.658  -3.810   2.180  1.00  0.00     0.002 C 
BRANCH  58  59
ATOM     59  C   UNL     1       6.176  -3.933   2.050  1.00  0.00     0.021 C 
BRANCH  59  60
ATOM     60  C   UNL     1       6.941  -3.781   3.358  1.00  0.00     0.116 C 
BRANCH  60  61
ATOM     61  N   UNL     1       6.653  -4.838   4.316  1.00  0.00    -0.352 N 
ATOM     62  C   UNL     1       7.510  -5.731   4.912  1.00  0.00     0.258 C 
ATOM     63  H   UNL     1       5.707  -4.925   4.575  1.00  0.00     0.163 HD
ATOM     64  O   UNL     1       7.082  -6.558   5.708  1.00  0.00    -0.269 OA
BRANCH  62  65
ATOM     65  C   UNL     1       8.936  -5.640   4.551  1.00  0.00     0.121 A 
ATOM     66  C   UNL     1       9.603  -4.508   4.819  1.00  0.00     0.110 A 
ATOM     67  C   UNL     1       9.622  -6.702   3.796  1.00  0.00     0.266 A 
ATOM     68  N   UNL     1      10.842  -4.233   4.266  1.00  0.00    -0.299 N 
ATOM     69  N   UNL     1      10.850  -6.360   3.295  1.00  0.00    -0.273 N 
ATOM     70  O   UNL     1       9.119  -7.791   3.549  1.00  0.00    -0.268 OA
ATOM     71  C   UNL     1      11.456  -5.139   3.403  1.00  0.00     0.328 A 
ATOM     72  H   UNL     1      11.344  -7.060   2.811  1.00  0.00     0.175 HD
ATOM     73  O   UNL     1      12.479  -4.892   2.770  1.00  0.00    -0.248 OA
BRANCH  68  74
ATOM     74  C   UNL     1      11.423  -2.904   4.438  1.00  0.00     0.131 C 
BRANCH  74  75
ATOM     75  C   UNL     1      12.521  -2.752   5.508  1.00  0.00     0.025 C 
ATOM     76  C   UNL     1      13.822  -3.529   5.252  1.00  0.00     0.022 C 
ATOM     77  C   UNL     1      12.080  -3.106   6.929  1.00  0.00     0.142 C 
ATOM     78  C   UNL     1      13.700  -4.931   5.839  1.00  0.00     0.137 C 
ATOM     79  S   UNL     1      12.591  -4.789   7.225  1.00  0.00     0.150 S 
ATOM     80  O   UNL     1      11.455  -5.663   7.006  1.00  0.00    -0.229 OA
ATOM     81  O   UNL     1      13.362  -4.824   8.447  1.00  0.00    -0.229 OA
ENDBRANCH  74  75
ENDBRANCH  68  74
ENDBRANCH  62  65
ENDBRANCH  60  61
ENDBRANCH  59  60
ENDBRANCH  58  59
ENDBRANCH   1  58
TORSDOF 15
