REMARK SMILES COCC[C@@]1(C(=O)NCCCCCCNC(=O)c2ccc(-c3c4nc(c(-c5ccccc5)c5ccc([nH]5)c(-c5ccccc5)c5nc(c(-c6ccccc6)c6ccc3[nH]6)C=C5)C=C4)cc2)CCCN(C(=O)NCc2ccc(OC)cc2)C1
REMARK SMILES IDX 10 1 9 2 8 3 6 4 7 5 5 7 66 8 82 9 67 10 69 11 68 12 4 13
REMARK SMILES IDX 3 14 2 15 1 16 70 17 71 18 72 19 73 21 74 22 75 23 81 24
REMARK SMILES IDX 76 25 80 26 77 27 78 28 79 29 11 30 12 31 13 32 14 33 15 34
REMARK SMILES IDX 16 35 17 37 18 38 19 39 65 40 20 41 64 42 21 43 22 44 23 45
REMARK SMILES IDX 58 46 24 47 63 48 57 49 59 50 25 51 62 52 56 53 55 54 26 56
REMARK SMILES IDX 48 57 33 58 47 59 34 60 37 61 46 62 60 63 35 64 36 65 45 67
REMARK SMILES IDX 61 68 38 69 27 70 28 71 32 72 29 73 31 74 30 75 49 76 50 77
REMARK SMILES IDX 54 78 51 79 53 80 52 81 39 82 40 83 44 84 41 85 43 86 42 87
REMARK H PARENT 8 6 72 20 15 36 59 55 37 66
REMARK Flexibility Score: inf
ROOT
ATOM      1  C   UNL     1      -1.502   5.072   2.682  1.00  0.00     0.021 C 
ENDROOT
BRANCH   1   2
ATOM      2  C   UNL     1      -1.292   3.611   2.320  1.00  0.00     0.116 C 
BRANCH   2   3
ATOM      3  N   UNL     1      -0.427   3.369   1.190  1.00  0.00    -0.356 N 
ATOM      4  C   UNL     1       0.303   2.268   0.862  1.00  0.00     0.228 C 
ATOM      5  O   UNL     1       0.516   2.152  -0.354  1.00  0.00    -0.274 OA
ATOM      6  H   UNL     1      -0.354   4.119   0.557  1.00  0.00     0.163 HD
BRANCH   4   7
ATOM      7  C   UNL     1       0.975   1.282   1.872  1.00  0.00     0.069 C 
ATOM      8  C   UNL     1       1.299  -0.043   1.097  1.00  0.00     0.021 C 
ATOM      9  C   UNL     1       0.152   0.830   3.114  1.00  0.00     0.138 C 
ATOM     10  C   UNL     1       0.045  -0.877   0.789  1.00  0.00     0.023 C 
ATOM     11  N   UNL     1      -1.031   0.053   2.746  1.00  0.00    -0.324 N 
ATOM     12  C   UNL     1      -0.689  -1.192   2.080  1.00  0.00     0.121 C 
BRANCH   7  13
ATOM     13  C   UNL     1       2.273   1.986   2.404  1.00  0.00     0.047 C 
BRANCH  13  14
ATOM     14  C   UNL     1       3.588   1.726   1.657  1.00  0.00     0.161 C 
BRANCH  14  15
ATOM     15  O   UNL     1       3.683   2.492   0.465  1.00  0.00    -0.385 OA
ATOM     16  C   UNL     1       3.835   1.719  -0.719  1.00  0.00     0.194 C 
ENDBRANCH  14  15
ENDBRANCH  13  14
ENDBRANCH   7  13
BRANCH  11  17
ATOM     17  C   UNL     1      -2.261   0.552   3.039  1.00  0.00     0.317 C 
ATOM     18  O   UNL     1      -2.425   1.429   3.895  1.00  0.00    -0.249 OA
ATOM     19  N   UNL     1      -3.369   0.215   2.364  1.00  0.00    -0.334 N 
ATOM     20  H   UNL     1      -4.117   0.823   2.562  1.00  0.00     0.165 HD
BRANCH  19  21
ATOM     21  C   UNL     1      -3.749  -0.815   1.418  1.00  0.00     0.153 C 
BRANCH  21  22
ATOM     22  C   UNL     1      -4.246  -2.036   2.156  1.00  0.00    -0.028 A 
ATOM     23  C   UNL     1      -5.078  -1.890   3.278  1.00  0.00     0.009 A 
ATOM     24  C   UNL     1      -3.893  -3.329   1.753  1.00  0.00     0.009 A 
ATOM     25  C   UNL     1      -5.495  -3.001   4.006  1.00  0.00     0.047 A 
ATOM     26  C   UNL     1      -4.318  -4.446   2.485  1.00  0.00     0.047 A 
ATOM     27  C   UNL     1      -5.117  -4.283   3.618  1.00  0.00     0.118 A 
BRANCH  27  28
ATOM     28  O   UNL     1      -5.588  -5.275   4.431  1.00  0.00    -0.497 OA
ATOM     29  C   UNL     1      -5.341  -6.612   4.022  1.00  0.00     0.278 C 
ENDBRANCH  27  28
ENDBRANCH  21  22
ENDBRANCH  19  21
ENDBRANCH  11  17
ENDBRANCH   4   7
ENDBRANCH   2   3
ENDBRANCH   1   2
BRANCH   1  30
ATOM     30  C   UNL     1      -2.328   5.900   1.701  1.00  0.00     0.002 C 
BRANCH  30  31
ATOM     31  C   UNL     1      -3.704   5.341   1.323  1.00  0.00     0.002 C 
BRANCH  31  32
ATOM     32  C   UNL     1      -4.616   4.931   2.482  1.00  0.00     0.021 C 
BRANCH  32  33
ATOM     33  C   UNL     1      -4.841   5.994   3.550  1.00  0.00     0.116 C 
BRANCH  33  34
ATOM     34  N   UNL     1      -5.432   7.208   3.010  1.00  0.00    -0.352 N 
ATOM     35  C   UNL     1      -6.549   7.887   3.421  1.00  0.00     0.251 C 
ATOM     36  H   UNL     1      -4.962   7.598   2.238  1.00  0.00     0.163 HD
ATOM     37  O   UNL     1      -7.005   8.802   2.735  1.00  0.00    -0.269 OA
BRANCH  35  38
ATOM     38  C   UNL     1      -7.221   7.511   4.681  1.00  0.00     0.039 A 
ATOM     39  C   UNL     1      -8.615   7.416   4.701  1.00  0.00     0.014 A 
ATOM     40  C   UNL     1      -6.483   7.264   5.843  1.00  0.00     0.014 A 
ATOM     41  C   UNL     1      -9.265   7.022   5.872  1.00  0.00     0.010 A 
ATOM     42  C   UNL     1      -7.125   6.798   6.986  1.00  0.00     0.010 A 
ATOM     43  C   UNL     1      -8.523   6.682   7.016  1.00  0.00    -0.014 A 
BRANCH  43  44
ATOM     44  C   UNL     1      -9.194   6.216   8.255  1.00  0.00     0.031 A 
ATOM     45  C   UNL     1      -9.099   7.031   9.516  1.00  0.00     0.074 A 
ATOM     46  C   UNL     1      -9.848   5.038   8.258  1.00  0.00     0.049 A 
ATOM     47  N   UNL     1      -9.575   6.769  10.707  1.00  0.00    -0.248 NA
ATOM     48  C   UNL     1      -8.354   8.299   9.434  1.00  0.00     0.031 C 
ATOM     49  C   UNL     1      -9.987   4.141   7.109  1.00  0.00     0.029 A 
ATOM     50  N   UNL     1     -10.518   4.391   9.267  1.00  0.00    -0.354 N 
ATOM     51  C   UNL     1      -9.179   7.828  11.514  1.00  0.00     0.074 A 
ATOM     52  C   UNL     1      -8.377   8.709  10.693  1.00  0.00     0.031 C 
ATOM     53  C   UNL     1     -10.723   3.077   7.469  1.00  0.00     0.029 A 
ATOM     54  C   UNL     1     -11.069   3.193   8.881  1.00  0.00     0.049 A 
ATOM     55  H   UNL     1     -10.595   4.752  10.180  1.00  0.00     0.167 HD
ATOM     56  C   UNL     1      -9.474   8.061  12.815  1.00  0.00     0.031 A 
ATOM     57  C   UNL     1     -11.768   2.286   9.590  1.00  0.00     0.031 A 
ATOM     58  C   UNL     1     -10.274   7.186  13.630  1.00  0.00     0.049 A 
ATOM     59  C   UNL     1     -12.047   2.551  11.044  1.00  0.00     0.074 A 
ATOM     60  C   UNL     1     -10.662   7.352  14.948  1.00  0.00     0.029 A 
ATOM     61  N   UNL     1     -10.806   5.979  13.204  1.00  0.00    -0.354 N 
ATOM     62  N   UNL     1     -11.718   3.588  11.775  1.00  0.00    -0.248 NA
ATOM     63  C   UNL     1     -12.806   1.520  11.768  1.00  0.00     0.031 C 
ATOM     64  C   UNL     1     -11.383   6.218  15.336  1.00  0.00     0.029 A 
ATOM     65  C   UNL     1     -11.499   5.378  14.241  1.00  0.00     0.049 A 
ATOM     66  H   UNL     1     -10.705   5.604  12.299  1.00  0.00     0.167 HD
ATOM     67  C   UNL     1     -12.259   3.351  13.033  1.00  0.00     0.074 A 
ATOM     68  C   UNL     1     -12.951   2.082  12.959  1.00  0.00     0.031 C 
ATOM     69  C   UNL     1     -12.189   4.117  14.149  1.00  0.00     0.031 A 
BRANCH  56  70
ATOM     70  C   UNL     1      -8.925   9.314  13.438  1.00  0.00    -0.014 A 
ATOM     71  C   UNL     1      -9.400  10.582  13.062  1.00  0.00     0.009 A 
ATOM     72  C   UNL     1      -7.949   9.228  14.443  1.00  0.00     0.009 A 
ATOM     73  C   UNL     1      -8.884  11.736  13.655  1.00  0.00     0.001 A 
ATOM     74  C   UNL     1      -7.458  10.382  15.056  1.00  0.00     0.001 A 
ATOM     75  C   UNL     1      -7.919  11.635  14.655  1.00  0.00     0.000 A 
ENDBRANCH  56  70
BRANCH  57  76
ATOM     76  C   UNL     1     -12.266   1.045   8.939  1.00  0.00    -0.014 A 
ATOM     77  C   UNL     1     -13.642   0.838   8.755  1.00  0.00     0.009 A 
ATOM     78  C   UNL     1     -11.371   0.046   8.524  1.00  0.00     0.009 A 
ATOM     79  C   UNL     1     -14.113  -0.357   8.206  1.00  0.00     0.001 A 
ATOM     80  C   UNL     1     -11.842  -1.133   7.944  1.00  0.00     0.001 A 
ATOM     81  C   UNL     1     -13.213  -1.339   7.797  1.00  0.00     0.000 A 
ENDBRANCH  57  76
BRANCH  69  82
ATOM     82  C   UNL     1     -12.921   3.627  15.367  1.00  0.00    -0.014 A 
ATOM     83  C   UNL     1     -12.470   2.514  16.095  1.00  0.00     0.009 A 
ATOM     84  C   UNL     1     -14.059   4.317  15.814  1.00  0.00     0.009 A 
ATOM     85  C   UNL     1     -13.168   2.082  17.225  1.00  0.00     0.001 A 
ATOM     86  C   UNL     1     -14.734   3.902  16.963  1.00  0.00     0.001 A 
ATOM     87  C   UNL     1     -14.294   2.779  17.661  1.00  0.00     0.000 A 
ENDBRANCH  69  82
ENDBRANCH  43  44
ENDBRANCH  35  38
ENDBRANCH  33  34
ENDBRANCH  32  33
ENDBRANCH  31  32
ENDBRANCH  30  31
ENDBRANCH   1  30
TORSDOF 20
