REMARK SMILES O=C(NCCCCCCNC(=O)[C@H]1CSCN1C(=O)c1cnc2ccccn2c1=O)c1ccc(-c2c3nc(c(-c4ccccc4)c4ccc([nH]4)c(-c4ccccc4)c4nc(c(-c5ccccc5)c5ccc2[nH]5)C=C4)C=C3)cc1
REMARK SMILES IDX 6 1 5 2 4 3 3 4 1 5 2 6 31 8 32 9 78 10 33 11 77 12 34 13
REMARK SMILES IDX 35 14 36 15 71 16 37 17 76 18 70 19 72 20 38 21 75 22 69 23
REMARK SMILES IDX 68 24 39 26 61 27 46 28 60 29 47 30 50 31 59 32 73 33 48 34
REMARK SMILES IDX 49 35 58 37 74 38 51 39 40 40 41 41 45 42 42 43 44 44 43 45
REMARK SMILES IDX 62 46 63 47 67 48 64 49 66 50 65 51 52 52 53 53 57 54 54 55
REMARK SMILES IDX 56 56 55 57 7 58 8 59 9 60 10 61 11 62 12 64 13 65 14 66
REMARK SMILES IDX 17 67 15 68 16 69 18 70 19 71 20 72 21 73 29 74 22 75 28 76
REMARK SMILES IDX 30 77 23 78 27 79 24 80 26 81 25 82
REMARK H PARENT 3 7 72 25 50 36 10 63
REMARK Flexibility Score: inf
ROOT
ATOM      1  C   UNL     1       4.149   1.100   3.817  1.00  0.00     0.002 C 
ENDROOT
BRANCH   1   2
ATOM      2  C   UNL     1       4.592   1.399   2.385  1.00  0.00     0.021 C 
BRANCH   2   3
ATOM      3  C   UNL     1       4.368   0.256   1.403  1.00  0.00     0.116 C 
BRANCH   3   4
ATOM      4  N   UNL     1       2.956  -0.019   1.189  1.00  0.00    -0.352 N 
ATOM      5  O   UNL     1       1.022  -0.119   0.028  1.00  0.00    -0.269 OA
ATOM      6  C   UNL     1       2.247  -0.047   0.014  1.00  0.00     0.251 C 
ATOM      7  H   UNL     1       2.435  -0.212   2.002  1.00  0.00     0.163 HD
BRANCH   6   8
ATOM      8  C   UNL     1       2.966   0.029  -1.276  1.00  0.00     0.039 A 
ATOM      9  C   UNL     1       4.114  -0.735  -1.495  1.00  0.00     0.014 A 
ATOM     10  C   UNL     1       2.475   0.866  -2.282  1.00  0.00     0.014 A 
ATOM     11  C   UNL     1       4.845  -0.563  -2.665  1.00  0.00     0.010 A 
ATOM     12  C   UNL     1       3.165   0.972  -3.493  1.00  0.00     0.010 A 
ATOM     13  C   UNL     1       4.368   0.277  -3.684  1.00  0.00    -0.014 A 
BRANCH  13  14
ATOM     14  C   UNL     1       5.106   0.347  -4.970  1.00  0.00     0.031 A 
ATOM     15  C   UNL     1       5.758   1.620  -5.429  1.00  0.00     0.074 A 
ATOM     16  C   UNL     1       5.199  -0.769  -5.718  1.00  0.00     0.049 A 
ATOM     17  N   UNL     1       6.458   1.838  -6.515  1.00  0.00    -0.248 NA
ATOM     18  C   UNL     1       5.604   2.801  -4.567  1.00  0.00     0.031 C 
ATOM     19  C   UNL     1       4.599  -2.063  -5.379  1.00  0.00     0.029 A 
ATOM     20  N   UNL     1       5.843  -1.002  -6.905  1.00  0.00    -0.354 N 
ATOM     21  C   UNL     1       6.811   3.181  -6.477  1.00  0.00     0.074 A 
ATOM     22  C   UNL     1       6.230   3.735  -5.272  1.00  0.00     0.031 C 
ATOM     23  C   UNL     1       4.943  -2.964  -6.311  1.00  0.00     0.029 A 
ATOM     24  C   UNL     1       5.728  -2.299  -7.343  1.00  0.00     0.049 A 
ATOM     25  H   UNL     1       6.339  -0.308  -7.396  1.00  0.00     0.167 HD
ATOM     26  C   UNL     1       7.554   3.886  -7.365  1.00  0.00     0.031 A 
ATOM     27  C   UNL     1       6.186  -2.889  -8.462  1.00  0.00     0.031 A 
ATOM     28  C   UNL     1       8.126   3.332  -8.566  1.00  0.00     0.049 A 
ATOM     29  C   UNL     1       6.973  -2.074  -9.445  1.00  0.00     0.074 A 
ATOM     30  C   UNL     1       8.922   3.958  -9.509  1.00  0.00     0.029 A 
ATOM     31  N   UNL     1       7.954   2.024  -8.993  1.00  0.00    -0.354 N 
ATOM     32  N   UNL     1       7.334  -0.817  -9.371  1.00  0.00    -0.248 NA
ATOM     33  C   UNL     1       7.417  -2.762 -10.664  1.00  0.00     0.031 C 
ATOM     34  C   UNL     1       9.186   3.044 -10.536  1.00  0.00     0.029 A 
ATOM     35  C   UNL     1       8.604   1.832 -10.202  1.00  0.00     0.049 A 
ATOM     36  H   UNL     1       7.445   1.334  -8.510  1.00  0.00     0.167 HD
ATOM     37  C   UNL     1       8.061  -0.565 -10.526  1.00  0.00     0.074 A 
ATOM     38  C   UNL     1       8.109  -1.808 -11.270  1.00  0.00     0.031 C 
ATOM     39  C   UNL     1       8.635   0.592 -10.934  1.00  0.00     0.031 A 
BRANCH  26  40
ATOM     40  C   UNL     1       7.769   5.348  -7.087  1.00  0.00    -0.014 A 
ATOM     41  C   UNL     1       8.614   5.781  -6.053  1.00  0.00     0.009 A 
ATOM     42  C   UNL     1       7.154   6.309  -7.906  1.00  0.00     0.009 A 
ATOM     43  C   UNL     1       8.813   7.145  -5.826  1.00  0.00     0.001 A 
ATOM     44  C   UNL     1       7.376   7.671  -7.693  1.00  0.00     0.001 A 
ATOM     45  C   UNL     1       8.198   8.089  -6.648  1.00  0.00     0.000 A 
ENDBRANCH  26  40
BRANCH  27  46
ATOM     46  C   UNL     1       5.891  -4.323  -8.713  1.00  0.00    -0.014 A 
ATOM     47  C   UNL     1       6.912  -5.283  -8.662  1.00  0.00     0.009 A 
ATOM     48  C   UNL     1       4.579  -4.739  -8.988  1.00  0.00     0.009 A 
ATOM     49  C   UNL     1       6.627  -6.629  -8.902  1.00  0.00     0.001 A 
ATOM     50  C   UNL     1       4.292  -6.088  -9.197  1.00  0.00     0.001 A 
ATOM     51  C   UNL     1       5.317  -7.031  -9.163  1.00  0.00     0.000 A 
ENDBRANCH  27  46
BRANCH  39  52
ATOM     52  C   UNL     1       9.388   0.556 -12.234  1.00  0.00    -0.014 A 
ATOM     53  C   UNL     1       8.716   0.465 -13.462  1.00  0.00     0.009 A 
ATOM     54  C   UNL     1      10.789   0.637 -12.227  1.00  0.00     0.009 A 
ATOM     55  C   UNL     1       9.436   0.419 -14.658  1.00  0.00     0.001 A 
ATOM     56  C   UNL     1      11.504   0.621 -13.425  1.00  0.00     0.001 A 
ATOM     57  C   UNL     1      10.828   0.502 -14.638  1.00  0.00     0.000 A 
ENDBRANCH  39  52
ENDBRANCH  13  14
ENDBRANCH   6   8
ENDBRANCH   3   4
ENDBRANCH   2   3
ENDBRANCH   1   2
BRANCH   1  58
ATOM     58  C   UNL     1       4.831  -0.107   4.472  1.00  0.00     0.002 C 
BRANCH  58  59
ATOM     59  C   UNL     1       6.366  -0.077   4.467  1.00  0.00     0.021 C 
BRANCH  59  60
ATOM     60  C   UNL     1       6.969   1.181   5.091  1.00  0.00     0.116 C 
BRANCH  60  61
ATOM     61  N   UNL     1       6.663   1.271   6.506  1.00  0.00    -0.354 N 
ATOM     62  C   UNL     1       7.480   1.066   7.585  1.00  0.00     0.243 C 
ATOM     63  H   UNL     1       5.734   1.515   6.721  1.00  0.00     0.163 HD
ATOM     64  O   UNL     1       6.983   1.136   8.710  1.00  0.00    -0.273 OA
BRANCH  62  65
ATOM     65  C   UNL     1       8.992   0.892   7.346  1.00  0.00     0.185 C 
ATOM     66  C   UNL     1       9.598   2.296   7.291  1.00  0.00     0.106 C 
ATOM     67  N   UNL     1       9.649   0.074   8.366  1.00  0.00    -0.316 N 
ATOM     68  S   UNL     1      10.986   2.351   8.440  1.00  0.00    -0.138 SA
ATOM     69  C   UNL     1      10.896   0.610   8.861  1.00  0.00     0.190 C 
BRANCH  67  70
ATOM     70  C   UNL     1       9.259  -1.250   8.473  1.00  0.00     0.262 C 
ATOM     71  O   UNL     1       8.413  -1.730   7.713  1.00  0.00    -0.269 OA
BRANCH  70  72
ATOM     72  C   UNL     1       9.948  -2.139   9.439  1.00  0.00     0.124 A 
ATOM     73  C   UNL     1      10.351  -3.334   8.989  1.00  0.00     0.133 A 
ATOM     74  C   UNL     1      10.165  -1.845  10.870  1.00  0.00     0.270 A 
ATOM     75  N   UNL     1      11.027  -4.271   9.721  1.00  0.00    -0.237 NA
ATOM     76  N   UNL     1      10.933  -2.777  11.564  1.00  0.00    -0.267 N 
ATOM     77  O   UNL     1       9.690  -0.832  11.381  1.00  0.00    -0.268 OA
ATOM     78  C   UNL     1      11.306  -3.968  10.952  1.00  0.00     0.139 A 
ATOM     79  C   UNL     1      11.298  -2.508  12.880  1.00  0.00     0.096 A 
ATOM     80  C   UNL     1      12.079  -4.941  11.774  1.00  0.00     0.048 A 
ATOM     81  C   UNL     1      12.019  -3.373  13.603  1.00  0.00     0.019 A 
ATOM     82  C   UNL     1      12.415  -4.632  13.032  1.00  0.00     0.005 A 
ENDBRANCH  70  72
ENDBRANCH  67  70
ENDBRANCH  62  65
ENDBRANCH  60  61
ENDBRANCH  59  60
ENDBRANCH  58  59
ENDBRANCH   1  58
TORSDOF 15
