REMARK SMILES O=C(NCCCCCCNC(=O)[C@H]1CS[C@]2(c3ccccc3)CCC(=O)N12)c1ccc(-c2c3nc(c(-c4ccccc4)c4ccc([nH]4)c(-c4ccccc4)c4nc(c(-c5ccccc5)c5ccc2[nH]5)C=C4)C=C3)cc1
REMARK SMILES IDX 6 1 5 2 4 3 3 4 1 5 2 6 28 8 29 9 75 10 30 11 74 12 31 13
REMARK SMILES IDX 32 14 33 15 68 16 34 17 73 18 67 19 69 20 35 21 72 22 66 23
REMARK SMILES IDX 65 24 36 26 58 27 43 28 57 29 44 30 47 31 56 32 70 33 45 34
REMARK SMILES IDX 46 35 55 37 71 38 48 39 37 40 38 41 42 42 39 43 41 44 40 45
REMARK SMILES IDX 59 46 60 47 64 48 61 49 63 50 62 51 49 52 50 53 54 54 51 55
REMARK SMILES IDX 53 56 52 57 7 58 8 59 9 60 10 61 11 62 12 64 13 65 14 66
REMARK SMILES IDX 27 67 15 68 16 69 25 70 23 71 24 72 26 73 17 74 18 75 22 76
REMARK SMILES IDX 19 77 21 78 20 79
REMARK H PARENT 3 7 69 25 47 36 10 63
REMARK Flexibility Score: inf
ROOT
ATOM      1  C   UNL     1       6.092   9.494   4.835  1.00  0.00     0.002 C 
ENDROOT
BRANCH   1   2
ATOM      2  C   UNL     1       4.595   9.201   4.943  1.00  0.00     0.021 C 
BRANCH   2   3
ATOM      3  C   UNL     1       3.920   9.795   6.173  1.00  0.00     0.116 C 
BRANCH   3   4
ATOM      4  N   UNL     1       3.870  11.245   6.120  1.00  0.00    -0.352 N 
ATOM      5  O   UNL     1       2.883  13.269   5.996  1.00  0.00    -0.269 OA
ATOM      6  C   UNL     1       2.785  12.074   6.253  1.00  0.00     0.251 C 
ATOM      7  H   UNL     1       4.732  11.695   5.969  1.00  0.00     0.163 HD
BRANCH   6   8
ATOM      8  C   UNL     1       1.487  11.521   6.697  1.00  0.00     0.039 A 
ATOM      9  C   UNL     1       1.415  10.648   7.787  1.00  0.00     0.014 A 
ATOM     10  C   UNL     1       0.320  11.926   6.042  1.00  0.00     0.014 A 
ATOM     11  C   UNL     1       0.187  10.114   8.168  1.00  0.00     0.010 A 
ATOM     12  C   UNL     1      -0.918  11.439   6.465  1.00  0.00     0.010 A 
ATOM     13  C   UNL     1      -0.992  10.525   7.528  1.00  0.00    -0.014 A 
BRANCH  13  14
ATOM     14  C   UNL     1      -2.306  10.091   8.060  1.00  0.00     0.031 A 
ATOM     15  C   UNL     1      -3.204   9.180   7.278  1.00  0.00     0.074 A 
ATOM     16  C   UNL     1      -2.692  10.560   9.263  1.00  0.00     0.049 A 
ATOM     17  N   UNL     1      -4.395   8.735   7.593  1.00  0.00    -0.248 NA
ATOM     18  C   UNL     1      -2.712   8.709   5.974  1.00  0.00     0.031 C 
ATOM     19  C   UNL     1      -1.908  11.469  10.105  1.00  0.00     0.029 A 
ATOM     20  N   UNL     1      -3.837  10.344   9.984  1.00  0.00    -0.354 N 
ATOM     21  C   UNL     1      -4.804   7.952   6.523  1.00  0.00     0.074 A 
ATOM     22  C   UNL     1      -3.740   7.988   5.542  1.00  0.00     0.031 C 
ATOM     23  C   UNL     1      -2.587  11.718  11.234  1.00  0.00     0.029 A 
ATOM     24  C   UNL     1      -3.873  11.033  11.172  1.00  0.00     0.049 A 
ATOM     25  H   UNL     1      -4.563   9.752   9.681  1.00  0.00     0.167 HD
ATOM     26  C   UNL     1      -5.964   7.269   6.376  1.00  0.00     0.031 A 
ATOM     27  C   UNL     1      -4.844  11.132  12.097  1.00  0.00     0.031 A 
ATOM     28  C   UNL     1      -7.015   7.229   7.359  1.00  0.00     0.049 A 
ATOM     29  C   UNL     1      -6.131  10.394  11.885  1.00  0.00     0.074 A 
ATOM     30  C   UNL     1      -8.190   6.497   7.333  1.00  0.00     0.029 A 
ATOM     31  N   UNL     1      -7.026   7.963   8.534  1.00  0.00    -0.354 N 
ATOM     32  N   UNL     1      -6.470   9.597  10.901  1.00  0.00    -0.248 NA
ATOM     33  C   UNL     1      -7.173  10.575  12.905  1.00  0.00     0.031 C 
ATOM     34  C   UNL     1      -8.937   6.831   8.467  1.00  0.00     0.029 A 
ATOM     35  C   UNL     1      -8.207   7.737   9.219  1.00  0.00     0.049 A 
ATOM     36  H   UNL     1      -6.301   8.557   8.836  1.00  0.00     0.167 HD
ATOM     37  C   UNL     1      -7.762   9.179  11.184  1.00  0.00     0.074 A 
ATOM     38  C   UNL     1      -8.136   9.790  12.444  1.00  0.00     0.031 C 
ATOM     39  C   UNL     1      -8.569   8.366  10.461  1.00  0.00     0.031 A 
BRANCH  26  40
ATOM     40  C   UNL     1      -6.181   6.520   5.092  1.00  0.00    -0.014 A 
ATOM     41  C   UNL     1      -5.540   5.297   4.845  1.00  0.00     0.009 A 
ATOM     42  C   UNL     1      -7.106   7.007   4.155  1.00  0.00     0.009 A 
ATOM     43  C   UNL     1      -5.810   4.584   3.674  1.00  0.00     0.001 A 
ATOM     44  C   UNL     1      -7.386   6.284   2.994  1.00  0.00     0.001 A 
ATOM     45  C   UNL     1      -6.736   5.075   2.753  1.00  0.00     0.000 A 
ENDBRANCH  26  40
BRANCH  27  46
ATOM     46  C   UNL     1      -4.646  12.001  13.283  1.00  0.00    -0.014 A 
ATOM     47  C   UNL     1      -4.466  11.445  14.557  1.00  0.00     0.009 A 
ATOM     48  C   UNL     1      -4.627  13.398  13.140  1.00  0.00     0.009 A 
ATOM     49  C   UNL     1      -4.288  12.273  15.668  1.00  0.00     0.001 A 
ATOM     50  C   UNL     1      -4.421  14.221  14.247  1.00  0.00     0.001 A 
ATOM     51  C   UNL     1      -4.260  13.658  15.512  1.00  0.00     0.000 A 
ENDBRANCH  27  46
BRANCH  39  52
ATOM     52  C   UNL     1      -9.934   8.096  11.019  1.00  0.00    -0.014 A 
ATOM     53  C   UNL     1     -10.945   9.066  10.940  1.00  0.00     0.009 A 
ATOM     54  C   UNL     1     -10.222   6.852  11.598  1.00  0.00     0.009 A 
ATOM     55  C   UNL     1     -12.215   8.802  11.455  1.00  0.00     0.001 A 
ATOM     56  C   UNL     1     -11.499   6.582  12.091  1.00  0.00     0.001 A 
ATOM     57  C   UNL     1     -12.492   7.559  12.025  1.00  0.00     0.000 A 
ENDBRANCH  39  52
ENDBRANCH  13  14
ENDBRANCH   6   8
ENDBRANCH   3   4
ENDBRANCH   2   3
ENDBRANCH   1   2
BRANCH   1  58
ATOM     58  C   UNL     1       6.942   9.002   6.012  1.00  0.00     0.002 C 
BRANCH  58  59
ATOM     59  C   UNL     1       6.785   7.516   6.368  1.00  0.00     0.021 C 
BRANCH  59  60
ATOM     60  C   UNL     1       6.994   6.557   5.194  1.00  0.00     0.116 C 
BRANCH  60  61
ATOM     61  N   UNL     1       8.310   6.723   4.613  1.00  0.00    -0.354 N 
ATOM     62  C   UNL     1       9.464   6.048   4.900  1.00  0.00     0.243 C 
ATOM     63  H   UNL     1       8.384   7.415   3.917  1.00  0.00     0.163 HD
ATOM     64  O   UNL     1      10.518   6.546   4.505  1.00  0.00    -0.273 OA
BRANCH  62  65
ATOM     65  C   UNL     1       9.372   4.694   5.621  1.00  0.00     0.186 C 
ATOM     66  C   UNL     1       8.755   3.597   4.743  1.00  0.00     0.107 C 
ATOM     67  N   UNL     1      10.630   4.192   6.170  1.00  0.00    -0.311 N 
ATOM     68  S   UNL     1       9.850   2.137   4.819  1.00  0.00    -0.126 SA
ATOM     69  C   UNL     1      11.285   3.086   5.481  1.00  0.00     0.115 C 
ATOM     70  C   UNL     1      10.663   4.056   7.560  1.00  0.00     0.224 C 
ATOM     71  C   UNL     1      11.973   2.334   6.640  1.00  0.00     0.055 C 
ATOM     72  C   UNL     1      11.206   2.698   7.893  1.00  0.00     0.104 C 
ATOM     73  O   UNL     1      10.133   4.804   8.368  1.00  0.00    -0.275 OA
BRANCH  69  74
ATOM     74  C   UNL     1      12.255   3.463   4.339  1.00  0.00    -0.012 A 
ATOM     75  C   UNL     1      11.845   4.210   3.218  1.00  0.00     0.007 A 
ATOM     76  C   UNL     1      13.602   3.038   4.324  1.00  0.00     0.007 A 
ATOM     77  C   UNL     1      12.728   4.571   2.191  1.00  0.00     0.000 A 
ATOM     78  C   UNL     1      14.490   3.396   3.300  1.00  0.00     0.000 A 
ATOM     79  C   UNL     1      14.055   4.173   2.237  1.00  0.00     0.000 A 
ENDBRANCH  69  74
ENDBRANCH  62  65
ENDBRANCH  60  61
ENDBRANCH  59  60
ENDBRANCH  58  59
ENDBRANCH   1  58
TORSDOF 14
