REMARK SMILES COc1cc([C@@H]2CC(=O)Nc3c(C(=O)NCCCCCCNC(=O)c4ccc(-c5c6nc(c(-c7ccccc7)c7ccc([nH]7)c(-c7ccccc7)c7nc(c(-c8ccccc8)c8ccc5[nH]8)C=C7)C=C6)cc4)cn(-c4ccc(F)cc4)c32)c(OC)c2c1OCO2
REMARK SMILES IDX 18 1 17 2 16 3 15 4 13 5 14 6 12 8 6 9 7 10 82 11 8 12 11 13
REMARK SMILES IDX 74 14 9 15 10 16 73 17 5 19 3 20 4 21 87 22 86 23 88 24
REMARK SMILES IDX 83 25 90 26 89 27 2 28 1 29 84 30 85 31 75 32 76 33 81 34
REMARK SMILES IDX 77 35 80 36 78 37 79 38 19 39 20 40 21 41 22 42 23 43 24 45
REMARK SMILES IDX 25 46 26 47 72 48 27 49 71 50 28 51 29 52 30 53 65 54 31 55
REMARK SMILES IDX 70 56 64 57 66 58 32 59 69 60 63 61 62 62 33 64 55 65 40 66
REMARK SMILES IDX 54 67 41 68 44 69 53 70 67 71 42 72 43 73 52 75 68 76 45 77
REMARK SMILES IDX 34 78 35 79 39 80 36 81 38 82 37 83 56 84 57 85 61 86 58 87
REMARK SMILES IDX 60 88 59 89 46 90 47 91 51 92 48 93 50 94 49 95
REMARK H PARENT 15 7 10 18 22 44 66 63 44 74
REMARK Flexibility Score: inf
ROOT
ATOM      1  C   UNL     1      -0.953  13.187  -1.290  1.00  0.00     0.002 C 
ENDROOT
BRANCH   1   2
ATOM      2  C   UNL     1      -0.920  11.670  -1.086  1.00  0.00     0.021 C 
BRANCH   2   3
ATOM      3  C   UNL     1      -0.629  11.258   0.363  1.00  0.00     0.116 C 
BRANCH   3   4
ATOM      4  N   UNL     1      -1.856  10.968   1.052  1.00  0.00    -0.352 N 
ATOM      5  C   UNL     1      -2.534   9.814   1.315  1.00  0.00     0.254 C 
ATOM      6  O   UNL     1      -3.568   9.970   1.974  1.00  0.00    -0.269 OA
ATOM      7  H   UNL     1      -2.300  11.770   1.410  1.00  0.00     0.163 HD
BRANCH   5   8
ATOM      8  C   UNL     1      -2.116   8.466   0.903  1.00  0.00     0.081 A 
ATOM      9  C   UNL     1      -0.784   5.504  -0.965  1.00  0.00     0.082 C 
ATOM     10  C   UNL     1      -0.321   6.234  -2.234  1.00  0.00     0.115 C 
ATOM     11  C   UNL     1      -1.355   6.475   0.034  1.00  0.00     0.055 A 
ATOM     12  C   UNL     1       0.190   7.635  -1.999  1.00  0.00     0.225 C 
ATOM     13  C   UNL     1      -1.245   7.854  -0.056  1.00  0.00     0.076 A 
ATOM     14  N   UNL     1      -2.297   6.193   1.000  1.00  0.00    -0.317 N 
ATOM     15  O   UNL     1       1.012   8.167  -2.748  1.00  0.00    -0.275 OA
ATOM     16  N   UNL     1      -0.426   8.376  -1.029  1.00  0.00    -0.324 N 
ATOM     17  C   UNL     1      -2.774   7.383   1.482  1.00  0.00     0.107 A 
ATOM     18  H   UNL     1      -0.272   9.348  -1.027  1.00  0.00     0.170 HD
BRANCH   9  19
ATOM     19  C   UNL     1       0.291   4.514  -0.518  1.00  0.00     0.012 A 
ATOM     20  C   UNL     1       0.943   2.135  -0.535  1.00  0.00     0.165 A 
ATOM     21  C   UNL     1       0.003   3.140  -0.747  1.00  0.00     0.059 A 
ATOM     22  C   UNL     1       2.205   2.524  -0.143  1.00  0.00     0.211 A 
ATOM     23  C   UNL     1       2.514   3.855   0.091  1.00  0.00     0.211 A 
ATOM     24  O   UNL     1       3.285   1.706   0.009  1.00  0.00    -0.449 OA
ATOM     25  C   UNL     1       1.578   4.878  -0.067  1.00  0.00     0.168 A 
ATOM     26  O   UNL     1       3.829   3.994   0.439  1.00  0.00    -0.449 OA
ATOM     27  C   UNL     1       4.327   2.660   0.250  1.00  0.00     0.468 C 
BRANCH  20  28
ATOM     28  O   UNL     1       0.536   0.871  -0.840  1.00  0.00    -0.493 OA
ATOM     29  C   UNL     1       0.965  -0.124   0.084  1.00  0.00     0.278 C 
ENDBRANCH  20  28
BRANCH  25  30
ATOM     30  O   UNL     1       1.789   6.210   0.135  1.00  0.00    -0.492 OA
ATOM     31  C   UNL     1       3.123   6.650   0.360  1.00  0.00     0.278 C 
ENDBRANCH  25  30
ENDBRANCH   9  19
BRANCH  14  32
ATOM     32  C   UNL     1      -2.830   4.933   1.341  1.00  0.00     0.046 A 
ATOM     33  C   UNL     1      -1.980   3.907   1.757  1.00  0.00     0.029 A 
ATOM     34  C   UNL     1      -4.212   4.725   1.237  1.00  0.00     0.029 A 
ATOM     35  C   UNL     1      -2.505   2.638   1.998  1.00  0.00     0.041 A 
ATOM     36  C   UNL     1      -4.727   3.450   1.468  1.00  0.00     0.041 A 
ATOM     37  C   UNL     1      -3.868   2.417   1.833  1.00  0.00     0.123 A 
ATOM     38  F   UNL     1      -4.363   1.188   2.029  1.00  0.00    -0.207 F 
ENDBRANCH  14  32
ENDBRANCH   5   8
ENDBRANCH   3   4
ENDBRANCH   2   3
ENDBRANCH   1   2
BRANCH   1  39
ATOM     39  C   UNL     1       0.367  13.906  -0.969  1.00  0.00     0.002 C 
BRANCH  39  40
ATOM     40  C   UNL     1       1.619  13.355  -1.669  1.00  0.00     0.021 C 
BRANCH  40  41
ATOM     41  C   UNL     1       1.624  13.610  -3.169  1.00  0.00     0.116 C 
BRANCH  41  42
ATOM     42  N   UNL     1       1.713  15.036  -3.471  1.00  0.00    -0.352 N 
ATOM     43  C   UNL     1       1.698  15.663  -4.700  1.00  0.00     0.251 C 
ATOM     44  H   UNL     1       1.794  15.632  -2.691  1.00  0.00     0.163 HD
ATOM     45  O   UNL     1       2.108  16.804  -4.828  1.00  0.00    -0.269 OA
BRANCH  43  46
ATOM     46  C   UNL     1       1.188  14.917  -5.862  1.00  0.00     0.039 A 
ATOM     47  C   UNL     1       1.851  14.974  -7.088  1.00  0.00     0.014 A 
ATOM     48  C   UNL     1       0.054  14.124  -5.701  1.00  0.00     0.014 A 
ATOM     49  C   UNL     1       1.415  14.150  -8.122  1.00  0.00     0.010 A 
ATOM     50  C   UNL     1      -0.282  13.209  -6.670  1.00  0.00     0.010 A 
ATOM     51  C   UNL     1       0.367  13.239  -7.898  1.00  0.00    -0.014 A 
BRANCH  51  52
ATOM     52  C   UNL     1       0.028  12.249  -8.918  1.00  0.00     0.031 A 
ATOM     53  C   UNL     1       1.190  11.539  -9.515  1.00  0.00     0.074 A 
ATOM     54  C   UNL     1      -1.229  11.880  -9.246  1.00  0.00     0.049 A 
ATOM     55  N   UNL     1       1.660  11.708 -10.705  1.00  0.00    -0.248 NA
ATOM     56  C   UNL     1       1.997  10.645  -8.673  1.00  0.00     0.031 C 
ATOM     57  C   UNL     1      -2.497  12.272  -8.619  1.00  0.00     0.029 A 
ATOM     58  N   UNL     1      -1.630  10.986 -10.194  1.00  0.00    -0.354 N 
ATOM     59  C   UNL     1       2.716  10.815 -10.838  1.00  0.00     0.074 A 
ATOM     60  C   UNL     1       2.965  10.284  -9.521  1.00  0.00     0.031 C 
ATOM     61  C   UNL     1      -3.488  11.456  -9.042  1.00  0.00     0.029 A 
ATOM     62  C   UNL     1      -2.967  10.625 -10.109  1.00  0.00     0.049 A 
ATOM     63  H   UNL     1      -1.022  10.626 -10.880  1.00  0.00     0.167 HD
ATOM     64  C   UNL     1       3.152  10.426 -12.068  1.00  0.00     0.031 A 
ATOM     65  C   UNL     1      -3.620   9.727 -10.882  1.00  0.00     0.031 A 
ATOM     66  C   UNL     1       2.602  11.254 -13.111  1.00  0.00     0.049 A 
ATOM     67  C   UNL     1      -2.875   9.621 -12.151  1.00  0.00     0.074 A 
ATOM     68  C   UNL     1       2.712  12.575 -13.489  1.00  0.00     0.029 A 
ATOM     69  N   UNL     1       1.472  10.765 -13.720  1.00  0.00    -0.354 N 
ATOM     70  N   UNL     1      -2.798  10.595 -13.010  1.00  0.00    -0.248 NA
ATOM     71  C   UNL     1      -1.885   8.570 -12.310  1.00  0.00     0.031 C 
ATOM     72  C   UNL     1       1.419  12.932 -13.976  1.00  0.00     0.029 A 
ATOM     73  C   UNL     1       0.600  11.801 -13.922  1.00  0.00     0.049 A 
ATOM     74  H   UNL     1       1.315   9.826 -13.970  1.00  0.00     0.167 HD
ATOM     75  C   UNL     1      -1.505  10.523 -13.502  1.00  0.00     0.074 A 
ATOM     76  C   UNL     1      -1.054   9.176 -13.163  1.00  0.00     0.031 C 
ATOM     77  C   UNL     1      -0.840  11.654 -13.880  1.00  0.00     0.031 A 
BRANCH  64  78
ATOM     78  C   UNL     1       3.694   9.053 -12.377  1.00  0.00    -0.014 A 
ATOM     79  C   UNL     1       4.151   8.789 -13.683  1.00  0.00     0.009 A 
ATOM     80  C   UNL     1       3.484   7.941 -11.542  1.00  0.00     0.009 A 
ATOM     81  C   UNL     1       4.309   7.479 -14.150  1.00  0.00     0.001 A 
ATOM     82  C   UNL     1       3.677   6.632 -11.994  1.00  0.00     0.001 A 
ATOM     83  C   UNL     1       4.061   6.401 -13.307  1.00  0.00     0.000 A 
ENDBRANCH  64  78
BRANCH  65  84
ATOM     84  C   UNL     1      -4.738   8.830 -10.540  1.00  0.00    -0.014 A 
ATOM     85  C   UNL     1      -5.558   8.281 -11.537  1.00  0.00     0.009 A 
ATOM     86  C   UNL     1      -4.811   8.281  -9.247  1.00  0.00     0.009 A 
ATOM     87  C   UNL     1      -6.388   7.187 -11.260  1.00  0.00     0.001 A 
ATOM     88  C   UNL     1      -5.638   7.187  -8.972  1.00  0.00     0.001 A 
ATOM     89  C   UNL     1      -6.414   6.629  -9.983  1.00  0.00     0.000 A 
ENDBRANCH  65  84
BRANCH  77  90
ATOM     90  C   UNL     1      -1.657  12.915 -14.032  1.00  0.00    -0.014 A 
ATOM     91  C   UNL     1      -2.332  13.531 -12.962  1.00  0.00     0.009 A 
ATOM     92  C   UNL     1      -1.653  13.563 -15.275  1.00  0.00     0.009 A 
ATOM     93  C   UNL     1      -3.012  14.741 -13.144  1.00  0.00     0.001 A 
ATOM     94  C   UNL     1      -2.313  14.781 -15.451  1.00  0.00     0.001 A 
ATOM     95  C   UNL     1      -2.998  15.366 -14.388  1.00  0.00     0.000 A 
ENDBRANCH  77  90
ENDBRANCH  51  52
ENDBRANCH  43  46
ENDBRANCH  41  42
ENDBRANCH  40  41
ENDBRANCH  39  40
ENDBRANCH   1  39
TORSDOF 17
