REMARK SMILES Cc1cc(-c2cc(C(=O)NCCCCCCNC(=O)c3ccc(-c4c5nc(c(-c6ccccc6)c6ccc([nH]6)c(-c6ccccc6)c6nc(c(-c7ccccc7)c7ccc4[nH]7)C=C6)C=C5)cc3)c[nH]c2=O)ccc1Cl
REMARK SMILES IDX 14 1 13 2 12 3 11 4 10 5 8 6 9 7 7 9 5 10 6 11 70 12 69 13
REMARK SMILES IDX 71 14 68 15 4 17 1 18 2 19 3 20 74 21 73 22 75 23 72 24
REMARK SMILES IDX 15 25 16 26 17 27 18 28 19 30 20 31 21 32 67 33 22 34 66 35
REMARK SMILES IDX 23 36 24 37 25 38 60 39 26 40 65 41 59 42 61 43 27 44 64 45
REMARK SMILES IDX 58 46 57 47 28 49 50 50 35 51 49 52 36 53 39 54 48 55 62 56
REMARK SMILES IDX 37 57 38 58 47 60 63 61 40 62 29 63 30 64 34 65 31 66 33 67
REMARK SMILES IDX 32 68 51 69 52 70 56 71 53 72 55 73 54 74 41 75 42 76 46 77
REMARK SMILES IDX 43 78 45 79 44 80
REMARK H PARENT 10 8 69 16 17 29 61 48 39 59
REMARK Flexibility Score: inf
ROOT
ATOM      1  C   UNL     1      -4.776  -3.331   6.090  1.00  0.00     0.002 C 
ENDROOT
BRANCH   1   2
ATOM      2  C   UNL     1      -5.097  -1.871   5.745  1.00  0.00     0.002 C 
BRANCH   2   3
ATOM      3  C   UNL     1      -4.565  -1.395   4.385  1.00  0.00     0.021 C 
BRANCH   3   4
ATOM      4  C   UNL     1      -5.201  -2.129   3.200  1.00  0.00     0.116 C 
BRANCH   4   5
ATOM      5  N   UNL     1      -6.497  -1.552   2.895  1.00  0.00    -0.352 N 
ATOM      6  C   UNL     1      -6.932  -0.651   1.976  1.00  0.00     0.252 C 
ATOM      7  O   UNL     1      -8.123  -0.334   2.037  1.00  0.00    -0.269 OA
ATOM      8  H   UNL     1      -7.215  -1.885   3.480  1.00  0.00     0.163 HD
BRANCH   6   9
ATOM      9  C   UNL     1      -6.063  -0.107   0.882  1.00  0.00     0.056 A 
ATOM     10  C   UNL     1      -3.912   0.302  -0.212  1.00  0.00     0.048 A 
ATOM     11  C   UNL     1      -4.617  -0.020   0.891  1.00  0.00     0.029 A 
ATOM     12  C   UNL     1      -4.653   0.764  -1.431  1.00  0.00     0.255 A 
ATOM     13  N   UNL     1      -6.025   0.770  -1.319  1.00  0.00    -0.328 N 
ATOM     14  O   UNL     1      -4.087   1.128  -2.454  1.00  0.00    -0.269 OA
ATOM     15  C   UNL     1      -6.712   0.330  -0.213  1.00  0.00     0.099 A 
ATOM     16  H   UNL     1      -6.548   1.112  -2.080  1.00  0.00     0.169 HD
BRANCH  10  17
ATOM     17  C   UNL     1      -2.449   0.171  -0.191  1.00  0.00    -0.012 A 
ATOM     18  C   UNL     1       0.648   2.380  -0.042  1.00  0.00     0.046 C 
ATOM     19  C   UNL     1      -0.217   1.153  -0.085  1.00  0.00    -0.032 A 
ATOM     20  C   UNL     1      -1.615   1.295  -0.161  1.00  0.00     0.014 A 
ATOM     21  C   UNL     1       0.332  -0.139  -0.053  1.00  0.00     0.044 A 
ATOM     22  C   UNL     1      -0.494  -1.264  -0.099  1.00  0.00     0.021 A 
ATOM     23  Cl  UNL     1       2.037  -0.398   0.052  1.00  0.00    -0.084 Cl
ATOM     24  C   UNL     1      -1.878  -1.109  -0.167  1.00  0.00     0.010 A 
ENDBRANCH  10  17
ENDBRANCH   6   9
ENDBRANCH   4   5
ENDBRANCH   3   4
ENDBRANCH   2   3
ENDBRANCH   1   2
BRANCH   1  25
ATOM     25  C   UNL     1      -3.290  -3.696   6.045  1.00  0.00     0.021 C 
BRANCH  25  26
ATOM     26  C   UNL     1      -2.421  -2.922   7.031  1.00  0.00     0.116 C 
BRANCH  26  27
ATOM     27  N   UNL     1      -2.755  -3.242   8.410  1.00  0.00    -0.352 N 
ATOM     28  C   UNL     1      -1.948  -3.713   9.415  1.00  0.00     0.251 C 
ATOM     29  H   UNL     1      -3.697  -3.101   8.659  1.00  0.00     0.163 HD
ATOM     30  O   UNL     1      -2.440  -4.139  10.454  1.00  0.00    -0.269 OA
BRANCH  28  31
ATOM     31  C   UNL     1      -0.480  -3.716   9.240  1.00  0.00     0.039 A 
ATOM     32  C   UNL     1       0.246  -4.842   9.636  1.00  0.00     0.014 A 
ATOM     33  C   UNL     1       0.179  -2.603   8.711  1.00  0.00     0.014 A 
ATOM     34  C   UNL     1       1.630  -4.872   9.454  1.00  0.00     0.010 A 
ATOM     35  C   UNL     1       1.548  -2.660   8.469  1.00  0.00     0.010 A 
ATOM     36  C   UNL     1       2.288  -3.791   8.845  1.00  0.00    -0.014 A 
BRANCH  36  37
ATOM     37  C   UNL     1       3.750  -3.822   8.599  1.00  0.00     0.031 A 
ATOM     38  C   UNL     1       4.657  -2.856   9.306  1.00  0.00     0.074 A 
ATOM     39  C   UNL     1       4.253  -4.675   7.687  1.00  0.00     0.049 A 
ATOM     40  N   UNL     1       5.949  -2.689   9.176  1.00  0.00    -0.248 NA
ATOM     41  C   UNL     1       4.025  -1.936  10.265  1.00  0.00     0.031 C 
ATOM     42  C   UNL     1       3.472  -5.631   6.899  1.00  0.00     0.029 A 
ATOM     43  N   UNL     1       5.543  -4.865   7.260  1.00  0.00    -0.354 N 
ATOM     44  C   UNL     1       6.280  -1.640  10.024  1.00  0.00     0.074 A 
ATOM     45  C   UNL     1       5.048  -1.174  10.621  1.00  0.00     0.031 C 
ATOM     46  C   UNL     1       4.301  -6.316   6.096  1.00  0.00     0.029 A 
ATOM     47  C   UNL     1       5.662  -5.826   6.287  1.00  0.00     0.049 A 
ATOM     48  H   UNL     1       6.309  -4.360   7.617  1.00  0.00     0.167 HD
ATOM     49  C   UNL     1       7.502  -1.122  10.297  1.00  0.00     0.031 A 
ATOM     50  C   UNL     1       6.746  -6.259   5.615  1.00  0.00     0.031 A 
ATOM     51  C   UNL     1       8.728  -1.585   9.703  1.00  0.00     0.049 A 
ATOM     52  C   UNL     1       8.091  -5.670   5.930  1.00  0.00     0.074 A 
ATOM     53  C   UNL     1      10.022  -1.161   9.951  1.00  0.00     0.029 A 
ATOM     54  N   UNL     1       8.809  -2.576   8.736  1.00  0.00    -0.354 N 
ATOM     55  N   UNL     1       8.398  -4.725   6.785  1.00  0.00    -0.248 NA
ATOM     56  C   UNL     1       9.240  -6.218   5.198  1.00  0.00     0.031 C 
ATOM     57  C   UNL     1      10.882  -1.863   9.100  1.00  0.00     0.029 A 
ATOM     58  C   UNL     1      10.129  -2.762   8.361  1.00  0.00     0.049 A 
ATOM     59  H   UNL     1       8.042  -3.073   8.371  1.00  0.00     0.167 HD
ATOM     60  C   UNL     1       9.776  -4.578   6.709  1.00  0.00     0.074 A 
ATOM     61  C   UNL     1      10.247  -5.544   5.737  1.00  0.00     0.031 C 
ATOM     62  C   UNL     1      10.580  -3.720   7.384  1.00  0.00     0.031 A 
BRANCH  49  63
ATOM     63  C   UNL     1       7.559   0.016  11.279  1.00  0.00    -0.014 A 
ATOM     64  C   UNL     1       7.285  -0.186  12.642  1.00  0.00     0.009 A 
ATOM     65  C   UNL     1       7.894   1.305  10.839  1.00  0.00     0.009 A 
ATOM     66  C   UNL     1       7.298   0.888  13.534  1.00  0.00     0.001 A 
ATOM     67  C   UNL     1       7.936   2.372  11.739  1.00  0.00     0.001 A 
ATOM     68  C   UNL     1       7.625   2.165  13.082  1.00  0.00     0.000 A 
ENDBRANCH  49  63
BRANCH  50  69
ATOM     69  C   UNL     1       6.596  -7.321   4.588  1.00  0.00    -0.014 A 
ATOM     70  C   UNL     1       7.042  -8.627   4.842  1.00  0.00     0.009 A 
ATOM     71  C   UNL     1       5.981  -7.040   3.358  1.00  0.00     0.009 A 
ATOM     72  C   UNL     1       6.891  -9.625   3.878  1.00  0.00     0.001 A 
ATOM     73  C   UNL     1       5.808  -8.047   2.406  1.00  0.00     0.001 A 
ATOM     74  C   UNL     1       6.269  -9.336   2.664  1.00  0.00     0.000 A 
ENDBRANCH  50  69
BRANCH  62  75
ATOM     75  C   UNL     1      12.055  -3.804   7.110  1.00  0.00    -0.014 A 
ATOM     76  C   UNL     1      12.600  -3.329   5.907  1.00  0.00     0.009 A 
ATOM     77  C   UNL     1      12.914  -4.331   8.087  1.00  0.00     0.009 A 
ATOM     78  C   UNL     1      13.974  -3.409   5.676  1.00  0.00     0.001 A 
ATOM     79  C   UNL     1      14.291  -4.385   7.864  1.00  0.00     0.001 A 
ATOM     80  C   UNL     1      14.819  -3.932   6.655  1.00  0.00     0.000 A 
ENDBRANCH  62  75
ENDBRANCH  36  37
ENDBRANCH  28  31
ENDBRANCH  26  27
ENDBRANCH  25  26
ENDBRANCH   1  25
TORSDOF 14
