REMARK SMILES Cc1cccc(-c2ncc([C@@H]3[NH2+][C@H](C(=O)NCCCCCCNC(=O)c4ccc(-c5c6nc(c(-c7ccccc7)c7ccc([nH]7)c(-c7ccccc7)c7nc(c(-c8ccccc8)c8ccc5[nH]8)C=C7)C=C6)cc4)C(C)(C)S3)s2)c1
REMARK SMILES IDX 19 1 18 2 17 3 16 4 14 5 15 6 13 8 11 9 12 10 77 11 74 14
REMARK SMILES IDX 75 15 76 16 10 17 7 18 8 19 78 20 9 21 6 22 1 23 2 24 3 25
REMARK SMILES IDX 79 26 4 27 5 28 20 29 21 30 22 31 23 32 24 33 25 35 26 36
REMARK SMILES IDX 27 37 73 38 28 39 72 40 29 41 30 42 31 43 66 44 32 45 71 46
REMARK SMILES IDX 65 47 67 48 33 49 70 50 64 51 63 52 34 54 56 55 41 56 55 57
REMARK SMILES IDX 42 58 45 59 54 60 68 61 43 62 44 63 53 65 69 66 46 67 35 68
REMARK SMILES IDX 36 69 40 70 37 71 39 72 38 73 57 74 58 75 62 76 59 77 61 78
REMARK SMILES IDX 60 79 47 80 48 81 52 82 49 83 51 84 50 85
REMARK H PARENT 16 7 12 12 12 13 23 34 67 53 45 64
REMARK Flexibility Score: inf
ROOT
ATOM      1  C   UNL     1     -10.039   8.459   2.410  1.00  0.00     0.002 C 
ENDROOT
BRANCH   1   2
ATOM      2  C   UNL     1      -8.868   8.428   1.418  1.00  0.00     0.021 C 
BRANCH   2   3
ATOM      3  C   UNL     1      -7.590   9.148   1.861  1.00  0.00     0.116 C 
BRANCH   3   4
ATOM      4  N   UNL     1      -6.735   8.287   2.634  1.00  0.00    -0.351 N 
ATOM      5  C   UNL     1      -5.484   7.812   2.478  1.00  0.00     0.279 C 
ATOM      6  O   UNL     1      -4.999   7.432   3.558  1.00  0.00    -0.268 OA
ATOM      7  H   UNL     1      -7.161   7.973   3.464  1.00  0.00     0.163 HD
BRANCH   5   8
ATOM      8  C   UNL     1      -4.593   7.810   1.174  1.00  0.00     0.289 C 
ATOM      9  C   UNL     1      -3.912   5.484   1.038  1.00  0.00     0.286 C 
ATOM     10  N   UNL     1      -3.479   6.826   1.458  1.00  0.00    -0.319 N 
ATOM     11  S   UNL     1      -4.901   5.689  -0.462  1.00  0.00    -0.080 SA
ATOM     12  H   UNL     1      -2.643   7.095   0.939  1.00  0.00     0.348 HD
ATOM     13  H   UNL     1      -3.265   6.824   2.456  1.00  0.00     0.348 HD
ATOM     14  C   UNL     1      -4.997   7.504  -0.302  1.00  0.00     0.077 C 
ATOM     15  C   UNL     1      -3.939   8.083  -1.277  1.00  0.00     0.030 C 
ATOM     16  C   UNL     1      -6.353   7.933  -0.832  1.00  0.00     0.030 C 
BRANCH   9  17
ATOM     17  C   UNL     1      -4.652   4.693   2.077  1.00  0.00     0.093 A 
ATOM     18  C   UNL     1      -5.323   3.063   3.780  1.00  0.00     0.123 A 
ATOM     19  N   UNL     1      -6.368   3.763   3.384  1.00  0.00    -0.244 NA
ATOM     20  S   UNL     1      -3.838   3.506   3.022  1.00  0.00    -0.112 S 
ATOM     21  C   UNL     1      -5.989   4.684   2.432  1.00  0.00     0.134 A 
BRANCH  18  22
ATOM     22  C   UNL     1      -5.415   1.937   4.727  1.00  0.00     0.011 A 
ATOM     23  C   UNL     1      -8.162  -0.432   5.947  1.00  0.00     0.044 C 
ATOM     24  C   UNL     1      -6.824   0.224   5.776  1.00  0.00    -0.050 A 
ATOM     25  C   UNL     1      -5.714  -0.248   6.481  1.00  0.00     0.003 A 
ATOM     26  C   UNL     1      -6.665   1.315   4.911  1.00  0.00     0.014 A 
ATOM     27  C   UNL     1      -4.470   0.362   6.324  1.00  0.00     0.001 A 
ATOM     28  C   UNL     1      -4.321   1.448   5.455  1.00  0.00     0.011 A 
ENDBRANCH  18  22
ENDBRANCH   9  17
ENDBRANCH   5   8
ENDBRANCH   3   4
ENDBRANCH   2   3
ENDBRANCH   1   2
BRANCH   1  29
ATOM     29  C   UNL     1     -10.490   9.836   2.918  1.00  0.00     0.002 C 
BRANCH  29  30
ATOM     30  C   UNL     1     -10.563  10.955   1.877  1.00  0.00     0.021 C 
BRANCH  30  31
ATOM     31  C   UNL     1     -11.686  10.792   0.861  1.00  0.00     0.116 C 
BRANCH  31  32
ATOM     32  N   UNL     1     -12.838  11.652   1.117  1.00  0.00    -0.352 N 
ATOM     33  C   UNL     1     -14.051  11.693   0.449  1.00  0.00     0.251 C 
ATOM     34  H   UNL     1     -12.739  12.288   1.862  1.00  0.00     0.163 HD
ATOM     35  O   UNL     1     -14.939  12.450   0.802  1.00  0.00    -0.269 OA
BRANCH  33  36
ATOM     36  C   UNL     1     -14.295  10.701  -0.623  1.00  0.00     0.039 A 
ATOM     37  C   UNL     1     -15.421   9.880  -0.503  1.00  0.00     0.014 A 
ATOM     38  C   UNL     1     -13.314  10.429  -1.572  1.00  0.00     0.014 A 
ATOM     39  C   UNL     1     -15.432   8.651  -1.154  1.00  0.00     0.010 A 
ATOM     40  C   UNL     1     -13.281   9.174  -2.149  1.00  0.00     0.010 A 
ATOM     41  C   UNL     1     -14.303   8.261  -1.877  1.00  0.00    -0.014 A 
BRANCH  41  42
ATOM     42  C   UNL     1     -14.080   6.884  -2.297  1.00  0.00     0.031 A 
ATOM     43  C   UNL     1     -14.415   6.465  -3.667  1.00  0.00     0.074 A 
ATOM     44  C   UNL     1     -13.587   5.968  -1.435  1.00  0.00     0.049 A 
ATOM     45  N   UNL     1     -14.823   5.281  -3.983  1.00  0.00    -0.248 NA
ATOM     46  C   UNL     1     -14.356   7.385  -4.794  1.00  0.00     0.031 C 
ATOM     47  C   UNL     1     -13.166   4.603  -1.743  1.00  0.00     0.029 A 
ATOM     48  N   UNL     1     -13.608   6.005  -0.042  1.00  0.00    -0.354 N 
ATOM     49  C   UNL     1     -14.740   5.186  -5.351  1.00  0.00     0.074 A 
ATOM     50  C   UNL     1     -14.562   6.546  -5.813  1.00  0.00     0.031 C 
ATOM     51  C   UNL     1     -13.299   3.859  -0.634  1.00  0.00     0.029 A 
ATOM     52  C   UNL     1     -13.913   4.699   0.380  1.00  0.00     0.049 A 
ATOM     53  H   UNL     1     -13.443   6.788   0.531  1.00  0.00     0.167 HD
ATOM     54  C   UNL     1     -14.657   3.961  -5.943  1.00  0.00     0.031 A 
ATOM     55  C   UNL     1     -15.022   4.395   1.115  1.00  0.00     0.031 A 
ATOM     56  C   UNL     1     -14.777   2.859  -4.985  1.00  0.00     0.049 A 
ATOM     57  C   UNL     1     -15.949   3.398   0.441  1.00  0.00     0.074 A 
ATOM     58  C   UNL     1     -13.889   1.942  -4.444  1.00  0.00     0.029 A 
ATOM     59  N   UNL     1     -15.933   2.753  -4.228  1.00  0.00    -0.354 N 
ATOM     60  N   UNL     1     -15.730   2.848  -0.721  1.00  0.00    -0.248 NA
ATOM     61  C   UNL     1     -17.268   3.051   0.972  1.00  0.00     0.031 C 
ATOM     62  C   UNL     1     -14.531   1.278  -3.360  1.00  0.00     0.029 A 
ATOM     63  C   UNL     1     -15.809   1.789  -3.245  1.00  0.00     0.049 A 
ATOM     64  H   UNL     1     -16.742   3.296  -4.372  1.00  0.00     0.167 HD
ATOM     65  C   UNL     1     -16.844   2.156  -1.122  1.00  0.00     0.074 A 
ATOM     66  C   UNL     1     -17.781   2.310  -0.025  1.00  0.00     0.031 C 
ATOM     67  C   UNL     1     -16.931   1.559  -2.348  1.00  0.00     0.031 A 
BRANCH  54  68
ATOM     68  C   UNL     1     -14.175   3.789  -7.365  1.00  0.00    -0.014 A 
ATOM     69  C   UNL     1     -13.454   2.637  -7.727  1.00  0.00     0.009 A 
ATOM     70  C   UNL     1     -14.346   4.748  -8.377  1.00  0.00     0.009 A 
ATOM     71  C   UNL     1     -12.837   2.509  -8.978  1.00  0.00     0.001 A 
ATOM     72  C   UNL     1     -13.693   4.651  -9.614  1.00  0.00     0.001 A 
ATOM     73  C   UNL     1     -12.924   3.535  -9.909  1.00  0.00     0.000 A 
ENDBRANCH  54  68
BRANCH  55  74
ATOM     74  C   UNL     1     -15.473   5.511   1.992  1.00  0.00    -0.014 A 
ATOM     75  C   UNL     1     -14.612   5.923   3.030  1.00  0.00     0.009 A 
ATOM     76  C   UNL     1     -16.488   6.384   1.575  1.00  0.00     0.009 A 
ATOM     77  C   UNL     1     -14.677   7.223   3.537  1.00  0.00     0.001 A 
ATOM     78  C   UNL     1     -16.562   7.677   2.104  1.00  0.00     0.001 A 
ATOM     79  C   UNL     1     -15.631   8.110   3.049  1.00  0.00     0.000 A 
ENDBRANCH  55  74
BRANCH  67  80
ATOM     80  C   UNL     1     -18.105   0.747  -2.844  1.00  0.00    -0.014 A 
ATOM     81  C   UNL     1     -18.951   0.008  -2.006  1.00  0.00     0.009 A 
ATOM     82  C   UNL     1     -18.326   0.613  -4.234  1.00  0.00     0.009 A 
ATOM     83  C   UNL     1     -20.012  -0.751  -2.523  1.00  0.00     0.001 A 
ATOM     84  C   UNL     1     -19.366  -0.161  -4.756  1.00  0.00     0.001 A 
ATOM     85  C   UNL     1     -20.222  -0.831  -3.896  1.00  0.00     0.000 A 
ENDBRANCH  67  80
ENDBRANCH  41  42
ENDBRANCH  33  36
ENDBRANCH  31  32
ENDBRANCH  30  31
ENDBRANCH  29  30
ENDBRANCH   1  29
TORSDOF 15
