REMARK SMILES Cc1ccc(CNC(=O)NC[C@@H](CC(C)C)C(=O)NCCCCCCNC(=O)c2ccc(-c3c4nc(c(-c5ccccc5)c5ccc([nH]5)c(-c5ccccc5)c5nc(c(-c6ccccc6)c6ccc3[nH]6)C=C5)C=C4)cc2)s1
REMARK SMILES IDX 21 1 20 2 19 3 17 4 18 5 12 7 11 8 10 9 7 10 8 11 9 13 6 15
REMARK SMILES IDX 5 16 1 17 2 18 3 19 77 20 4 21 13 22 14 23 15 24 16 25 22 26
REMARK SMILES IDX 23 27 24 28 25 29 26 30 27 31 28 33 29 34 30 35 76 36 31 37
REMARK SMILES IDX 75 38 32 39 33 40 34 41 69 42 35 43 74 44 68 45 70 46 36 47
REMARK SMILES IDX 73 48 67 49 66 50 37 52 59 53 44 54 58 55 45 56 48 57 57 58
REMARK SMILES IDX 71 59 46 60 47 61 56 63 72 64 49 65 38 66 39 67 43 68 40 69
REMARK SMILES IDX 42 70 41 71 60 72 61 73 65 74 62 75 64 76 63 77 50 78 51 79
REMARK SMILES IDX 55 80 52 81 54 82 53 83
REMARK H PARENT 19 6 7 12 10 14 26 32 70 51 48 62
REMARK Flexibility Score: inf
ROOT
ATOM      1  C   UNL     1      -0.723   2.224  -4.347  1.00  0.00     0.021 C 
ENDROOT
BRANCH   1   2
ATOM      2  C   UNL     1      -2.031   2.890  -3.950  1.00  0.00     0.116 C 
BRANCH   2   3
ATOM      3  N   UNL     1      -3.148   1.971  -3.905  1.00  0.00    -0.356 N 
ATOM      4  C   UNL     1      -4.328   2.035  -3.235  1.00  0.00     0.224 C 
ATOM      5  O   UNL     1      -5.181   1.193  -3.531  1.00  0.00    -0.275 OA
ATOM      6  H   UNL     1      -3.034   1.162  -4.454  1.00  0.00     0.163 HD
BRANCH   4   7
ATOM      7  C   UNL     1      -4.640   3.091  -2.177  1.00  0.00     0.098 C 
BRANCH   7   8
ATOM      8  C   UNL     1      -3.504   3.320  -1.172  1.00  0.00     0.131 C 
BRANCH   8   9
ATOM      9  N   UNL     1      -3.976   3.455   0.196  1.00  0.00    -0.337 N 
ATOM     10  N   UNL     1      -3.105   1.575   1.327  1.00  0.00    -0.333 N 
ATOM     11  C   UNL     1      -3.636   2.802   1.318  1.00  0.00     0.315 C 
ATOM     12  H   UNL     1      -2.635   1.357   2.164  1.00  0.00     0.165 HD
ATOM     13  O   UNL     1      -3.823   3.370   2.395  1.00  0.00    -0.249 OA
ATOM     14  H   UNL     1      -4.665   4.146   0.321  1.00  0.00     0.165 HD
BRANCH  10  15
ATOM     15  C   UNL     1      -3.080   0.503   0.355  1.00  0.00     0.164 C 
BRANCH  15  16
ATOM     16  C   UNL     1      -1.690  -0.048   0.207  1.00  0.00     0.024 A 
ATOM     17  C   UNL     1       2.236  -0.110  -0.021  1.00  0.00     0.056 C 
ATOM     18  C   UNL     1       0.765  -0.349   0.023  1.00  0.00     0.002 A 
ATOM     19  C   UNL     1       0.092  -1.551   0.018  1.00  0.00     0.015 A 
ATOM     20  S   UNL     1      -0.315   0.975   0.088  1.00  0.00    -0.144 S 
ATOM     21  C   UNL     1      -1.319  -1.378   0.121  1.00  0.00     0.017 A 
ENDBRANCH  15  16
ENDBRANCH  10  15
ENDBRANCH   8   9
ENDBRANCH   7   8
BRANCH   7  22
ATOM     22  C   UNL     1      -5.279   4.392  -2.729  1.00  0.00     0.018 C 
BRANCH  22  23
ATOM     23  C   UNL     1      -4.466   5.221  -3.746  1.00  0.00    -0.017 C 
ATOM     24  C   UNL     1      -4.738   4.783  -5.191  1.00  0.00     0.007 C 
ATOM     25  C   UNL     1      -4.788   6.715  -3.634  1.00  0.00     0.007 C 
ENDBRANCH  22  23
ENDBRANCH   7  22
ENDBRANCH   4   7
ENDBRANCH   2   3
ENDBRANCH   1   2
BRANCH   1  26
ATOM     26  C   UNL     1      -0.636   1.829  -5.823  1.00  0.00     0.002 C 
BRANCH  26  27
ATOM     27  C   UNL     1      -0.987   2.926  -6.836  1.00  0.00     0.002 C 
BRANCH  27  28
ATOM     28  C   UNL     1      -0.272   4.267  -6.651  1.00  0.00     0.021 C 
BRANCH  28  29
ATOM     29  C   UNL     1       1.244   4.186  -6.552  1.00  0.00     0.116 C 
BRANCH  29  30
ATOM     30  N   UNL     1       1.848   3.552  -7.708  1.00  0.00    -0.352 N 
ATOM     31  C   UNL     1       2.957   3.930  -8.423  1.00  0.00     0.251 C 
ATOM     32  H   UNL     1       1.400   2.734  -8.024  1.00  0.00     0.163 HD
ATOM     33  O   UNL     1       3.249   3.351  -9.461  1.00  0.00    -0.269 OA
BRANCH  31  34
ATOM     34  C   UNL     1       3.785   5.059  -7.946  1.00  0.00     0.039 A 
ATOM     35  C   UNL     1       4.227   6.004  -8.875  1.00  0.00     0.014 A 
ATOM     36  C   UNL     1       4.132   5.181  -6.598  1.00  0.00     0.014 A 
ATOM     37  C   UNL     1       4.987   7.091  -8.444  1.00  0.00     0.010 A 
ATOM     38  C   UNL     1       4.816   6.309  -6.159  1.00  0.00     0.010 A 
ATOM     39  C   UNL     1       5.270   7.264  -7.080  1.00  0.00    -0.014 A 
BRANCH  39  40
ATOM     40  C   UNL     1       6.079   8.413  -6.603  1.00  0.00     0.031 A 
ATOM     41  C   UNL     1       7.413   8.169  -5.950  1.00  0.00     0.074 A 
ATOM     42  C   UNL     1       5.601   9.666  -6.720  1.00  0.00     0.049 A 
ATOM     43  N   UNL     1       8.251   9.033  -5.435  1.00  0.00    -0.248 NA
ATOM     44  C   UNL     1       7.851   6.768  -5.838  1.00  0.00     0.031 C 
ATOM     45  C   UNL     1       4.312  10.033  -7.310  1.00  0.00     0.029 A 
ATOM     46  N   UNL     1       6.150  10.867  -6.348  1.00  0.00    -0.354 N 
ATOM     47  C   UNL     1       9.302   8.279  -4.927  1.00  0.00     0.074 A 
ATOM     48  C   UNL     1       8.968   6.889  -5.137  1.00  0.00     0.031 C 
ATOM     49  C   UNL     1       4.187  11.370  -7.294  1.00  0.00     0.029 A 
ATOM     50  C   UNL     1       5.363  11.951  -6.654  1.00  0.00     0.049 A 
ATOM     51  H   UNL     1       7.026  10.946  -5.904  1.00  0.00     0.167 HD
ATOM     52  C   UNL     1      10.457   8.704  -4.360  1.00  0.00     0.031 A 
ATOM     53  C   UNL     1       5.566  13.264  -6.441  1.00  0.00     0.031 A 
ATOM     54  C   UNL     1      10.790  10.088  -4.155  1.00  0.00     0.049 A 
ATOM     55  C   UNL     1       6.840  13.710  -5.778  1.00  0.00     0.074 A 
ATOM     56  C   UNL     1      11.950  10.626  -3.626  1.00  0.00     0.029 A 
ATOM     57  N   UNL     1       9.961  11.153  -4.470  1.00  0.00    -0.354 N 
ATOM     58  N   UNL     1       7.851  12.989  -5.356  1.00  0.00    -0.248 NA
ATOM     59  C   UNL     1       7.006  15.156  -5.575  1.00  0.00     0.031 C 
ATOM     60  C   UNL     1      11.798  12.015  -3.567  1.00  0.00     0.029 A 
ATOM     61  C   UNL     1      10.573  12.346  -4.125  1.00  0.00     0.049 A 
ATOM     62  H   UNL     1       9.068  11.073  -4.878  1.00  0.00     0.167 HD
ATOM     63  C   UNL     1       8.789  13.895  -4.876  1.00  0.00     0.074 A 
ATOM     64  C   UNL     1       8.230  15.217  -5.070  1.00  0.00     0.031 C 
ATOM     65  C   UNL     1      10.006  13.654  -4.329  1.00  0.00     0.031 A 
BRANCH  52  66
ATOM     66  C   UNL     1      11.435   7.651  -3.914  1.00  0.00    -0.014 A 
ATOM     67  C   UNL     1      12.108   6.840  -4.842  1.00  0.00     0.009 A 
ATOM     68  C   UNL     1      11.700   7.477  -2.547  1.00  0.00     0.009 A 
ATOM     69  C   UNL     1      12.989   5.846  -4.409  1.00  0.00     0.001 A 
ATOM     70  C   UNL     1      12.608   6.507  -2.118  1.00  0.00     0.001 A 
ATOM     71  C   UNL     1      13.242   5.684  -3.048  1.00  0.00     0.000 A 
ENDBRANCH  52  66
BRANCH  53  72
ATOM     72  C   UNL     1       4.553  14.259  -6.883  1.00  0.00    -0.014 A 
ATOM     73  C   UNL     1       4.833  15.140  -7.939  1.00  0.00     0.009 A 
ATOM     74  C   UNL     1       3.306  14.344  -6.243  1.00  0.00     0.009 A 
ATOM     75  C   UNL     1       3.900  16.105  -8.324  1.00  0.00     0.001 A 
ATOM     76  C   UNL     1       2.362  15.290  -6.652  1.00  0.00     0.001 A 
ATOM     77  C   UNL     1       2.664  16.177  -7.684  1.00  0.00     0.000 A 
ENDBRANCH  53  72
BRANCH  65  78
ATOM     78  C   UNL     1      10.841  14.847  -3.953  1.00  0.00    -0.014 A 
ATOM     79  C   UNL     1      10.504  15.671  -2.869  1.00  0.00     0.009 A 
ATOM     80  C   UNL     1      12.011  15.125  -4.679  1.00  0.00     0.009 A 
ATOM     81  C   UNL     1      11.300  16.772  -2.544  1.00  0.00     0.001 A 
ATOM     82  C   UNL     1      12.824  16.204  -4.331  1.00  0.00     0.001 A 
ATOM     83  C   UNL     1      12.462  17.033  -3.271  1.00  0.00     0.000 A 
ENDBRANCH  65  78
ENDBRANCH  39  40
ENDBRANCH  31  34
ENDBRANCH  29  30
ENDBRANCH  28  29
ENDBRANCH  27  28
ENDBRANCH  26  27
ENDBRANCH   1  26
TORSDOF 19
