REMARK SMILES Cc1cc(F)ccc1OC1(C(=O)NCCCCCCNC(=O)c2ccc(-c3c4nc(c(-c5ccccc5)c5ccc([nH]5)c(-c5ccccc5)c5nc(c(-c6ccccc6)c6ccc3[nH]6)C=C5)C=C4)cc2)CCN(C(=O)[C@H]2CCOC2)CC1
REMARK SMILES IDX 16 1 15 2 14 3 13 4 11 5 12 6 10 8 71 9 82 10 72 11 81 12
REMARK SMILES IDX 73 13 74 14 75 15 9 16 8 17 1 18 2 19 3 20 4 21 7 22 5 23
REMARK SMILES IDX 6 24 76 25 77 26 80 27 78 28 79 29 17 30 18 31 19 32 20 33
REMARK SMILES IDX 21 34 22 36 23 37 24 38 70 39 25 40 69 41 26 42 27 43 28 44
REMARK SMILES IDX 63 45 29 46 68 47 62 48 64 49 30 50 67 51 61 52 60 53 31 55
REMARK SMILES IDX 53 56 38 57 52 58 39 59 42 60 51 61 65 62 40 63 41 64 50 66
REMARK SMILES IDX 66 67 43 68 32 69 33 70 37 71 34 72 36 73 35 74 54 75 55 76
REMARK SMILES IDX 59 77 56 78 58 79 57 80 44 81 45 82 49 83 46 84 48 85 47 86
REMARK H PARENT 13 7 20 35 64 54 42 65
REMARK Flexibility Score: inf
ROOT
ATOM      1  C   UNL     1      12.474   6.111  -0.140  1.00  0.00     0.002 C 
ENDROOT
BRANCH   1   2
ATOM      2  C   UNL     1      11.110   6.007  -0.827  1.00  0.00     0.021 C 
BRANCH   2   3
ATOM      3  C   UNL     1       9.927   6.005   0.138  1.00  0.00     0.116 C 
BRANCH   3   4
ATOM      4  N   UNL     1       9.697   7.315   0.710  1.00  0.00    -0.353 N 
ATOM      5  C   UNL     1       8.702   8.233   0.521  1.00  0.00     0.264 C 
ATOM      6  O   UNL     1       8.812   9.262   1.198  1.00  0.00    -0.270 OA
ATOM      7  H   UNL     1      10.386   7.597   1.355  1.00  0.00     0.163 HD
BRANCH   5   8
ATOM      8  C   UNL     1       7.496   7.989  -0.473  1.00  0.00     0.190 C 
ATOM      9  C   UNL     1       8.077   7.860  -1.873  1.00  0.00     0.080 C 
ATOM     10  C   UNL     1       6.677   6.838   0.115  1.00  0.00     0.080 C 
ATOM     11  C   UNL     1       7.953   6.506  -2.552  1.00  0.00     0.124 C 
ATOM     12  C   UNL     1       6.199   5.771  -0.852  1.00  0.00     0.124 C 
ATOM     13  N   UNL     1       7.062   5.488  -1.995  1.00  0.00    -0.342 N 
ATOM     14  C   UNL     1       6.981   4.314  -2.753  1.00  0.00     0.228 C 
ATOM     15  O   UNL     1       7.784   4.104  -3.665  1.00  0.00    -0.274 OA
BRANCH   8  16
ATOM     16  O   UNL     1       6.782   9.234  -0.318  1.00  0.00    -0.477 OA
BRANCH  16  17
ATOM     17  C   UNL     1       5.745   9.837  -0.945  1.00  0.00     0.124 A 
ATOM     18  C   UNL     1       5.072   8.294  -2.930  1.00  0.00     0.048 C 
ATOM     19  C   UNL     1       4.949   9.489  -2.046  1.00  0.00    -0.006 A 
ATOM     20  C   UNL     1       3.933  10.382  -2.467  1.00  0.00     0.046 A 
ATOM     21  C   UNL     1       3.708  11.585  -1.819  1.00  0.00     0.123 A 
ATOM     22  C   UNL     1       5.486  11.075  -0.311  1.00  0.00     0.050 A 
ATOM     23  F   UNL     1       2.741  12.401  -2.256  1.00  0.00    -0.207 F 
ATOM     24  C   UNL     1       4.483  11.945  -0.738  1.00  0.00     0.043 A 
ENDBRANCH  16  17
ENDBRANCH   8  16
BRANCH  14  25
ATOM     25  C   UNL     1       5.838   3.345  -2.489  1.00  0.00     0.107 C 
ATOM     26  C   UNL     1       4.579   3.751  -3.232  1.00  0.00     0.044 C 
ATOM     27  C   UNL     1       6.120   1.971  -3.072  1.00  0.00     0.173 C 
ATOM     28  C   UNL     1       3.893   2.436  -3.545  1.00  0.00     0.161 C 
ATOM     29  O   UNL     1       4.852   1.387  -3.388  1.00  0.00    -0.381 OA
ENDBRANCH  14  25
ENDBRANCH   5   8
ENDBRANCH   3   4
ENDBRANCH   2   3
ENDBRANCH   1   2
BRANCH   1  30
ATOM     30  C   UNL     1      12.763   5.013   0.887  1.00  0.00     0.002 C 
BRANCH  30  31
ATOM     31  C   UNL     1      12.573   3.584   0.374  1.00  0.00     0.021 C 
BRANCH  31  32
ATOM     32  C   UNL     1      13.428   3.236  -0.838  1.00  0.00     0.116 C 
BRANCH  32  33
ATOM     33  N   UNL     1      14.848   3.282  -0.527  1.00  0.00    -0.352 N 
ATOM     34  C   UNL     1      15.794   2.297  -0.667  1.00  0.00     0.251 C 
ATOM     35  H   UNL     1      15.177   4.138  -0.167  1.00  0.00     0.163 HD
ATOM     36  O   UNL     1      16.900   2.414  -0.156  1.00  0.00    -0.269 OA
BRANCH  34  37
ATOM     37  C   UNL     1      15.455   1.080  -1.433  1.00  0.00     0.039 A 
ATOM     38  C   UNL     1      15.782  -0.171  -0.906  1.00  0.00     0.014 A 
ATOM     39  C   UNL     1      14.808   1.183  -2.667  1.00  0.00     0.014 A 
ATOM     40  C   UNL     1      15.412  -1.326  -1.598  1.00  0.00     0.010 A 
ATOM     41  C   UNL     1      14.369   0.034  -3.312  1.00  0.00     0.010 A 
ATOM     42  C   UNL     1      14.679  -1.232  -2.792  1.00  0.00    -0.014 A 
BRANCH  42  43
ATOM     43  C   UNL     1      14.248  -2.439  -3.538  1.00  0.00     0.031 A 
ATOM     44  C   UNL     1      14.768  -2.680  -4.928  1.00  0.00     0.074 A 
ATOM     45  C   UNL     1      13.333  -3.270  -3.004  1.00  0.00     0.049 A 
ATOM     46  N   UNL     1      14.436  -3.610  -5.786  1.00  0.00    -0.248 NA
ATOM     47  C   UNL     1      15.775  -1.730  -5.429  1.00  0.00     0.031 C 
ATOM     48  C   UNL     1      12.731  -3.131  -1.677  1.00  0.00     0.029 A 
ATOM     49  N   UNL     1      12.740  -4.393  -3.524  1.00  0.00    -0.354 N 
ATOM     50  C   UNL     1      15.173  -3.342  -6.933  1.00  0.00     0.074 A 
ATOM     51  C   UNL     1      15.926  -2.133  -6.681  1.00  0.00     0.031 C 
ATOM     52  C   UNL     1      11.868  -4.141  -1.480  1.00  0.00     0.029 A 
ATOM     53  C   UNL     1      11.819  -4.968  -2.682  1.00  0.00     0.049 A 
ATOM     54  H   UNL     1      12.953  -4.752  -4.415  1.00  0.00     0.167 HD
ATOM     55  C   UNL     1      15.233  -4.048  -8.087  1.00  0.00     0.031 A 
ATOM     56  C   UNL     1      11.015  -6.032  -2.863  1.00  0.00     0.031 A 
ATOM     57  C   UNL     1      14.483  -5.250  -8.335  1.00  0.00     0.049 A 
ATOM     58  C   UNL     1      11.074  -6.784  -4.165  1.00  0.00     0.074 A 
ATOM     59  C   UNL     1      14.508  -6.067  -9.451  1.00  0.00     0.029 A 
ATOM     60  N   UNL     1      13.568  -5.804  -7.452  1.00  0.00    -0.354 N 
ATOM     61  N   UNL     1      11.820  -6.554  -5.218  1.00  0.00    -0.248 NA
ATOM     62  C   UNL     1      10.188  -7.949  -4.296  1.00  0.00     0.031 C 
ATOM     63  C   UNL     1      13.562  -7.081  -9.270  1.00  0.00     0.029 A 
ATOM     64  C   UNL     1      13.002  -6.937  -8.010  1.00  0.00     0.049 A 
ATOM     65  H   UNL     1      13.352  -5.444  -6.562  1.00  0.00     0.167 HD
ATOM     66  C   UNL     1      11.519  -7.565  -6.123  1.00  0.00     0.074 A 
ATOM     67  C   UNL     1      10.531  -8.413  -5.489  1.00  0.00     0.031 C 
ATOM     68  C   UNL     1      12.021  -7.774  -7.365  1.00  0.00     0.031 A 
BRANCH  55  69
ATOM     69  C   UNL     1      16.129  -3.517  -9.174  1.00  0.00    -0.014 A 
ATOM     70  C   UNL     1      17.526  -3.497  -9.026  1.00  0.00     0.009 A 
ATOM     71  C   UNL     1      15.569  -3.038 -10.368  1.00  0.00     0.009 A 
ATOM     72  C   UNL     1      18.337  -2.961 -10.028  1.00  0.00     0.001 A 
ATOM     73  C   UNL     1      16.385  -2.536 -11.383  1.00  0.00     0.001 A 
ATOM     74  C   UNL     1      17.766  -2.485 -11.207  1.00  0.00     0.000 A 
ENDBRANCH  55  69
BRANCH  56  75
ATOM     75  C   UNL     1      10.091  -6.456  -1.779  1.00  0.00    -0.014 A 
ATOM     76  C   UNL     1      10.318  -7.648  -1.074  1.00  0.00     0.009 A 
ATOM     77  C   UNL     1       8.981  -5.668  -1.436  1.00  0.00     0.009 A 
ATOM     78  C   UNL     1       9.439  -8.055  -0.067  1.00  0.00     0.001 A 
ATOM     79  C   UNL     1       8.121  -6.061  -0.408  1.00  0.00     0.001 A 
ATOM     80  C   UNL     1       8.346  -7.258   0.269  1.00  0.00     0.000 A 
ENDBRANCH  56  75
BRANCH  68  81
ATOM     81  C   UNL     1      11.550  -8.995  -8.106  1.00  0.00    -0.014 A 
ATOM     82  C   UNL     1      10.249  -9.088  -8.621  1.00  0.00     0.009 A 
ATOM     83  C   UNL     1      12.449 -10.050  -8.336  1.00  0.00     0.009 A 
ATOM     84  C   UNL     1       9.848 -10.227  -9.324  1.00  0.00     0.001 A 
ATOM     85  C   UNL     1      12.057 -11.171  -9.068  1.00  0.00     0.001 A 
ATOM     86  C   UNL     1      10.754 -11.263  -9.553  1.00  0.00     0.000 A 
ENDBRANCH  68  81
ENDBRANCH  42  43
ENDBRANCH  34  37
ENDBRANCH  32  33
ENDBRANCH  31  32
ENDBRANCH  30  31
ENDBRANCH   1  30
TORSDOF 16
