REMARK SMILES C[N@@H+]1CC[N@H+](Cc2ccc(C#CC(C)(C)O)s2)C[C@H]1C(=O)NCCCCCCNC(=O)c1ccc(-c2c3nc(c(-c4ccccc4)c4ccc([nH]4)c(-c4ccccc4)c4nc(c(-c5ccccc5)c5ccc2[nH]5)C=C4)C=C3)cc1
REMARK SMILES IDX 24 1 23 2 22 3 20 4 21 5 19 7 1 8 2 9 3 10 4 12 18 13 5 14
REMARK SMILES IDX 6 16 7 17 8 18 17 19 9 20 10 21 11 22 12 23 13 24 14 25
REMARK SMILES IDX 15 26 16 27 25 29 26 30 27 31 28 32 29 33 30 34 31 36 32 37
REMARK SMILES IDX 33 38 79 39 34 40 78 41 35 42 36 43 37 44 72 45 38 46 77 47
REMARK SMILES IDX 71 48 73 49 39 50 76 51 70 52 69 53 40 55 62 56 47 57 61 58
REMARK SMILES IDX 48 59 51 60 60 61 74 62 49 63 50 64 59 66 75 67 52 68 41 69
REMARK SMILES IDX 42 70 46 71 43 72 45 73 44 74 63 75 64 76 68 77 65 78 67 79
REMARK SMILES IDX 66 80 53 81 54 82 58 83 55 84 57 85 56 86
REMARK H PARENT 22 6 2 11 5 15 16 28 29 35 73 54 51 65
REMARK Flexibility Score: inf
ROOT
ATOM      1  C   UNL     1       1.726  -1.500  -3.666  1.00  0.00     0.021 C 
ENDROOT
BRANCH   1   2
ATOM      2  C   UNL     1       0.517  -1.845  -2.804  1.00  0.00     0.116 C 
BRANCH   2   3
ATOM      3  N   UNL     1       0.878  -2.742  -1.726  1.00  0.00    -0.351 N 
ATOM      4  C   UNL     1       0.920  -2.483  -0.388  1.00  0.00     0.284 C 
ATOM      5  O   UNL     1       1.335  -3.369   0.362  1.00  0.00    -0.268 OA
ATOM      6  H   UNL     1       1.125  -3.657  -1.994  1.00  0.00     0.163 HD
BRANCH   4   7
ATOM      7  C   UNL     1       0.412  -1.139   0.157  1.00  0.00     0.329 C 
ATOM      8  C   UNL     1       2.519   0.057  -0.080  1.00  0.00     0.333 C 
ATOM      9  N   UNL     1       1.111   0.008  -0.494  1.00  0.00    -0.318 N 
ATOM     10  C   UNL     1       0.443   1.280  -0.190  1.00  0.00     0.325 C 
ATOM     11  H   UNL     1       1.073  -0.136  -1.503  1.00  0.00     0.348 HD
ATOM     12  C   UNL     1      -1.102   1.265  -0.317  1.00  0.00     0.324 C 
ATOM     13  C   UNL     1      -1.141  -1.135   0.033  1.00  0.00     0.339 C 
ATOM     14  N   UNL     1      -1.824   0.143   0.293  1.00  0.00    -0.320 N 
ATOM     15  H   UNL     1      -2.720   0.108  -0.192  1.00  0.00     0.348 HD
BRANCH  14  16
ATOM     16  C   UNL     1      -2.271   0.332   1.681  1.00  0.00     0.310 C 
BRANCH  16  17
ATOM     17  C   UNL     1      -1.171   0.331   2.691  1.00  0.00     0.060 A 
ATOM     18  C   UNL     1      -0.335   1.364   3.070  1.00  0.00     0.022 A 
ATOM     19  S   UNL     1      -0.793  -1.103   3.555  1.00  0.00    -0.126 S 
ATOM     20  C   UNL     1       0.815   0.876   3.756  1.00  0.00     0.029 A 
ATOM     21  C   UNL     1       0.735  -0.478   3.984  1.00  0.00     0.077 A 
BRANCH  21  22
ATOM     22  C   UNL     1       1.729  -1.265   4.614  1.00  0.00    -0.053 C 
ATOM     23  C   UNL     1       2.456  -1.930   5.468  1.00  0.00    -0.063 C 
BRANCH  23  24
ATOM     24  C   UNL     1       3.304  -2.705   6.463  1.00  0.00     0.120 C 
ATOM     25  C   UNL     1       4.784  -2.447   6.192  1.00  0.00     0.056 C 
ATOM     26  C   UNL     1       2.923  -2.303   7.887  1.00  0.00     0.056 C 
BRANCH  24  27
ATOM     27  O   UNL     1       3.035  -4.092   6.290  1.00  0.00    -0.378 OA
ATOM     28  H   UNL     1       3.274  -4.358   5.388  1.00  0.00     0.212 HD
ENDBRANCH  24  27
ENDBRANCH  23  24
ENDBRANCH  21  22
ENDBRANCH  16  17
ENDBRANCH  14  16
ENDBRANCH   4   7
ENDBRANCH   2   3
ENDBRANCH   1   2
BRANCH   1  29
ATOM     29  C   UNL     1       2.303  -2.703  -4.416  1.00  0.00     0.002 C 
BRANCH  29  30
ATOM     30  C   UNL     1       1.275  -3.541  -5.193  1.00  0.00     0.002 C 
BRANCH  30  31
ATOM     31  C   UNL     1       0.357  -2.761  -6.146  1.00  0.00     0.021 C 
BRANCH  31  32
ATOM     32  C   UNL     1       1.109  -2.057  -7.259  1.00  0.00     0.116 C 
BRANCH  32  33
ATOM     33  N   UNL     1       1.738  -3.000  -8.177  1.00  0.00    -0.352 N 
ATOM     34  C   UNL     1       2.428  -2.726  -9.339  1.00  0.00     0.251 C 
ATOM     35  H   UNL     1       1.661  -3.951  -7.936  1.00  0.00     0.163 HD
ATOM     36  O   UNL     1       2.595  -3.581 -10.192  1.00  0.00    -0.269 OA
BRANCH  34  37
ATOM     37  C   UNL     1       2.971  -1.369  -9.527  1.00  0.00     0.039 A 
ATOM     38  C   UNL     1       2.921  -0.740 -10.774  1.00  0.00     0.014 A 
ATOM     39  C   UNL     1       3.532  -0.728  -8.424  1.00  0.00     0.014 A 
ATOM     40  C   UNL     1       3.383   0.569 -10.883  1.00  0.00     0.010 A 
ATOM     41  C   UNL     1       3.849   0.603  -8.497  1.00  0.00     0.010 A 
ATOM     42  C   UNL     1       3.832   1.238  -9.733  1.00  0.00    -0.014 A 
BRANCH  42  43
ATOM     43  C   UNL     1       4.151   2.661  -9.768  1.00  0.00     0.031 A 
ATOM     44  C   UNL     1       3.016   3.508 -10.221  1.00  0.00     0.074 A 
ATOM     45  C   UNL     1       5.275   3.166  -9.212  1.00  0.00     0.049 A 
ATOM     46  N   UNL     1       2.933   4.188 -11.315  1.00  0.00    -0.248 NA
ATOM     47  C   UNL     1       1.758   3.470  -9.451  1.00  0.00     0.031 C 
ATOM     48  C   UNL     1       6.309   2.437  -8.462  1.00  0.00     0.029 A 
ATOM     49  N   UNL     1       5.679   4.460  -9.083  1.00  0.00    -0.354 N 
ATOM     50  C   UNL     1       1.708   4.850 -11.261  1.00  0.00     0.074 A 
ATOM     51  C   UNL     1       0.956   4.219 -10.210  1.00  0.00     0.031 C 
ATOM     52  C   UNL     1       7.064   3.310  -7.758  1.00  0.00     0.029 A 
ATOM     53  C   UNL     1       6.687   4.657  -8.142  1.00  0.00     0.049 A 
ATOM     54  H   UNL     1       5.291   5.196  -9.611  1.00  0.00     0.167 HD
ATOM     55  C   UNL     1       1.550   6.060 -11.868  1.00  0.00     0.031 A 
ATOM     56  C   UNL     1       7.172   5.842  -7.696  1.00  0.00     0.031 A 
ATOM     57  C   UNL     1       2.649   6.329 -12.763  1.00  0.00     0.049 A 
ATOM     58  C   UNL     1       6.808   6.862  -8.698  1.00  0.00     0.074 A 
ATOM     59  C   UNL     1       3.127   5.815 -13.947  1.00  0.00     0.029 A 
ATOM     60  N   UNL     1       3.673   7.035 -12.183  1.00  0.00    -0.354 N 
ATOM     61  N   UNL     1       7.302   6.885  -9.902  1.00  0.00    -0.248 NA
ATOM     62  C   UNL     1       5.590   7.633  -8.506  1.00  0.00     0.031 C 
ATOM     63  C   UNL     1       4.545   5.975 -13.884  1.00  0.00     0.029 A 
ATOM     64  C   UNL     1       4.873   6.641 -12.700  1.00  0.00     0.049 A 
ATOM     65  H   UNL     1       3.558   7.727 -11.493  1.00  0.00     0.167 HD
ATOM     66  C   UNL     1       6.238   7.266 -10.701  1.00  0.00     0.074 A 
ATOM     67  C   UNL     1       5.279   7.875  -9.783  1.00  0.00     0.031 C 
ATOM     68  C   UNL     1       6.115   6.771 -11.968  1.00  0.00     0.031 A 
BRANCH  55  69
ATOM     69  C   UNL     1       0.766   7.210 -11.259  1.00  0.00    -0.014 A 
ATOM     70  C   UNL     1       0.797   8.454 -11.924  1.00  0.00     0.009 A 
ATOM     71  C   UNL     1       0.293   7.224  -9.934  1.00  0.00     0.009 A 
ATOM     72  C   UNL     1       0.478   9.648 -11.265  1.00  0.00     0.001 A 
ATOM     73  C   UNL     1      -0.061   8.411  -9.284  1.00  0.00     0.001 A 
ATOM     74  C   UNL     1       0.062   9.627  -9.940  1.00  0.00     0.000 A 
ENDBRANCH  55  69
BRANCH  56  75
ATOM     75  C   UNL     1       7.736   6.214  -6.381  1.00  0.00    -0.014 A 
ATOM     76  C   UNL     1       8.555   7.346  -6.236  1.00  0.00     0.009 A 
ATOM     77  C   UNL     1       7.224   5.624  -5.211  1.00  0.00     0.009 A 
ATOM     78  C   UNL     1       8.815   7.893  -4.971  1.00  0.00     0.001 A 
ATOM     79  C   UNL     1       7.482   6.172  -3.948  1.00  0.00     0.001 A 
ATOM     80  C   UNL     1       8.265   7.316  -3.830  1.00  0.00     0.000 A 
ENDBRANCH  56  75
BRANCH  68  81
ATOM     81  C   UNL     1       7.335   6.139 -12.587  1.00  0.00    -0.014 A 
ATOM     82  C   UNL     1       7.935   4.961 -12.110  1.00  0.00     0.009 A 
ATOM     83  C   UNL     1       7.824   6.706 -13.772  1.00  0.00     0.009 A 
ATOM     84  C   UNL     1       9.014   4.385 -12.791  1.00  0.00     0.001 A 
ATOM     85  C   UNL     1       8.884   6.120 -14.463  1.00  0.00     0.001 A 
ATOM     86  C   UNL     1       9.483   4.963 -13.969  1.00  0.00     0.000 A 
ENDBRANCH  68  81
ENDBRANCH  42  43
ENDBRANCH  34  37
ENDBRANCH  32  33
ENDBRANCH  31  32
ENDBRANCH  30  31
ENDBRANCH  29  30
ENDBRANCH   1  29
TORSDOF 18
