REMARK SMILES [NH3+]C[C@H]1CC[C@@H](C(=O)N[C@H](CC(=O)NCCCCCCNC(=O)c2ccc(-c3c4nc(c(-c5ccccc5)c5ccc([nH]5)c(-c5ccccc5)c5nc(c(-c6ccccc6)c6ccc3[nH]6)C=C5)C=C4)cc2)c2cccs2)O1
REMARK SMILES IDX 16 1 15 2 14 3 12 4 13 5 11 7 10 8 9 9 7 10 8 11 6 13 3 14
REMARK SMILES IDX 4 15 77 16 5 17 2 18 1 19 72 23 73 24 76 25 74 26 75 27
REMARK SMILES IDX 17 28 18 29 19 30 20 31 21 32 22 33 23 35 24 36 25 37 71 38
REMARK SMILES IDX 26 39 70 40 27 41 28 42 29 43 64 44 30 45 69 46 63 47 65 48
REMARK SMILES IDX 31 49 68 50 62 51 61 52 32 54 54 55 39 56 53 57 40 58 43 59
REMARK SMILES IDX 52 60 66 61 41 62 42 63 51 65 67 66 44 67 33 68 34 69 38 70
REMARK SMILES IDX 35 71 37 72 36 73 55 74 56 75 60 76 57 77 59 78 58 79 45 80
REMARK SMILES IDX 46 81 50 82 47 83 49 84 48 85
REMARK H PARENT 14 6 9 12 1 20 1 21 1 22 21 34 65 53 43 64
REMARK Flexibility Score: inf
ROOT
ATOM      1  C   UNL     1       5.183   5.406  -4.690  1.00  0.00     0.021 C 
ENDROOT
BRANCH   1   2
ATOM      2  C   UNL     1       3.741   5.905  -4.763  1.00  0.00     0.116 C 
BRANCH   2   3
ATOM      3  N   UNL     1       2.788   4.809  -4.734  1.00  0.00    -0.356 N 
ATOM      4  C   UNL     1       1.724   4.548  -3.926  1.00  0.00     0.222 C 
ATOM      5  O   UNL     1       1.077   3.524  -4.160  1.00  0.00    -0.275 OA
ATOM      6  H   UNL     1       2.939   4.128  -5.429  1.00  0.00     0.163 HD
BRANCH   4   7
ATOM      7  C   UNL     1       1.284   5.488  -2.812  1.00  0.00     0.130 C 
BRANCH   7   8
ATOM      8  C   UNL     1       2.232   5.800  -1.617  1.00  0.00     0.132 C 
BRANCH   8   9
ATOM      9  N   UNL     1       3.555   5.182  -1.757  1.00  0.00    -0.346 N 
ATOM     10  C   UNL     1       4.521   4.674  -0.962  1.00  0.00     0.249 C 
ATOM     11  O   UNL     1       5.181   3.770  -1.501  1.00  0.00    -0.272 OA
ATOM     12  H   UNL     1       3.813   5.119  -2.705  1.00  0.00     0.164 HD
BRANCH  10  13
ATOM     13  C   UNL     1       4.974   5.176   0.407  1.00  0.00     0.207 C 
ATOM     14  C   UNL     1       5.799   7.301   1.001  1.00  0.00     0.174 C 
ATOM     15  C   UNL     1       4.679   6.956   1.973  1.00  0.00     0.041 C 
ATOM     16  O   UNL     1       5.990   6.154   0.167  1.00  0.00    -0.359 OA
ATOM     17  C   UNL     1       3.994   5.736   1.398  1.00  0.00     0.045 C 
BRANCH  14  18
ATOM     18  C   UNL     1       5.543   8.559   0.137  1.00  0.00     0.291 C 
BRANCH  18  19
ATOM     19  N   UNL     1       5.768   8.363  -1.298  1.00  0.00    -0.355 N 
ATOM     20  H   UNL     1       5.579   9.234  -1.795  1.00  0.00     0.344 HD
ATOM     21  H   UNL     1       5.145   7.632  -1.644  1.00  0.00     0.344 HD
ATOM     22  H   UNL     1       6.737   8.086  -1.456  1.00  0.00     0.344 HD
ENDBRANCH  18  19
ENDBRANCH  14  18
ENDBRANCH  10  13
ENDBRANCH   8   9
BRANCH   8  23
ATOM     23  C   UNL     1       2.242   7.309  -1.336  1.00  0.00     0.027 A 
ATOM     24  C   UNL     1       1.797   7.959  -0.193  1.00  0.00     0.017 A 
ATOM     25  S   UNL     1       2.622   8.485  -2.542  1.00  0.00    -0.147 S 
ATOM     26  C   UNL     1       1.855   9.383  -0.284  1.00  0.00     0.012 A 
ATOM     27  C   UNL     1       2.284   9.799  -1.520  1.00  0.00     0.065 A 
ENDBRANCH   8  23
ENDBRANCH   7   8
ENDBRANCH   4   7
ENDBRANCH   2   3
ENDBRANCH   1   2
BRANCH   1  28
ATOM     28  C   UNL     1       5.732   4.897  -6.021  1.00  0.00     0.002 C 
BRANCH  28  29
ATOM     29  C   UNL     1       5.873   5.970  -7.102  1.00  0.00     0.002 C 
BRANCH  29  30
ATOM     30  C   UNL     1       6.691   7.198  -6.693  1.00  0.00     0.021 C 
BRANCH  30  31
ATOM     31  C   UNL     1       8.076   6.883  -6.136  1.00  0.00     0.116 C 
BRANCH  31  32
ATOM     32  N   UNL     1       8.901   6.168  -7.099  1.00  0.00    -0.352 N 
ATOM     33  C   UNL     1      10.104   6.534  -7.645  1.00  0.00     0.251 C 
ATOM     34  H   UNL     1       8.545   5.302  -7.401  1.00  0.00     0.163 HD
ATOM     35  O   UNL     1      10.573   5.922  -8.600  1.00  0.00    -0.269 OA
BRANCH  33  36
ATOM     36  C   UNL     1      10.825   7.691  -7.083  1.00  0.00     0.039 A 
ATOM     37  C   UNL     1      11.298   8.684  -7.943  1.00  0.00     0.014 A 
ATOM     38  C   UNL     1      11.009   7.800  -5.702  1.00  0.00     0.014 A 
ATOM     39  C   UNL     1      11.900   9.825  -7.410  1.00  0.00     0.010 A 
ATOM     40  C   UNL     1      11.544   8.968  -5.170  1.00  0.00     0.010 A 
ATOM     41  C   UNL     1      11.995   9.992  -6.019  1.00  0.00    -0.014 A 
BRANCH  41  42
ATOM     42  C   UNL     1      12.560  11.226  -5.420  1.00  0.00     0.031 A 
ATOM     43  C   UNL     1      13.810  11.148  -4.587  1.00  0.00     0.074 A 
ATOM     44  C   UNL     1      11.902  12.395  -5.549  1.00  0.00     0.049 A 
ATOM     45  N   UNL     1      14.393  12.086  -3.884  1.00  0.00    -0.248 NA
ATOM     46  C   UNL     1      14.478   9.838  -4.511  1.00  0.00     0.031 C 
ATOM     47  C   UNL     1      10.660  12.594  -6.300  1.00  0.00     0.029 A 
ATOM     48  N   UNL     1      12.177  13.637  -5.030  1.00  0.00    -0.354 N 
ATOM     49  C   UNL     1      15.472  11.473  -3.261  1.00  0.00     0.074 A 
ATOM     50  C   UNL     1      15.447  10.078  -3.640  1.00  0.00     0.031 C 
ATOM     51  C   UNL     1      10.286  13.880  -6.199  1.00  0.00     0.029 A 
ATOM     52  C   UNL     1      11.232  14.585  -5.340  1.00  0.00     0.049 A 
ATOM     53  H   UNL     1      12.976  13.829  -4.488  1.00  0.00     0.167 HD
ATOM     54  C   UNL     1      16.407  12.027  -2.453  1.00  0.00     0.031 A 
ATOM     55  C   UNL     1      11.124  15.871  -4.955  1.00  0.00     0.031 A 
ATOM     56  C   UNL     1      16.443  13.419  -2.096  1.00  0.00     0.049 A 
ATOM     57  C   UNL     1      12.175  16.457  -4.051  1.00  0.00     0.074 A 
ATOM     58  C   UNL     1      17.394  14.088  -1.347  1.00  0.00     0.029 A 
ATOM     59  N   UNL     1      15.484  14.351  -2.457  1.00  0.00    -0.354 N 
ATOM     60  N   UNL     1      13.237  15.884  -3.539  1.00  0.00    -0.248 NA
ATOM     61  C   UNL     1      12.018  17.871  -3.679  1.00  0.00     0.031 C 
ATOM     62  C   UNL     1      16.980  15.415  -1.204  1.00  0.00     0.029 A 
ATOM     63  C   UNL     1      15.806  15.585  -1.918  1.00  0.00     0.049 A 
ATOM     64  H   UNL     1      14.694  14.165  -3.013  1.00  0.00     0.167 HD
ATOM     65  C   UNL     1      13.889  16.873  -2.814  1.00  0.00     0.074 A 
ATOM     66  C   UNL     1      13.113  18.086  -2.965  1.00  0.00     0.031 C 
ATOM     67  C   UNL     1      15.030  16.785  -2.089  1.00  0.00     0.031 A 
BRANCH  54  68
ATOM     68  C   UNL     1      17.467  11.127  -1.885  1.00  0.00    -0.014 A 
ATOM     69  C   UNL     1      18.486  10.598  -2.691  1.00  0.00     0.009 A 
ATOM     70  C   UNL     1      17.487  10.866  -0.505  1.00  0.00     0.009 A 
ATOM     71  C   UNL     1      19.491   9.805  -2.131  1.00  0.00     0.001 A 
ATOM     72  C   UNL     1      18.508  10.097   0.057  1.00  0.00     0.001 A 
ATOM     73  C   UNL     1      19.505   9.563  -0.757  1.00  0.00     0.000 A 
ENDBRANCH  54  68
BRANCH  55  74
ATOM     74  C   UNL     1       9.971  16.698  -5.403  1.00  0.00    -0.014 A 
ATOM     75  C   UNL     1      10.159  17.777  -6.279  1.00  0.00     0.009 A 
ATOM     76  C   UNL     1       8.678  16.433  -4.925  1.00  0.00     0.009 A 
ATOM     77  C   UNL     1       9.086  18.598  -6.634  1.00  0.00     0.001 A 
ATOM     78  C   UNL     1       7.600  17.234  -5.309  1.00  0.00     0.001 A 
ATOM     79  C   UNL     1       7.807  18.324  -6.151  1.00  0.00     0.000 A 
ENDBRANCH  55  74
BRANCH  67  80
ATOM     80  C   UNL     1      15.540  18.042  -1.442  1.00  0.00    -0.014 A 
ATOM     81  C   UNL     1      14.902  18.601  -0.325  1.00  0.00     0.009 A 
ATOM     82  C   UNL     1      16.718  18.637  -1.923  1.00  0.00     0.009 A 
ATOM     83  C   UNL     1      15.419  19.748   0.281  1.00  0.00     0.001 A 
ATOM     84  C   UNL     1      17.249  19.764  -1.296  1.00  0.00     0.001 A 
ATOM     85  C   UNL     1      16.595  20.323  -0.200  1.00  0.00     0.000 A 
ENDBRANCH  67  80
ENDBRANCH  41  42
ENDBRANCH  33  36
ENDBRANCH  31  32
ENDBRANCH  30  31
ENDBRANCH  29  30
ENDBRANCH  28  29
ENDBRANCH   1  28
TORSDOF 19
