REMARK SMILES Cc1cc2c(c(C)c1Cl)C=C(C(=O)NCCCCCCNC(=O)c1ccc(-c3c4nc(c(-c5ccccc5)c5ccc([nH]5)c(-c5ccccc5)c5nc(c(-c6ccccc6)c6ccc3[nH]6)C=C5)C=C4)cc1)[C@@H](C(F)(F)F)O2
REMARK SMILES IDX 18 1 17 2 16 3 15 4 14 5 12 6 13 7 11 9 1 10 2 11 3 12 8 13
REMARK SMILES IDX 4 14 6 15 9 16 5 17 77 18 7 19 10 20 72 21 73 22 74 23 75 24
REMARK SMILES IDX 76 25 19 26 20 27 21 28 22 29 23 31 24 32 25 33 71 34 26 35
REMARK SMILES IDX 70 36 27 37 28 38 29 39 64 40 30 41 69 42 63 43 65 44 31 45
REMARK SMILES IDX 68 46 62 47 61 48 32 50 54 51 39 52 53 53 40 54 43 55 52 56
REMARK SMILES IDX 66 57 41 58 42 59 51 61 67 62 44 63 33 64 34 65 38 66 35 67
REMARK SMILES IDX 37 68 36 69 55 70 56 71 60 72 57 73 59 74 58 75 45 76 46 77
REMARK SMILES IDX 50 78 47 79 49 80 48 81
REMARK H PARENT 14 8 21 30 65 49 43 60
REMARK Flexibility Score: inf
ROOT
ATOM      1  C   UNL     1      -0.272  -9.082   7.768  1.00  0.00     0.002 C 
ENDROOT
BRANCH   1   2
ATOM      2  C   UNL     1       0.728  -7.950   8.038  1.00  0.00     0.002 C 
BRANCH   2   3
ATOM      3  C   UNL     1       1.096  -7.103   6.817  1.00  0.00     0.021 C 
BRANCH   3   4
ATOM      4  C   UNL     1      -0.105  -6.490   6.105  1.00  0.00     0.116 C 
BRANCH   4   5
ATOM      5  N   UNL     1      -0.538  -5.256   6.735  1.00  0.00    -0.352 N 
ATOM      6  C   UNL     1      -0.720  -3.966   6.370  1.00  0.00     0.251 C 
ATOM      7  O   UNL     1      -1.156  -3.227   7.259  1.00  0.00    -0.270 OA
ATOM      8  H   UNL     1      -0.759  -5.396   7.685  1.00  0.00     0.163 HD
BRANCH   6   9
ATOM      9  C   UNL     1      -0.435  -3.402   5.015  1.00  0.00     0.067 C 
ATOM     10  C   UNL     1       0.908   0.244  -0.207  1.00  0.00     0.046 C 
ATOM     11  C   UNL     1       0.460  -0.275   1.132  1.00  0.00    -0.028 A 
ATOM     12  C   UNL     1       0.609  -1.644   1.367  1.00  0.00     0.052 A 
ATOM     13  C   UNL     1      -0.028   0.541   2.172  1.00  0.00     0.047 A 
ATOM     14  C   UNL     1       0.264  -2.197   2.595  1.00  0.00     0.128 A 
ATOM     15  C   UNL     1      -0.397  -0.013   3.426  1.00  0.00    -0.021 A 
ATOM     16  Cl  UNL     1      -0.143   2.254   1.903  1.00  0.00    -0.084 Cl
ATOM     17  C   UNL     1      -0.227  -1.404   3.634  1.00  0.00     0.022 A 
ATOM     18  O   UNL     1       0.491  -3.535   2.702  1.00  0.00    -0.475 OA
ATOM     19  C   UNL     1      -0.945   0.844   4.545  1.00  0.00     0.047 C 
ATOM     20  C   UNL     1      -0.485  -2.060   4.920  1.00  0.00     0.026 C 
ATOM     21  C   UNL     1      -0.135  -4.232   3.805  1.00  0.00     0.314 C 
BRANCH  21  22
ATOM     22  C   UNL     1      -1.364  -4.995   3.281  1.00  0.00     0.429 C 
ATOM     23  F   UNL     1      -0.980  -5.989   2.440  1.00  0.00    -0.167 F 
ATOM     24  F   UNL     1      -2.072  -5.589   4.269  1.00  0.00    -0.167 F 
ATOM     25  F   UNL     1      -2.220  -4.198   2.604  1.00  0.00    -0.167 F 
ENDBRANCH  21  22
ENDBRANCH   6   9
ENDBRANCH   4   5
ENDBRANCH   3   4
ENDBRANCH   2   3
ENDBRANCH   1   2
BRANCH   1  26
ATOM     26  C   UNL     1       0.071  -9.996   6.587  1.00  0.00     0.021 C 
BRANCH  26  27
ATOM     27  C   UNL     1       1.427 -10.687   6.688  1.00  0.00     0.116 C 
BRANCH  27  28
ATOM     28  N   UNL     1       1.517 -11.531   7.868  1.00  0.00    -0.352 N 
ATOM     29  C   UNL     1       1.864 -12.850   7.964  1.00  0.00     0.251 C 
ATOM     30  H   UNL     1       1.297 -11.090   8.720  1.00  0.00     0.163 HD
ATOM     31  O   UNL     1       1.686 -13.462   9.020  1.00  0.00    -0.269 OA
BRANCH  29  32
ATOM     32  C   UNL     1       2.446 -13.548   6.803  1.00  0.00     0.039 A 
ATOM     33  C   UNL     1       1.985 -14.828   6.482  1.00  0.00     0.014 A 
ATOM     34  C   UNL     1       3.463 -12.954   6.049  1.00  0.00     0.014 A 
ATOM     35  C   UNL     1       2.512 -15.495   5.375  1.00  0.00     0.010 A 
ATOM     36  C   UNL     1       3.945 -13.594   4.912  1.00  0.00     0.010 A 
ATOM     37  C   UNL     1       3.478 -14.872   4.569  1.00  0.00    -0.014 A 
BRANCH  37  38
ATOM     38  C   UNL     1       4.026 -15.541   3.366  1.00  0.00     0.031 A 
ATOM     39  C   UNL     1       5.470 -15.952   3.330  1.00  0.00     0.074 A 
ATOM     40  C   UNL     1       3.239 -15.723   2.289  1.00  0.00     0.049 A 
ATOM     41  N   UNL     1       6.158 -16.460   2.339  1.00  0.00    -0.248 NA
ATOM     42  C   UNL     1       6.248 -15.750   4.563  1.00  0.00     0.031 C 
ATOM     43  C   UNL     1       1.823 -15.361   2.203  1.00  0.00     0.029 A 
ATOM     44  N   UNL     1       3.524 -16.255   1.058  1.00  0.00    -0.354 N 
ATOM     45  C   UNL     1       7.448 -16.630   2.825  1.00  0.00     0.074 A 
ATOM     46  C   UNL     1       7.460 -16.129   4.183  1.00  0.00     0.031 C 
ATOM     47  C   UNL     1       1.357 -15.704   0.992  1.00  0.00     0.029 A 
ATOM     48  C   UNL     1       2.449 -16.265   0.203  1.00  0.00     0.049 A 
ATOM     49  H   UNL     1       4.413 -16.597   0.810  1.00  0.00     0.167 HD
ATOM     50  C   UNL     1       8.521 -17.171   2.202  1.00  0.00     0.031 A 
ATOM     51  C   UNL     1       2.356 -16.671  -1.077  1.00  0.00     0.031 A 
ATOM     52  C   UNL     1       8.507 -17.668   0.852  1.00  0.00     0.049 A 
ATOM     53  C   UNL     1       3.574 -17.225  -1.761  1.00  0.00     0.074 A 
ATOM     54  C   UNL     1       9.539 -18.251   0.138  1.00  0.00     0.029 A 
ATOM     55  N   UNL     1       7.403 -17.642   0.014  1.00  0.00    -0.354 N 
ATOM     56  N   UNL     1       4.783 -17.394  -1.284  1.00  0.00    -0.248 NA
ATOM     57  C   UNL     1       3.412 -17.649  -3.159  1.00  0.00     0.031 C 
ATOM     58  C   UNL     1       9.072 -18.535  -1.149  1.00  0.00     0.029 A 
ATOM     59  C   UNL     1       7.733 -18.185  -1.216  1.00  0.00     0.049 A 
ATOM     60  H   UNL     1       6.516 -17.291   0.257  1.00  0.00     0.167 HD
ATOM     61  C   UNL     1       5.518 -17.971  -2.311  1.00  0.00     0.074 A 
ATOM     62  C   UNL     1       4.615 -18.134  -3.432  1.00  0.00     0.031 C 
ATOM     63  C   UNL     1       6.824 -18.337  -2.323  1.00  0.00     0.031 A 
BRANCH  50  64
ATOM     64  C   UNL     1       9.807 -17.252   2.977  1.00  0.00    -0.014 A 
ATOM     65  C   UNL     1       9.956 -18.157   4.040  1.00  0.00     0.009 A 
ATOM     66  C   UNL     1      10.900 -16.454   2.607  1.00  0.00     0.009 A 
ATOM     67  C   UNL     1      11.165 -18.243   4.732  1.00  0.00     0.001 A 
ATOM     68  C   UNL     1      12.117 -16.562   3.283  1.00  0.00     0.001 A 
ATOM     69  C   UNL     1      12.247 -17.451   4.349  1.00  0.00     0.000 A 
ENDBRANCH  50  64
BRANCH  51  70
ATOM     70  C   UNL     1       1.052 -16.590  -1.786  1.00  0.00    -0.014 A 
ATOM     71  C   UNL     1       0.335 -17.759  -2.082  1.00  0.00     0.009 A 
ATOM     72  C   UNL     1       0.509 -15.349  -2.150  1.00  0.00     0.009 A 
ATOM     73  C   UNL     1      -0.893 -17.687  -2.743  1.00  0.00     0.001 A 
ATOM     74  C   UNL     1      -0.733 -15.278  -2.787  1.00  0.00     0.001 A 
ATOM     75  C   UNL     1      -1.429 -16.447  -3.088  1.00  0.00     0.000 A 
ENDBRANCH  51  70
BRANCH  63  76
ATOM     76  C   UNL     1       7.348 -18.980  -3.575  1.00  0.00    -0.014 A 
ATOM     77  C   UNL     1       7.564 -18.235  -4.744  1.00  0.00     0.009 A 
ATOM     78  C   UNL     1       7.679 -20.345  -3.566  1.00  0.00     0.009 A 
ATOM     79  C   UNL     1       8.073 -18.851  -5.889  1.00  0.00     0.001 A 
ATOM     80  C   UNL     1       8.215 -20.951  -4.703  1.00  0.00     0.001 A 
ATOM     81  C   UNL     1       8.403 -20.206  -5.866  1.00  0.00     0.000 A 
ENDBRANCH  63  76
ENDBRANCH  37  38
ENDBRANCH  29  32
ENDBRANCH  27  28
ENDBRANCH  26  27
ENDBRANCH   1  26
TORSDOF 14
