REMARK SMILES Cc1c(Cc2ccccc2)c(=O)oc2cc(OCC(=O)N[C@H](C)C(=O)NCCCCCCNC(=O)c3ccc(-c4c5nc(c(-c6ccccc6)c6ccc([nH]6)c(-c6ccccc6)c6nc(c(-c7ccccc7)c7ccc4[nH]7)C=C6)C=C5)cc3)ccc12
REMARK SMILES IDX 27 1 26 2 24 3 25 4 22 6 23 7 21 8 19 9 20 10 18 12 17 13
REMARK SMILES IDX 16 14 1 15 2 16 3 17 86 18 11 19 14 20 85 21 12 22 13 23
REMARK SMILES IDX 15 24 84 25 4 26 5 27 6 28 10 29 7 30 9 31 8 32 28 33 29 34
REMARK SMILES IDX 30 35 31 36 32 37 33 38 34 39 35 41 36 42 37 43 83 44 38 45
REMARK SMILES IDX 82 46 39 47 40 48 41 49 76 50 42 51 81 52 75 53 77 54 43 55
REMARK SMILES IDX 80 56 74 57 73 58 44 60 66 61 51 62 65 63 52 64 55 65 64 66
REMARK SMILES IDX 78 67 53 68 54 69 63 71 79 72 56 73 45 74 46 75 50 76 47 77
REMARK SMILES IDX 49 78 48 79 67 80 68 81 72 82 69 83 71 84 70 85 57 86 58 87
REMARK SMILES IDX 62 88 59 89 61 90 60 91
REMARK H PARENT 26 5 21 11 33 40 77 59 55 70
REMARK Flexibility Score: inf
ROOT
ATOM      1  C   UNL     1       4.493   4.399  -5.539  1.00  0.00     0.116 C 
ENDROOT
BRANCH   1   2
ATOM      2  N   UNL     1       5.578   4.611  -4.629  1.00  0.00    -0.354 N 
ATOM      3  C   UNL     1       5.748   3.986  -3.423  1.00  0.00     0.242 C 
ATOM      4  O   UNL     1       6.756   4.263  -2.767  1.00  0.00    -0.273 OA
ATOM      5  H   UNL     1       6.264   5.266  -4.895  1.00  0.00     0.163 HD
BRANCH   3   6
ATOM      6  C   UNL     1       4.665   3.021  -2.850  1.00  0.00     0.168 C 
ATOM      7  C   UNL     1       3.466   3.786  -2.311  1.00  0.00     0.041 C 
BRANCH   6   8
ATOM      8  N   UNL     1       4.425   1.813  -3.672  1.00  0.00    -0.342 N 
ATOM      9  C   UNL     1       3.530   1.339  -4.576  1.00  0.00     0.258 C 
ATOM     10  O   UNL     1       3.857   0.298  -5.162  1.00  0.00    -0.271 OA
ATOM     11  H   UNL     1       5.133   1.148  -3.514  1.00  0.00     0.164 HD
BRANCH   9  12
ATOM     12  C   UNL     1       2.185   1.992  -4.937  1.00  0.00     0.329 C 
BRANCH  12  13
ATOM     13  O   UNL     1       1.377   2.426  -3.868  1.00  0.00    -0.484 OA
BRANCH  13  14
ATOM     14  C   UNL     1       0.703   1.452  -3.191  1.00  0.00     0.123 A 
ATOM     15  C   UNL     1      -2.666  -0.819  -0.004  1.00  0.00     0.046 C 
ATOM     16  C   UNL     1      -1.626  -1.359  -0.949  1.00  0.00    -0.029 A 
ATOM     17  C   UNL     1      -1.388  -2.672  -1.175  1.00  0.00     0.046 A 
ATOM     18  C   UNL     1      -0.820  -0.361  -1.666  1.00  0.00     0.021 A 
ATOM     19  C   UNL     1      -0.462  -3.118  -2.257  1.00  0.00     0.340 A 
ATOM     20  C   UNL     1      -0.040  -0.785  -2.731  1.00  0.00     0.142 A 
ATOM     21  C   UNL     1      -0.784   1.000  -1.335  1.00  0.00     0.016 A 
ATOM     22  O   UNL     1      -0.234  -4.302  -2.480  1.00  0.00    -0.246 OA
ATOM     23  O   UNL     1       0.070  -2.137  -3.073  1.00  0.00    -0.422 OA
ATOM     24  C   UNL     1       0.705   0.097  -3.505  1.00  0.00     0.094 A 
ATOM     25  C   UNL     1      -0.029   1.899  -2.092  1.00  0.00     0.047 A 
BRANCH  17  26
ATOM     26  C   UNL     1      -2.047  -3.815  -0.437  1.00  0.00     0.079 C 
BRANCH  26  27
ATOM     27  C   UNL     1      -1.326  -4.203   0.840  1.00  0.00    -0.043 A 
ATOM     28  C   UNL     1      -0.659  -5.431   0.938  1.00  0.00     0.004 A 
ATOM     29  C   UNL     1      -1.323  -3.354   1.958  1.00  0.00     0.004 A 
ATOM     30  C   UNL     1      -0.029  -5.804   2.129  1.00  0.00     0.000 A 
ATOM     31  C   UNL     1      -0.681  -3.718   3.140  1.00  0.00     0.000 A 
ATOM     32  C   UNL     1      -0.041  -4.949   3.229  1.00  0.00     0.000 A 
ENDBRANCH  26  27
ENDBRANCH  17  26
ENDBRANCH  13  14
ENDBRANCH  12  13
ENDBRANCH   9  12
ENDBRANCH   6   8
ENDBRANCH   3   6
ENDBRANCH   1   2
BRANCH   1  33
ATOM     33  C   UNL     1       3.777   5.649  -6.017  1.00  0.00     0.021 C 
BRANCH  33  34
ATOM     34  C   UNL     1       4.412   6.317  -7.229  1.00  0.00     0.002 C 
BRANCH  34  35
ATOM     35  C   UNL     1       4.587   5.414  -8.456  1.00  0.00     0.002 C 
BRANCH  35  36
ATOM     36  C   UNL     1       3.320   4.712  -8.959  1.00  0.00     0.021 C 
BRANCH  36  37
ATOM     37  C   UNL     1       2.157   5.640  -9.303  1.00  0.00     0.116 C 
BRANCH  37  38
ATOM     38  N   UNL     1       2.534   6.655 -10.273  1.00  0.00    -0.352 N 
ATOM     39  C   UNL     1       1.993   6.951 -11.498  1.00  0.00     0.251 C 
ATOM     40  H   UNL     1       3.296   7.219 -10.009  1.00  0.00     0.163 HD
ATOM     41  O   UNL     1       2.580   7.711 -12.260  1.00  0.00    -0.269 OA
BRANCH  39  42
ATOM     42  C   UNL     1       0.707   6.349 -11.907  1.00  0.00     0.039 A 
ATOM     43  C   UNL     1       0.569   5.879 -13.216  1.00  0.00     0.014 A 
ATOM     44  C   UNL     1      -0.369   6.279 -11.018  1.00  0.00     0.014 A 
ATOM     45  C   UNL     1      -0.630   5.288 -13.616  1.00  0.00     0.010 A 
ATOM     46  C   UNL     1      -1.538   5.625 -11.396  1.00  0.00     0.010 A 
ATOM     47  C   UNL     1      -1.683   5.128 -12.701  1.00  0.00    -0.014 A 
BRANCH  47  48
ATOM     48  C   UNL     1      -2.944   4.449 -13.088  1.00  0.00     0.031 A 
ATOM     49  C   UNL     1      -4.243   5.207 -13.089  1.00  0.00     0.074 A 
ATOM     50  C   UNL     1      -2.929   3.134 -13.379  1.00  0.00     0.049 A 
ATOM     51  N   UNL     1      -5.453   4.771 -13.334  1.00  0.00    -0.248 NA
ATOM     52  C   UNL     1      -4.178   6.636 -12.746  1.00  0.00     0.031 C 
ATOM     53  C   UNL     1      -1.740   2.279 -13.384  1.00  0.00     0.029 A 
ATOM     54  N   UNL     1      -3.951   2.283 -13.722  1.00  0.00    -0.354 N 
ATOM     55  C   UNL     1      -6.291   5.865 -13.159  1.00  0.00     0.074 A 
ATOM     56  C   UNL     1      -5.460   6.971 -12.737  1.00  0.00     0.031 C 
ATOM     57  C   UNL     1      -2.096   1.034 -13.739  1.00  0.00     0.029 A 
ATOM     58  C   UNL     1      -3.540   0.991 -13.943  1.00  0.00     0.049 A 
ATOM     59  H   UNL     1      -4.888   2.572 -13.802  1.00  0.00     0.167 HD
ATOM     60  C   UNL     1      -7.629   5.948 -13.351  1.00  0.00     0.031 A 
ATOM     61  C   UNL     1      -4.248  -0.108 -14.263  1.00  0.00     0.031 A 
ATOM     62  C   UNL     1      -8.455   4.849 -13.775  1.00  0.00     0.049 A 
ATOM     63  C   UNL     1      -5.737   0.004 -14.441  1.00  0.00     0.074 A 
ATOM     64  C   UNL     1      -9.812   4.844 -14.046  1.00  0.00     0.029 A 
ATOM     65  N   UNL     1      -8.000   3.556 -13.987  1.00  0.00    -0.354 N 
ATOM     66  N   UNL     1      -6.505   1.061 -14.335  1.00  0.00    -0.248 NA
ATOM     67  C   UNL     1      -6.454  -1.230 -14.793  1.00  0.00     0.031 C 
ATOM     68  C   UNL     1     -10.189   3.536 -14.364  1.00  0.00     0.029 A 
ATOM     69  C   UNL     1      -9.055   2.740 -14.357  1.00  0.00     0.049 A 
ATOM     70  H   UNL     1      -7.065   3.262 -13.888  1.00  0.00     0.167 HD
ATOM     71  C   UNL     1      -7.789   0.628 -14.639  1.00  0.00     0.074 A 
ATOM     72  C   UNL     1      -7.693  -0.784 -14.948  1.00  0.00     0.031 C 
ATOM     73  C   UNL     1      -8.944   1.337 -14.663  1.00  0.00     0.031 A 
BRANCH  60  74
ATOM     74  C   UNL     1      -8.286   7.276 -13.090  1.00  0.00    -0.014 A 
ATOM     75  C   UNL     1      -8.054   8.382 -13.923  1.00  0.00     0.009 A 
ATOM     76  C   UNL     1      -9.178   7.415 -12.014  1.00  0.00     0.009 A 
ATOM     77  C   UNL     1      -8.668   9.609 -13.662  1.00  0.00     0.001 A 
ATOM     78  C   UNL     1      -9.816   8.633 -11.774  1.00  0.00     0.001 A 
ATOM     79  C   UNL     1      -9.553   9.732 -12.591  1.00  0.00     0.000 A 
ENDBRANCH  60  74
BRANCH  61  80
ATOM     80  C   UNL     1      -3.558  -1.412 -14.449  1.00  0.00    -0.014 A 
ATOM     81  C   UNL     1      -3.466  -1.994 -15.723  1.00  0.00     0.009 A 
ATOM     82  C   UNL     1      -2.996  -2.087 -13.354  1.00  0.00     0.009 A 
ATOM     83  C   UNL     1      -2.854  -3.238 -15.892  1.00  0.00     0.001 A 
ATOM     84  C   UNL     1      -2.356  -3.316 -13.531  1.00  0.00     0.001 A 
ATOM     85  C   UNL     1      -2.295  -3.895 -14.797  1.00  0.00     0.000 A 
ENDBRANCH  61  80
BRANCH  73  86
ATOM     86  C   UNL     1     -10.192   0.608 -15.079  1.00  0.00    -0.014 A 
ATOM     87  C   UNL     1     -10.795  -0.347 -14.246  1.00  0.00     0.009 A 
ATOM     88  C   UNL     1     -10.795   0.916 -16.309  1.00  0.00     0.009 A 
ATOM     89  C   UNL     1     -11.959  -1.003 -14.653  1.00  0.00     0.001 A 
ATOM     90  C   UNL     1     -11.976   0.283 -16.698  1.00  0.00     0.001 A 
ATOM     91  C   UNL     1     -12.551  -0.683 -15.874  1.00  0.00     0.000 A 
ENDBRANCH  73  86
ENDBRANCH  47  48
ENDBRANCH  39  42
ENDBRANCH  37  38
ENDBRANCH  36  37
ENDBRANCH  35  36
ENDBRANCH  34  35
ENDBRANCH  33  34
ENDBRANCH   1  33
TORSDOF 19
