REMARK SMILES Cc1ccccc1[C@@H]1[NH2+][C@@H](C(=O)NCCCCCCNC(=O)c2ccc(-c3c4nc(c(-c5ccccc5)c5ccc([nH]5)c(-c5ccccc5)c5nc(c(-c6ccccc6)c6ccc3[nH]6)C=C5)C=C4)cc2)CC2=c3ccccc3=N[C@H]21
REMARK SMILES IDX 17 1 16 2 15 3 14 4 13 5 11 6 12 7 10 9 8 10 9 11 80 12
REMARK SMILES IDX 72 15 79 16 71 17 73 18 78 19 74 20 77 21 75 22 76 23 7 24
REMARK SMILES IDX 1 25 2 26 3 27 4 28 6 29 5 30 18 31 19 32 20 33 21 34 22 36
REMARK SMILES IDX 23 37 24 38 70 39 25 40 69 41 26 42 27 43 28 44 63 45 29 46
REMARK SMILES IDX 68 47 62 48 64 49 30 50 67 51 61 52 60 53 31 55 53 56 38 57
REMARK SMILES IDX 52 58 39 59 42 60 51 61 65 62 40 63 41 64 50 66 66 67 43 68
REMARK SMILES IDX 32 69 33 70 37 71 34 72 36 73 35 74 54 75 55 76 59 77 56 78
REMARK SMILES IDX 58 79 57 80 44 81 45 82 49 83 46 84 48 85 47 86
REMARK H PARENT 13 8 9 13 9 14 20 35 64 54 42 65
REMARK Flexibility Score: inf
ROOT
ATOM      1  C   UNL     1      -5.966   7.914  -0.727  1.00  0.00     0.002 C 
ENDROOT
BRANCH   1   2
ATOM      2  C   UNL     1      -4.455   7.867  -1.022  1.00  0.00     0.002 C 
BRANCH   2   3
ATOM      3  C   UNL     1      -3.589   6.938  -0.157  1.00  0.00     0.021 C 
BRANCH   3   4
ATOM      4  C   UNL     1      -4.069   5.489  -0.043  1.00  0.00     0.116 C 
BRANCH   4   5
ATOM      5  N   UNL     1      -3.573   4.566  -1.046  1.00  0.00    -0.351 N 
ATOM      6  C   UNL     1      -2.458   3.772  -1.065  1.00  0.00     0.278 C 
ATOM      7  O   UNL     1      -2.554   2.722  -1.714  1.00  0.00    -0.268 OA
ATOM      8  H   UNL     1      -4.135   4.498  -1.851  1.00  0.00     0.163 HD
BRANCH   6   9
ATOM      9  C   UNL     1      -1.075   4.228  -0.506  1.00  0.00     0.277 C 
ATOM     10  C   UNL     1       0.640   2.472   0.305  1.00  0.00     0.243 C 
ATOM     11  N   UNL     1      -0.042   3.186  -0.808  1.00  0.00    -0.327 N 
ATOM     12  C   UNL     1       0.584   3.096   1.736  1.00  0.00     0.196 C 
ATOM     13  H   UNL     1      -0.499   2.474  -1.379  1.00  0.00     0.347 HD
ATOM     14  H   UNL     1       0.711   3.720  -1.242  1.00  0.00     0.347 HD
ATOM     15  C   UNL     1      -0.738   3.765   1.907  1.00  0.00    -0.024 C 
ATOM     16  N   UNL     1       0.630   2.068   2.820  1.00  0.00    -0.270 NA
ATOM     17  C   UNL     1      -1.020   4.813   0.905  1.00  0.00     0.109 C 
ATOM     18  C   UNL     1      -1.447   3.222   2.887  1.00  0.00     0.002 A 
ATOM     19  C   UNL     1      -0.509   2.220   3.423  1.00  0.00     0.066 A 
ATOM     20  C   UNL     1      -2.770   3.365   3.396  1.00  0.00     0.010 A 
ATOM     21  C   UNL     1      -0.965   1.475   4.617  1.00  0.00     0.028 A 
ATOM     22  C   UNL     1      -3.142   2.601   4.436  1.00  0.00     0.001 A 
ATOM     23  C   UNL     1      -2.212   1.682   5.072  1.00  0.00     0.002 A 
BRANCH  10  24
ATOM     24  C   UNL     1       2.107   2.201  -0.066  1.00  0.00     0.015 A 
ATOM     25  C   UNL     1       2.723   4.690  -0.368  1.00  0.00     0.045 C 
ATOM     26  C   UNL     1       3.054   3.222  -0.335  1.00  0.00    -0.042 A 
ATOM     27  C   UNL     1       4.407   2.876  -0.517  1.00  0.00     0.004 A 
ATOM     28  C   UNL     1       4.824   1.548  -0.489  1.00  0.00     0.000 A 
ATOM     29  C   UNL     1       2.552   0.862  -0.067  1.00  0.00     0.010 A 
ATOM     30  C   UNL     1       3.894   0.539  -0.281  1.00  0.00     0.001 A 
ENDBRANCH  10  24
ENDBRANCH   6   9
ENDBRANCH   4   5
ENDBRANCH   3   4
ENDBRANCH   2   3
ENDBRANCH   1   2
BRANCH   1  31
ATOM     31  C   UNL     1      -6.383   8.044   0.740  1.00  0.00     0.021 C 
BRANCH  31  32
ATOM     32  C   UNL     1      -6.085   9.397   1.375  1.00  0.00     0.116 C 
BRANCH  32  33
ATOM     33  N   UNL     1      -7.189  10.348   1.317  1.00  0.00    -0.352 N 
ATOM     34  C   UNL     1      -7.262  11.662   1.757  1.00  0.00     0.251 C 
ATOM     35  H   UNL     1      -8.012  10.003   0.901  1.00  0.00     0.163 HD
ATOM     36  O   UNL     1      -8.315  12.270   1.674  1.00  0.00    -0.269 OA
BRANCH  34  37
ATOM     37  C   UNL     1      -6.028  12.376   2.183  1.00  0.00     0.039 A 
ATOM     38  C   UNL     1      -5.856  13.693   1.734  1.00  0.00     0.014 A 
ATOM     39  C   UNL     1      -4.973  11.712   2.796  1.00  0.00     0.014 A 
ATOM     40  C   UNL     1      -4.571  14.220   1.636  1.00  0.00     0.010 A 
ATOM     41  C   UNL     1      -3.692  12.181   2.601  1.00  0.00     0.010 A 
ATOM     42  C   UNL     1      -3.491  13.399   1.948  1.00  0.00    -0.014 A 
BRANCH  42  43
ATOM     43  C   UNL     1      -2.131  13.650   1.498  1.00  0.00     0.031 A 
ATOM     44  C   UNL     1      -1.083  14.051   2.448  1.00  0.00     0.074 A 
ATOM     45  C   UNL     1      -1.805  13.389   0.213  1.00  0.00     0.049 A 
ATOM     46  N   UNL     1       0.018  14.626   2.102  1.00  0.00    -0.248 NA
ATOM     47  C   UNL     1      -1.214  13.875   3.888  1.00  0.00     0.031 C 
ATOM     48  C   UNL     1      -0.472  13.248  -0.364  1.00  0.00     0.029 A 
ATOM     49  N   UNL     1      -2.652  13.402  -0.888  1.00  0.00    -0.354 N 
ATOM     50  C   UNL     1       0.853  14.603   3.191  1.00  0.00     0.074 A 
ATOM     51  C   UNL     1       0.009  14.221   4.301  1.00  0.00     0.031 C 
ATOM     52  C   UNL     1      -0.554  13.418  -1.694  1.00  0.00     0.029 A 
ATOM     53  C   UNL     1      -1.911  13.837  -1.999  1.00  0.00     0.049 A 
ATOM     54  H   UNL     1      -3.604  13.151  -0.890  1.00  0.00     0.167 HD
ATOM     55  C   UNL     1       2.192  14.774   3.005  1.00  0.00     0.031 A 
ATOM     56  C   UNL     1      -2.244  15.009  -2.621  1.00  0.00     0.031 A 
ATOM     57  C   UNL     1       2.523  15.082   1.610  1.00  0.00     0.049 A 
ATOM     58  C   UNL     1      -1.200  16.105  -2.495  1.00  0.00     0.074 A 
ATOM     59  C   UNL     1       3.111  14.380   0.570  1.00  0.00     0.029 A 
ATOM     60  N   UNL     1       1.970  16.215   1.035  1.00  0.00    -0.354 N 
ATOM     61  N   UNL     1      -0.079  15.989  -1.836  1.00  0.00    -0.248 NA
ATOM     62  C   UNL     1      -1.385  17.458  -3.025  1.00  0.00     0.031 C 
ATOM     63  C   UNL     1       2.909  15.116  -0.635  1.00  0.00     0.029 A 
ATOM     64  C   UNL     1       2.213  16.267  -0.322  1.00  0.00     0.049 A 
ATOM     65  H   UNL     1       1.467  16.899   1.534  1.00  0.00     0.167 HD
ATOM     66  C   UNL     1       0.555  17.201  -1.788  1.00  0.00     0.074 A 
ATOM     67  C   UNL     1      -0.294  18.090  -2.559  1.00  0.00     0.031 C 
ATOM     68  C   UNL     1       1.703  17.400  -1.077  1.00  0.00     0.031 A 
BRANCH  55  69
ATOM     69  C   UNL     1       3.228  14.430   4.048  1.00  0.00    -0.014 A 
ATOM     70  C   UNL     1       4.540  14.117   3.648  1.00  0.00     0.009 A 
ATOM     71  C   UNL     1       2.977  14.354   5.428  1.00  0.00     0.009 A 
ATOM     72  C   UNL     1       5.507  13.660   4.554  1.00  0.00     0.001 A 
ATOM     73  C   UNL     1       3.924  13.862   6.337  1.00  0.00     0.001 A 
ATOM     74  C   UNL     1       5.189  13.503   5.897  1.00  0.00     0.000 A 
ENDBRANCH  55  69
BRANCH  56  75
ATOM     75  C   UNL     1      -3.719  15.232  -2.664  1.00  0.00    -0.014 A 
ATOM     76  C   UNL     1      -4.495  14.361  -3.455  1.00  0.00     0.009 A 
ATOM     77  C   UNL     1      -4.361  15.986  -1.672  1.00  0.00     0.009 A 
ATOM     78  C   UNL     1      -5.849  14.154  -3.175  1.00  0.00     0.001 A 
ATOM     79  C   UNL     1      -5.721  15.784  -1.404  1.00  0.00     0.001 A 
ATOM     80  C   UNL     1      -6.453  14.842  -2.127  1.00  0.00     0.000 A 
ENDBRANCH  56  75
BRANCH  68  81
ATOM     81  C   UNL     1       2.436  18.712  -0.999  1.00  0.00    -0.014 A 
ATOM     82  C   UNL     1       2.614  19.549  -2.107  1.00  0.00     0.009 A 
ATOM     83  C   UNL     1       3.094  19.081   0.194  1.00  0.00     0.009 A 
ATOM     84  C   UNL     1       3.369  20.726  -2.011  1.00  0.00     0.001 A 
ATOM     85  C   UNL     1       3.866  20.240   0.289  1.00  0.00     0.001 A 
ATOM     86  C   UNL     1       3.995  21.070  -0.815  1.00  0.00     0.000 A 
ENDBRANCH  68  81
ENDBRANCH  42  43
ENDBRANCH  34  37
ENDBRANCH  32  33
ENDBRANCH  31  32
ENDBRANCH   1  31
TORSDOF 14
