REMARK SMILES Cc1occc1C(=O)NN1C(=O)/C(=C\c2ccc(O[C@H](C)C(=O)NCCCCCCNC(=O)c3ccc(-c4c5nc(c(-c6ccccc6)c6ccc([nH]6)c(-c6ccccc6)c6nc(c(-c7ccccc7)c7ccc4[nH]7)C=C6)C=C5)cc3)cc2)SC1=S
REMARK SMILES IDX 26 1 25 2 24 3 22 4 23 5 20 7 21 8 19 9 18 10 15 11 16 12
REMARK SMILES IDX 83 13 17 14 82 15 14 16 10 17 11 18 85 19 12 20 13 21 84 22
REMARK SMILES IDX 86 23 9 24 7 25 8 26 6 28 1 29 2 30 3 31 4 32 5 33 27 34
REMARK SMILES IDX 28 35 29 36 30 37 31 38 32 39 33 41 34 42 35 43 81 44 36 45
REMARK SMILES IDX 80 46 37 47 38 48 39 49 74 50 40 51 79 52 73 53 75 54 41 55
REMARK SMILES IDX 78 56 72 57 71 58 42 60 64 61 49 62 63 63 50 64 53 65 62 66
REMARK SMILES IDX 76 67 51 68 52 69 61 71 77 72 54 73 43 74 44 75 48 76 45 77
REMARK SMILES IDX 47 78 46 79 65 80 66 81 70 82 67 83 69 84 68 85 55 86 56 87
REMARK SMILES IDX 60 88 57 89 59 90 58 91
REMARK H PARENT 24 6 9 27 31 40 75 59 53 70
REMARK Flexibility Score: inf
ROOT
ATOM      1  C   UNL     1       5.918  -1.260  -5.042  1.00  0.00     0.021 C 
ENDROOT
BRANCH   1   2
ATOM      2  C   UNL     1       5.038  -2.349  -5.645  1.00  0.00     0.116 C 
BRANCH   2   3
ATOM      3  N   UNL     1       5.487  -2.807  -6.936  1.00  0.00    -0.353 N 
ATOM      4  C   UNL     1       5.877  -4.048  -7.342  1.00  0.00     0.260 C 
ATOM      5  O   UNL     1       6.071  -4.188  -8.556  1.00  0.00    -0.271 OA
ATOM      6  H   UNL     1       5.517  -2.114  -7.635  1.00  0.00     0.163 HD
BRANCH   4   7
ATOM      7  C   UNL     1       6.196  -5.218  -6.364  1.00  0.00     0.258 C 
ATOM      8  C   UNL     1       7.613  -5.051  -5.822  1.00  0.00     0.064 C 
BRANCH   7   9
ATOM      9  O   UNL     1       5.187  -5.746  -5.508  1.00  0.00    -0.481 OA
BRANCH   9  10
ATOM     10  C   UNL     1       4.934  -5.355  -4.233  1.00  0.00     0.120 A 
ATOM     11  C   UNL     1       4.106  -4.476  -1.685  1.00  0.00    -0.024 A 
ATOM     12  C   UNL     1       5.454  -4.455  -2.047  1.00  0.00     0.012 A 
ATOM     13  C   UNL     1       3.165  -4.958  -2.596  1.00  0.00     0.012 A 
ATOM     14  C   UNL     1       5.866  -4.916  -3.299  1.00  0.00     0.047 A 
ATOM     15  C   UNL     1       3.584  -5.403  -3.858  1.00  0.00     0.047 A 
BRANCH  11  16
ATOM     16  C   UNL     1       3.785  -4.074  -0.315  1.00  0.00     0.029 C 
ATOM     17  N   UNL     1       3.198  -6.958   1.817  1.00  0.00    -0.198 N 
ATOM     18  C   UNL     1       3.475  -6.427   0.568  1.00  0.00     0.285 C 
ATOM     19  C   UNL     1       3.323  -6.141   2.919  1.00  0.00     0.168 C 
ATOM     20  O   UNL     1       3.604  -7.080  -0.453  1.00  0.00    -0.266 OA
ATOM     21  C   UNL     1       3.601  -4.946   0.686  1.00  0.00     0.082 C 
ATOM     22  S   UNL     1       3.527  -4.479   2.353  1.00  0.00    -0.052 SA
ATOM     23  S   UNL     1       3.308  -6.568   4.528  1.00  0.00    -0.050 S 
BRANCH  17  24
ATOM     24  N   UNL     1       3.030  -8.335   1.880  1.00  0.00    -0.254 N 
ATOM     25  C   UNL     1       1.843  -9.021   1.985  1.00  0.00     0.273 C 
ATOM     26  O   UNL     1       1.882 -10.232   1.756  1.00  0.00    -0.267 OA
ATOM     27  H   UNL     1       3.850  -8.878   1.846  1.00  0.00     0.192 HD
BRANCH  25  28
ATOM     28  C   UNL     1       0.610  -8.414   2.476  1.00  0.00     0.082 A 
ATOM     29  C   UNL     1       0.210  -5.996   1.417  1.00  0.00     0.088 C 
ATOM     30  C   UNL     1      -0.014  -7.193   2.250  1.00  0.00     0.113 A 
ATOM     31  O   UNL     1      -1.177  -7.118   2.966  1.00  0.00    -0.469 OA
ATOM     32  C   UNL     1      -1.353  -8.299   3.596  1.00  0.00     0.196 A 
ATOM     33  C   UNL     1      -0.308  -9.136   3.314  1.00  0.00     0.056 A 
ENDBRANCH  25  28
ENDBRANCH  17  24
ENDBRANCH  11  16
ENDBRANCH   9  10
ENDBRANCH   7   9
ENDBRANCH   4   7
ENDBRANCH   2   3
ENDBRANCH   1   2
BRANCH   1  34
ATOM     34  C   UNL     1       5.556   0.158  -5.487  1.00  0.00     0.002 C 
BRANCH  34  35
ATOM     35  C   UNL     1       4.112   0.591  -5.198  1.00  0.00     0.002 C 
BRANCH  35  36
ATOM     36  C   UNL     1       3.643   0.427  -3.748  1.00  0.00     0.021 C 
BRANCH  36  37
ATOM     37  C   UNL     1       4.454   1.205  -2.715  1.00  0.00     0.116 C 
BRANCH  37  38
ATOM     38  N   UNL     1       4.421   2.638  -2.960  1.00  0.00    -0.352 N 
ATOM     39  C   UNL     1       4.029   3.664  -2.139  1.00  0.00     0.251 C 
ATOM     40  H   UNL     1       4.727   2.914  -3.854  1.00  0.00     0.163 HD
ATOM     41  O   UNL     1       3.882   4.793  -2.598  1.00  0.00    -0.269 OA
BRANCH  39  42
ATOM     42  C   UNL     1       3.774   3.420  -0.704  1.00  0.00     0.039 A 
ATOM     43  C   UNL     1       2.655   4.012  -0.109  1.00  0.00     0.014 A 
ATOM     44  C   UNL     1       4.652   2.652   0.066  1.00  0.00     0.014 A 
ATOM     45  C   UNL     1       2.389   3.791   1.244  1.00  0.00     0.010 A 
ATOM     46  C   UNL     1       4.355   2.385   1.400  1.00  0.00     0.010 A 
ATOM     47  C   UNL     1       3.222   2.954   2.003  1.00  0.00    -0.014 A 
BRANCH  47  48
ATOM     48  C   UNL     1       2.928   2.666   3.429  1.00  0.00     0.031 A 
ATOM     49  C   UNL     1       3.862   3.145   4.506  1.00  0.00     0.074 A 
ATOM     50  C   UNL     1       1.851   1.923   3.750  1.00  0.00     0.049 A 
ATOM     51  N   UNL     1       3.815   2.926   5.796  1.00  0.00    -0.248 NA
ATOM     52  C   UNL     1       5.010   3.961   4.076  1.00  0.00     0.031 C 
ATOM     53  C   UNL     1       0.883   1.373   2.797  1.00  0.00     0.029 A 
ATOM     54  N   UNL     1       1.395   1.493   4.971  1.00  0.00    -0.354 N 
ATOM     55  C   UNL     1       4.929   3.563   6.328  1.00  0.00     0.074 A 
ATOM     56  C   UNL     1       5.657   4.140   5.219  1.00  0.00     0.031 C 
ATOM     57  C   UNL     1      -0.059   0.694   3.471  1.00  0.00     0.029 A 
ATOM     58  C   UNL     1       0.256   0.729   4.896  1.00  0.00     0.049 A 
ATOM     59  H   UNL     1       1.842   1.712   5.820  1.00  0.00     0.167 HD
ATOM     60  C   UNL     1       5.302   3.676   7.625  1.00  0.00     0.031 A 
ATOM     61  C   UNL     1      -0.451   0.119   5.865  1.00  0.00     0.031 A 
ATOM     62  C   UNL     1       4.574   3.116   8.731  1.00  0.00     0.049 A 
ATOM     63  C   UNL     1      -0.007   0.251   7.295  1.00  0.00     0.074 A 
ATOM     64  C   UNL     1       4.856   3.206  10.084  1.00  0.00     0.029 A 
ATOM     65  N   UNL     1       3.415   2.365   8.613  1.00  0.00    -0.354 N 
ATOM     66  N   UNL     1       1.023   0.899   7.783  1.00  0.00    -0.248 NA
ATOM     67  C   UNL     1      -0.832  -0.423   8.308  1.00  0.00     0.031 C 
ATOM     68  C   UNL     1       3.886   2.479  10.782  1.00  0.00     0.029 A 
ATOM     69  C   UNL     1       2.976   1.976   9.866  1.00  0.00     0.049 A 
ATOM     70  H   UNL     1       2.970   2.142   7.763  1.00  0.00     0.167 HD
ATOM     71  C   UNL     1       0.953   0.733   9.160  1.00  0.00     0.074 A 
ATOM     72  C   UNL     1      -0.228  -0.059   9.431  1.00  0.00     0.031 C 
ATOM     73  C   UNL     1       1.794   1.195  10.117  1.00  0.00     0.031 A 
BRANCH  60  74
ATOM     74  C   UNL     1       6.560   4.444   7.921  1.00  0.00    -0.014 A 
ATOM     75  C   UNL     1       6.597   5.842   7.800  1.00  0.00     0.009 A 
ATOM     76  C   UNL     1       7.703   3.769   8.377  1.00  0.00     0.009 A 
ATOM     77  C   UNL     1       7.764   6.547   8.104  1.00  0.00     0.001 A 
ATOM     78  C   UNL     1       8.860   4.479   8.705  1.00  0.00     0.001 A 
ATOM     79  C   UNL     1       8.891   5.866   8.561  1.00  0.00     0.000 A 
ENDBRANCH  60  74
BRANCH  61  80
ATOM     80  C   UNL     1      -1.661  -0.674   5.523  1.00  0.00    -0.014 A 
ATOM     81  C   UNL     1      -2.938  -0.208   5.871  1.00  0.00     0.009 A 
ATOM     82  C   UNL     1      -1.542  -1.913   4.874  1.00  0.00     0.009 A 
ATOM     83  C   UNL     1      -4.069  -0.984   5.607  1.00  0.00     0.001 A 
ATOM     84  C   UNL     1      -2.678  -2.673   4.586  1.00  0.00     0.001 A 
ATOM     85  C   UNL     1      -3.939  -2.213   4.962  1.00  0.00     0.000 A 
ENDBRANCH  61  80
BRANCH  73  86
ATOM     86  C   UNL     1       1.443   0.889  11.545  1.00  0.00    -0.014 A 
ATOM     87  C   UNL     1       1.604  -0.400  12.073  1.00  0.00     0.009 A 
ATOM     88  C   UNL     1       0.980   1.917  12.380  1.00  0.00     0.009 A 
ATOM     89  C   UNL     1       1.277  -0.661  13.405  1.00  0.00     0.001 A 
ATOM     90  C   UNL     1       0.679   1.659  13.718  1.00  0.00     0.001 A 
ATOM     91  C   UNL     1       0.819   0.369  14.227  1.00  0.00     0.000 A 
ENDBRANCH  73  86
ENDBRANCH  47  48
ENDBRANCH  39  42
ENDBRANCH  37  38
ENDBRANCH  36  37
ENDBRANCH  35  36
ENDBRANCH  34  35
ENDBRANCH   1  34
TORSDOF 18
