REMARK SMILES O=C(NCCCCCCNC(=O)[C@H](c1c[nH]c2ccc(Cl)cc12)[NH+]1CCN(c2cccc(Cl)c2)CC1)c1ccc(-c2c3nc(c(-c4ccccc4)c4ccc([nH]4)c(-c4ccccc4)c4nc(c(-c5ccccc5)c5ccc2[nH]5)C=C4)C=C3)cc1
REMARK SMILES IDX 6 1 5 2 4 3 3 4 1 5 2 6 37 8 38 9 84 10 39 11 83 12 40 13
REMARK SMILES IDX 41 14 42 15 77 16 43 17 82 18 76 19 78 20 44 21 81 22 75 23
REMARK SMILES IDX 74 24 45 26 67 27 52 28 66 29 53 30 56 31 65 32 79 33 54 34
REMARK SMILES IDX 55 35 64 37 80 38 57 39 46 40 47 41 51 42 48 43 50 44 49 45
REMARK SMILES IDX 68 46 69 47 73 48 70 49 72 50 71 51 58 52 59 53 63 54 60 55
REMARK SMILES IDX 62 56 61 57 7 58 8 59 9 60 10 61 11 62 12 64 13 65 24 66
REMARK SMILES IDX 25 67 36 68 26 70 35 71 27 72 28 73 29 74 34 75 30 76 32 77
REMARK SMILES IDX 31 78 33 79 14 80 15 81 23 82 16 83 17 84 22 85 18 87 20 88
REMARK SMILES IDX 19 89 21 90
REMARK H PARENT 3 7 78 25 56 36 10 63 24 69 16 86
REMARK Flexibility Score: inf
ROOT
ATOM      1  C   UNL     1       6.675   7.776  -2.017  1.00  0.00     0.002 C 
ENDROOT
BRANCH   1   2
ATOM      2  C   UNL     1       5.782   8.738  -2.799  1.00  0.00     0.021 C 
BRANCH   2   3
ATOM      3  C   UNL     1       4.293   8.573  -2.554  1.00  0.00     0.116 C 
BRANCH   3   4
ATOM      4  N   UNL     1       3.893   8.982  -1.220  1.00  0.00    -0.352 N 
ATOM      5  O   UNL     1       2.733  10.191   0.297  1.00  0.00    -0.269 OA
ATOM      6  C   UNL     1       2.867   9.827  -0.860  1.00  0.00     0.251 C 
ATOM      7  H   UNL     1       4.421   8.607  -0.479  1.00  0.00     0.163 HD
BRANCH   6   8
ATOM      8  C   UNL     1       1.939  10.310  -1.907  1.00  0.00     0.039 A 
ATOM      9  C   UNL     1       1.398   9.418  -2.835  1.00  0.00     0.014 A 
ATOM     10  C   UNL     1       1.625  11.670  -1.971  1.00  0.00     0.014 A 
ATOM     11  C   UNL     1       0.659   9.903  -3.905  1.00  0.00     0.010 A 
ATOM     12  C   UNL     1       0.798  12.144  -2.995  1.00  0.00     0.010 A 
ATOM     13  C   UNL     1       0.326  11.267  -3.982  1.00  0.00    -0.014 A 
BRANCH  13  14
ATOM     14  C   UNL     1      -0.599  11.709  -5.055  1.00  0.00     0.031 A 
ATOM     15  C   UNL     1      -0.163  12.650  -6.141  1.00  0.00     0.074 A 
ATOM     16  C   UNL     1      -1.843  11.189  -5.066  1.00  0.00     0.049 A 
ATOM     17  N   UNL     1      -0.838  13.059  -7.187  1.00  0.00    -0.248 NA
ATOM     18  C   UNL     1       1.193  13.211  -6.044  1.00  0.00     0.031 C 
ATOM     19  C   UNL     1      -2.383  10.280  -4.050  1.00  0.00     0.029 A 
ATOM     20  N   UNL     1      -2.861  11.312  -5.975  1.00  0.00    -0.354 N 
ATOM     21  C   UNL     1       0.003  13.933  -7.865  1.00  0.00     0.074 A 
ATOM     22  C   UNL     1       1.229  14.014  -7.100  1.00  0.00     0.031 C 
ATOM     23  C   UNL     1      -3.602   9.871  -4.428  1.00  0.00     0.029 A 
ATOM     24  C   UNL     1      -3.956  10.539  -5.674  1.00  0.00     0.049 A 
ATOM     25  H   UNL     1      -2.812  11.896  -6.765  1.00  0.00     0.167 HD
ATOM     26  C   UNL     1      -0.228  14.602  -9.021  1.00  0.00     0.031 A 
ATOM     27  C   UNL     1      -5.125  10.387  -6.321  1.00  0.00     0.031 A 
ATOM     28  C   UNL     1      -1.453  14.524  -9.775  1.00  0.00     0.049 A 
ATOM     29  C   UNL     1      -5.349  11.142  -7.596  1.00  0.00     0.074 A 
ATOM     30  C   UNL     1      -1.780  15.164 -10.960  1.00  0.00     0.029 A 
ATOM     31  N   UNL     1      -2.553  13.759  -9.419  1.00  0.00    -0.354 N 
ATOM     32  N   UNL     1      -4.534  11.949  -8.229  1.00  0.00    -0.248 NA
ATOM     33  C   UNL     1      -6.655  10.964  -8.243  1.00  0.00     0.031 C 
ATOM     34  C   UNL     1      -3.092  14.815 -11.299  1.00  0.00     0.029 A 
ATOM     35  C   UNL     1      -3.564  13.920 -10.353  1.00  0.00     0.049 A 
ATOM     36  H   UNL     1      -2.608  13.186  -8.621  1.00  0.00     0.167 HD
ATOM     37  C   UNL     1      -5.228  12.379  -9.350  1.00  0.00     0.074 A 
ATOM     38  C   UNL     1      -6.513  11.709  -9.330  1.00  0.00     0.031 C 
ATOM     39  C   UNL     1      -4.842  13.259 -10.305  1.00  0.00     0.031 A 
BRANCH  26  40
ATOM     40  C   UNL     1       0.865  15.497  -9.538  1.00  0.00    -0.014 A 
ATOM     41  C   UNL     1       2.022  14.964 -10.127  1.00  0.00     0.009 A 
ATOM     42  C   UNL     1       0.707  16.892  -9.492  1.00  0.00     0.009 A 
ATOM     43  C   UNL     1       3.010  15.810 -10.638  1.00  0.00     0.001 A 
ATOM     44  C   UNL     1       1.686  17.734 -10.025  1.00  0.00     0.001 A 
ATOM     45  C   UNL     1       2.838  17.193 -10.592  1.00  0.00     0.000 A 
ENDBRANCH  26  40
BRANCH  27  46
ATOM     46  C   UNL     1      -6.171   9.498  -5.756  1.00  0.00    -0.014 A 
ATOM     47  C   UNL     1      -6.509   8.293  -6.389  1.00  0.00     0.009 A 
ATOM     48  C   UNL     1      -6.828   9.849  -4.566  1.00  0.00     0.009 A 
ATOM     49  C   UNL     1      -7.500   7.468  -5.852  1.00  0.00     0.001 A 
ATOM     50  C   UNL     1      -7.794   9.007  -4.014  1.00  0.00     0.001 A 
ATOM     51  C   UNL     1      -8.136   7.822  -4.662  1.00  0.00     0.000 A 
ENDBRANCH  27  46
BRANCH  39  52
ATOM     52  C   UNL     1      -5.829  13.533 -11.402  1.00  0.00    -0.014 A 
ATOM     53  C   UNL     1      -6.982  14.298 -11.163  1.00  0.00     0.009 A 
ATOM     54  C   UNL     1      -5.607  13.016 -12.687  1.00  0.00     0.009 A 
ATOM     55  C   UNL     1      -7.915  14.503 -12.180  1.00  0.00     0.001 A 
ATOM     56  C   UNL     1      -6.528  13.246 -13.709  1.00  0.00     0.001 A 
ATOM     57  C   UNL     1      -7.686  13.979 -13.452  1.00  0.00     0.000 A 
ENDBRANCH  39  52
ENDBRANCH  13  14
ENDBRANCH   6   8
ENDBRANCH   3   4
ENDBRANCH   2   3
ENDBRANCH   1   2
BRANCH   1  58
ATOM     58  C   UNL     1       6.360   6.284  -2.180  1.00  0.00     0.002 C 
BRANCH  58  59
ATOM     59  C   UNL     1       6.147   5.794  -3.616  1.00  0.00     0.021 C 
BRANCH  59  60
ATOM     60  C   UNL     1       7.263   6.163  -4.579  1.00  0.00     0.116 C 
BRANCH  60  61
ATOM     61  N   UNL     1       8.484   5.432  -4.321  1.00  0.00    -0.351 N 
ATOM     62  C   UNL     1       9.314   4.989  -5.310  1.00  0.00     0.283 C 
ATOM     63  H   UNL     1       8.728   5.245  -3.386  1.00  0.00     0.163 HD
ATOM     64  O   UNL     1      10.465   5.449  -5.266  1.00  0.00    -0.268 OA
BRANCH  62  65
ATOM     65  C   UNL     1       8.898   3.932  -6.382  1.00  0.00     0.307 C 
BRANCH  65  66
ATOM     66  N   UNL     1       9.627   2.627  -6.312  1.00  0.00    -0.318 N 
ATOM     67  C   UNL     1      11.061   2.747  -5.930  1.00  0.00     0.284 C 
ATOM     68  C   UNL     1       9.060   1.473  -5.597  1.00  0.00     0.284 C 
ATOM     69  H   UNL     1       9.499   2.389  -7.296  1.00  0.00     0.349 HD
ATOM     70  C   UNL     1      11.365   2.717  -4.402  1.00  0.00     0.178 C 
ATOM     71  C   UNL     1       9.257   1.456  -4.065  1.00  0.00     0.178 C 
ATOM     72  N   UNL     1      10.688   1.576  -3.772  1.00  0.00    -0.360 N 
BRANCH  72  73
ATOM     73  C   UNL     1      11.151   1.184  -2.527  1.00  0.00     0.038 A 
ATOM     74  C   UNL     1      11.788  -0.059  -2.412  1.00  0.00     0.026 A 
ATOM     75  C   UNL     1      11.072   2.002  -1.396  1.00  0.00     0.046 A 
ATOM     76  C   UNL     1      12.368  -0.466  -1.209  1.00  0.00     0.004 A 
ATOM     77  C   UNL     1      11.650   1.593  -0.192  1.00  0.00     0.043 A 
ATOM     78  C   UNL     1      12.306   0.367  -0.096  1.00  0.00     0.020 A 
ATOM     79  Cl  UNL     1      11.574   2.625   1.185  1.00  0.00    -0.084 Cl
ENDBRANCH  72  73
ENDBRANCH  65  66
BRANCH  65  80
ATOM     80  C   UNL     1       7.405   3.828  -6.667  1.00  0.00     0.044 A 
ATOM     81  C   UNL     1       6.417   3.147  -5.971  1.00  0.00     0.094 A 
ATOM     82  C   UNL     1       6.699   4.609  -7.663  1.00  0.00     0.011 A 
ATOM     83  N   UNL     1       5.198   3.417  -6.533  1.00  0.00    -0.361 N 
ATOM     84  C   UNL     1       5.331   4.377  -7.504  1.00  0.00     0.046 A 
ATOM     85  C   UNL     1       7.101   5.578  -8.610  1.00  0.00     0.031 A 
ATOM     86  H   UNL     1       4.351   2.986  -6.277  1.00  0.00     0.166 HD
ATOM     87  C   UNL     1       4.347   5.066  -8.222  1.00  0.00     0.028 A 
ATOM     88  C   UNL     1       6.127   6.289  -9.319  1.00  0.00     0.041 A 
ATOM     89  C   UNL     1       4.771   6.043  -9.126  1.00  0.00     0.022 A 
ATOM     90  Cl  UNL     1       6.615   7.522 -10.418  1.00  0.00    -0.084 Cl
ENDBRANCH  65  80
ENDBRANCH  62  65
ENDBRANCH  60  61
ENDBRANCH  59  60
ENDBRANCH  58  59
ENDBRANCH   1  58
TORSDOF 16
