REMARK SMILES O=C(NCCCCCCNC(=O)c1ccc(SC[C@H]2COc3ccccc32)o1)c1ccc(-c2c3nc(c(-c4ccccc4)c4ccc([nH]4)c(-c4ccccc4)c4nc(c(-c5ccccc5)c5ccc2[nH]5)C=C4)C=C3)cc1
REMARK SMILES IDX 7 1 6 2 5 3 4 4 3 5 1 6 2 7 29 9 30 10 76 11 31 12 75 13
REMARK SMILES IDX 32 14 33 15 34 16 69 17 35 18 74 19 68 20 70 21 36 22 73 23
REMARK SMILES IDX 67 24 66 25 37 27 59 28 44 29 58 30 45 31 48 32 57 33 71 34
REMARK SMILES IDX 46 35 47 36 56 38 72 39 49 40 38 41 39 42 43 43 40 44 42 45
REMARK SMILES IDX 41 46 60 47 61 48 65 49 62 50 64 51 63 52 50 53 51 54 55 55
REMARK SMILES IDX 52 56 54 57 53 58 8 59 9 60 10 61 11 62 12 64 13 65 14 66
REMARK SMILES IDX 28 67 15 68 16 69 17 70 18 71 19 72 20 73 27 74 21 75 22 76
REMARK SMILES IDX 26 77 23 78 25 79 24 80
REMARK H PARENT 3 8 70 26 48 37 10 63
REMARK Flexibility Score: inf
ROOT
ATOM      1  C   UNL     1       4.970  -3.919   1.947  1.00  0.00     0.002 C 
ENDROOT
BRANCH   1   2
ATOM      2  C   UNL     1       4.350  -2.782   2.765  1.00  0.00     0.002 C 
BRANCH   2   3
ATOM      3  C   UNL     1       4.789  -1.371   2.366  1.00  0.00     0.021 C 
BRANCH   3   4
ATOM      4  C   UNL     1       4.562  -1.009   0.901  1.00  0.00     0.116 C 
BRANCH   4   5
ATOM      5  N   UNL     1       3.155  -1.009   0.538  1.00  0.00    -0.352 N 
ATOM      6  O   UNL     1       1.188  -0.149  -0.151  1.00  0.00    -0.269 OA
ATOM      7  C   UNL     1       2.406  -0.027  -0.061  1.00  0.00     0.251 C 
ATOM      8  H   UNL     1       2.666  -1.836   0.754  1.00  0.00     0.163 HD
BRANCH   7   9
ATOM      9  C   UNL     1       3.058   1.195  -0.581  1.00  0.00     0.039 A 
ATOM     10  C   UNL     1       4.218   1.122  -1.358  1.00  0.00     0.014 A 
ATOM     11  C   UNL     1       2.474   2.435  -0.307  1.00  0.00     0.014 A 
ATOM     12  C   UNL     1       4.855   2.292  -1.766  1.00  0.00     0.010 A 
ATOM     13  C   UNL     1       3.082   3.606  -0.767  1.00  0.00     0.010 A 
ATOM     14  C   UNL     1       4.291   3.544  -1.476  1.00  0.00    -0.014 A 
BRANCH  14  15
ATOM     15  C   UNL     1       4.951   4.786  -1.948  1.00  0.00     0.031 A 
ATOM     16  C   UNL     1       5.557   5.754  -0.972  1.00  0.00     0.074 A 
ATOM     17  C   UNL     1       4.994   5.046  -3.268  1.00  0.00     0.049 A 
ATOM     18  N   UNL     1       6.139   6.904  -1.205  1.00  0.00    -0.248 NA
ATOM     19  C   UNL     1       5.497   5.388   0.452  1.00  0.00     0.031 C 
ATOM     20  C   UNL     1       4.442   4.187  -4.316  1.00  0.00     0.029 A 
ATOM     21  N   UNL     1       5.527   6.109  -3.951  1.00  0.00    -0.354 N 
ATOM     22  C   UNL     1       6.494   7.408   0.039  1.00  0.00     0.074 A 
ATOM     23  C   UNL     1       6.047   6.449   1.027  1.00  0.00     0.031 C 
ATOM     24  C   UNL     1       4.683   4.746  -5.512  1.00  0.00     0.029 A 
ATOM     25  C   UNL     1       5.361   6.022  -5.311  1.00  0.00     0.049 A 
ATOM     26  H   UNL     1       5.983   6.862  -3.510  1.00  0.00     0.167 HD
ATOM     27  C   UNL     1       7.135   8.565   0.333  1.00  0.00     0.031 A 
ATOM     28  C   UNL     1       5.697   6.882  -6.290  1.00  0.00     0.031 A 
ATOM     29  C   UNL     1       7.581   9.521  -0.647  1.00  0.00     0.049 A 
ATOM     30  C   UNL     1       6.380   8.170  -5.938  1.00  0.00     0.074 A 
ATOM     31  C   UNL     1       8.268  10.706  -0.446  1.00  0.00     0.029 A 
ATOM     32  N   UNL     1       7.378   9.403  -2.013  1.00  0.00    -0.354 N 
ATOM     33  N   UNL     1       6.734   8.619  -4.758  1.00  0.00    -0.248 NA
ATOM     34  C   UNL     1       6.709   9.070  -7.052  1.00  0.00     0.031 C 
ATOM     35  C   UNL     1       8.446  11.325  -1.689  1.00  0.00     0.029 A 
ATOM     36  C   UNL     1       7.908  10.503  -2.666  1.00  0.00     0.049 A 
ATOM     37  H   UNL     1       6.924   8.648  -2.454  1.00  0.00     0.167 HD
ATOM     38  C   UNL     1       7.343   9.844  -4.988  1.00  0.00     0.074 A 
ATOM     39  C   UNL     1       7.321  10.063  -6.420  1.00  0.00     0.031 C 
ATOM     40  C   UNL     1       7.875  10.709  -4.090  1.00  0.00     0.031 A 
BRANCH  27  41
ATOM     41  C   UNL     1       7.366   8.875   1.784  1.00  0.00    -0.014 A 
ATOM     42  C   UNL     1       8.341   8.194   2.529  1.00  0.00     0.009 A 
ATOM     43  C   UNL     1       6.618   9.886   2.407  1.00  0.00     0.009 A 
ATOM     44  C   UNL     1       8.538   8.496   3.879  1.00  0.00     0.001 A 
ATOM     45  C   UNL     1       6.832  10.202   3.750  1.00  0.00     0.001 A 
ATOM     46  C   UNL     1       7.786   9.500   4.487  1.00  0.00     0.000 A 
ENDBRANCH  27  41
BRANCH  28  47
ATOM     47  C   UNL     1       5.380   6.543  -7.699  1.00  0.00    -0.014 A 
ATOM     48  C   UNL     1       6.394   6.147  -8.582  1.00  0.00     0.009 A 
ATOM     49  C   UNL     1       4.053   6.579  -8.155  1.00  0.00     0.009 A 
ATOM     50  C   UNL     1       6.086   5.803  -9.900  1.00  0.00     0.001 A 
ATOM     51  C   UNL     1       3.745   6.212  -9.466  1.00  0.00     0.001 A 
ATOM     52  C   UNL     1       4.763   5.829 -10.338  1.00  0.00     0.000 A 
ENDBRANCH  28  47
BRANCH  40  53
ATOM     53  C   UNL     1       8.503  11.958  -4.636  1.00  0.00    -0.014 A 
ATOM     54  C   UNL     1       7.717  13.027  -5.089  1.00  0.00     0.009 A 
ATOM     55  C   UNL     1       9.901  12.078  -4.660  1.00  0.00     0.009 A 
ATOM     56  C   UNL     1       8.321  14.186  -5.580  1.00  0.00     0.001 A 
ATOM     57  C   UNL     1      10.502  13.246  -5.131  1.00  0.00     0.001 A 
ATOM     58  C   UNL     1       9.711  14.296  -5.598  1.00  0.00     0.000 A 
ENDBRANCH  40  53
ENDBRANCH  14  15
ENDBRANCH   7   9
ENDBRANCH   4   5
ENDBRANCH   3   4
ENDBRANCH   2   3
ENDBRANCH   1   2
BRANCH   1  59
ATOM     59  C   UNL     1       6.504  -3.959   1.926  1.00  0.00     0.021 C 
BRANCH  59  60
ATOM     60  C   UNL     1       7.166  -4.113   3.297  1.00  0.00     0.116 C 
BRANCH  60  61
ATOM     61  N   UNL     1       6.824  -5.384   3.910  1.00  0.00    -0.349 N 
ATOM     62  C   UNL     1       7.665  -6.358   4.392  1.00  0.00     0.287 C 
ATOM     63  H   UNL     1       5.861  -5.573   3.990  1.00  0.00     0.163 HD
ATOM     64  O   UNL     1       7.177  -7.454   4.673  1.00  0.00    -0.266 OA
BRANCH  62  65
ATOM     65  C   UNL     1       9.057  -6.033   4.570  1.00  0.00     0.192 A 
ATOM     66  C   UNL     1       9.682  -5.084   5.353  1.00  0.00     0.057 A 
ATOM     67  O   UNL     1       9.993  -6.748   3.882  1.00  0.00    -0.445 OA
ATOM     68  C   UNL     1      11.071  -5.238   5.132  1.00  0.00     0.058 A 
ATOM     69  C   UNL     1      11.224  -6.242   4.194  1.00  0.00     0.161 A 
BRANCH  69  70
ATOM     70  S   UNL     1      12.658  -6.852   3.401  1.00  0.00    -0.088 SA
BRANCH  70  71
ATOM     71  C   UNL     1      13.814  -5.456   3.534  1.00  0.00     0.090 C 
BRANCH  71  72
ATOM     72  C   UNL     1      13.697  -4.357   2.461  1.00  0.00     0.071 C 
ATOM     73  C   UNL     1      12.300  -3.792   2.161  1.00  0.00     0.239 C 
ATOM     74  C   UNL     1      14.284  -3.093   3.003  1.00  0.00     0.001 A 
ATOM     75  O   UNL     1      12.004  -2.759   3.132  1.00  0.00    -0.493 OA
ATOM     76  C   UNL     1      13.250  -2.261   3.418  1.00  0.00     0.122 A 
ATOM     77  C   UNL     1      15.605  -2.738   3.210  1.00  0.00     0.008 A 
ATOM     78  C   UNL     1      13.482  -1.074   4.078  1.00  0.00     0.047 A 
ATOM     79  C   UNL     1      15.864  -1.525   3.856  1.00  0.00     0.001 A 
ATOM     80  C   UNL     1      14.810  -0.703   4.295  1.00  0.00     0.004 A 
ENDBRANCH  71  72
ENDBRANCH  70  71
ENDBRANCH  69  70
ENDBRANCH  62  65
ENDBRANCH  60  61
ENDBRANCH  59  60
ENDBRANCH   1  59
TORSDOF 16
