REMARK SMILES C[C@@H](C(=O)NCCCCCCNC(=O)c1ccc(-c2c3nc(c(-c4ccccc4)c4ccc([nH]4)c(-c4ccccc4)c4nc(c(-c5ccccc5)c5ccc2[nH]5)C=C4)C=C3)cc1)c1ccc(-c2ccc3[nH]ccc3c2)cc1
REMARK SMILES IDX 8 1 7 2 6 3 5 4 3 5 4 6 2 8 1 9 63 10 64 11 77 12 65 13
REMARK SMILES IDX 76 14 66 15 67 16 68 17 75 18 69 19 74 20 70 21 73 22 71 23
REMARK SMILES IDX 72 24 9 26 10 27 11 28 12 29 13 30 14 32 15 33 16 34 62 35
REMARK SMILES IDX 17 36 61 37 18 38 19 39 20 40 55 41 21 42 60 43 54 44 56 45
REMARK SMILES IDX 22 46 59 47 53 48 52 49 23 51 45 52 30 53 44 54 31 55 34 56
REMARK SMILES IDX 43 57 57 58 32 59 33 60 42 62 58 63 35 64 24 65 25 66 29 67
REMARK SMILES IDX 26 68 28 69 27 70 46 71 47 72 51 73 48 74 50 75 49 76 36 77
REMARK SMILES IDX 37 78 41 79 38 80 40 81 39 82
REMARK H PARENT 5 7 71 25 12 31 56 50 34 61
REMARK Flexibility Score: inf
ROOT
ATOM      1  C   UNL     1       4.978  -1.461  -2.312  1.00  0.00     0.002 C 
ENDROOT
BRANCH   1   2
ATOM      2  C   UNL     1       4.258  -0.635  -1.237  1.00  0.00     0.021 C 
BRANCH   2   3
ATOM      3  C   UNL     1       3.444   0.536  -1.794  1.00  0.00     0.116 C 
BRANCH   3   4
ATOM      4  N   UNL     1       2.356   0.045  -2.608  1.00  0.00    -0.356 N 
ATOM      5  C   UNL     1       1.035  -0.106  -2.306  1.00  0.00     0.227 C 
ATOM      6  O   UNL     1       0.357  -0.730  -3.125  1.00  0.00    -0.274 OA
ATOM      7  H   UNL     1       2.607  -0.221  -3.522  1.00  0.00     0.163 HD
BRANCH   5   8
ATOM      8  C   UNL     1       0.462   0.527  -1.025  1.00  0.00     0.105 C 
ATOM      9  C   UNL     1       0.914  -0.180   0.256  1.00  0.00     0.023 C 
BRANCH   8  10
ATOM     10  C   UNL     1      -1.060   0.588  -1.049  1.00  0.00    -0.036 A 
ATOM     11  C   UNL     1      -1.721   1.823  -1.061  1.00  0.00     0.005 A 
ATOM     12  C   UNL     1      -1.826  -0.588  -1.058  1.00  0.00     0.005 A 
ATOM     13  C   UNL     1      -3.116   1.876  -1.089  1.00  0.00     0.009 A 
ATOM     14  C   UNL     1      -3.218  -0.533  -1.086  1.00  0.00     0.009 A 
ATOM     15  C   UNL     1      -3.879   0.700  -1.106  1.00  0.00    -0.018 A 
BRANCH  15  16
ATOM     16  C   UNL     1      -5.339   0.753  -1.172  1.00  0.00    -0.018 A 
ATOM     17  C   UNL     1      -5.978   1.016  -2.391  1.00  0.00     0.011 A 
ATOM     18  C   UNL     1      -6.112   0.529  -0.019  1.00  0.00     0.019 A 
ATOM     19  C   UNL     1      -7.372   1.057  -2.497  1.00  0.00     0.027 A 
ATOM     20  C   UNL     1      -7.516   0.581  -0.097  1.00  0.00    -0.000 A 
ATOM     21  C   UNL     1      -8.111   0.837  -1.332  1.00  0.00     0.045 A 
ATOM     22  C   UNL     1      -8.565   0.431   0.852  1.00  0.00     0.028 A 
ATOM     23  N   UNL     1      -9.473   0.819  -1.135  1.00  0.00    -0.361 N 
ATOM     24  C   UNL     1      -9.758   0.589   0.185  1.00  0.00     0.083 A 
ATOM     25  H   UNL     1     -10.146   0.951  -1.841  1.00  0.00     0.166 HD
ENDBRANCH  15  16
ENDBRANCH   8  10
ENDBRANCH   5   8
ENDBRANCH   3   4
ENDBRANCH   2   3
ENDBRANCH   1   2
BRANCH   1  26
ATOM     26  C   UNL     1       5.920  -0.662  -3.217  1.00  0.00     0.002 C 
BRANCH  26  27
ATOM     27  C   UNL     1       6.972   0.167  -2.478  1.00  0.00     0.021 C 
BRANCH  27  28
ATOM     28  C   UNL     1       7.896  -0.646  -1.579  1.00  0.00     0.116 C 
BRANCH  28  29
ATOM     29  N   UNL     1       8.714  -1.575  -2.338  1.00  0.00    -0.352 N 
ATOM     30  C   UNL     1      10.068  -1.782  -2.285  1.00  0.00     0.251 C 
ATOM     31  H   UNL     1       8.226  -2.138  -2.983  1.00  0.00     0.163 HD
ATOM     32  O   UNL     1      10.620  -2.470  -3.138  1.00  0.00    -0.269 OA
BRANCH  30  33
ATOM     33  C   UNL     1      10.869  -1.165  -1.206  1.00  0.00     0.039 A 
ATOM     34  C   UNL     1      12.110  -0.609  -1.525  1.00  0.00     0.014 A 
ATOM     35  C   UNL     1      10.420  -1.166   0.118  1.00  0.00     0.014 A 
ATOM     36  C   UNL     1      12.887  -0.027  -0.522  1.00  0.00     0.010 A 
ATOM     37  C   UNL     1      11.160  -0.519   1.103  1.00  0.00     0.010 A 
ATOM     38  C   UNL     1      12.411   0.036   0.798  1.00  0.00    -0.014 A 
BRANCH  38  39
ATOM     39  C   UNL     1      13.230   0.642   1.876  1.00  0.00     0.031 A 
ATOM     40  C   UNL     1      13.742  -0.212   3.005  1.00  0.00     0.074 A 
ATOM     41  C   UNL     1      13.484   1.965   1.863  1.00  0.00     0.049 A 
ATOM     42  N   UNL     1      14.462   0.134   4.043  1.00  0.00    -0.248 NA
ATOM     43  C   UNL     1      13.374  -1.637   2.979  1.00  0.00     0.031 C 
ATOM     44  C   UNL     1      13.016   2.908   0.845  1.00  0.00     0.029 A 
ATOM     45  N   UNL     1      14.204   2.743   2.733  1.00  0.00    -0.354 N 
ATOM     46  C   UNL     1      14.612  -1.022   4.800  1.00  0.00     0.074 A 
ATOM     47  C   UNL     1      13.867  -2.066   4.131  1.00  0.00     0.031 C 
ATOM     48  C   UNL     1      13.494   4.131   1.129  1.00  0.00     0.029 A 
ATOM     49  C   UNL     1      14.270   4.064   2.364  1.00  0.00     0.049 A 
ATOM     50  H   UNL     1      14.632   2.389   3.546  1.00  0.00     0.167 HD
ATOM     51  C   UNL     1      15.321  -1.205   5.939  1.00  0.00     0.031 A 
ATOM     52  C   UNL     1      14.892   5.104   2.950  1.00  0.00     0.031 A 
ATOM     53  C   UNL     1      16.080  -0.173   6.592  1.00  0.00     0.049 A 
ATOM     54  C   UNL     1      15.675   4.874   4.213  1.00  0.00     0.074 A 
ATOM     55  C   UNL     1      16.887  -0.273   7.712  1.00  0.00     0.029 A 
ATOM     56  N   UNL     1      16.122   1.151   6.184  1.00  0.00    -0.354 N 
ATOM     57  N   UNL     1      15.869   3.760   4.875  1.00  0.00    -0.248 NA
ATOM     58  C   UNL     1      16.337   6.048   4.800  1.00  0.00     0.031 C 
ATOM     59  C   UNL     1      17.378   1.002   8.011  1.00  0.00     0.029 A 
ATOM     60  C   UNL     1      16.923   1.884   7.044  1.00  0.00     0.049 A 
ATOM     61  H   UNL     1      15.653   1.516   5.399  1.00  0.00     0.167 HD
ATOM     62  C   UNL     1      16.705   4.090   5.935  1.00  0.00     0.074 A 
ATOM     63  C   UNL     1      16.988   5.506   5.819  1.00  0.00     0.031 C 
ATOM     64  C   UNL     1      17.197   3.292   6.913  1.00  0.00     0.031 A 
BRANCH  51  65
ATOM     65  C   UNL     1      15.297  -2.577   6.555  1.00  0.00    -0.014 A 
ATOM     66  C   UNL     1      15.934  -3.667   5.940  1.00  0.00     0.009 A 
ATOM     67  C   UNL     1      14.647  -2.777   7.783  1.00  0.00     0.009 A 
ATOM     68  C   UNL     1      15.882  -4.937   6.519  1.00  0.00     0.001 A 
ATOM     69  C   UNL     1      14.623  -4.041   8.375  1.00  0.00     0.001 A 
ATOM     70  C   UNL     1      15.230  -5.122   7.738  1.00  0.00     0.000 A 
ENDBRANCH  51  65
BRANCH  52  71
ATOM     71  C   UNL     1      14.836   6.453   2.331  1.00  0.00    -0.014 A 
ATOM     72  C   UNL     1      15.980   7.008   1.736  1.00  0.00     0.009 A 
ATOM     73  C   UNL     1      13.646   7.198   2.338  1.00  0.00     0.009 A 
ATOM     74  C   UNL     1      15.942   8.291   1.187  1.00  0.00     0.001 A 
ATOM     75  C   UNL     1      13.604   8.470   1.763  1.00  0.00     0.001 A 
ATOM     76  C   UNL     1      14.753   9.019   1.198  1.00  0.00     0.000 A 
ENDBRANCH  52  71
BRANCH  64  77
ATOM     77  C   UNL     1      18.130   3.922   7.909  1.00  0.00    -0.014 A 
ATOM     78  C   UNL     1      17.665   4.821   8.881  1.00  0.00     0.009 A 
ATOM     79  C   UNL     1      19.492   3.585   7.889  1.00  0.00     0.009 A 
ATOM     80  C   UNL     1      18.555   5.400   9.789  1.00  0.00     0.001 A 
ATOM     81  C   UNL     1      20.373   4.141   8.817  1.00  0.00     0.001 A 
ATOM     82  C   UNL     1      19.906   5.056   9.759  1.00  0.00     0.000 A 
ENDBRANCH  64  77
ENDBRANCH  38  39
ENDBRANCH  30  33
ENDBRANCH  28  29
ENDBRANCH  27  28
ENDBRANCH  26  27
ENDBRANCH   1  26
TORSDOF 15
