REMARK SMILES COC(=O)C[C@@H](NC(=O)c1ccccc1C(=O)NCCCCCCNC(=O)c1ccc(-c2c3nc(c(-c4ccccc4)c4ccc([nH]4)c(-c4ccccc4)c4nc(c(-c5ccccc5)c5ccc2[nH]5)C=C4)C=C3)cc1)c1cccc(C)c1C
REMARK SMILES IDX 20 1 19 2 18 3 16 4 17 5 15 7 10 8 11 9 12 10 14 11 13 12
REMARK SMILES IDX 8 13 7 14 9 16 6 17 5 18 3 19 4 20 2 21 1 22 76 23 77 24
REMARK SMILES IDX 82 25 78 26 80 27 83 28 79 29 81 30 21 31 22 32 23 33 24 34
REMARK SMILES IDX 25 35 26 36 27 38 28 39 29 40 75 41 30 42 74 43 31 44 32 45
REMARK SMILES IDX 33 46 68 47 34 48 73 49 67 50 69 51 35 52 72 53 66 54 65 55
REMARK SMILES IDX 36 57 58 58 43 59 57 60 44 61 47 62 56 63 70 64 45 65 46 66
REMARK SMILES IDX 55 68 71 69 48 70 37 71 38 72 42 73 39 74 41 75 40 76 59 77
REMARK SMILES IDX 60 78 64 79 61 80 63 81 62 82 49 83 50 84 54 85 51 86 53 87
REMARK SMILES IDX 52 88
REMARK H PARENT 18 6 7 15 25 37 69 56 47 67
REMARK Flexibility Score: inf
ROOT
ATOM      1  C   UNL     1       3.092  -2.399  -4.445  1.00  0.00     0.021 C 
ENDROOT
BRANCH   1   2
ATOM      2  C   UNL     1       3.170  -1.035  -5.186  1.00  0.00     0.116 C 
BRANCH   2   3
ATOM      3  N   UNL     1       2.735  -1.135  -6.624  1.00  0.00    -0.352 N 
ATOM      4  C   UNL     1       1.655  -1.348  -7.502  1.00  0.00     0.252 C 
ATOM      5  O   UNL     1       2.096  -1.708  -8.611  1.00  0.00    -0.269 OA
ATOM      6  H   UNL     1       3.535  -0.994  -7.179  1.00  0.00     0.163 HD
BRANCH   4   7
ATOM      7  C   UNL     1       0.042  -1.048  -7.507  1.00  0.00     0.052 A 
ATOM      8  C   UNL     1      -1.557  -0.891  -6.425  1.00  0.00     0.052 A 
ATOM      9  C   UNL     1      -2.879   0.230  -6.987  1.00  0.00     0.014 A 
ATOM     10  C   UNL     1      -2.757   1.097  -8.537  1.00  0.00     0.001 A 
ATOM     11  C   UNL     1       0.094  -0.043  -9.052  1.00  0.00     0.014 A 
ATOM     12  C   UNL     1      -1.307   0.955  -9.565  1.00  0.00     0.001 A 
BRANCH   8  13
ATOM     13  C   UNL     1      -2.058  -0.802  -4.852  1.00  0.00     0.252 C 
ATOM     14  N   UNL     1      -1.665   0.172  -3.845  1.00  0.00    -0.345 N 
ATOM     15  H   UNL     1      -2.345   0.265  -3.139  1.00  0.00     0.164 HD
ATOM     16  O   UNL     1      -2.953  -1.588  -4.525  1.00  0.00    -0.269 OA
BRANCH  14  17
ATOM     17  C   UNL     1      -0.435   1.110  -3.600  1.00  0.00     0.124 C 
BRANCH  17  18
ATOM     18  C   UNL     1      -0.661   2.202  -2.548  1.00  0.00     0.152 C 
BRANCH  18  19
ATOM     19  C   UNL     1       0.277   1.962  -1.383  1.00  0.00     0.307 C 
ATOM     20  O   UNL     1       1.259   2.646  -1.134  1.00  0.00    -0.252 OA
BRANCH  19  21
ATOM     21  O   UNL     1      -0.110   0.862  -0.679  1.00  0.00    -0.469 OA
ATOM     22  C   UNL     1       0.712   0.573   0.454  1.00  0.00     0.282 C 
ENDBRANCH  19  21
ENDBRANCH  18  19
ENDBRANCH  17  18
BRANCH  17  23
ATOM     23  C   UNL     1       0.094   1.574  -4.934  1.00  0.00    -0.022 A 
ATOM     24  C   UNL     1       0.180   2.884  -5.374  1.00  0.00     0.006 A 
ATOM     25  C   UNL     1       0.041   0.557  -5.869  1.00  0.00    -0.043 A 
ATOM     26  C   UNL     1      -0.193   3.212  -6.670  1.00  0.00     0.001 A 
ATOM     27  C   UNL     1      -0.795   0.816  -7.298  1.00  0.00    -0.048 A 
ATOM     28  C   UNL     1       0.446  -0.943  -5.043  1.00  0.00     0.045 C 
ATOM     29  C   UNL     1      -0.757   2.265  -7.548  1.00  0.00     0.004 A 
ATOM     30  C   UNL     1      -1.731  -0.753  -8.426  1.00  0.00     0.044 C 
ENDBRANCH  17  23
ENDBRANCH  14  17
ENDBRANCH   8  13
ENDBRANCH   4   7
ENDBRANCH   2   3
ENDBRANCH   1   2
BRANCH   1  31
ATOM     31  C   UNL     1       3.854  -2.492  -3.116  1.00  0.00     0.002 C 
BRANCH  31  32
ATOM     32  C   UNL     1       3.244  -1.763  -1.913  1.00  0.00     0.002 C 
BRANCH  32  33
ATOM     33  C   UNL     1       2.020  -2.412  -1.252  1.00  0.00     0.021 C 
BRANCH  33  34
ATOM     34  C   UNL     1       2.144  -3.882  -0.855  1.00  0.00     0.116 C 
BRANCH  34  35
ATOM     35  N   UNL     1       3.324  -4.146  -0.043  1.00  0.00    -0.352 N 
ATOM     36  C   UNL     1       3.448  -4.681   1.214  1.00  0.00     0.251 C 
ATOM     37  H   UNL     1       4.177  -3.899  -0.469  1.00  0.00     0.163 HD
ATOM     38  O   UNL     1       4.529  -4.623   1.795  1.00  0.00    -0.269 OA
BRANCH  36  39
ATOM     39  C   UNL     1       2.295  -5.324   1.883  1.00  0.00     0.039 A 
ATOM     40  C   UNL     1       2.132  -5.157   3.263  1.00  0.00     0.014 A 
ATOM     41  C   UNL     1       1.407  -6.132   1.172  1.00  0.00     0.014 A 
ATOM     42  C   UNL     1       1.053  -5.758   3.915  1.00  0.00     0.010 A 
ATOM     43  C   UNL     1       0.283  -6.656   1.804  1.00  0.00     0.010 A 
ATOM     44  C   UNL     1       0.103  -6.491   3.185  1.00  0.00    -0.014 A 
BRANCH  44  45
ATOM     45  C   UNL     1      -1.066  -7.122   3.849  1.00  0.00     0.031 A 
ATOM     46  C   UNL     1      -1.226  -8.620   3.826  1.00  0.00     0.074 A 
ATOM     47  C   UNL     1      -2.006  -6.350   4.427  1.00  0.00     0.049 A 
ATOM     48  N   UNL     1      -2.203  -9.354   4.295  1.00  0.00    -0.248 NA
ATOM     49  C   UNL     1      -0.161  -9.393   3.166  1.00  0.00     0.031 C 
ATOM     50  C   UNL     1      -1.982  -4.887   4.491  1.00  0.00     0.029 A 
ATOM     51  N   UNL     1      -3.169  -6.690   5.071  1.00  0.00    -0.354 N 
ATOM     52  C   UNL     1      -1.875 -10.667   3.977  1.00  0.00     0.074 A 
ATOM     53  C   UNL     1      -0.646 -10.624   3.218  1.00  0.00     0.031 C 
ATOM     54  C   UNL     1      -3.059  -4.458   5.168  1.00  0.00     0.029 A 
ATOM     55  C   UNL     1      -3.874  -5.609   5.543  1.00  0.00     0.049 A 
ATOM     56  H   UNL     1      -3.470  -7.620   5.184  1.00  0.00     0.167 HD
ATOM     57  C   UNL     1      -2.521 -11.809   4.309  1.00  0.00     0.031 A 
ATOM     58  C   UNL     1      -5.049  -5.552   6.198  1.00  0.00     0.031 A 
ATOM     59  C   UNL     1      -3.744 -11.851   5.065  1.00  0.00     0.049 A 
ATOM     60  C   UNL     1      -5.770  -6.834   6.515  1.00  0.00     0.074 A 
ATOM     61  C   UNL     1      -4.464 -12.957   5.482  1.00  0.00     0.029 A 
ATOM     62  N   UNL     1      -4.429 -10.733   5.517  1.00  0.00    -0.354 N 
ATOM     63  N   UNL     1      -5.415  -8.070   6.258  1.00  0.00    -0.248 NA
ATOM     64  C   UNL     1      -7.049  -6.711   7.228  1.00  0.00     0.031 C 
ATOM     65  C   UNL     1      -5.614 -12.507   6.137  1.00  0.00     0.029 A 
ATOM     66  C   UNL     1      -5.573 -11.123   6.191  1.00  0.00     0.049 A 
ATOM     67  H   UNL     1      -4.144  -9.801   5.378  1.00  0.00     0.167 HD
ATOM     68  C   UNL     1      -6.405  -8.871   6.813  1.00  0.00     0.074 A 
ATOM     69  C   UNL     1      -7.364  -7.981   7.435  1.00  0.00     0.031 C 
ATOM     70  C   UNL     1      -6.511 -10.223   6.812  1.00  0.00     0.031 A 
BRANCH  57  71
ATOM     71  C   UNL     1      -1.912 -13.108   3.853  1.00  0.00    -0.014 A 
ATOM     72  C   UNL     1      -0.694 -13.566   4.383  1.00  0.00     0.009 A 
ATOM     73  C   UNL     1      -2.577 -13.902   2.905  1.00  0.00     0.009 A 
ATOM     74  C   UNL     1      -0.135 -14.767   3.944  1.00  0.00     0.001 A 
ATOM     75  C   UNL     1      -2.033 -15.120   2.493  1.00  0.00     0.001 A 
ATOM     76  C   UNL     1      -0.808 -15.546   3.004  1.00  0.00     0.000 A 
ENDBRANCH  57  71
BRANCH  58  77
ATOM     77  C   UNL     1      -5.619  -4.242   6.614  1.00  0.00    -0.014 A 
ATOM     78  C   UNL     1      -5.729  -3.912   7.975  1.00  0.00     0.009 A 
ATOM     79  C   UNL     1      -6.087  -3.327   5.658  1.00  0.00     0.009 A 
ATOM     80  C   UNL     1      -6.334  -2.716   8.369  1.00  0.00     0.001 A 
ATOM     81  C   UNL     1      -6.658  -2.115   6.054  1.00  0.00     0.001 A 
ATOM     82  C   UNL     1      -6.795  -1.818   7.408  1.00  0.00     0.000 A 
ENDBRANCH  58  77
BRANCH  70  83
ATOM     83  C   UNL     1      -7.671 -10.823   7.558  1.00  0.00    -0.014 A 
ATOM     84  C   UNL     1      -8.990 -10.697   7.095  1.00  0.00     0.009 A 
ATOM     85  C   UNL     1      -7.431 -11.556   8.731  1.00  0.00     0.009 A 
ATOM     86  C   UNL     1     -10.047 -11.258   7.815  1.00  0.00     0.001 A 
ATOM     87  C   UNL     1      -8.485 -12.147   9.428  1.00  0.00     0.001 A 
ATOM     88  C   UNL     1      -9.793 -11.986   8.977  1.00  0.00     0.000 A 
ENDBRANCH  70  83
ENDBRANCH  44  45
ENDBRANCH  36  39
ENDBRANCH  34  35
ENDBRANCH  33  34
ENDBRANCH  32  33
ENDBRANCH  31  32
ENDBRANCH   1  31
TORSDOF 19
