REMARK SMILES CC1(C)O[C@@H]2C[C@@H]3[C@H]4CCC5=CC(=O)C=C[C@@]5(C)[C@]4(F)[C@H](O)C[C@]3(C)[C@]2(C(=O)NCCCCCCNC(=O)c2ccc(-c3c4nc(c(-c5ccccc5)c5ccc([nH]5)c(-c5ccccc5)c5nc(c(-c6ccccc6)c6ccc3[nH]6)C=C5)C=C4)cc2)O1
REMARK SMILES IDX 33 1 32 2 31 3 30 4 29 5 27 6 28 7 26 9 1 10 2 11 4 12 87 13
REMARK SMILES IDX 3 14 5 15 6 16 24 17 7 18 23 19 25 20 8 21 21 22 9 23 19 24
REMARK SMILES IDX 10 25 17 26 20 27 11 28 16 29 18 30 12 31 15 32 13 33 14 34
REMARK SMILES IDX 22 35 34 37 35 38 36 39 37 40 38 42 39 43 40 44 86 45 41 46
REMARK SMILES IDX 85 47 42 48 43 49 44 50 79 51 45 52 84 53 78 54 80 55 46 56
REMARK SMILES IDX 83 57 77 58 76 59 47 61 69 62 54 63 68 64 55 65 58 66 67 67
REMARK SMILES IDX 81 68 56 69 57 70 66 72 82 73 59 74 48 75 49 76 53 77 50 78
REMARK SMILES IDX 52 79 51 80 70 81 71 82 75 83 72 84 74 85 73 86 60 87 61 88
REMARK SMILES IDX 65 89 62 90 64 91 63 92
REMARK H PARENT 29 8 22 36 36 41 80 60 58 71
REMARK Flexibility Score: inf
ROOT
ATOM      1  C   UNL     1       1.406   5.003   5.441  1.00  0.00     0.002 C 
ENDROOT
BRANCH   1   2
ATOM      2  C   UNL     1       1.819   3.614   4.949  1.00  0.00     0.002 C 
BRANCH   2   3
ATOM      3  C   UNL     1       0.891   2.998   3.901  1.00  0.00     0.021 C 
BRANCH   3   4
ATOM      4  C   UNL     1       0.577   3.910   2.724  1.00  0.00     0.116 C 
BRANCH   4   5
ATOM      5  N   UNL     1       1.776   4.237   2.001  1.00  0.00    -0.353 N 
ATOM      6  C   UNL     1       2.116   4.063   0.711  1.00  0.00     0.255 C 
ATOM      7  O   UNL     1       3.328   4.170   0.476  1.00  0.00    -0.272 OA
ATOM      8  H   UNL     1       2.473   4.667   2.548  1.00  0.00     0.163 HD
BRANCH   6   9
ATOM      9  C   UNL     1       1.131   3.697  -0.403  1.00  0.00     0.181 C 
ATOM     10  C   UNL     1       0.618   0.633   0.896  1.00  0.00     0.075 C 
ATOM     11  C   UNL     1       0.230   1.531  -0.277  1.00  0.00     0.164 C 
ATOM     12  O   UNL     1      -0.831   2.423   0.099  1.00  0.00    -0.344 OA
ATOM     13  O   UNL     1       1.398   2.287  -0.651  1.00  0.00    -0.331 OA
ATOM     14  C   UNL     1      -0.269   0.647  -1.436  1.00  0.00     0.075 C 
ATOM     15  C   UNL     1      -0.426   3.749  -0.280  1.00  0.00     0.164 C 
ATOM     16  C   UNL     1      -1.005   4.102  -1.726  1.00  0.00     0.040 C 
ATOM     17  C   UNL     1       1.359   4.622  -1.684  1.00  0.00     0.014 C 
ATOM     18  C   UNL     1       0.266   3.967  -2.573  1.00  0.00     0.008 C 
ATOM     19  C   UNL     1       2.708   4.764  -2.418  1.00  0.00     0.046 C 
ATOM     20  C   UNL     1       1.046   6.096  -1.236  1.00  0.00     0.015 C 
ATOM     21  C   UNL     1       0.608   3.202  -3.873  1.00  0.00     0.035 C 
ATOM     22  C   UNL     1       3.063   3.699  -3.438  1.00  0.00     0.154 C 
ATOM     23  C   UNL     1      -0.543   3.051  -4.856  1.00  0.00     0.012 C 
ATOM     24  C   UNL     1       1.948   3.547  -4.528  1.00  0.00     0.152 C 
ATOM     25  C   UNL     1      -0.246   1.838  -5.738  1.00  0.00     0.032 C 
ATOM     26  C   UNL     1       2.291   2.478  -5.657  1.00  0.00     0.044 C 
ATOM     27  F   UNL     1       1.780   4.775  -5.121  1.00  0.00    -0.239 F 
ATOM     28  C   UNL     1       1.075   1.960  -6.447  1.00  0.00    -0.053 C 
ATOM     29  C   UNL     1       3.288   3.057  -6.658  1.00  0.00    -0.009 C 
ATOM     30  C   UNL     1       2.970   1.202  -5.058  1.00  0.00     0.024 C 
ATOM     31  C   UNL     1       1.220   1.507  -7.707  1.00  0.00     0.052 C 
ATOM     32  C   UNL     1       3.586   2.403  -7.790  1.00  0.00     0.048 C 
ATOM     33  C   UNL     1       2.557   1.500  -8.360  1.00  0.00     0.178 C 
ATOM     34  O   UNL     1       2.757   0.874  -9.393  1.00  0.00    -0.290 OA
BRANCH  22  35
ATOM     35  O   UNL     1       3.344   2.507  -2.713  1.00  0.00    -0.390 OA
ATOM     36  H   UNL     1       2.563   2.252  -2.196  1.00  0.00     0.211 HD
ENDBRANCH  22  35
ENDBRANCH   6   9
ENDBRANCH   4   5
ENDBRANCH   3   4
ENDBRANCH   2   3
ENDBRANCH   1   2
BRANCH   1  37
ATOM     37  C   UNL     1      -0.045   5.118   5.913  1.00  0.00     0.021 C 
BRANCH  37  38
ATOM     38  C   UNL     1      -0.466   4.071   6.934  1.00  0.00     0.116 C 
BRANCH  38  39
ATOM     39  N   UNL     1       0.340   4.132   8.140  1.00  0.00    -0.352 N 
ATOM     40  C   UNL     1      -0.074   4.189   9.438  1.00  0.00     0.251 C 
ATOM     41  H   UNL     1       1.315   4.131   8.003  1.00  0.00     0.163 HD
ATOM     42  O   UNL     1       0.743   4.432  10.339  1.00  0.00    -0.269 OA
BRANCH  40  43
ATOM     43  C   UNL     1      -1.495   3.989   9.771  1.00  0.00     0.039 A 
ATOM     44  C   UNL     1      -2.098   4.850  10.689  1.00  0.00     0.014 A 
ATOM     45  C   UNL     1      -2.234   2.955   9.183  1.00  0.00     0.014 A 
ATOM     46  C   UNL     1      -3.452   4.702  10.987  1.00  0.00     0.010 A 
ATOM     47  C   UNL     1      -3.602   2.859   9.421  1.00  0.00     0.010 A 
ATOM     48  C   UNL     1      -4.222   3.724  10.335  1.00  0.00    -0.014 A 
BRANCH  48  49
ATOM     49  C   UNL     1      -5.673   3.593  10.616  1.00  0.00     0.031 A 
ATOM     50  C   UNL     1      -6.212   2.346  11.263  1.00  0.00     0.074 A 
ATOM     51  C   UNL     1      -6.508   4.595  10.275  1.00  0.00     0.049 A 
ATOM     52  N   UNL     1      -7.446   2.056  11.591  1.00  0.00    -0.248 NA
ATOM     53  C   UNL     1      -5.244   1.279  11.567  1.00  0.00     0.031 C 
ATOM     54  C   UNL     1      -6.113   5.841   9.614  1.00  0.00     0.029 A 
ATOM     55  N   UNL     1      -7.863   4.726  10.446  1.00  0.00    -0.354 N 
ATOM     56  C   UNL     1      -7.400   0.780  12.140  1.00  0.00     0.074 A 
ATOM     57  C   UNL     1      -6.031   0.325  12.043  1.00  0.00     0.031 C 
ATOM     58  C   UNL     1      -7.194   6.627   9.476  1.00  0.00     0.029 A 
ATOM     59  C   UNL     1      -8.361   5.925   9.998  1.00  0.00     0.049 A 
ATOM     60  H   UNL     1      -8.425   4.026  10.852  1.00  0.00     0.167 HD
ATOM     61  C   UNL     1      -8.401   0.062  12.703  1.00  0.00     0.031 A 
ATOM     62  C   UNL     1      -9.619   6.405  10.007  1.00  0.00     0.031 A 
ATOM     63  C   UNL     1      -9.764   0.512  12.801  1.00  0.00     0.049 A 
ATOM     64  C   UNL     1     -10.718   5.564  10.598  1.00  0.00     0.074 A 
ATOM     65  C   UNL     1     -10.846  -0.134  13.373  1.00  0.00     0.029 A 
ATOM     66  N   UNL     1     -10.230   1.724  12.317  1.00  0.00    -0.354 N 
ATOM     67  N   UNL     1     -10.645   4.384  11.165  1.00  0.00    -0.248 NA
ATOM     68  C   UNL     1     -12.073   6.132  10.561  1.00  0.00     0.031 C 
ATOM     69  C   UNL     1     -11.978   0.667  13.193  1.00  0.00     0.029 A 
ATOM     70  C   UNL     1     -11.588   1.837  12.562  1.00  0.00     0.049 A 
ATOM     71  H   UNL     1      -9.678   2.403  11.866  1.00  0.00     0.167 HD
ATOM     72  C   UNL     1     -11.935   4.086  11.584  1.00  0.00     0.074 A 
ATOM     73  C   UNL     1     -12.764   5.218  11.226  1.00  0.00     0.031 C 
ATOM     74  C   UNL     1     -12.396   2.974  12.207  1.00  0.00     0.031 A 
BRANCH  61  75
ATOM     75  C   UNL     1      -8.054  -1.287  13.270  1.00  0.00    -0.014 A 
ATOM     76  C   UNL     1      -7.282  -1.401  14.438  1.00  0.00     0.009 A 
ATOM     77  C   UNL     1      -8.549  -2.453  12.666  1.00  0.00     0.009 A 
ATOM     78  C   UNL     1      -6.989  -2.658  14.973  1.00  0.00     0.001 A 
ATOM     79  C   UNL     1      -8.279  -3.706  13.220  1.00  0.00     0.001 A 
ATOM     80  C   UNL     1      -7.494  -3.808  14.368  1.00  0.00     0.000 A 
ENDBRANCH  61  75
BRANCH  62  81
ATOM     81  C   UNL     1      -9.921   7.751   9.451  1.00  0.00    -0.014 A 
ATOM     82  C   UNL     1     -10.354   8.789  10.290  1.00  0.00     0.009 A 
ATOM     83  C   UNL     1      -9.827   7.991   8.071  1.00  0.00     0.009 A 
ATOM     84  C   UNL     1     -10.732  10.023   9.755  1.00  0.00     0.001 A 
ATOM     85  C   UNL     1     -10.171   9.237   7.543  1.00  0.00     0.001 A 
ATOM     86  C   UNL     1     -10.638  10.246   8.383  1.00  0.00     0.000 A 
ENDBRANCH  62  81
BRANCH  74  87
ATOM     87  C   UNL     1     -13.851   2.954  12.585  1.00  0.00    -0.014 A 
ATOM     88  C   UNL     1     -14.858   2.850  11.613  1.00  0.00     0.009 A 
ATOM     89  C   UNL     1     -14.216   3.019  13.938  1.00  0.00     0.009 A 
ATOM     90  C   UNL     1     -16.203   2.857  11.988  1.00  0.00     0.001 A 
ATOM     91  C   UNL     1     -15.560   2.992  14.312  1.00  0.00     0.001 A 
ATOM     92  C   UNL     1     -16.552   2.924  13.336  1.00  0.00     0.000 A 
ENDBRANCH  74  87
ENDBRANCH  48  49
ENDBRANCH  40  43
ENDBRANCH  38  39
ENDBRANCH  37  38
ENDBRANCH   1  37
TORSDOF 14
