REMARK SMILES O=C(NCCCCCCNC(=O)[C@H]1C[C@@H]2N=CN=C2C[NH2+]1)c1ccc(-c2c3nc(c(-c4ccccc4)c4ccc([nH]4)c(-c4ccccc4)c4nc(c(-c5ccccc5)c5ccc2[nH]5)C=C4)C=C3)cc1
REMARK SMILES IDX 5 1 4 2 3 3 1 4 2 5 22 7 23 8 69 9 24 10 68 11 25 12 26 13
REMARK SMILES IDX 27 14 62 15 28 16 67 17 61 18 63 19 29 20 66 21 60 22 59 23
REMARK SMILES IDX 30 25 52 26 37 27 51 28 38 29 41 30 50 31 64 32 39 33 40 34
REMARK SMILES IDX 49 36 65 37 42 38 31 39 32 40 36 41 33 42 35 43 34 44 53 45
REMARK SMILES IDX 54 46 58 47 55 48 57 49 56 50 43 51 44 52 48 53 45 54 47 55
REMARK SMILES IDX 46 56 6 57 7 58 8 59 9 60 10 61 11 62 12 64 13 65 14 66
REMARK SMILES IDX 21 67 15 68 20 69 16 72 19 73 17 74 18 75
REMARK H PARENT 3 6 63 24 41 35 10 63 21 70 21 71
REMARK Flexibility Score: inf
ROOT
ATOM      1  C   UNL     1       4.635   2.082   0.952  1.00  0.00     0.021 C 
ENDROOT
BRANCH   1   2
ATOM      2  C   UNL     1       4.495   0.565   1.028  1.00  0.00     0.116 C 
BRANCH   2   3
ATOM      3  N   UNL     1       3.130   0.091   1.074  1.00  0.00    -0.352 N 
ATOM      4  O   UNL     1       1.075  -0.538   0.540  1.00  0.00    -0.269 OA
ATOM      5  C   UNL     1       2.132  -0.033   0.150  1.00  0.00     0.251 C 
ATOM      6  H   UNL     1       2.858  -0.208   1.971  1.00  0.00     0.163 HD
BRANCH   5   7
ATOM      7  C   UNL     1       2.217   0.434  -1.260  1.00  0.00     0.039 A 
ATOM      8  C   UNL     1       3.397   0.629  -1.979  1.00  0.00     0.014 A 
ATOM      9  C   UNL     1       0.989   0.642  -1.914  1.00  0.00     0.014 A 
ATOM     10  C   UNL     1       3.355   1.072  -3.300  1.00  0.00     0.010 A 
ATOM     11  C   UNL     1       0.941   1.056  -3.242  1.00  0.00     0.010 A 
ATOM     12  C   UNL     1       2.128   1.288  -3.933  1.00  0.00    -0.014 A 
BRANCH  12  13
ATOM     13  C   UNL     1       2.139   1.600  -5.363  1.00  0.00     0.031 A 
ATOM     14  C   UNL     1       2.672   0.534  -6.267  1.00  0.00     0.074 A 
ATOM     15  C   UNL     1       1.539   2.678  -5.905  1.00  0.00     0.049 A 
ATOM     16  N   UNL     1       3.593   0.626  -7.173  1.00  0.00    -0.248 NA
ATOM     17  C   UNL     1       2.112  -0.820  -6.117  1.00  0.00     0.031 C 
ATOM     18  C   UNL     1       0.673   3.652  -5.238  1.00  0.00     0.029 A 
ATOM     19  N   UNL     1       1.481   3.050  -7.218  1.00  0.00    -0.354 N 
ATOM     20  C   UNL     1       3.640  -0.616  -7.807  1.00  0.00     0.074 A 
ATOM     21  C   UNL     1       2.767  -1.490  -7.064  1.00  0.00     0.031 C 
ATOM     22  C   UNL     1      -0.001   4.355  -6.175  1.00  0.00     0.029 A 
ATOM     23  C   UNL     1       0.481   3.969  -7.492  1.00  0.00     0.049 A 
ATOM     24  H   UNL     1       2.093   2.698  -7.905  1.00  0.00     0.167 HD
ATOM     25  C   UNL     1       4.267  -0.821  -8.998  1.00  0.00     0.031 A 
ATOM     26  C   UNL     1       0.027   4.339  -8.713  1.00  0.00     0.031 A 
ATOM     27  C   UNL     1       5.201   0.218  -9.324  1.00  0.00     0.049 A 
ATOM     28  C   UNL     1       1.033   3.955  -9.726  1.00  0.00     0.074 A 
ATOM     29  C   UNL     1       6.349   0.719  -8.746  1.00  0.00     0.029 A 
ATOM     30  N   UNL     1       4.839   1.131 -10.282  1.00  0.00    -0.354 N 
ATOM     31  N   UNL     1       2.190   4.534  -9.861  1.00  0.00    -0.248 NA
ATOM     32  C   UNL     1       0.894   2.674 -10.399  1.00  0.00     0.031 C 
ATOM     33  C   UNL     1       6.335   2.113  -9.043  1.00  0.00     0.029 A 
ATOM     34  C   UNL     1       5.189   2.365  -9.800  1.00  0.00     0.049 A 
ATOM     35  H   UNL     1       4.411   0.937 -11.147  1.00  0.00     0.167 HD
ATOM     36  C   UNL     1       3.047   3.522 -10.266  1.00  0.00     0.074 A 
ATOM     37  C   UNL     1       2.171   2.443 -10.710  1.00  0.00     0.031 C 
ATOM     38  C   UNL     1       4.373   3.549  -9.942  1.00  0.00     0.031 A 
BRANCH  25  39
ATOM     39  C   UNL     1       3.796  -1.817 -10.028  1.00  0.00    -0.014 A 
ATOM     40  C   UNL     1       4.596  -2.075 -11.156  1.00  0.00     0.009 A 
ATOM     41  C   UNL     1       2.475  -2.303 -10.062  1.00  0.00     0.009 A 
ATOM     42  C   UNL     1       4.083  -2.743 -12.276  1.00  0.00     0.001 A 
ATOM     43  C   UNL     1       1.974  -3.008 -11.160  1.00  0.00     0.001 A 
ATOM     44  C   UNL     1       2.771  -3.207 -12.278  1.00  0.00     0.000 A 
ENDBRANCH  25  39
BRANCH  26  45
ATOM     45  C   UNL     1      -1.323   4.803  -9.090  1.00  0.00    -0.014 A 
ATOM     46  C   UNL     1      -1.533   5.510 -10.283  1.00  0.00     0.009 A 
ATOM     47  C   UNL     1      -2.452   4.335  -8.395  1.00  0.00     0.009 A 
ATOM     48  C   UNL     1      -2.828   5.715 -10.776  1.00  0.00     0.001 A 
ATOM     49  C   UNL     1      -3.745   4.546  -8.883  1.00  0.00     0.001 A 
ATOM     50  C   UNL     1      -3.932   5.225 -10.081  1.00  0.00     0.000 A 
ENDBRANCH  26  45
BRANCH  38  51
ATOM     51  C   UNL     1       4.938   4.830  -9.379  1.00  0.00    -0.014 A 
ATOM     52  C   UNL     1       4.447   5.422  -8.202  1.00  0.00     0.009 A 
ATOM     53  C   UNL     1       6.089   5.375  -9.966  1.00  0.00     0.009 A 
ATOM     54  C   UNL     1       5.062   6.551  -7.655  1.00  0.00     0.001 A 
ATOM     55  C   UNL     1       6.719   6.489  -9.405  1.00  0.00     0.001 A 
ATOM     56  C   UNL     1       6.201   7.082  -8.255  1.00  0.00     0.000 A 
ENDBRANCH  38  51
ENDBRANCH  12  13
ENDBRANCH   5   7
ENDBRANCH   2   3
ENDBRANCH   1   2
BRANCH   1  57
ATOM     57  C   UNL     1       4.066   2.857   2.146  1.00  0.00     0.002 C 
BRANCH  57  58
ATOM     58  C   UNL     1       4.499   2.399   3.543  1.00  0.00     0.002 C 
BRANCH  58  59
ATOM     59  C   UNL     1       5.998   2.198   3.772  1.00  0.00     0.021 C 
BRANCH  59  60
ATOM     60  C   UNL     1       6.895   3.354   3.358  1.00  0.00     0.116 C 
BRANCH  60  61
ATOM     61  N   UNL     1       6.762   4.541   4.180  1.00  0.00    -0.351 N 
ATOM     62  C   UNL     1       7.745   5.461   4.459  1.00  0.00     0.278 C 
ATOM     63  H   UNL     1       5.877   4.705   4.579  1.00  0.00     0.163 HD
ATOM     64  O   UNL     1       7.437   6.533   4.982  1.00  0.00    -0.268 OA
BRANCH  62  65
ATOM     65  C   UNL     1       9.200   5.100   4.104  1.00  0.00     0.275 C 
ATOM     66  C   UNL     1       9.455   5.181   2.586  1.00  0.00     0.109 C 
ATOM     67  N   UNL     1      10.166   5.935   4.880  1.00  0.00    -0.331 N 
ATOM     68  C   UNL     1      10.833   4.630   2.249  1.00  0.00     0.164 C 
ATOM     69  C   UNL     1      11.533   5.949   4.322  1.00  0.00     0.316 C 
ATOM     70  H   UNL     1      10.212   5.570   5.832  1.00  0.00     0.347 HD
ATOM     71  H   UNL     1       9.822   6.894   4.843  1.00  0.00     0.347 HD
ATOM     72  N   UNL     1      10.846   3.169   2.018  1.00  0.00    -0.264 NA
ATOM     73  C   UNL     1      11.675   4.726   3.473  1.00  0.00     0.098 C 
ATOM     74  C   UNL     1      11.714   2.720   2.877  1.00  0.00     0.216 C 
ATOM     75  N   UNL     1      12.241   3.608   3.782  1.00  0.00    -0.238 NA
ENDBRANCH  62  65
ENDBRANCH  60  61
ENDBRANCH  59  60
ENDBRANCH  58  59
ENDBRANCH  57  58
ENDBRANCH   1  57
TORSDOF 13
