REMARK SMILES [NH3+][C@H]1CCC[C@H]1C(=O)NCc1ccc(C(=O)NCCCCCCNC(=O)c2ccc(-c3c4nc(c(-c5ccccc5)c5ccc([nH]5)c(-c5ccccc5)c5nc(c(-c6ccccc6)c6ccc3[nH]6)C=C5)C=C4)cc2)o1
REMARK SMILES IDX 19 1 18 2 17 3 15 4 16 5 14 7 11 8 12 9 75 10 13 11 10 12
REMARK SMILES IDX 9 13 7 14 8 15 6 17 2 18 3 19 4 20 5 21 1 22 20 26 21 27
REMARK SMILES IDX 22 28 23 29 24 30 25 31 26 33 27 34 28 35 74 36 29 37 73 38
REMARK SMILES IDX 30 39 31 40 32 41 67 42 33 43 72 44 66 45 68 46 34 47 71 48
REMARK SMILES IDX 65 49 64 50 35 52 57 53 42 54 56 55 43 56 46 57 55 58 69 59
REMARK SMILES IDX 44 60 45 61 54 63 70 64 47 65 36 66 37 67 41 68 38 69 40 70
REMARK SMILES IDX 39 71 58 72 59 73 63 74 60 75 62 76 61 77 48 78 49 79 53 80
REMARK SMILES IDX 50 81 52 82 51 83
REMARK H PARENT 17 6 9 16 1 23 1 24 1 25 24 32 68 51 46 62
REMARK Flexibility Score: inf
ROOT
ATOM      1  C   UNL     1      -6.055  -3.877   2.933  1.00  0.00     0.021 C 
ENDROOT
BRANCH   1   2
ATOM      2  C   UNL     1      -5.417  -3.099   1.782  1.00  0.00     0.116 C 
BRANCH   2   3
ATOM      3  N   UNL     1      -5.780  -1.701   1.835  1.00  0.00    -0.349 N 
ATOM      4  C   UNL     1      -5.110  -0.593   2.300  1.00  0.00     0.286 C 
ATOM      5  O   UNL     1      -5.715   0.475   2.166  1.00  0.00    -0.266 OA
ATOM      6  H   UNL     1      -6.673  -1.505   1.471  1.00  0.00     0.163 HD
BRANCH   4   7
ATOM      7  C   UNL     1      -3.780  -0.673   2.881  1.00  0.00     0.191 A 
ATOM      8  C   UNL     1      -1.895   0.283   3.568  1.00  0.00     0.124 A 
ATOM      9  C   UNL     1      -1.716  -1.075   3.709  1.00  0.00     0.048 A 
ATOM     10  O   UNL     1      -3.146   0.532   3.094  1.00  0.00    -0.454 OA
ATOM     11  C   UNL     1      -2.929  -1.681   3.301  1.00  0.00     0.056 A 
BRANCH   8  12
ATOM     12  C   UNL     1      -1.027   1.471   3.780  1.00  0.00     0.191 C 
BRANCH  12  13
ATOM     13  N   UNL     1       0.347   1.040   3.932  1.00  0.00    -0.348 N 
ATOM     14  C   UNL     1       1.370   0.974   3.046  1.00  0.00     0.229 C 
ATOM     15  O   UNL     1       2.339   0.282   3.386  1.00  0.00    -0.275 OA
ATOM     16  H   UNL     1       0.580   0.743   4.841  1.00  0.00     0.163 HD
BRANCH  14  17
ATOM     17  C   UNL     1       1.421   1.729   1.725  1.00  0.00     0.136 C 
ATOM     18  C   UNL     1       0.642   1.196   0.516  1.00  0.00     0.193 C 
ATOM     19  C   UNL     1       0.766   2.361  -0.475  1.00  0.00     0.066 C 
ATOM     20  C   UNL     1       0.773   3.638   0.369  1.00  0.00     0.007 C 
ATOM     21  C   UNL     1       1.149   3.229   1.792  1.00  0.00     0.020 C 
BRANCH  18  22
ATOM     22  N   UNL     1      -0.763   0.877   0.713  1.00  0.00    -0.354 N 
ATOM     23  H   UNL     1      -1.160   0.535  -0.162  1.00  0.00     0.344 HD
ATOM     24  H   UNL     1      -1.263   1.715   1.010  1.00  0.00     0.344 HD
ATOM     25  H   UNL     1      -0.850   0.157   1.431  1.00  0.00     0.344 HD
ENDBRANCH  18  22
ENDBRANCH  14  17
ENDBRANCH  12  13
ENDBRANCH   8  12
ENDBRANCH   4   7
ENDBRANCH   2   3
ENDBRANCH   1   2
BRANCH   1  26
ATOM     26  C   UNL     1      -7.505  -4.300   2.655  1.00  0.00     0.002 C 
BRANCH  26  27
ATOM     27  C   UNL     1      -7.695  -5.228   1.446  1.00  0.00     0.002 C 
BRANCH  27  28
ATOM     28  C   UNL     1      -6.812  -6.480   1.436  1.00  0.00     0.021 C 
BRANCH  28  29
ATOM     29  C   UNL     1      -7.027  -7.417   2.621  1.00  0.00     0.116 C 
BRANCH  29  30
ATOM     30  N   UNL     1      -8.364  -7.988   2.626  1.00  0.00    -0.352 N 
ATOM     31  C   UNL     1      -8.753  -9.304   2.650  1.00  0.00     0.251 C 
ATOM     32  H   UNL     1      -9.099  -7.334   2.609  1.00  0.00     0.163 HD
ATOM     33  O   UNL     1      -9.924  -9.602   2.437  1.00  0.00    -0.269 OA
BRANCH  31  34
ATOM     34  C   UNL     1      -7.762 -10.368   2.918  1.00  0.00     0.039 A 
ATOM     35  C   UNL     1      -7.795 -11.530   2.143  1.00  0.00     0.014 A 
ATOM     36  C   UNL     1      -6.826 -10.237   3.947  1.00  0.00     0.014 A 
ATOM     37  C   UNL     1      -6.855 -12.539   2.364  1.00  0.00     0.010 A 
ATOM     38  C   UNL     1      -5.850 -11.214   4.126  1.00  0.00     0.010 A 
ATOM     39  C   UNL     1      -5.858 -12.376   3.339  1.00  0.00    -0.014 A 
BRANCH  39  40
ATOM     40  C   UNL     1      -4.813 -13.409   3.545  1.00  0.00     0.031 A 
ATOM     41  C   UNL     1      -4.744 -14.174   4.837  1.00  0.00     0.074 A 
ATOM     42  C   UNL     1      -3.886 -13.615   2.590  1.00  0.00     0.049 A 
ATOM     43  N   UNL     1      -3.876 -15.079   5.215  1.00  0.00    -0.248 NA
ATOM     44  C   UNL     1      -5.770 -13.866   5.846  1.00  0.00     0.031 C 
ATOM     45  C   UNL     1      -3.817 -12.909   1.309  1.00  0.00     0.029 A 
ATOM     46  N   UNL     1      -2.817 -14.475   2.554  1.00  0.00    -0.354 N 
ATOM     47  C   UNL     1      -4.239 -15.433   6.508  1.00  0.00     0.074 A 
ATOM     48  C   UNL     1      -5.378 -14.615   6.866  1.00  0.00     0.031 C 
ATOM     49  C   UNL     1      -2.778 -13.382   0.603  1.00  0.00     0.029 A 
ATOM     50  C   UNL     1      -2.087 -14.395   1.394  1.00  0.00     0.049 A 
ATOM     51  H   UNL     1      -2.595 -15.090   3.290  1.00  0.00     0.167 HD
ATOM     52  C   UNL     1      -3.686 -16.366   7.319  1.00  0.00     0.031 A 
ATOM     53  C   UNL     1      -0.983 -15.061   1.009  1.00  0.00     0.031 A 
ATOM     54  C   UNL     1      -2.560 -17.187   6.961  1.00  0.00     0.049 A 
ATOM     55  C   UNL     1      -0.385 -16.088   1.928  1.00  0.00     0.074 A 
ATOM     56  C   UNL     1      -1.967 -18.203   7.690  1.00  0.00     0.029 A 
ATOM     57  N   UNL     1      -1.855 -17.081   5.773  1.00  0.00    -0.354 N 
ATOM     58  N   UNL     1      -0.783 -16.462   3.119  1.00  0.00    -0.248 NA
ATOM     59  C   UNL     1       0.809 -16.794   1.442  1.00  0.00     0.031 C 
ATOM     60  C   UNL     1      -0.872 -18.681   6.961  1.00  0.00     0.029 A 
ATOM     61  C   UNL     1      -0.816 -17.997   5.758  1.00  0.00     0.049 A 
ATOM     62  H   UNL     1      -2.061 -16.449   5.047  1.00  0.00     0.167 HD
ATOM     63  C   UNL     1       0.096 -17.460   3.516  1.00  0.00     0.074 A 
ATOM     64  C   UNL     1       1.039 -17.645   2.432  1.00  0.00     0.031 C 
ATOM     65  C   UNL     1       0.119 -18.163   4.675  1.00  0.00     0.031 A 
BRANCH  52  66
ATOM     66  C   UNL     1      -4.292 -16.538   8.685  1.00  0.00    -0.014 A 
ATOM     67  C   UNL     1      -5.561 -17.116   8.851  1.00  0.00     0.009 A 
ATOM     68  C   UNL     1      -3.574 -16.140   9.823  1.00  0.00     0.009 A 
ATOM     69  C   UNL     1      -6.115 -17.253  10.125  1.00  0.00     0.001 A 
ATOM     70  C   UNL     1      -4.118 -16.305  11.098  1.00  0.00     0.001 A 
ATOM     71  C   UNL     1      -5.392 -16.851  11.248  1.00  0.00     0.000 A 
ENDBRANCH  52  66
BRANCH  53  72
ATOM     72  C   UNL     1      -0.382 -14.790  -0.322  1.00  0.00    -0.014 A 
ATOM     73  C   UNL     1      -0.498 -15.729  -1.357  1.00  0.00     0.009 A 
ATOM     74  C   UNL     1       0.300 -13.588  -0.566  1.00  0.00     0.009 A 
ATOM     75  C   UNL     1       0.075 -15.479  -2.606  1.00  0.00     0.001 A 
ATOM     76  C   UNL     1       0.850 -13.330  -1.824  1.00  0.00     0.001 A 
ATOM     77  C   UNL     1       0.744 -14.279  -2.840  1.00  0.00     0.000 A 
ENDBRANCH  53  72
BRANCH  65  78
ATOM     78  C   UNL     1       1.183 -19.214   4.817  1.00  0.00    -0.014 A 
ATOM     79  C   UNL     1       2.525 -18.865   5.035  1.00  0.00     0.009 A 
ATOM     80  C   UNL     1       0.830 -20.571   4.768  1.00  0.00     0.009 A 
ATOM     81  C   UNL     1       3.498 -19.857   5.170  1.00  0.00     0.001 A 
ATOM     82  C   UNL     1       1.801 -21.561   4.930  1.00  0.00     0.001 A 
ATOM     83  C   UNL     1       3.135 -21.203   5.122  1.00  0.00     0.000 A 
ENDBRANCH  65  78
ENDBRANCH  39  40
ENDBRANCH  31  34
ENDBRANCH  29  30
ENDBRANCH  28  29
ENDBRANCH  27  28
ENDBRANCH  26  27
ENDBRANCH   1  26
TORSDOF 17
