REMARK SMILES C[C@H]1Oc2ccccc2C=C1/C=C/C(=O)N[C@H](C(=O)NCCCCCCNC(=O)c1ccc(-c2c3nc(c(-c4ccccc4)c4ccc([nH]4)c(-c4ccccc4)c4nc(c(-c5ccccc5)c5ccc2[nH]5)C=C4)C=C3)cc1)c1ccccc1
REMARK SMILES IDX 23 1 22 2 21 3 20 4 18 5 19 6 17 8 16 9 14 10 15 11 13 13
REMARK SMILES IDX 12 14 11 15 1 16 2 17 3 18 4 19 10 20 5 21 9 22 6 23 8 24
REMARK SMILES IDX 7 25 78 26 79 27 83 28 80 29 82 30 81 31 24 32 25 33 26 34
REMARK SMILES IDX 27 35 28 36 29 38 30 39 31 40 77 41 32 42 76 43 33 44 34 45
REMARK SMILES IDX 35 46 70 47 36 48 75 49 69 50 71 51 37 52 74 53 68 54 67 55
REMARK SMILES IDX 38 57 60 58 45 59 59 60 46 61 49 62 58 63 72 64 47 65 48 66
REMARK SMILES IDX 57 68 73 69 50 70 39 71 40 72 44 73 41 74 43 75 42 76 61 77
REMARK SMILES IDX 62 78 66 79 63 80 65 81 64 82 51 83 52 84 56 85 53 86 55 87
REMARK SMILES IDX 54 88
REMARK H PARENT 20 7 16 12 27 37 71 56 49 67
REMARK Flexibility Score: inf
ROOT
ATOM      1  C   UNL     1      -1.417  -2.280  -1.923  1.00  0.00     0.002 C 
ENDROOT
BRANCH   1   2
ATOM      2  C   UNL     1      -0.000  -1.768  -1.624  1.00  0.00     0.021 C 
BRANCH   2   3
ATOM      3  C   UNL     1       0.580  -2.330  -0.322  1.00  0.00     0.116 C 
BRANCH   3   4
ATOM      4  N   UNL     1       0.910  -3.723  -0.516  1.00  0.00    -0.354 N 
ATOM      5  C   UNL     1       2.006  -4.085  -1.266  1.00  0.00     0.247 C 
ATOM      6  O   UNL     1       1.807  -4.774  -2.266  1.00  0.00    -0.272 OA
ATOM      7  H   UNL     1       0.347  -4.420  -0.108  1.00  0.00     0.163 HD
BRANCH   5   8
ATOM      8  C   UNL     1       3.392  -3.568  -0.798  1.00  0.00     0.202 C 
BRANCH   8   9
ATOM      9  N   UNL     1       3.788  -4.052   0.530  1.00  0.00    -0.337 N 
ATOM     10  C   UNL     1       4.052  -5.225   1.141  1.00  0.00     0.244 C 
ATOM     11  O   UNL     1       4.375  -5.164   2.332  1.00  0.00    -0.270 OA
ATOM     12  H   UNL     1       3.892  -3.301   1.159  1.00  0.00     0.164 HD
BRANCH  10  13
ATOM     13  C   UNL     1       4.006  -6.576   0.529  1.00  0.00     0.071 C 
ATOM     14  C   UNL     1       3.539  -6.930  -0.671  1.00  0.00     0.013 C 
BRANCH  14  15
ATOM     15  C   UNL     1       3.572  -8.219  -1.345  1.00  0.00    -0.007 C 
ATOM     16  C   UNL     1       3.807  -7.387  -3.752  1.00  0.00     0.058 C 
ATOM     17  C   UNL     1       2.988  -8.226  -2.764  1.00  0.00     0.200 C 
ATOM     18  O   UNL     1       2.807  -9.518  -3.371  1.00  0.00    -0.485 OA
ATOM     19  C   UNL     1       3.540 -10.555  -2.876  1.00  0.00     0.127 A 
ATOM     20  C   UNL     1       4.105  -9.326  -0.810  1.00  0.00     0.019 C 
ATOM     21  C   UNL     1       3.608 -11.693  -3.678  1.00  0.00     0.047 A 
ATOM     22  C   UNL     1       4.166 -10.528  -1.629  1.00  0.00     0.017 A 
ATOM     23  C   UNL     1       4.308 -12.815  -3.237  1.00  0.00     0.004 A 
ATOM     24  C   UNL     1       4.853 -11.661  -1.183  1.00  0.00     0.012 A 
ATOM     25  C   UNL     1       4.925 -12.801  -1.988  1.00  0.00     0.001 A 
ENDBRANCH  14  15
ENDBRANCH  10  13
ENDBRANCH   8   9
BRANCH   8  26
ATOM     26  C   UNL     1       4.464  -3.454  -1.867  1.00  0.00    -0.016 A 
ATOM     27  C   UNL     1       4.529  -2.261  -2.620  1.00  0.00     0.006 A 
ATOM     28  C   UNL     1       5.376  -4.465  -2.180  1.00  0.00     0.006 A 
ATOM     29  C   UNL     1       5.460  -2.096  -3.646  1.00  0.00     0.000 A 
ATOM     30  C   UNL     1       6.288  -4.314  -3.230  1.00  0.00     0.000 A 
ATOM     31  C   UNL     1       6.332  -3.131  -3.960  1.00  0.00     0.000 A 
ENDBRANCH   8  26
ENDBRANCH   5   8
ENDBRANCH   3   4
ENDBRANCH   2   3
ENDBRANCH   1   2
BRANCH   1  32
ATOM     32  C   UNL     1      -2.444  -1.978  -0.825  1.00  0.00     0.002 C 
BRANCH  32  33
ATOM     33  C   UNL     1      -2.418  -0.536  -0.320  1.00  0.00     0.021 C 
BRANCH  33  34
ATOM     34  C   UNL     1      -2.630   0.496  -1.415  1.00  0.00     0.116 C 
BRANCH  34  35
ATOM     35  N   UNL     1      -3.999   0.498  -1.899  1.00  0.00    -0.352 N 
ATOM     36  C   UNL     1      -4.861   1.564  -1.980  1.00  0.00     0.251 C 
ATOM     37  H   UNL     1      -4.352  -0.369  -2.206  1.00  0.00     0.163 HD
ATOM     38  O   UNL     1      -6.054   1.401  -2.211  1.00  0.00    -0.269 OA
BRANCH  36  39
ATOM     39  C   UNL     1      -4.319   2.918  -1.748  1.00  0.00     0.039 A 
ATOM     40  C   UNL     1      -3.149   3.317  -2.398  1.00  0.00     0.014 A 
ATOM     41  C   UNL     1      -4.938   3.753  -0.816  1.00  0.00     0.014 A 
ATOM     42  C   UNL     1      -2.510   4.482  -1.999  1.00  0.00     0.010 A 
ATOM     43  C   UNL     1      -4.341   4.972  -0.488  1.00  0.00     0.010 A 
ATOM     44  C   UNL     1      -3.102   5.327  -1.045  1.00  0.00    -0.014 A 
BRANCH  44  45
ATOM     45  C   UNL     1      -2.414   6.585  -0.661  1.00  0.00     0.031 A 
ATOM     46  C   UNL     1      -1.928   6.806   0.745  1.00  0.00     0.074 A 
ATOM     47  C   UNL     1      -2.190   7.516  -1.609  1.00  0.00     0.049 A 
ATOM     48  N   UNL     1      -1.308   7.845   1.244  1.00  0.00    -0.248 NA
ATOM     49  C   UNL     1      -2.167   5.728   1.719  1.00  0.00     0.031 C 
ATOM     50  C   UNL     1      -2.592   7.400  -3.013  1.00  0.00     0.029 A 
ATOM     51  N   UNL     1      -1.546   8.726  -1.547  1.00  0.00    -0.354 N 
ATOM     52  C   UNL     1      -1.102   7.557   2.588  1.00  0.00     0.074 A 
ATOM     53  C   UNL     1      -1.685   6.257   2.836  1.00  0.00     0.031 C 
ATOM     54  C   UNL     1      -2.134   8.462  -3.690  1.00  0.00     0.029 A 
ATOM     55  C   UNL     1      -1.480   9.372  -2.757  1.00  0.00     0.049 A 
ATOM     56  H   UNL     1      -1.169   9.095  -0.716  1.00  0.00     0.167 HD
ATOM     57  C   UNL     1      -0.474   8.307   3.524  1.00  0.00     0.031 A 
ATOM     58  C   UNL     1      -0.968  10.573  -3.086  1.00  0.00     0.031 A 
ATOM     59  C   UNL     1       0.113   9.596   3.265  1.00  0.00     0.049 A 
ATOM     60  C   UNL     1      -0.330  11.410  -2.015  1.00  0.00     0.074 A 
ATOM     61  C   UNL     1       0.788  10.422   4.147  1.00  0.00     0.029 A 
ATOM     62  N   UNL     1       0.098  10.245   2.039  1.00  0.00    -0.354 N 
ATOM     63  N   UNL     1      -0.138  11.119  -0.752  1.00  0.00    -0.248 NA
ATOM     64  C   UNL     1       0.158  12.738  -2.411  1.00  0.00     0.031 C 
ATOM     65  C   UNL     1       1.122  11.598   3.474  1.00  0.00     0.029 A 
ATOM     66  C   UNL     1       0.725  11.474   2.151  1.00  0.00     0.049 A 
ATOM     67  H   UNL     1      -0.299   9.885   1.214  1.00  0.00     0.167 HD
ATOM     68  C   UNL     1       0.505  12.220  -0.203  1.00  0.00     0.074 A 
ATOM     69  C   UNL     1       0.689  13.175  -1.276  1.00  0.00     0.031 C 
ATOM     70  C   UNL     1       0.901  12.418   1.077  1.00  0.00     0.031 A 
BRANCH  57  71
ATOM     71  C   UNL     1      -0.392   7.774   4.929  1.00  0.00    -0.014 A 
ATOM     72  C   UNL     1      -1.089   8.424   5.961  1.00  0.00     0.009 A 
ATOM     73  C   UNL     1       0.457   6.705   5.254  1.00  0.00     0.009 A 
ATOM     74  C   UNL     1      -0.926   8.027   7.290  1.00  0.00     0.001 A 
ATOM     75  C   UNL     1       0.596   6.291   6.581  1.00  0.00     0.001 A 
ATOM     76  C   UNL     1      -0.086   6.959   7.598  1.00  0.00     0.000 A 
ENDBRANCH  57  71
BRANCH  58  77
ATOM     77  C   UNL     1      -1.048  11.036  -4.496  1.00  0.00    -0.014 A 
ATOM     78  C   UNL     1      -2.292  11.313  -5.087  1.00  0.00     0.009 A 
ATOM     79  C   UNL     1       0.110  11.134  -5.281  1.00  0.00     0.009 A 
ATOM     80  C   UNL     1      -2.380  11.642  -6.441  1.00  0.00     0.001 A 
ATOM     81  C   UNL     1       0.022  11.497  -6.628  1.00  0.00     0.001 A 
ATOM     82  C   UNL     1      -1.222  11.737  -7.209  1.00  0.00     0.000 A 
ENDBRANCH  58  77
BRANCH  70  83
ATOM     83  C   UNL     1       1.590  13.713   1.407  1.00  0.00    -0.014 A 
ATOM     84  C   UNL     1       2.947  13.707   1.767  1.00  0.00     0.009 A 
ATOM     85  C   UNL     1       0.874  14.918   1.474  1.00  0.00     0.009 A 
ATOM     86  C   UNL     1       3.569  14.875   2.209  1.00  0.00     0.001 A 
ATOM     87  C   UNL     1       1.507  16.092   1.886  1.00  0.00     0.001 A 
ATOM     88  C   UNL     1       2.849  16.067   2.264  1.00  0.00     0.000 A 
ENDBRANCH  70  83
ENDBRANCH  44  45
ENDBRANCH  36  39
ENDBRANCH  34  35
ENDBRANCH  33  34
ENDBRANCH  32  33
ENDBRANCH   1  32
TORSDOF 17
