REMARK SMILES Cc1cc(Br)cc(C(=O)NCCCCCCNC(=O)c2ccc(-c3c4nc(c(-c5ccccc5)c5ccc([nH]5)c(-c5ccccc5)c5nc(c(-c6ccccc6)c6ccc3[nH]6)C=C5)C=C4)cc2)c1Br
REMARK SMILES IDX 14 1 13 2 12 3 11 4 10 5 8 6 9 7 7 9 1 10 2 11 3 12 68 13
REMARK SMILES IDX 4 14 69 15 5 16 6 17 15 18 16 19 17 20 18 21 19 23 20 24
REMARK SMILES IDX 21 25 67 26 22 27 66 28 23 29 24 30 25 31 60 32 26 33 65 34
REMARK SMILES IDX 59 35 61 36 27 37 64 38 58 39 57 40 28 42 50 43 35 44 49 45
REMARK SMILES IDX 36 46 39 47 48 48 62 49 37 50 38 51 47 53 63 54 40 55 29 56
REMARK SMILES IDX 30 57 34 58 31 59 33 60 32 61 51 62 52 63 56 64 53 65 55 66
REMARK SMILES IDX 54 67 41 68 42 69 46 70 43 71 45 72 44 73
REMARK H PARENT 10 8 17 22 61 41 39 52
REMARK Flexibility Score: inf
ROOT
ATOM      1  C   UNL     1      -5.571   0.166   3.404  1.00  0.00     0.002 C 
ENDROOT
BRANCH   1   2
ATOM      2  C   UNL     1      -5.809  -0.643   2.125  1.00  0.00     0.002 C 
BRANCH   2   3
ATOM      3  C   UNL     1      -4.708  -0.656   1.057  1.00  0.00     0.021 C 
BRANCH   3   4
ATOM      4  C   UNL     1      -3.283  -0.941   1.522  1.00  0.00     0.116 C 
BRANCH   4   5
ATOM      5  N   UNL     1      -3.084  -2.238   2.134  1.00  0.00    -0.352 N 
ATOM      6  C   UNL     1      -1.972  -3.047   2.170  1.00  0.00     0.252 C 
ATOM      7  O   UNL     1      -2.016  -4.072   2.850  1.00  0.00    -0.269 OA
ATOM      8  H   UNL     1      -3.872  -2.599   2.600  1.00  0.00     0.163 HD
BRANCH   6   9
ATOM      9  C   UNL     1      -0.770  -2.814   1.323  1.00  0.00     0.055 A 
ATOM     10  C   UNL     1       1.730  -0.220  -0.010  1.00  0.00     0.045 C 
ATOM     11  C   UNL     1       1.039  -1.522   0.306  1.00  0.00    -0.035 A 
ATOM     12  C   UNL     1       1.416  -2.657  -0.432  1.00  0.00     0.020 A 
ATOM     13  C   UNL     1      -0.012  -1.631   1.249  1.00  0.00     0.033 A 
ATOM     14  C   UNL     1       0.754  -3.866  -0.252  1.00  0.00     0.019 A 
ATOM     15  Br  UNL     1      -0.214  -0.242   2.544  1.00  0.00    -0.050 Br
ATOM     16  Br  UNL     1       1.359  -5.409  -1.161  1.00  0.00    -0.051 Br
ATOM     17  C   UNL     1      -0.349  -3.941   0.591  1.00  0.00     0.030 A 
ENDBRANCH   6   9
ENDBRANCH   4   5
ENDBRANCH   3   4
ENDBRANCH   2   3
ENDBRANCH   1   2
BRANCH   1  18
ATOM     18  C   UNL     1      -5.103   1.612   3.251  1.00  0.00     0.021 C 
BRANCH  18  19
ATOM     19  C   UNL     1      -5.923   2.503   2.328  1.00  0.00     0.116 C 
BRANCH  19  20
ATOM     20  N   UNL     1      -7.279   2.745   2.791  1.00  0.00    -0.352 N 
ATOM     21  C   UNL     1      -7.954   3.936   2.938  1.00  0.00     0.251 C 
ATOM     22  H   UNL     1      -7.790   1.939   3.036  1.00  0.00     0.163 HD
ATOM     23  O   UNL     1      -9.085   3.952   3.418  1.00  0.00    -0.269 OA
BRANCH  21  24
ATOM     24  C   UNL     1      -7.298   5.211   2.566  1.00  0.00     0.039 A 
ATOM     25  C   UNL     1      -6.607   5.342   1.360  1.00  0.00     0.014 A 
ATOM     26  C   UNL     1      -7.347   6.283   3.462  1.00  0.00     0.014 A 
ATOM     27  C   UNL     1      -5.812   6.463   1.140  1.00  0.00     0.010 A 
ATOM     28  C   UNL     1      -6.615   7.446   3.199  1.00  0.00     0.010 A 
ATOM     29  C   UNL     1      -5.793   7.521   2.064  1.00  0.00    -0.014 A 
BRANCH  29  30
ATOM     30  C   UNL     1      -4.888   8.679   1.837  1.00  0.00     0.031 A 
ATOM     31  C   UNL     1      -3.739   8.953   2.772  1.00  0.00     0.074 A 
ATOM     32  C   UNL     1      -5.061   9.451   0.747  1.00  0.00     0.049 A 
ATOM     33  N   UNL     1      -2.828   9.892   2.702  1.00  0.00    -0.248 NA
ATOM     34  C   UNL     1      -3.588   8.061   3.933  1.00  0.00     0.031 C 
ATOM     35  C   UNL     1      -6.119   9.274  -0.249  1.00  0.00     0.029 A 
ATOM     36  N   UNL     1      -4.334  10.517   0.276  1.00  0.00    -0.354 N 
ATOM     37  C   UNL     1      -2.011   9.714   3.812  1.00  0.00     0.074 A 
ATOM     38  C   UNL     1      -2.548   8.597   4.557  1.00  0.00     0.031 C 
ATOM     39  C   UNL     1      -5.938  10.158  -1.242  1.00  0.00     0.029 A 
ATOM     40  C   UNL     1      -4.793  11.005  -0.923  1.00  0.00     0.049 A 
ATOM     41  H   UNL     1      -3.559  10.894   0.752  1.00  0.00     0.167 HD
ATOM     42  C   UNL     1      -0.906  10.410   4.173  1.00  0.00     0.031 A 
ATOM     43  C   UNL     1      -4.352  12.026  -1.683  1.00  0.00     0.031 A 
ATOM     44  C   UNL     1      -0.365  11.516   3.428  1.00  0.00     0.049 A 
ATOM     45  C   UNL     1      -3.159  12.818  -1.234  1.00  0.00     0.074 A 
ATOM     46  C   UNL     1       0.761  12.271   3.710  1.00  0.00     0.029 A 
ATOM     47  N   UNL     1      -0.906  12.025   2.259  1.00  0.00    -0.354 N 
ATOM     48  N   UNL     1      -2.397  12.632  -0.183  1.00  0.00    -0.248 NA
ATOM     49  C   UNL     1      -2.765  13.961  -2.069  1.00  0.00     0.031 C 
ATOM     50  C   UNL     1       0.869  13.272   2.743  1.00  0.00     0.029 A 
ATOM     51  C   UNL     1      -0.152  13.101   1.821  1.00  0.00     0.049 A 
ATOM     52  H   UNL     1      -1.707  11.675   1.806  1.00  0.00     0.167 HD
ATOM     53  C   UNL     1      -1.429  13.626  -0.236  1.00  0.00     0.074 A 
ATOM     54  C   UNL     1      -1.687  14.401  -1.432  1.00  0.00     0.031 C 
ATOM     55  C   UNL     1      -0.420  13.871   0.634  1.00  0.00     0.031 A 
BRANCH  42  56
ATOM     56  C   UNL     1      -0.203  10.011   5.442  1.00  0.00    -0.014 A 
ATOM     57  C   UNL     1      -0.224  10.873   6.551  1.00  0.00     0.009 A 
ATOM     58  C   UNL     1       0.553   8.831   5.515  1.00  0.00     0.009 A 
ATOM     59  C   UNL     1       0.503  10.567   7.702  1.00  0.00     0.001 A 
ATOM     60  C   UNL     1       1.257   8.513   6.679  1.00  0.00     0.001 A 
ATOM     61  C   UNL     1       1.239   9.385   7.768  1.00  0.00     0.000 A 
ENDBRANCH  42  56
BRANCH  43  62
ATOM     62  C   UNL     1      -5.053  12.337  -2.956  1.00  0.00    -0.014 A 
ATOM     63  C   UNL     1      -6.361  12.851  -2.943  1.00  0.00     0.009 A 
ATOM     64  C   UNL     1      -4.447  12.059  -4.189  1.00  0.00     0.009 A 
ATOM     65  C   UNL     1      -7.059  13.046  -4.136  1.00  0.00     0.001 A 
ATOM     66  C   UNL     1      -5.137  12.284  -5.383  1.00  0.00     0.001 A 
ATOM     67  C   UNL     1      -6.446  12.766  -5.355  1.00  0.00     0.000 A 
ENDBRANCH  43  62
BRANCH  55  68
ATOM     68  C   UNL     1       0.500  15.021   0.336  1.00  0.00    -0.014 A 
ATOM     69  C   UNL     1       1.831  14.770  -0.036  1.00  0.00     0.009 A 
ATOM     70  C   UNL     1       0.085  16.347   0.528  1.00  0.00     0.009 A 
ATOM     71  C   UNL     1       2.733  15.823  -0.195  1.00  0.00     0.001 A 
ATOM     72  C   UNL     1       0.983  17.401   0.342  1.00  0.00     0.001 A 
ATOM     73  C   UNL     1       2.307  17.137  -0.008  1.00  0.00     0.000 A 
ENDBRANCH  55  68
ENDBRANCH  29  30
ENDBRANCH  21  24
ENDBRANCH  19  20
ENDBRANCH  18  19
ENDBRANCH   1  18
TORSDOF 13
