REMARK SMILES Cc1ccccc1-c1c(Cl)ccc2c1C=C(C(=O)NCCCCCCNC(=O)c1ccc(-c3c4nc(c(-c5ccccc5)c5ccc([nH]5)c(-c5ccccc5)c5nc(c(-c6ccccc6)c6ccc3[nH]6)C=C5)C=C4)cc1)[C@@H](C(F)(F)F)O2
REMARK SMILES IDX 23 1 22 2 21 3 20 4 19 5 17 6 18 7 16 9 8 10 9 11 14 12
REMARK SMILES IDX 10 13 11 14 13 15 15 16 12 17 82 18 77 19 7 20 1 21 2 22
REMARK SMILES IDX 3 23 4 24 6 25 5 26 78 27 79 28 80 29 81 30 24 31 25 32
REMARK SMILES IDX 26 33 27 34 28 36 29 37 30 38 76 39 31 40 75 41 32 42 33 43
REMARK SMILES IDX 34 44 69 45 35 46 74 47 68 48 70 49 36 50 73 51 67 52 66 53
REMARK SMILES IDX 37 55 59 56 44 57 58 58 45 59 48 60 57 61 71 62 46 63 47 64
REMARK SMILES IDX 56 66 72 67 49 68 38 69 39 70 43 71 40 72 42 73 41 74 60 75
REMARK SMILES IDX 61 76 65 77 62 78 64 79 63 80 50 81 51 82 55 83 52 84 54 85
REMARK SMILES IDX 53 86
REMARK H PARENT 19 8 26 35 70 54 48 65
REMARK Flexibility Score: inf
ROOT
ATOM      1  C   UNL     1       7.201  -1.929   0.084  1.00  0.00     0.002 C 
ENDROOT
BRANCH   1   2
ATOM      2  C   UNL     1       7.467  -1.646  -1.404  1.00  0.00     0.002 C 
BRANCH   2   3
ATOM      3  C   UNL     1       6.254  -1.434  -2.324  1.00  0.00     0.021 C 
BRANCH   3   4
ATOM      4  C   UNL     1       5.227  -0.394  -1.876  1.00  0.00     0.116 C 
BRANCH   4   5
ATOM      5  N   UNL     1       5.769   0.942  -1.812  1.00  0.00    -0.352 N 
ATOM      6  C   UNL     1       5.198   2.146  -2.071  1.00  0.00     0.251 C 
ATOM      7  O   UNL     1       5.893   3.148  -1.913  1.00  0.00    -0.270 OA
ATOM      8  H   UNL     1       6.712   0.988  -1.532  1.00  0.00     0.163 HD
BRANCH   6   9
ATOM      9  C   UNL     1       3.784   2.253  -2.592  1.00  0.00     0.067 C 
ATOM     10  C   UNL     1       1.230   2.403   0.127  1.00  0.00     0.012 A 
ATOM     11  C   UNL     1       0.907   3.385   1.099  1.00  0.00     0.049 A 
ATOM     12  C   UNL     1       2.156   2.770  -0.885  1.00  0.00     0.027 A 
ATOM     13  Cl  UNL     1      -0.095   3.028   2.471  1.00  0.00    -0.084 Cl
ATOM     14  C   UNL     1       1.387   4.696   1.007  1.00  0.00     0.025 A 
ATOM     15  C   UNL     1       2.538   4.122  -1.021  1.00  0.00     0.128 A 
ATOM     16  C   UNL     1       2.827   1.780  -1.766  1.00  0.00     0.026 C 
ATOM     17  C   UNL     1       2.168   5.073  -0.077  1.00  0.00     0.049 A 
ATOM     18  O   UNL     1       3.285   4.603  -2.068  1.00  0.00    -0.475 OA
ATOM     19  C   UNL     1       3.561   3.663  -3.132  1.00  0.00     0.314 C 
BRANCH  10  20
ATOM     20  C   UNL     1       0.484   1.115   0.096  1.00  0.00    -0.013 A 
ATOM     21  C   UNL     1       2.469  -0.385   0.729  1.00  0.00     0.045 C 
ATOM     22  C   UNL     1       1.030  -0.154   0.374  1.00  0.00    -0.043 A 
ATOM     23  C   UNL     1       0.207  -1.299   0.297  1.00  0.00     0.004 A 
ATOM     24  C   UNL     1      -1.147  -1.201  -0.014  1.00  0.00     0.000 A 
ATOM     25  C   UNL     1      -0.892   1.179  -0.230  1.00  0.00     0.009 A 
ATOM     26  C   UNL     1      -1.701   0.043  -0.271  1.00  0.00     0.001 A 
ENDBRANCH  10  20
BRANCH  19  27
ATOM     27  C   UNL     1       2.490   3.709  -4.234  1.00  0.00     0.429 C 
ATOM     28  F   UNL     1       2.416   4.936  -4.801  1.00  0.00    -0.167 F 
ATOM     29  F   UNL     1       2.782   2.835  -5.231  1.00  0.00    -0.167 F 
ATOM     30  F   UNL     1       1.253   3.396  -3.785  1.00  0.00    -0.167 F 
ENDBRANCH  19  27
ENDBRANCH   6   9
ENDBRANCH   4   5
ENDBRANCH   3   4
ENDBRANCH   2   3
ENDBRANCH   1   2
BRANCH   1  31
ATOM     31  C   UNL     1       6.151  -2.990   0.422  1.00  0.00     0.021 C 
BRANCH  31  32
ATOM     32  C   UNL     1       6.462  -4.389  -0.098  1.00  0.00     0.116 C 
BRANCH  32  33
ATOM     33  N   UNL     1       6.789  -5.368   0.936  1.00  0.00    -0.352 N 
ATOM     34  C   UNL     1       7.162  -6.698   0.786  1.00  0.00     0.251 C 
ATOM     35  H   UNL     1       6.738  -5.041   1.863  1.00  0.00     0.163 HD
ATOM     36  O   UNL     1       7.451  -7.379   1.751  1.00  0.00    -0.269 OA
BRANCH  34  37
ATOM     37  C   UNL     1       7.337  -7.235  -0.588  1.00  0.00     0.039 A 
ATOM     38  C   UNL     1       8.556  -7.846  -0.897  1.00  0.00     0.014 A 
ATOM     39  C   UNL     1       6.434  -6.916  -1.597  1.00  0.00     0.014 A 
ATOM     40  C   UNL     1       8.983  -7.871  -2.223  1.00  0.00     0.010 A 
ATOM     41  C   UNL     1       6.895  -6.840  -2.896  1.00  0.00     0.010 A 
ATOM     42  C   UNL     1       8.200  -7.243  -3.192  1.00  0.00    -0.014 A 
BRANCH  42  43
ATOM     43  C   UNL     1       8.725  -6.845  -4.492  1.00  0.00     0.031 A 
ATOM     44  C   UNL     1       8.415  -7.624  -5.701  1.00  0.00     0.074 A 
ATOM     45  C   UNL     1       9.508  -5.748  -4.610  1.00  0.00     0.049 A 
ATOM     46  N   UNL     1       9.226  -7.742  -6.700  1.00  0.00    -0.248 NA
ATOM     47  C   UNL     1       7.170  -8.364  -5.864  1.00  0.00     0.031 C 
ATOM     48  C   UNL     1       9.948  -5.106  -5.848  1.00  0.00     0.029 A 
ATOM     49  N   UNL     1      10.271  -5.126  -3.623  1.00  0.00    -0.354 N 
ATOM     50  C   UNL     1       8.503  -8.281  -7.734  1.00  0.00     0.074 A 
ATOM     51  C   UNL     1       7.266  -8.743  -7.142  1.00  0.00     0.031 C 
ATOM     52  C   UNL     1      11.091  -4.446  -5.602  1.00  0.00     0.029 A 
ATOM     53  C   UNL     1      11.479  -4.749  -4.236  1.00  0.00     0.049 A 
ATOM     54  H   UNL     1      10.015  -4.980  -2.684  1.00  0.00     0.167 HD
ATOM     55  C   UNL     1       8.934  -8.147  -9.017  1.00  0.00     0.031 A 
ATOM     56  C   UNL     1      12.703  -5.193  -3.825  1.00  0.00     0.031 A 
ATOM     57  C   UNL     1      10.190  -7.415  -9.129  1.00  0.00     0.049 A 
ATOM     58  C   UNL     1      13.495  -5.902  -4.909  1.00  0.00     0.074 A 
ATOM     59  C   UNL     1      10.526  -6.128  -9.520  1.00  0.00     0.029 A 
ATOM     60  N   UNL     1      11.326  -7.940  -8.537  1.00  0.00    -0.354 N 
ATOM     61  N   UNL     1      13.061  -6.120  -6.118  1.00  0.00    -0.248 NA
ATOM     62  C   UNL     1      14.787  -6.548  -4.664  1.00  0.00     0.031 C 
ATOM     63  C   UNL     1      11.888  -5.897  -9.181  1.00  0.00     0.029 A 
ATOM     64  C   UNL     1      12.377  -7.045  -8.589  1.00  0.00     0.049 A 
ATOM     65  H   UNL     1      11.379  -8.835  -8.131  1.00  0.00     0.167 HD
ATOM     66  C   UNL     1      13.925  -6.958  -6.775  1.00  0.00     0.074 A 
ATOM     67  C   UNL     1      14.994  -7.196  -5.824  1.00  0.00     0.031 C 
ATOM     68  C   UNL     1      13.659  -7.437  -8.025  1.00  0.00     0.031 A 
BRANCH  55  69
ATOM     69  C   UNL     1       8.034  -8.459 -10.180  1.00  0.00    -0.014 A 
ATOM     70  C   UNL     1       8.044  -7.635 -11.318  1.00  0.00     0.009 A 
ATOM     71  C   UNL     1       7.129  -9.534 -10.187  1.00  0.00     0.009 A 
ATOM     72  C   UNL     1       7.129  -7.810 -12.361  1.00  0.00     0.001 A 
ATOM     73  C   UNL     1       6.182  -9.689 -11.208  1.00  0.00     0.001 A 
ATOM     74  C   UNL     1       6.175  -8.817 -12.291  1.00  0.00     0.000 A 
ENDBRANCH  55  69
BRANCH  56  75
ATOM     75  C   UNL     1      12.749  -5.560  -2.382  1.00  0.00    -0.014 A 
ATOM     76  C   UNL     1      12.529  -4.544  -1.429  1.00  0.00     0.009 A 
ATOM     77  C   UNL     1      12.610  -6.897  -1.984  1.00  0.00     0.009 A 
ATOM     78  C   UNL     1      12.050  -4.856  -0.154  1.00  0.00     0.001 A 
ATOM     79  C   UNL     1      12.153  -7.204  -0.698  1.00  0.00     0.001 A 
ATOM     80  C   UNL     1      11.833  -6.184   0.199  1.00  0.00     0.000 A 
ENDBRANCH  56  75
BRANCH  68  81
ATOM     81  C   UNL     1      14.548  -8.359  -8.824  1.00  0.00    -0.014 A 
ATOM     82  C   UNL     1      15.945  -8.370  -8.729  1.00  0.00     0.009 A 
ATOM     83  C   UNL     1      13.979  -9.195  -9.812  1.00  0.00     0.009 A 
ATOM     84  C   UNL     1      16.724  -9.227  -9.521  1.00  0.00     0.001 A 
ATOM     85  C   UNL     1      14.750 -10.035 -10.618  1.00  0.00     0.001 A 
ATOM     86  C   UNL     1      16.126 -10.063 -10.461  1.00  0.00     0.000 A 
ENDBRANCH  68  81
ENDBRANCH  42  43
ENDBRANCH  34  37
ENDBRANCH  32  33
ENDBRANCH  31  32
ENDBRANCH   1  31
TORSDOF 15
