REMARK SMILES C[C@H](NC(=O)OCc1ccccc1)C(=O)NCC(=O)N1CCC[C@H]1C(=O)NCCCCCCNC(=O)c1ccc(-c2c3nc(c(-c4ccccc4)c4ccc([nH]4)c(-c4ccccc4)c4nc(c(-c5ccccc5)c5ccc2[nH]5)C=C4)C=C3)cc1
REMARK SMILES IDX 25 1 26 2 27 3 24 5 20 6 21 7 22 8 23 9 18 10 19 11 17 12
REMARK SMILES IDX 16 13 14 14 15 15 2 17 1 18 3 19 4 20 5 22 6 23 7 24 8 25
REMARK SMILES IDX 9 26 13 27 10 28 12 29 11 30 28 31 29 32 30 33 31 34 32 35
REMARK SMILES IDX 33 36 34 37 35 38 36 40 37 41 38 42 84 43 39 44 83 45 40 46
REMARK SMILES IDX 41 47 42 48 77 49 43 50 82 51 76 52 78 53 44 54 81 55 75 56
REMARK SMILES IDX 74 57 45 59 67 60 52 61 66 62 53 63 56 64 65 65 79 66 54 67
REMARK SMILES IDX 55 68 64 70 80 71 57 72 46 73 47 74 51 75 48 76 50 77 49 78
REMARK SMILES IDX 68 79 69 80 73 81 70 82 72 83 71 84 58 85 59 86 63 87 60 88
REMARK SMILES IDX 62 89 61 90
REMARK H PARENT 27 4 16 16 3 21 34 39 78 58 56 69
REMARK Flexibility Score: inf
ROOT
ATOM      1  C   UNL     1      -1.489  -4.776  -0.769  1.00  0.00     0.242 C 
ATOM      2  O   UNL     1      -2.676  -4.480  -0.926  1.00  0.00    -0.273 OA
ATOM      3  N   UNL     1      -1.119  -6.083  -0.930  1.00  0.00    -0.354 N 
ATOM      4  H   UNL     1      -1.827  -6.689  -1.249  1.00  0.00     0.163 HD
ENDROOT
BRANCH   1   5
ATOM      5  C   UNL     1      -0.421  -3.761  -0.313  1.00  0.00     0.174 C 
ATOM      6  N   UNL     1      -0.847  -2.377  -0.522  1.00  0.00    -0.329 N 
ATOM      7  C   UNL     1      -1.230  -1.783   0.743  1.00  0.00     0.120 C 
ATOM      8  C   UNL     1      -0.332  -2.485   1.741  1.00  0.00     0.024 C 
ATOM      9  C   UNL     1      -0.195  -3.898   1.197  1.00  0.00     0.037 C 
BRANCH   6  10
ATOM     10  C   UNL     1      -0.817  -1.862  -1.791  1.00  0.00     0.242 C 
ATOM     11  O   UNL     1      -0.477  -2.581  -2.743  1.00  0.00    -0.273 OA
BRANCH  10  12
ATOM     12  C   UNL     1      -1.062  -0.376  -2.092  1.00  0.00     0.216 C 
BRANCH  12  13
ATOM     13  N   UNL     1      -1.592   0.555  -1.119  1.00  0.00    -0.345 N 
ATOM     14  C   UNL     1      -0.973   1.539  -0.405  1.00  0.00     0.242 C 
ATOM     15  O   UNL     1      -1.700   2.302   0.239  1.00  0.00    -0.273 OA
ATOM     16  H   UNL     1      -2.556   0.462  -0.944  1.00  0.00     0.164 HD
BRANCH  14  17
ATOM     17  C   UNL     1       0.544   1.802  -0.497  1.00  0.00     0.171 C 
ATOM     18  C   UNL     1       0.910   2.521  -1.793  1.00  0.00     0.042 C 
BRANCH  17  19
ATOM     19  N   UNL     1       1.386   0.621  -0.318  1.00  0.00    -0.310 N 
ATOM     20  C   UNL     1       2.010   0.263   0.839  1.00  0.00     0.408 C 
ATOM     21  H   UNL     1       1.512   0.035  -1.099  1.00  0.00     0.167 HD
ATOM     22  O   UNL     1       2.921  -0.560   0.822  1.00  0.00    -0.225 OA
BRANCH  20  23
ATOM     23  O   UNL     1       1.553   0.912   1.936  1.00  0.00    -0.445 OA
BRANCH  23  24
ATOM     24  C   UNL     1       2.352   0.788   3.125  1.00  0.00     0.270 C 
BRANCH  24  25
ATOM     25  C   UNL     1       2.039  -0.440   3.947  1.00  0.00    -0.011 A 
ATOM     26  C   UNL     1       2.764  -1.625   3.750  1.00  0.00     0.007 A 
ATOM     27  C   UNL     1       1.040  -0.419   4.930  1.00  0.00     0.007 A 
ATOM     28  C   UNL     1       2.493  -2.765   4.509  1.00  0.00     0.000 A 
ATOM     29  C   UNL     1       0.779  -1.557   5.699  1.00  0.00     0.000 A 
ATOM     30  C   UNL     1       1.502  -2.730   5.486  1.00  0.00     0.000 A 
ENDBRANCH  24  25
ENDBRANCH  23  24
ENDBRANCH  20  23
ENDBRANCH  17  19
ENDBRANCH  14  17
ENDBRANCH  12  13
ENDBRANCH  10  12
ENDBRANCH   6  10
ENDBRANCH   1   5
BRANCH   3  31
ATOM     31  C   UNL     1       0.172  -6.700  -0.693  1.00  0.00     0.116 C 
BRANCH  31  32
ATOM     32  C   UNL     1       0.137  -7.627   0.522  1.00  0.00     0.021 C 
BRANCH  32  33
ATOM     33  C   UNL     1      -0.831  -8.809   0.390  1.00  0.00     0.002 C 
BRANCH  33  34
ATOM     34  C   UNL     1      -0.608  -9.703  -0.834  1.00  0.00     0.002 C 
BRANCH  34  35
ATOM     35  C   UNL     1       0.787 -10.324  -0.944  1.00  0.00     0.021 C 
BRANCH  35  36
ATOM     36  C   UNL     1       1.198 -11.204   0.233  1.00  0.00     0.116 C 
BRANCH  36  37
ATOM     37  N   UNL     1       0.322 -12.351   0.403  1.00  0.00    -0.352 N 
ATOM     38  C   UNL     1       0.635 -13.663   0.651  1.00  0.00     0.251 C 
ATOM     39  H   UNL     1      -0.640 -12.157   0.330  1.00  0.00     0.163 HD
ATOM     40  O   UNL     1      -0.247 -14.517   0.616  1.00  0.00    -0.269 OA
BRANCH  38  41
ATOM     41  C   UNL     1       2.030 -14.065   0.941  1.00  0.00     0.039 A 
ATOM     42  C   UNL     1       2.516 -15.245   0.370  1.00  0.00     0.014 A 
ATOM     43  C   UNL     1       2.843 -13.318   1.799  1.00  0.00     0.014 A 
ATOM     44  C   UNL     1       3.827 -15.652   0.623  1.00  0.00     0.010 A 
ATOM     45  C   UNL     1       4.171 -13.691   1.999  1.00  0.00     0.010 A 
ATOM     46  C   UNL     1       4.672 -14.867   1.423  1.00  0.00    -0.014 A 
BRANCH  46  47
ATOM     47  C   UNL     1       6.075 -15.278   1.680  1.00  0.00     0.031 A 
ATOM     48  C   UNL     1       6.509 -15.677   3.063  1.00  0.00     0.074 A 
ATOM     49  C   UNL     1       6.970 -15.261   0.674  1.00  0.00     0.049 A 
ATOM     50  N   UNL     1       7.690 -16.061   3.478  1.00  0.00    -0.248 NA
ATOM     51  C   UNL     1       5.489 -15.617   4.121  1.00  0.00     0.031 C 
ATOM     52  C   UNL     1       6.686 -14.865  -0.707  1.00  0.00     0.029 A 
ATOM     53  N   UNL     1       8.301 -15.593   0.659  1.00  0.00    -0.354 N 
ATOM     54  C   UNL     1       7.558 -16.275   4.844  1.00  0.00     0.074 A 
ATOM     55  C   UNL     1       6.197 -15.930   5.196  1.00  0.00     0.031 C 
ATOM     56  C   UNL     1       7.800 -15.013  -1.442  1.00  0.00     0.029 A 
ATOM     57  C   UNL     1       8.880 -15.483  -0.581  1.00  0.00     0.049 A 
ATOM     58  H   UNL     1       8.794 -15.882   1.461  1.00  0.00     0.167 HD
ATOM     59  C   UNL     1       8.477 -16.736   5.726  1.00  0.00     0.031 A 
ATOM     60  C   UNL     1      10.138 -15.742  -0.983  1.00  0.00     0.031 A 
ATOM     61  C   UNL     1       9.828 -17.090   5.380  1.00  0.00     0.049 A 
ATOM     62  C   UNL     1      11.144 -16.243   0.014  1.00  0.00     0.074 A 
ATOM     63  C   UNL     1      10.819 -17.613   6.192  1.00  0.00     0.029 A 
ATOM     64  N   UNL     1      10.376 -16.956   4.114  1.00  0.00    -0.354 N 
ATOM     65  N   UNL     1      10.987 -16.495   1.290  1.00  0.00    -0.248 NA
ATOM     66  C   UNL     1      12.499 -16.507  -0.492  1.00  0.00     0.031 C 
ATOM     67  C   UNL     1      11.981 -17.759   5.426  1.00  0.00     0.029 A 
ATOM     68  C   UNL     1      11.698 -17.370   4.126  1.00  0.00     0.049 A 
ATOM     69  H   UNL     1       9.898 -16.618   3.323  1.00  0.00     0.167 HD
ATOM     70  C   UNL     1      12.212 -16.974   1.735  1.00  0.00     0.074 A 
ATOM     71  C   UNL     1      13.099 -16.985   0.589  1.00  0.00     0.031 C 
ATOM     72  C   UNL     1      12.568 -17.373   2.980  1.00  0.00     0.031 A 
BRANCH  59  73
ATOM     73  C   UNL     1       8.043 -16.875   7.158  1.00  0.00    -0.014 A 
ATOM     74  C   UNL     1       7.137 -17.876   7.547  1.00  0.00     0.009 A 
ATOM     75  C   UNL     1       8.553 -16.004   8.133  1.00  0.00     0.009 A 
ATOM     76  C   UNL     1       6.717 -17.972   8.875  1.00  0.00     0.001 A 
ATOM     77  C   UNL     1       8.152 -16.121   9.465  1.00  0.00     0.001 A 
ATOM     78  C   UNL     1       7.226 -17.096   9.833  1.00  0.00     0.000 A 
ENDBRANCH  59  73
BRANCH  60  79
ATOM     79  C   UNL     1      10.507 -15.573  -2.411  1.00  0.00    -0.014 A 
ATOM     80  C   UNL     1      10.699 -16.699  -3.227  1.00  0.00     0.009 A 
ATOM     81  C   UNL     1      10.656 -14.295  -2.968  1.00  0.00     0.009 A 
ATOM     82  C   UNL     1      11.053 -16.547  -4.569  1.00  0.00     0.001 A 
ATOM     83  C   UNL     1      10.987 -14.146  -4.317  1.00  0.00     0.001 A 
ATOM     84  C   UNL     1      11.192 -15.272  -5.114  1.00  0.00     0.000 A 
ENDBRANCH  60  79
BRANCH  72  85
ATOM     85  C   UNL     1      13.967 -17.887   3.160  1.00  0.00    -0.014 A 
ATOM     86  C   UNL     1      15.067 -17.016   3.176  1.00  0.00     0.009 A 
ATOM     87  C   UNL     1      14.183 -19.261   3.352  1.00  0.00     0.009 A 
ATOM     88  C   UNL     1      16.359 -17.515   3.352  1.00  0.00     0.001 A 
ATOM     89  C   UNL     1      15.473 -19.754   3.551  1.00  0.00     0.001 A 
ATOM     90  C   UNL     1      16.560 -18.882   3.543  1.00  0.00     0.000 A 
ENDBRANCH  72  85
ENDBRANCH  46  47
ENDBRANCH  38  41
ENDBRANCH  36  37
ENDBRANCH  35  36
ENDBRANCH  34  35
ENDBRANCH  33  34
ENDBRANCH  32  33
ENDBRANCH  31  32
ENDBRANCH   3  31
TORSDOF 21
