REMARK SMILES COc1cccc(CC2(CO)CCN(c3nc(C)ccc3C(=O)NCCCCCCNC(=O)c3ccc(-c4c5nc(c(-c6ccccc6)c6ccc([nH]6)c(-c6ccccc6)c6nc(c(-c7ccccc7)c7ccc4[nH]7)C=C6)C=C5)cc3)CC2)c1
REMARK SMILES IDX 26 1 25 2 24 3 22 4 23 5 21 7 15 8 16 9 17 10 20 11 18 12
REMARK SMILES IDX 19 13 14 14 9 15 12 16 83 17 13 18 82 19 8 20 7 21 3 22 4 23
REMARK SMILES IDX 84 24 5 25 6 26 2 27 1 28 10 29 11 30 27 32 28 33 29 34
REMARK SMILES IDX 30 35 31 36 32 37 33 39 34 40 35 41 81 42 36 43 80 44 37 45
REMARK SMILES IDX 38 46 39 47 74 48 40 49 79 50 73 51 75 52 41 53 78 54 72 55
REMARK SMILES IDX 71 56 42 58 64 59 49 60 63 61 50 62 53 63 62 64 76 65 51 66
REMARK SMILES IDX 52 67 61 69 77 70 54 71 43 72 44 73 48 74 45 75 47 76 46 77
REMARK SMILES IDX 65 78 66 79 70 80 67 81 69 82 68 83 55 84 56 85 60 86 57 87
REMARK SMILES IDX 59 88 58 89
REMARK H PARENT 24 6 11 31 31 38 75 57 53 68
REMARK Flexibility Score: inf
ROOT
ATOM      1  C   UNL     1      -1.493   4.046   5.358  1.00  0.00     0.021 C 
ENDROOT
BRANCH   1   2
ATOM      2  C   UNL     1      -1.745   2.727   6.083  1.00  0.00     0.116 C 
BRANCH   2   3
ATOM      3  N   UNL     1      -0.930   1.665   5.536  1.00  0.00    -0.352 N 
ATOM      4  C   UNL     1       0.180   0.948   5.899  1.00  0.00     0.255 C 
ATOM      5  O   UNL     1       0.366  -0.019   5.162  1.00  0.00    -0.269 OA
ATOM      6  H   UNL     1      -1.267   1.377   4.657  1.00  0.00     0.163 HD
BRANCH   4   7
ATOM      7  C   UNL     1       1.061   1.174   7.093  1.00  0.00     0.082 A 
ATOM      8  C   UNL     1       2.178   0.344   7.341  1.00  0.00     0.141 A 
ATOM      9  N   UNL     1       2.758   0.294   8.575  1.00  0.00    -0.235 NA
ATOM     10  C   UNL     1       2.333   1.111   9.558  1.00  0.00     0.040 A 
ATOM     11  C   UNL     1       0.744   2.101   8.091  1.00  0.00     0.019 A 
ATOM     12  C   UNL     1       2.970   0.937  10.900  1.00  0.00     0.067 C 
ATOM     13  C   UNL     1       1.367   2.066   9.336  1.00  0.00     0.024 A 
BRANCH   8  14
ATOM     14  N   UNL     1       2.854  -0.432   6.423  1.00  0.00    -0.356 N 
ATOM     15  C   UNL     1       4.542  -2.128   4.741  1.00  0.00     0.001 C 
ATOM     16  C   UNL     1       3.904  -2.616   6.071  1.00  0.00     0.031 C 
ATOM     17  C   UNL     1       4.545  -0.576   4.682  1.00  0.00     0.031 C 
ATOM     18  C   UNL     1       2.658  -1.864   6.544  1.00  0.00     0.119 C 
ATOM     19  C   UNL     1       3.248   0.095   5.130  1.00  0.00     0.119 C 
BRANCH  15  20
ATOM     20  C   UNL     1       3.907  -2.798   3.470  1.00  0.00     0.045 C 
BRANCH  20  21
ATOM     21  C   UNL     1       2.461  -2.538   3.125  1.00  0.00    -0.044 A 
ATOM     22  C   UNL     1       0.763  -1.240   1.962  1.00  0.00     0.119 A 
ATOM     23  C   UNL     1      -0.235  -1.952   2.625  1.00  0.00     0.046 A 
ATOM     24  C   UNL     1       2.108  -1.530   2.211  1.00  0.00     0.050 A 
ATOM     25  C   UNL     1       0.103  -2.994   3.484  1.00  0.00     0.004 A 
ATOM     26  C   UNL     1       1.444  -3.300   3.714  1.00  0.00     0.004 A 
BRANCH  22  27
ATOM     27  O   UNL     1       0.337  -0.213   1.163  1.00  0.00    -0.497 OA
ATOM     28  C   UNL     1       1.009  -0.144  -0.090  1.00  0.00     0.278 C 
ENDBRANCH  22  27
ENDBRANCH  20  21
ENDBRANCH  15  20
BRANCH  15  29
ATOM     29  C   UNL     1       6.042  -2.563   4.745  1.00  0.00     0.163 C 
BRANCH  29  30
ATOM     30  O   UNL     1       6.194  -3.977   4.804  1.00  0.00    -0.396 OA
ATOM     31  H   UNL     1       5.801  -4.311   5.625  1.00  0.00     0.210 HD
ENDBRANCH  29  30
ENDBRANCH  15  29
ENDBRANCH   8  14
ENDBRANCH   4   7
ENDBRANCH   2   3
ENDBRANCH   1   2
BRANCH   1  32
ATOM     32  C   UNL     1      -2.196   4.136   3.994  1.00  0.00     0.002 C 
BRANCH  32  33
ATOM     33  C   UNL     1      -3.719   3.944   4.026  1.00  0.00     0.002 C 
BRANCH  33  34
ATOM     34  C   UNL     1      -4.463   4.796   5.059  1.00  0.00     0.021 C 
BRANCH  34  35
ATOM     35  C   UNL     1      -4.286   6.300   4.881  1.00  0.00     0.116 C 
BRANCH  35  36
ATOM     36  N   UNL     1      -4.849   6.763   3.626  1.00  0.00    -0.352 N 
ATOM     37  C   UNL     1      -5.732   7.784   3.389  1.00  0.00     0.251 C 
ATOM     38  H   UNL     1      -4.553   6.271   2.826  1.00  0.00     0.163 HD
ATOM     39  O   UNL     1      -6.266   7.888   2.290  1.00  0.00    -0.269 OA
BRANCH  37  40
ATOM     40  C   UNL     1      -6.053   8.758   4.455  1.00  0.00     0.039 A 
ATOM     41  C   UNL     1      -7.374   9.192   4.585  1.00  0.00     0.014 A 
ATOM     42  C   UNL     1      -5.059   9.283   5.288  1.00  0.00     0.014 A 
ATOM     43  C   UNL     1      -7.703  10.129   5.565  1.00  0.00     0.010 A 
ATOM     44  C   UNL     1      -5.401  10.162   6.314  1.00  0.00     0.010 A 
ATOM     45  C   UNL     1      -6.723  10.609   6.450  1.00  0.00    -0.014 A 
BRANCH  45  46
ATOM     46  C   UNL     1      -7.083  11.586   7.508  1.00  0.00     0.031 A 
ATOM     47  C   UNL     1      -6.524  12.983   7.483  1.00  0.00     0.074 A 
ATOM     48  C   UNL     1      -7.904  11.206   8.506  1.00  0.00     0.049 A 
ATOM     49  N   UNL     1      -6.767  13.982   8.295  1.00  0.00    -0.248 NA
ATOM     50  C   UNL     1      -5.548  13.296   6.426  1.00  0.00     0.031 C 
ATOM     51  C   UNL     1      -8.463   9.862   8.677  1.00  0.00     0.029 A 
ATOM     52  N   UNL     1      -8.417  11.916   9.561  1.00  0.00    -0.354 N 
ATOM     53  C   UNL     1      -5.967  15.030   7.857  1.00  0.00     0.074 A 
ATOM     54  C   UNL     1      -5.195  14.534   6.740  1.00  0.00     0.031 C 
ATOM     55  C   UNL     1      -9.270   9.856   9.750  1.00  0.00     0.029 A 
ATOM     56  C   UNL     1      -9.264  11.183  10.357  1.00  0.00     0.049 A 
ATOM     57  H   UNL     1      -8.199  12.861   9.732  1.00  0.00     0.167 HD
ATOM     58  C   UNL     1      -5.895  16.298   8.330  1.00  0.00     0.031 A 
ATOM     59  C   UNL     1      -9.965  11.542  11.448  1.00  0.00     0.031 A 
ATOM     60  C   UNL     1      -6.677  16.796   9.431  1.00  0.00     0.049 A 
ATOM     61  C   UNL     1      -9.895  12.964  11.928  1.00  0.00     0.074 A 
ATOM     62  C   UNL     1      -6.729  18.083   9.938  1.00  0.00     0.029 A 
ATOM     63  N   UNL     1      -7.541  16.029  10.196  1.00  0.00    -0.354 N 
ATOM     64  N   UNL     1      -9.204  13.967  11.444  1.00  0.00    -0.248 NA
ATOM     65  C   UNL     1     -10.722  13.307  13.093  1.00  0.00     0.031 C 
ATOM     66  C   UNL     1      -7.586  18.082  11.044  1.00  0.00     0.029 A 
ATOM     67  C   UNL     1      -8.113  16.809  11.187  1.00  0.00     0.049 A 
ATOM     68  H   UNL     1      -7.721  15.071  10.056  1.00  0.00     0.167 HD
ATOM     69  C   UNL     1      -9.532  15.066  12.228  1.00  0.00     0.074 A 
ATOM     70  C   UNL     1     -10.505  14.609  13.200  1.00  0.00     0.031 C 
ATOM     71  C   UNL     1      -9.070  16.338  12.153  1.00  0.00     0.031 A 
BRANCH  58  72
ATOM     72  C   UNL     1      -4.932  17.239   7.660  1.00  0.00    -0.014 A 
ATOM     73  C   UNL     1      -5.164  17.720   6.361  1.00  0.00     0.009 A 
ATOM     74  C   UNL     1      -3.801  17.691   8.358  1.00  0.00     0.009 A 
ATOM     75  C   UNL     1      -4.267  18.610   5.765  1.00  0.00     0.001 A 
ATOM     76  C   UNL     1      -2.921  18.602   7.770  1.00  0.00     0.001 A 
ATOM     77  C   UNL     1      -3.151  19.055   6.471  1.00  0.00     0.000 A 
ENDBRANCH  58  72
BRANCH  59  78
ATOM     78  C   UNL     1     -10.816  10.545  12.150  1.00  0.00    -0.014 A 
ATOM     79  C   UNL     1     -12.216  10.643  12.112  1.00  0.00     0.009 A 
ATOM     80  C   UNL     1     -10.229   9.499  12.878  1.00  0.00     0.009 A 
ATOM     81  C   UNL     1     -13.008   9.736  12.819  1.00  0.00     0.001 A 
ATOM     82  C   UNL     1     -11.025   8.574  13.558  1.00  0.00     0.001 A 
ATOM     83  C   UNL     1     -12.413   8.701  13.538  1.00  0.00     0.000 A 
ENDBRANCH  59  78
BRANCH  71  84
ATOM     84  C   UNL     1      -9.637  17.326  13.134  1.00  0.00    -0.014 A 
ATOM     85  C   UNL     1      -9.329  17.257  14.502  1.00  0.00     0.009 A 
ATOM     86  C   UNL     1     -10.492  18.343  12.680  1.00  0.00     0.009 A 
ATOM     87  C   UNL     1      -9.906  18.155  15.402  1.00  0.00     0.001 A 
ATOM     88  C   UNL     1     -11.040  19.260  13.577  1.00  0.00     0.001 A 
ATOM     89  C   UNL     1     -10.759  19.156  14.938  1.00  0.00     0.000 A 
ENDBRANCH  71  84
ENDBRANCH  45  46
ENDBRANCH  37  40
ENDBRANCH  35  36
ENDBRANCH  34  35
ENDBRANCH  33  34
ENDBRANCH  32  33
ENDBRANCH   1  32
TORSDOF 19
