REMARK SMILES CN(C)Nc1ncnc(Nc2ccc(C(=O)NCCCCCCNC(=O)c3ccc(-c4c5nc(c(-c6ccccc6)c6ccc([nH]6)c(-c6ccccc6)c6nc(c(-c7ccccc7)c7ccc4[nH]7)C=C6)C=C5)cc3)cc2)c1[N+](=O)[O-]
REMARK SMILES IDX 19 1 18 2 17 3 15 4 16 5 14 7 11 8 12 9 76 10 13 11 75 12
REMARK SMILES IDX 10 13 9 15 5 16 6 17 77 18 7 19 8 20 4 21 2 23 1 24 3 25
REMARK SMILES IDX 78 26 79 27 80 28 20 29 21 30 22 31 23 32 24 33 25 34 26 36
REMARK SMILES IDX 27 37 28 38 74 39 29 40 73 41 30 42 31 43 32 44 67 45 33 46
REMARK SMILES IDX 72 47 66 48 68 49 34 50 71 51 65 52 64 53 35 55 57 56 42 57
REMARK SMILES IDX 56 58 43 59 46 60 55 61 69 62 44 63 45 64 54 66 70 67 47 68
REMARK SMILES IDX 36 69 37 70 41 71 38 72 40 73 39 74 58 75 59 76 63 77 60 78
REMARK SMILES IDX 62 79 61 80 48 81 49 82 53 83 50 84 52 85 51 86
REMARK H PARENT 17 6 10 14 4 22 24 35 68 54 46 65
REMARK Flexibility Score: inf
ROOT
ATOM      1  C   UNL     1       5.304   5.273  -7.388  1.00  0.00     0.021 C 
ENDROOT
BRANCH   1   2
ATOM      2  C   UNL     1       5.699   3.799  -7.502  1.00  0.00     0.116 C 
BRANCH   2   3
ATOM      3  N   UNL     1       7.093   3.645  -7.136  1.00  0.00    -0.352 N 
ATOM      4  C   UNL     1       7.715   3.183  -6.007  1.00  0.00     0.251 C 
ATOM      5  O   UNL     1       8.944   3.246  -5.968  1.00  0.00    -0.269 OA
ATOM      6  H   UNL     1       7.718   3.931  -7.841  1.00  0.00     0.163 HD
BRANCH   4   7
ATOM      7  C   UNL     1       6.988   2.533  -4.884  1.00  0.00     0.039 A 
ATOM      8  C   UNL     1       5.690   0.980  -2.926  1.00  0.00     0.040 A 
ATOM      9  C   UNL     1       7.038   0.769  -3.204  1.00  0.00     0.027 A 
ATOM     10  C   UNL     1       5.040   2.065  -3.526  1.00  0.00     0.027 A 
ATOM     11  C   UNL     1       7.675   1.523  -4.194  1.00  0.00     0.016 A 
ATOM     12  C   UNL     1       5.692   2.854  -4.480  1.00  0.00     0.016 A 
BRANCH   8  13
ATOM     13  N   UNL     1       5.034   0.170  -1.981  1.00  0.00    -0.334 N 
ATOM     14  H   UNL     1       5.426   0.106  -1.081  1.00  0.00     0.168 HD
BRANCH  13  15
ATOM     15  C   UNL     1       3.853  -0.558  -2.236  1.00  0.00     0.215 A 
ATOM     16  C   UNL     1       1.887  -1.720  -1.588  1.00  0.00     0.225 A 
ATOM     17  N   UNL     1       1.576  -1.940  -2.884  1.00  0.00    -0.212 NA
ATOM     18  C   UNL     1       3.077  -1.117  -1.234  1.00  0.00     0.354 A 
ATOM     19  C   UNL     1       2.414  -1.451  -3.797  1.00  0.00     0.227 A 
ATOM     20  N   UNL     1       3.510  -0.737  -3.533  1.00  0.00    -0.212 NA
BRANCH  16  21
ATOM     21  N   UNL     1       0.827  -2.035  -0.733  1.00  0.00    -0.298 N 
ATOM     22  H   UNL     1       0.366  -2.892  -0.879  1.00  0.00     0.184 HD
BRANCH  21  23
ATOM     23  N   UNL     1       0.361  -1.214   0.334  1.00  0.00    -0.228 NA
ATOM     24  C   UNL     1       0.339   0.217  -0.021  1.00  0.00     0.130 C 
ATOM     25  C   UNL     1      -1.033  -1.622   0.605  1.00  0.00     0.130 C 
ENDBRANCH  21  23
ENDBRANCH  16  21
BRANCH  18  26
ATOM     26  N   UNL     1       3.525  -1.102   0.126  1.00  0.00     0.070 N 
ATOM     27  O   UNL     1       3.909  -0.010   0.580  1.00  0.00    -0.258 OA
ATOM     28  O   UNL     1       3.604  -2.185   0.721  1.00  0.00    -0.258 OA
ENDBRANCH  18  26
ENDBRANCH  13  15
ENDBRANCH   8  13
ENDBRANCH   4   7
ENDBRANCH   2   3
ENDBRANCH   1   2
BRANCH   1  29
ATOM     29  C   UNL     1       5.822   6.121  -8.559  1.00  0.00     0.002 C 
BRANCH  29  30
ATOM     30  C   UNL     1       5.237   5.745  -9.926  1.00  0.00     0.002 C 
BRANCH  30  31
ATOM     31  C   UNL     1       3.709   5.776  -9.998  1.00  0.00     0.021 C 
BRANCH  31  32
ATOM     32  C   UNL     1       3.102   7.145  -9.711  1.00  0.00     0.116 C 
BRANCH  32  33
ATOM     33  N   UNL     1       3.478   8.120 -10.723  1.00  0.00    -0.352 N 
ATOM     34  C   UNL     1       2.674   8.887 -11.527  1.00  0.00     0.251 C 
ATOM     35  H   UNL     1       4.446   8.247 -10.849  1.00  0.00     0.163 HD
ATOM     36  O   UNL     1       3.143   9.480 -12.491  1.00  0.00    -0.269 OA
BRANCH  34  37
ATOM     37  C   UNL     1       1.230   8.988 -11.230  1.00  0.00     0.039 A 
ATOM     38  C   UNL     1       0.314   8.890 -12.279  1.00  0.00     0.014 A 
ATOM     39  C   UNL     1       0.787   9.189  -9.919  1.00  0.00     0.014 A 
ATOM     40  C   UNL     1      -1.054   8.944 -12.005  1.00  0.00     0.010 A 
ATOM     41  C   UNL     1      -0.575   9.167  -9.640  1.00  0.00     0.010 A 
ATOM     42  C   UNL     1      -1.509   9.053 -10.681  1.00  0.00    -0.014 A 
BRANCH  42  43
ATOM     43  C   UNL     1      -2.958   9.055 -10.365  1.00  0.00     0.031 A 
ATOM     44  C   UNL     1      -3.595  10.268  -9.747  1.00  0.00     0.074 A 
ATOM     45  C   UNL     1      -3.687   7.943 -10.577  1.00  0.00     0.049 A 
ATOM     46  N   UNL     1      -4.831  10.440  -9.350  1.00  0.00    -0.248 NA
ATOM     47  C   UNL     1      -2.723  11.432  -9.520  1.00  0.00     0.031 C 
ATOM     48  C   UNL     1      -3.175   6.687 -11.130  1.00  0.00     0.029 A 
ATOM     49  N   UNL     1      -5.014   7.688 -10.343  1.00  0.00    -0.354 N 
ATOM     50  C   UNL     1      -4.880  11.722  -8.819  1.00  0.00     0.074 A 
ATOM     51  C   UNL     1      -3.540  12.261  -8.888  1.00  0.00     0.031 C 
ATOM     52  C   UNL     1      -4.182   5.803 -11.213  1.00  0.00     0.029 A 
ATOM     53  C   UNL     1      -5.397   6.413 -10.683  1.00  0.00     0.049 A 
ATOM     54  H   UNL     1      -5.633   8.354  -9.967  1.00  0.00     0.167 HD
ATOM     55  C   UNL     1      -5.949  12.400  -8.336  1.00  0.00     0.031 A 
ATOM     56  C   UNL     1      -6.590   5.800 -10.572  1.00  0.00     0.031 A 
ATOM     57  C   UNL     1      -7.281  11.862  -8.265  1.00  0.00     0.049 A 
ATOM     58  C   UNL     1      -7.758   6.565 -10.016  1.00  0.00     0.074 A 
ATOM     59  C   UNL     1      -8.441  12.482  -7.835  1.00  0.00     0.029 A 
ATOM     60  N   UNL     1      -7.630  10.570  -8.629  1.00  0.00    -0.354 N 
ATOM     61  N   UNL     1      -7.804   7.800  -9.579  1.00  0.00    -0.248 NA
ATOM     62  C   UNL     1      -9.043   5.854  -9.951  1.00  0.00     0.031 C 
ATOM     63  C   UNL     1      -9.481  11.548  -7.887  1.00  0.00     0.029 A 
ATOM     64  C   UNL     1      -8.982  10.366  -8.410  1.00  0.00     0.049 A 
ATOM     65  H   UNL     1      -7.008   9.898  -8.991  1.00  0.00     0.167 HD
ATOM     66  C   UNL     1      -9.124   8.024  -9.211  1.00  0.00     0.074 A 
ATOM     67  C   UNL     1      -9.850   6.801  -9.494  1.00  0.00     0.031 C 
ATOM     68  C   UNL     1      -9.687   9.141  -8.688  1.00  0.00     0.031 A 
BRANCH  55  69
ATOM     69  C   UNL     1      -5.709  13.800  -7.839  1.00  0.00    -0.014 A 
ATOM     70  C   UNL     1      -5.371  14.839  -8.722  1.00  0.00     0.009 A 
ATOM     71  C   UNL     1      -5.836  14.090  -6.472  1.00  0.00     0.009 A 
ATOM     72  C   UNL     1      -5.121  16.126  -8.241  1.00  0.00     0.001 A 
ATOM     73  C   UNL     1      -5.619  15.385  -5.997  1.00  0.00     0.001 A 
ATOM     74  C   UNL     1      -5.249  16.398  -6.880  1.00  0.00     0.000 A 
ENDBRANCH  55  69
BRANCH  56  75
ATOM     75  C   UNL     1      -6.738   4.386 -11.005  1.00  0.00    -0.014 A 
ATOM     76  C   UNL     1      -7.475   4.063 -12.154  1.00  0.00     0.009 A 
ATOM     77  C   UNL     1      -6.133   3.351 -10.274  1.00  0.00     0.009 A 
ATOM     78  C   UNL     1      -7.623   2.731 -12.548  1.00  0.00     0.001 A 
ATOM     79  C   UNL     1      -6.257   2.023 -10.688  1.00  0.00     0.001 A 
ATOM     80  C   UNL     1      -7.010   1.714 -11.819  1.00  0.00     0.000 A 
ENDBRANCH  56  75
BRANCH  68  81
ATOM     81  C   UNL     1     -11.164   9.102  -8.414  1.00  0.00    -0.014 A 
ATOM     82  C   UNL     1     -11.692   8.342  -7.358  1.00  0.00     0.009 A 
ATOM     83  C   UNL     1     -12.036   9.870  -9.201  1.00  0.00     0.009 A 
ATOM     84  C   UNL     1     -13.068   8.327  -7.119  1.00  0.00     0.001 A 
ATOM     85  C   UNL     1     -13.407   9.877  -8.941  1.00  0.00     0.001 A 
ATOM     86  C   UNL     1     -13.923   9.098  -7.906  1.00  0.00     0.000 A 
ENDBRANCH  68  81
ENDBRANCH  42  43
ENDBRANCH  34  37
ENDBRANCH  32  33
ENDBRANCH  31  32
ENDBRANCH  30  31
ENDBRANCH  29  30
ENDBRANCH   1  29
TORSDOF 18
