REMARK SMILES C[C@H](NC(=O)c1ccc(C(C)(C)C)cc1)C(=O)N[C@@H](C(=O)NCCCCCCNC(=O)c1ccc(-c2c3nc(c(-c4ccccc4)c4ccc([nH]4)c(-c4ccccc4)c4nc(c(-c5ccccc5)c5ccc2[nH]5)C=C4)C=C3)cc1)[C@H](C)O
REMARK SMILES IDX 24 1 23 2 22 3 20 4 21 5 19 7 18 8 16 9 17 10 2 12 1 13 3 14
REMARK SMILES IDX 4 15 5 17 6 18 7 19 15 20 8 21 14 22 9 23 10 24 11 25 12 26
REMARK SMILES IDX 13 27 80 28 81 29 82 30 25 32 26 33 27 34 28 35 29 36 30 37
REMARK SMILES IDX 31 39 32 40 33 41 79 42 34 43 78 44 35 45 36 46 37 47 72 48
REMARK SMILES IDX 38 49 77 50 71 51 73 52 39 53 76 54 70 55 69 56 40 58 62 59
REMARK SMILES IDX 47 60 61 61 48 62 51 63 60 64 74 65 49 66 50 67 59 69 75 70
REMARK SMILES IDX 52 71 41 72 42 73 46 74 43 75 45 76 44 77 63 78 64 79 68 80
REMARK SMILES IDX 65 81 67 82 66 83 53 84 54 85 58 86 55 87 57 88 56 89
REMARK H PARENT 22 6 18 11 3 16 82 31 29 38 73 57 51 68
REMARK Flexibility Score: inf
ROOT
ATOM      1  C   UNL     1       1.541  -1.616   7.191  1.00  0.00     0.021 C 
ENDROOT
BRANCH   1   2
ATOM      2  C   UNL     1       0.241  -1.647   6.396  1.00  0.00     0.116 C 
BRANCH   2   3
ATOM      3  N   UNL     1      -0.547  -0.442   6.561  1.00  0.00    -0.354 N 
ATOM      4  C   UNL     1      -1.118   0.416   5.671  1.00  0.00     0.245 C 
ATOM      5  O   UNL     1      -1.957   1.188   6.152  1.00  0.00    -0.273 OA
ATOM      6  H   UNL     1      -0.699  -0.196   7.502  1.00  0.00     0.163 HD
BRANCH   4   7
ATOM      7  C   UNL     1      -0.933   0.302   4.128  1.00  0.00     0.200 C 
BRANCH   7   8
ATOM      8  N   UNL     1       0.371  -0.197   3.677  1.00  0.00    -0.340 N 
ATOM      9  C   UNL     1       0.724  -1.270   2.918  1.00  0.00     0.243 C 
ATOM     10  O   UNL     1       1.926  -1.399   2.662  1.00  0.00    -0.273 OA
ATOM     11  H   UNL     1       1.133   0.347   3.979  1.00  0.00     0.164 HD
BRANCH   9  12
ATOM     12  C   UNL     1      -0.292  -2.331   2.432  1.00  0.00     0.168 C 
ATOM     13  C   UNL     1      -1.350  -1.828   1.467  1.00  0.00     0.041 C 
BRANCH  12  14
ATOM     14  N   UNL     1      -0.884  -3.035   3.573  1.00  0.00    -0.341 N 
ATOM     15  C   UNL     1      -0.712  -4.337   3.971  1.00  0.00     0.251 C 
ATOM     16  H   UNL     1      -1.489  -2.498   4.133  1.00  0.00     0.164 HD
ATOM     17  O   UNL     1      -1.200  -4.734   5.023  1.00  0.00    -0.269 OA
BRANCH  15  18
ATOM     18  C   UNL     1      -0.006  -5.274   3.083  1.00  0.00     0.039 A 
ATOM     19  C   UNL     1      -0.751  -6.267   2.453  1.00  0.00     0.014 A 
ATOM     20  C   UNL     1       1.357  -5.144   2.830  1.00  0.00     0.014 A 
ATOM     21  C   UNL     1      -0.144  -7.075   1.491  1.00  0.00     0.005 A 
ATOM     22  C   UNL     1       1.956  -5.949   1.856  1.00  0.00     0.005 A 
ATOM     23  C   UNL     1       1.210  -6.901   1.135  1.00  0.00    -0.043 A 
BRANCH  23  24
ATOM     24  C   UNL     1       1.812  -7.723  -0.019  1.00  0.00    -0.013 C 
ATOM     25  C   UNL     1       1.901  -9.203   0.398  1.00  0.00     0.016 C 
ATOM     26  C   UNL     1       0.920  -7.599  -1.276  1.00  0.00     0.016 C 
ATOM     27  C   UNL     1       3.227  -7.260  -0.435  1.00  0.00     0.016 C 
ENDBRANCH  23  24
ENDBRANCH  15  18
ENDBRANCH  12  14
ENDBRANCH   9  12
ENDBRANCH   7   8
BRANCH   7  28
ATOM     28  C   UNL     1      -1.194   1.698   3.491  1.00  0.00     0.143 C 
ATOM     29  C   UNL     1      -1.334   1.655   1.971  1.00  0.00     0.041 C 
BRANCH  28  30
ATOM     30  O   UNL     1      -0.115   2.591   3.812  1.00  0.00    -0.391 OA
ATOM     31  H   UNL     1       0.709   2.253   3.428  1.00  0.00     0.211 HD
ENDBRANCH  28  30
ENDBRANCH   7  28
ENDBRANCH   4   7
ENDBRANCH   2   3
ENDBRANCH   1   2
BRANCH   1  32
ATOM     32  C   UNL     1       1.375  -1.798   8.702  1.00  0.00     0.002 C 
BRANCH  32  33
ATOM     33  C   UNL     1       0.644  -3.071   9.145  1.00  0.00     0.002 C 
BRANCH  33  34
ATOM     34  C   UNL     1       1.169  -4.387   8.562  1.00  0.00     0.021 C 
BRANCH  34  35
ATOM     35  C   UNL     1       2.654  -4.665   8.785  1.00  0.00     0.116 C 
BRANCH  35  36
ATOM     36  N   UNL     1       3.018  -4.701  10.191  1.00  0.00    -0.352 N 
ATOM     37  C   UNL     1       3.716  -5.648  10.897  1.00  0.00     0.251 C 
ATOM     38  H   UNL     1       2.716  -3.927  10.719  1.00  0.00     0.163 HD
ATOM     39  O   UNL     1       3.809  -5.558  12.118  1.00  0.00    -0.269 OA
BRANCH  37  40
ATOM     40  C   UNL     1       4.339  -6.796  10.202  1.00  0.00     0.039 A 
ATOM     41  C   UNL     1       4.175  -8.074  10.746  1.00  0.00     0.014 A 
ATOM     42  C   UNL     1       5.096  -6.622   9.040  1.00  0.00     0.014 A 
ATOM     43  C   UNL     1       4.708  -9.184  10.088  1.00  0.00     0.010 A 
ATOM     44  C   UNL     1       5.583  -7.736   8.356  1.00  0.00     0.010 A 
ATOM     45  C   UNL     1       5.385  -9.027   8.869  1.00  0.00    -0.014 A 
BRANCH  45  46
ATOM     46  C   UNL     1       5.855 -10.206   8.098  1.00  0.00     0.031 A 
ATOM     47  C   UNL     1       7.322 -10.465   7.911  1.00  0.00     0.074 A 
ATOM     48  C   UNL     1       4.949 -11.008   7.506  1.00  0.00     0.049 A 
ATOM     49  N   UNL     1       7.910 -11.409   7.219  1.00  0.00    -0.248 NA
ATOM     50  C   UNL     1       8.250  -9.534   8.571  1.00  0.00     0.031 C 
ATOM     51  C   UNL     1       3.496 -10.843   7.577  1.00  0.00     0.029 A 
ATOM     52  N   UNL     1       5.120 -12.118   6.717  1.00  0.00    -0.354 N 
ATOM     53  C   UNL     1       9.273 -11.176   7.345  1.00  0.00     0.074 A 
ATOM     54  C   UNL     1       9.425  -9.985   8.153  1.00  0.00     0.031 C 
ATOM     55  C   UNL     1       2.908 -11.825   6.873  1.00  0.00     0.029 A 
ATOM     56  C   UNL     1       3.940 -12.665   6.276  1.00  0.00     0.049 A 
ATOM     57  H   UNL     1       6.004 -12.487   6.489  1.00  0.00     0.167 HD
ATOM     58  C   UNL     1      10.305 -11.896   6.843  1.00  0.00     0.031 A 
ATOM     59  C   UNL     1       3.712 -13.720   5.471  1.00  0.00     0.031 A 
ATOM     60  C   UNL     1      10.159 -13.087   6.049  1.00  0.00     0.049 A 
ATOM     61  C   UNL     1       4.874 -14.496   4.923  1.00  0.00     0.074 A 
ATOM     62  C   UNL     1      11.148 -13.919   5.553  1.00  0.00     0.029 A 
ATOM     63  N   UNL     1       8.947 -13.613   5.633  1.00  0.00    -0.354 N 
ATOM     64  N   UNL     1       6.157 -14.301   5.107  1.00  0.00    -0.248 NA
ATOM     65  C   UNL     1       4.555 -15.643   4.061  1.00  0.00     0.031 C 
ATOM     66  C   UNL     1      10.535 -14.927   4.800  1.00  0.00     0.029 A 
ATOM     67  C   UNL     1       9.163 -14.744   4.863  1.00  0.00     0.049 A 
ATOM     68  H   UNL     1       8.063 -13.239   5.851  1.00  0.00     0.167 HD
ATOM     69  C   UNL     1       6.797 -15.309   4.399  1.00  0.00     0.074 A 
ATOM     70  C   UNL     1       5.762 -16.123   3.796  1.00  0.00     0.031 C 
ATOM     71  C   UNL     1       8.125 -15.538   4.261  1.00  0.00     0.031 A 
BRANCH  58  72
ATOM     72  C   UNL     1      11.695 -11.405   7.132  1.00  0.00    -0.014 A 
ATOM     73  C   UNL     1      12.261 -11.541   8.409  1.00  0.00     0.009 A 
ATOM     74  C   UNL     1      12.464 -10.841   6.102  1.00  0.00     0.009 A 
ATOM     75  C   UNL     1      13.560 -11.093   8.657  1.00  0.00     0.001 A 
ATOM     76  C   UNL     1      13.771 -10.416   6.348  1.00  0.00     0.001 A 
ATOM     77  C   UNL     1      14.315 -10.535   7.626  1.00  0.00     0.000 A 
ENDBRANCH  58  72
BRANCH  59  78
ATOM     78  C   UNL     1       2.318 -14.108   5.138  1.00  0.00    -0.014 A 
ATOM     79  C   UNL     1       1.748 -15.258   5.704  1.00  0.00     0.009 A 
ATOM     80  C   UNL     1       1.554 -13.332   4.253  1.00  0.00     0.009 A 
ATOM     81  C   UNL     1       0.444 -15.634   5.373  1.00  0.00     0.001 A 
ATOM     82  C   UNL     1       0.243 -13.698   3.944  1.00  0.00     0.001 A 
ATOM     83  C   UNL     1      -0.308 -14.853   4.497  1.00  0.00     0.000 A 
ENDBRANCH  59  78
BRANCH  71  84
ATOM     84  C   UNL     1       8.530 -16.726   3.439  1.00  0.00    -0.014 A 
ATOM     85  C   UNL     1       8.444 -16.700   2.038  1.00  0.00     0.009 A 
ATOM     86  C   UNL     1       9.034 -17.874   4.071  1.00  0.00     0.009 A 
ATOM     87  C   UNL     1       8.828 -17.812   1.288  1.00  0.00     0.001 A 
ATOM     88  C   UNL     1       9.438 -18.976   3.316  1.00  0.00     0.001 A 
ATOM     89  C   UNL     1       9.327 -18.947   1.927  1.00  0.00     0.000 A 
ENDBRANCH  71  84
ENDBRANCH  45  46
ENDBRANCH  37  40
ENDBRANCH  35  36
ENDBRANCH  34  35
ENDBRANCH  33  34
ENDBRANCH  32  33
ENDBRANCH   1  32
TORSDOF 20
