REMARK SMILES CC(C)c1ccc(NC(=O)C(=O)N/N=C/c2ccccc2C(=O)NCCCCCCNC(=O)c2ccc(-c3c4nc(c(-c5ccccc5)c5ccc([nH]5)c(-c5ccccc5)c5nc(c(-c6ccccc6)c6ccc3[nH]6)C=C5)C=C4)cc2)cc1
REMARK SMILES IDX 26 1 25 2 24 3 22 4 23 5 21 7 16 8 17 9 18 10 20 11 19 12
REMARK SMILES IDX 15 13 14 14 13 15 11 16 12 17 9 19 8 20 10 22 7 23 4 24 5 25
REMARK SMILES IDX 83 26 6 27 82 28 2 29 1 30 3 31 27 32 28 33 29 34 30 35
REMARK SMILES IDX 31 36 32 37 33 39 34 40 35 41 81 42 36 43 80 44 37 45 38 46
REMARK SMILES IDX 39 47 74 48 40 49 79 50 73 51 75 52 41 53 78 54 72 55 71 56
REMARK SMILES IDX 42 58 64 59 49 60 63 61 50 62 53 63 62 64 76 65 51 66 52 67
REMARK SMILES IDX 61 69 77 70 54 71 43 72 44 73 48 74 45 75 47 76 46 77 65 78
REMARK SMILES IDX 66 79 70 80 67 81 69 82 68 83 55 84 56 85 60 86 57 87 59 88
REMARK SMILES IDX 58 89
REMARK H PARENT 24 6 13 18 8 21 31 38 75 57 53 68
REMARK Flexibility Score: inf
ROOT
ATOM      1  C   UNL     1      -5.614   2.349  -1.739  1.00  0.00     0.021 C 
ENDROOT
BRANCH   1   2
ATOM      2  C   UNL     1      -6.836   2.338  -0.825  1.00  0.00     0.116 C 
BRANCH   2   3
ATOM      3  N   UNL     1      -7.732   3.456  -0.952  1.00  0.00    -0.352 N 
ATOM      4  C   UNL     1      -9.009   3.658  -0.496  1.00  0.00     0.251 C 
ATOM      5  O   UNL     1      -9.439   4.812  -0.602  1.00  0.00    -0.269 OA
ATOM      6  H   UNL     1      -7.361   4.215  -1.458  1.00  0.00     0.163 HD
BRANCH   4   7
ATOM      7  C   UNL     1      -9.955   2.618   0.018  1.00  0.00     0.048 A 
ATOM      8  C   UNL     1      -9.721   1.495   0.811  1.00  0.00     0.007 A 
ATOM      9  C   UNL     1     -10.784   0.656   1.224  1.00  0.00     0.010 A 
ATOM     10  C   UNL     1     -12.096   0.923   0.860  1.00  0.00     0.001 A 
ATOM     11  C   UNL     1     -11.306   2.862  -0.336  1.00  0.00     0.014 A 
ATOM     12  C   UNL     1     -12.358   2.030   0.070  1.00  0.00     0.001 A 
BRANCH   8  13
ATOM     13  C   UNL     1      -8.440   0.943   1.232  1.00  0.00     0.142 C 
ATOM     14  N   UNL     1      -7.707   1.413   2.191  1.00  0.00    -0.180 NA
BRANCH  14  15
ATOM     15  N   UNL     1      -6.650   0.591   2.555  1.00  0.00    -0.239 N 
ATOM     16  C   UNL     1      -6.019  -0.307   1.695  1.00  0.00     0.329 C 
ATOM     17  O   UNL     1      -5.810  -0.129   0.501  1.00  0.00    -0.262 OA
ATOM     18  H   UNL     1      -6.324   0.645   3.482  1.00  0.00     0.194 HD
BRANCH  16  19
ATOM     19  C   UNL     1      -5.830  -1.678   2.350  1.00  0.00     0.315 C 
ATOM     20  N   UNL     1      -5.126  -2.695   1.757  1.00  0.00    -0.318 N 
ATOM     21  H   UNL     1      -5.434  -3.588   2.032  1.00  0.00     0.170 HD
ATOM     22  O   UNL     1      -6.483  -1.903   3.372  1.00  0.00    -0.263 OA
BRANCH  20  23
ATOM     23  C   UNL     1      -4.061  -2.737   0.845  1.00  0.00     0.041 A 
ATOM     24  C   UNL     1      -1.724  -3.106  -0.724  1.00  0.00    -0.045 A 
ATOM     25  C   UNL     1      -2.156  -1.829  -0.349  1.00  0.00     0.006 A 
ATOM     26  C   UNL     1      -2.528  -4.193  -0.364  1.00  0.00     0.006 A 
ATOM     27  C   UNL     1      -3.300  -1.645   0.445  1.00  0.00     0.026 A 
ATOM     28  C   UNL     1      -3.679  -4.010   0.407  1.00  0.00     0.026 A 
BRANCH  24  29
ATOM     29  C   UNL     1      -0.401  -3.368  -1.431  1.00  0.00     0.013 C 
ATOM     30  C   UNL     1       0.265  -2.139  -2.060  1.00  0.00     0.012 C 
ATOM     31  C   UNL     1       0.582  -4.023  -0.451  1.00  0.00     0.012 C 
ENDBRANCH  24  29
ENDBRANCH  20  23
ENDBRANCH  16  19
ENDBRANCH  14  15
ENDBRANCH   8  13
ENDBRANCH   4   7
ENDBRANCH   2   3
ENDBRANCH   1   2
BRANCH   1  32
ATOM     32  C   UNL     1      -4.701   3.579  -1.738  1.00  0.00     0.002 C 
BRANCH  32  33
ATOM     33  C   UNL     1      -4.390   4.300  -0.425  1.00  0.00     0.002 C 
BRANCH  33  34
ATOM     34  C   UNL     1      -3.859   3.503   0.769  1.00  0.00     0.021 C 
BRANCH  34  35
ATOM     35  C   UNL     1      -2.673   2.566   0.553  1.00  0.00     0.116 C 
BRANCH  35  36
ATOM     36  N   UNL     1      -1.464   3.224   0.093  1.00  0.00    -0.352 N 
ATOM     37  C   UNL     1      -0.128   2.981   0.314  1.00  0.00     0.251 C 
ATOM     38  H   UNL     1      -1.634   3.997  -0.493  1.00  0.00     0.163 HD
ATOM     39  O   UNL     1       0.680   3.742  -0.222  1.00  0.00    -0.269 OA
BRANCH  37  40
ATOM     40  C   UNL     1       0.406   1.870   1.164  1.00  0.00     0.039 A 
ATOM     41  C   UNL     1       1.707   2.004   1.681  1.00  0.00     0.014 A 
ATOM     42  C   UNL     1      -0.275   0.682   1.423  1.00  0.00     0.014 A 
ATOM     43  C   UNL     1       2.287   0.999   2.472  1.00  0.00     0.010 A 
ATOM     44  C   UNL     1       0.294  -0.325   2.216  1.00  0.00     0.010 A 
ATOM     45  C   UNL     1       1.576  -0.171   2.756  1.00  0.00    -0.014 A 
BRANCH  45  46
ATOM     46  C   UNL     1       2.111  -1.216   3.662  1.00  0.00     0.031 A 
ATOM     47  C   UNL     1       2.796  -2.436   3.124  1.00  0.00     0.074 A 
ATOM     48  C   UNL     1       1.876  -1.117   4.984  1.00  0.00     0.049 A 
ATOM     49  N   UNL     1       3.098  -3.549   3.746  1.00  0.00    -0.248 NA
ATOM     50  C   UNL     1       3.169  -2.415   1.703  1.00  0.00     0.031 C 
ATOM     51  C   UNL     1       1.194  -0.002   5.641  1.00  0.00     0.029 A 
ATOM     52  N   UNL     1       2.157  -1.991   6.004  1.00  0.00    -0.354 N 
ATOM     53  C   UNL     1       3.627  -4.390   2.778  1.00  0.00     0.074 A 
ATOM     54  C   UNL     1       3.661  -3.638   1.540  1.00  0.00     0.031 C 
ATOM     55  C   UNL     1       1.078  -0.275   6.952  1.00  0.00     0.029 A 
ATOM     56  C   UNL     1       1.671  -1.582   7.221  1.00  0.00     0.049 A 
ATOM     57  H   UNL     1       2.658  -2.829   5.876  1.00  0.00     0.167 HD
ATOM     58  C   UNL     1       4.012  -5.683   2.902  1.00  0.00     0.031 A 
ATOM     59  C   UNL     1       1.682  -2.197   8.417  1.00  0.00     0.031 A 
ATOM     60  C   UNL     1       4.021  -6.427   4.133  1.00  0.00     0.049 A 
ATOM     61  C   UNL     1       2.313  -3.548   8.562  1.00  0.00     0.074 A 
ATOM     62  C   UNL     1       4.346  -7.758   4.340  1.00  0.00     0.029 A 
ATOM     63  N   UNL     1       3.724  -5.893   5.374  1.00  0.00    -0.354 N 
ATOM     64  N   UNL     1       2.755  -4.351   7.628  1.00  0.00    -0.248 NA
ATOM     65  C   UNL     1       2.463  -4.067   9.930  1.00  0.00     0.031 C 
ATOM     66  C   UNL     1       4.269  -8.022   5.714  1.00  0.00     0.029 A 
ATOM     67  C   UNL     1       3.900  -6.853   6.356  1.00  0.00     0.049 A 
ATOM     68  H   UNL     1       3.431  -4.967   5.535  1.00  0.00     0.167 HD
ATOM     69  C   UNL     1       3.223  -5.476   8.291  1.00  0.00     0.074 A 
ATOM     70  C   UNL     1       3.037  -5.243   9.708  1.00  0.00     0.031 C 
ATOM     71  C   UNL     1       3.742  -6.609   7.763  1.00  0.00     0.031 A 
BRANCH  58  72
ATOM     72  C   UNL     1       4.412  -6.399   1.649  1.00  0.00    -0.014 A 
ATOM     73  C   UNL     1       5.730  -6.354   1.178  1.00  0.00     0.009 A 
ATOM     74  C   UNL     1       3.461  -7.171   0.963  1.00  0.00     0.009 A 
ATOM     75  C   UNL     1       6.087  -7.064   0.029  1.00  0.00     0.001 A 
ATOM     76  C   UNL     1       3.823  -7.885  -0.179  1.00  0.00     0.001 A 
ATOM     77  C   UNL     1       5.135  -7.828  -0.647  1.00  0.00     0.000 A 
ENDBRANCH  58  72
BRANCH  59  78
ATOM     78  C   UNL     1       1.053  -1.536   9.581  1.00  0.00    -0.014 A 
ATOM     79  C   UNL     1       1.810  -0.713  10.426  1.00  0.00     0.009 A 
ATOM     80  C   UNL     1      -0.314  -1.714   9.835  1.00  0.00     0.009 A 
ATOM     81  C   UNL     1       1.207  -0.083  11.515  1.00  0.00     0.001 A 
ATOM     82  C   UNL     1      -0.915  -1.077  10.922  1.00  0.00     0.001 A 
ATOM     83  C   UNL     1      -0.154  -0.265  11.762  1.00  0.00     0.000 A 
ENDBRANCH  59  78
BRANCH  71  84
ATOM     84  C   UNL     1       4.162  -7.677   8.723  1.00  0.00    -0.014 A 
ATOM     85  C   UNL     1       3.235  -8.617   9.196  1.00  0.00     0.009 A 
ATOM     86  C   UNL     1       5.497  -7.757   9.144  1.00  0.00     0.009 A 
ATOM     87  C   UNL     1       3.636  -9.612  10.089  1.00  0.00     0.001 A 
ATOM     88  C   UNL     1       5.895  -8.755  10.035  1.00  0.00     0.001 A 
ATOM     89  C   UNL     1       4.964  -9.679  10.509  1.00  0.00     0.000 A 
ENDBRANCH  71  84
ENDBRANCH  45  46
ENDBRANCH  37  40
ENDBRANCH  35  36
ENDBRANCH  34  35
ENDBRANCH  33  34
ENDBRANCH  32  33
ENDBRANCH   1  32
TORSDOF 18
