REMARK SMILES [NH3+]CCOCC(=O)N[C@H](C(=O)NCCCCCCNC(=O)c1ccc(-c2c3nc(c(-c4ccccc4)c4ccc([nH]4)c(-c4ccccc4)c4nc(c(-c5ccccc5)c5ccc2[nH]5)C=C4)C=C3)cc1)C1CCCCC1
REMARK SMILES IDX 13 1 12 2 10 3 11 4 9 6 8 7 6 8 7 9 5 11 4 12 3 13 2 14 1 15
REMARK SMILES IDX 70 19 71 20 75 21 72 22 74 23 73 24 14 25 15 26 16 27 17 28
REMARK SMILES IDX 18 29 19 30 20 31 21 33 22 34 23 35 69 36 24 37 68 38 25 39
REMARK SMILES IDX 26 40 27 41 62 42 28 43 67 44 61 45 63 46 29 47 66 48 60 49
REMARK SMILES IDX 59 50 30 52 52 53 37 54 51 55 38 56 41 57 50 58 64 59 39 60
REMARK SMILES IDX 40 61 49 63 65 64 42 65 31 66 32 67 36 68 33 69 35 70 34 71
REMARK SMILES IDX 53 72 54 73 58 74 55 75 57 76 56 77 43 78 44 79 48 80 45 81
REMARK SMILES IDX 47 82 46 83
REMARK H PARENT 12 5 8 10 1 16 1 17 1 18 19 32 63 51 41 62
REMARK Flexibility Score: inf
ROOT
ATOM      1  C   UNL     1       1.292  -0.686   2.220  1.00  0.00     0.116 C 
ENDROOT
BRANCH   1   2
ATOM      2  N   UNL     1       2.635  -0.203   2.490  1.00  0.00    -0.354 N 
ATOM      3  C   UNL     1       3.156   0.343   3.634  1.00  0.00     0.242 C 
ATOM      4  O   UNL     1       4.346   0.665   3.638  1.00  0.00    -0.273 OA
ATOM      5  H   UNL     1       3.266  -0.281   1.738  1.00  0.00     0.163 HD
BRANCH   3   6
ATOM      6  C   UNL     1       2.288   0.353   4.909  1.00  0.00     0.174 C 
BRANCH   6   7
ATOM      7  N   UNL     1       2.640  -0.927   5.573  1.00  0.00    -0.342 N 
ATOM      8  C   UNL     1       3.381  -1.301   6.648  1.00  0.00     0.246 C 
ATOM      9  O   UNL     1       3.804  -2.465   6.643  1.00  0.00    -0.272 OA
ATOM     10  H   UNL     1       2.233  -1.700   5.120  1.00  0.00     0.164 HD
BRANCH   8  11
ATOM     11  C   UNL     1       3.611  -0.423   7.894  1.00  0.00     0.260 C 
BRANCH  11  12
ATOM     12  O   UNL     1       4.436   0.720   7.918  1.00  0.00    -0.366 OA
BRANCH  12  13
ATOM     13  C   UNL     1       5.665   0.606   7.201  1.00  0.00     0.222 C 
BRANCH  13  14
ATOM     14  C   UNL     1       6.847   0.387   8.151  1.00  0.00     0.287 C 
BRANCH  14  15
ATOM     15  N   UNL     1       6.732  -0.837   8.948  1.00  0.00    -0.356 N 
ATOM     16  H   UNL     1       7.546  -0.923   9.557  1.00  0.00     0.344 HD
ATOM     17  H   UNL     1       6.686  -1.644   8.326  1.00  0.00     0.344 HD
ATOM     18  H   UNL     1       5.886  -0.795   9.516  1.00  0.00     0.344 HD
ENDBRANCH  14  15
ENDBRANCH  13  14
ENDBRANCH  12  13
ENDBRANCH  11  12
ENDBRANCH   8  11
ENDBRANCH   6   7
BRANCH   6  19
ATOM     19  C   UNL     1       2.403   1.635   5.734  1.00  0.00     0.021 C 
ATOM     20  C   UNL     1       2.519   2.953   4.948  1.00  0.00     0.006 C 
ATOM     21  C   UNL     1       1.200   1.756   6.685  1.00  0.00     0.006 C 
ATOM     22  C   UNL     1       2.775   4.105   5.928  1.00  0.00     0.000 C 
ATOM     23  C   UNL     1       1.427   2.871   7.697  1.00  0.00     0.000 C 
ATOM     24  C   UNL     1       1.696   4.205   7.005  1.00  0.00     0.000 C 
ENDBRANCH   6  19
ENDBRANCH   3   6
ENDBRANCH   1   2
BRANCH   1  25
ATOM     25  C   UNL     1       0.491   0.324   1.399  1.00  0.00     0.021 C 
BRANCH  25  26
ATOM     26  C   UNL     1       1.000   0.496  -0.038  1.00  0.00     0.002 C 
BRANCH  26  27
ATOM     27  C   UNL     1       1.097  -0.798  -0.854  1.00  0.00     0.002 C 
BRANCH  27  28
ATOM     28  C   UNL     1      -0.192  -1.621  -0.918  1.00  0.00     0.021 C 
BRANCH  28  29
ATOM     29  C   UNL     1      -1.376  -0.889  -1.539  1.00  0.00     0.116 C 
BRANCH  29  30
ATOM     30  N   UNL     1      -1.145  -0.567  -2.939  1.00  0.00    -0.352 N 
ATOM     31  C   UNL     1      -1.894  -0.900  -4.040  1.00  0.00     0.251 C 
ATOM     32  H   UNL     1      -0.338  -0.036  -3.123  1.00  0.00     0.163 HD
ATOM     33  O   UNL     1      -1.449  -0.723  -5.171  1.00  0.00    -0.269 OA
BRANCH  31  34
ATOM     34  C   UNL     1      -3.233  -1.495  -3.859  1.00  0.00     0.039 A 
ATOM     35  C   UNL     1      -3.582  -2.622  -4.606  1.00  0.00     0.014 A 
ATOM     36  C   UNL     1      -4.136  -0.949  -2.942  1.00  0.00     0.014 A 
ATOM     37  C   UNL     1      -4.809  -3.248  -4.379  1.00  0.00     0.010 A 
ATOM     38  C   UNL     1      -5.325  -1.615  -2.664  1.00  0.00     0.010 A 
ATOM     39  C   UNL     1      -5.671  -2.774  -3.376  1.00  0.00    -0.014 A 
BRANCH  39  40
ATOM     40  C   UNL     1      -6.928  -3.489  -3.037  1.00  0.00     0.031 A 
ATOM     41  C   UNL     1      -8.258  -2.816  -3.229  1.00  0.00     0.074 A 
ATOM     42  C   UNL     1      -6.865  -4.716  -2.485  1.00  0.00     0.049 A 
ATOM     43  N   UNL     1      -9.453  -3.248  -2.916  1.00  0.00    -0.248 NA
ATOM     44  C   UNL     1      -8.242  -1.473  -3.831  1.00  0.00     0.031 C 
ATOM     45  C   UNL     1      -5.635  -5.465  -2.218  1.00  0.00     0.029 A 
ATOM     46  N   UNL     1      -7.862  -5.548  -2.039  1.00  0.00    -0.354 N 
ATOM     47  C   UNL     1     -10.327  -2.228  -3.269  1.00  0.00     0.074 A 
ATOM     48  C   UNL     1      -9.523  -1.137  -3.773  1.00  0.00     0.031 C 
ATOM     49  C   UNL     1      -5.951  -6.653  -1.679  1.00  0.00     0.029 A 
ATOM     50  C   UNL     1      -7.399  -6.731  -1.515  1.00  0.00     0.049 A 
ATOM     51  H   UNL     1      -8.818  -5.319  -2.091  1.00  0.00     0.167 HD
ATOM     52  C   UNL     1     -11.680  -2.208  -3.196  1.00  0.00     0.031 A 
ATOM     53  C   UNL     1      -8.063  -7.758  -0.950  1.00  0.00     0.031 A 
ATOM     54  C   UNL     1     -12.479  -3.295  -2.695  1.00  0.00     0.049 A 
ATOM     55  C   UNL     1      -9.561  -7.690  -0.839  1.00  0.00     0.074 A 
ATOM     56  C   UNL     1     -13.858  -3.390  -2.631  1.00  0.00     0.029 A 
ATOM     57  N   UNL     1     -11.970  -4.470  -2.165  1.00  0.00    -0.354 N 
ATOM     58  N   UNL     1     -10.377  -6.748  -1.243  1.00  0.00    -0.248 NA
ATOM     59  C   UNL     1     -10.229  -8.832  -0.198  1.00  0.00     0.031 C 
ATOM     60  C   UNL     1     -14.182  -4.596  -2.002  1.00  0.00     0.029 A 
ATOM     61  C   UNL     1     -13.008  -5.281  -1.736  1.00  0.00     0.049 A 
ATOM     62  H   UNL     1     -11.014  -4.695  -2.102  1.00  0.00     0.167 HD
ATOM     63  C   UNL     1     -11.655  -7.193  -0.929  1.00  0.00     0.074 A 
ATOM     64  C   UNL     1     -11.506  -8.498  -0.319  1.00  0.00     0.031 C 
ATOM     65  C   UNL     1     -12.845  -6.576  -1.128  1.00  0.00     0.031 A 
BRANCH  52  66
ATOM     66  C   UNL     1     -12.382  -0.961  -3.659  1.00  0.00    -0.014 A 
ATOM     67  C   UNL     1     -12.413  -0.602  -5.016  1.00  0.00     0.009 A 
ATOM     68  C   UNL     1     -13.062  -0.157  -2.730  1.00  0.00     0.009 A 
ATOM     69  C   UNL     1     -13.078   0.556  -5.427  1.00  0.00     0.001 A 
ATOM     70  C   UNL     1     -13.753   0.982  -3.148  1.00  0.00     0.001 A 
ATOM     71  C   UNL     1     -13.751   1.343  -4.494  1.00  0.00     0.000 A 
ENDBRANCH  52  66
BRANCH  53  72
ATOM     72  C   UNL     1      -7.317  -8.939  -0.439  1.00  0.00    -0.014 A 
ATOM     73  C   UNL     1      -7.439 -10.187  -1.069  1.00  0.00     0.009 A 
ATOM     74  C   UNL     1      -6.489  -8.828   0.690  1.00  0.00     0.009 A 
ATOM     75  C   UNL     1      -6.771 -11.304  -0.563  1.00  0.00     0.001 A 
ATOM     76  C   UNL     1      -5.797  -9.940   1.174  1.00  0.00     0.001 A 
ATOM     77  C   UNL     1      -5.947 -11.179   0.554  1.00  0.00     0.000 A 
ENDBRANCH  53  72
BRANCH  65  78
ATOM     78  C   UNL     1     -14.085  -7.314  -0.709  1.00  0.00    -0.014 A 
ATOM     79  C   UNL     1     -14.410  -7.485   0.646  1.00  0.00     0.009 A 
ATOM     80  C   UNL     1     -14.970  -7.797  -1.686  1.00  0.00     0.009 A 
ATOM     81  C   UNL     1     -15.583  -8.148   1.012  1.00  0.00     0.001 A 
ATOM     82  C   UNL     1     -16.157  -8.431  -1.317  1.00  0.00     0.001 A 
ATOM     83  C   UNL     1     -16.458  -8.614   0.032  1.00  0.00     0.000 A 
ENDBRANCH  65  78
ENDBRANCH  39  40
ENDBRANCH  31  34
ENDBRANCH  29  30
ENDBRANCH  28  29
ENDBRANCH  27  28
ENDBRANCH  26  27
ENDBRANCH  25  26
ENDBRANCH   1  25
TORSDOF 20
