REMARK SMILES O=C(C[C@H]1C[N@@H+](Cc2ccncc2)CCO1)NCCCCNC(=O)c1ccc(-c2c3nc(c(-c4ccccc4)c4ccc([nH]4)c(-c4ccccc4)c4nc(c(-c5ccccc5)c5ccc2[nH]5)C=C4)C=C3)cc1
REMARK SMILES IDX 19 1 18 2 17 3 1 4 2 5 3 7 4 8 5 9 16 10 6 11 15 12 14 13
REMARK SMILES IDX 7 15 8 16 9 17 13 18 10 19 12 20 11 21 20 22 21 23 22 24
REMARK SMILES IDX 23 25 24 27 25 28 26 29 72 30 27 31 71 32 28 33 29 34 30 35
REMARK SMILES IDX 65 36 31 37 70 38 64 39 66 40 32 41 69 42 63 43 62 44 33 46
REMARK SMILES IDX 55 47 40 48 54 49 41 50 44 51 53 52 67 53 42 54 43 55 52 57
REMARK SMILES IDX 68 58 45 59 34 60 35 61 39 62 36 63 38 64 37 65 56 66 57 67
REMARK SMILES IDX 61 68 58 69 60 70 59 71 46 72 47 73 51 74 48 75 50 76 49 77
REMARK H PARENT 17 6 6 14 22 26 66 45 44 56
REMARK Flexibility Score: inf
ROOT
ATOM      1  C   UNL     1       8.633   4.470   3.146  1.00  0.00     0.023 C 
ENDROOT
BRANCH   1   2
ATOM      2  C   UNL     1       8.109   3.021   3.297  1.00  0.00     0.116 C 
BRANCH   2   3
ATOM      3  N   UNL     1       7.579   2.342   2.110  1.00  0.00    -0.356 N 
ATOM      4  O   UNL     1       6.830   0.553   3.320  1.00  0.00    -0.275 OA
ATOM      5  C   UNL     1       6.856   1.166   2.245  1.00  0.00     0.222 C 
ATOM      6  H   UNL     1       7.737   2.722   1.215  1.00  0.00     0.163 HD
BRANCH   5   7
ATOM      7  C   UNL     1       6.010   0.657   1.067  1.00  0.00     0.138 C 
BRANCH   7   8
ATOM      8  C   UNL     1       4.490   1.026   1.102  1.00  0.00     0.182 C 
ATOM      9  C   UNL     1       4.019   1.740   2.383  1.00  0.00     0.295 C 
ATOM     10  O   UNL     1       4.111   1.762  -0.087  1.00  0.00    -0.366 OA
ATOM     11  N   UNL     1       3.709   3.164   2.216  1.00  0.00    -0.327 N 
ATOM     12  C   UNL     1       2.846   2.465  -0.014  1.00  0.00     0.222 C 
ATOM     13  C   UNL     1       2.619   3.289   1.268  1.00  0.00     0.291 C 
ATOM     14  H   UNL     1       3.419   3.512   3.130  1.00  0.00     0.348 HD
BRANCH  11  15
ATOM     15  C   UNL     1       4.836   4.050   1.935  1.00  0.00     0.299 C 
BRANCH  15  16
ATOM     16  C   UNL     1       5.223   4.537   0.541  1.00  0.00     0.009 A 
ATOM     17  C   UNL     1       4.864   5.824   0.137  1.00  0.00     0.029 A 
ATOM     18  C   UNL     1       6.047   3.832  -0.342  1.00  0.00     0.029 A 
ATOM     19  C   UNL     1       5.340   6.321  -1.072  1.00  0.00     0.111 A 
ATOM     20  C   UNL     1       6.466   4.394  -1.539  1.00  0.00     0.111 A 
ATOM     21  N   UNL     1       6.138   5.638  -1.917  1.00  0.00    -0.265 NA
ENDBRANCH  15  16
ENDBRANCH  11  15
ENDBRANCH   7   8
ENDBRANCH   5   7
ENDBRANCH   2   3
ENDBRANCH   1   2
BRANCH   1  22
ATOM     22  C   UNL     1       7.690   5.668   2.885  1.00  0.00     0.023 C 
BRANCH  22  23
ATOM     23  C   UNL     1       6.570   6.022   3.887  1.00  0.00     0.116 C 
BRANCH  23  24
ATOM     24  N   UNL     1       7.010   6.775   5.050  1.00  0.00    -0.352 N 
ATOM     25  C   UNL     1       6.595   7.957   5.609  1.00  0.00     0.251 C 
ATOM     26  H   UNL     1       7.755   6.352   5.534  1.00  0.00     0.163 HD
ATOM     27  O   UNL     1       7.220   8.347   6.620  1.00  0.00    -0.269 OA
BRANCH  25  28
ATOM     28  C   UNL     1       5.493   8.834   5.110  1.00  0.00     0.039 A 
ATOM     29  C   UNL     1       5.663  10.223   5.255  1.00  0.00     0.014 A 
ATOM     30  C   UNL     1       4.258   8.377   4.638  1.00  0.00     0.014 A 
ATOM     31  C   UNL     1       4.652  11.133   4.903  1.00  0.00     0.010 A 
ATOM     32  C   UNL     1       3.251   9.295   4.252  1.00  0.00     0.010 A 
ATOM     33  C   UNL     1       3.434  10.685   4.371  1.00  0.00    -0.014 A 
BRANCH  33  34
ATOM     34  C   UNL     1       2.398  11.670   3.913  1.00  0.00     0.031 A 
ATOM     35  C   UNL     1       1.069  11.819   4.615  1.00  0.00     0.074 A 
ATOM     36  C   UNL     1       2.640  12.450   2.837  1.00  0.00     0.049 A 
ATOM     37  N   UNL     1       0.059  12.608   4.322  1.00  0.00    -0.248 NA
ATOM     38  C   UNL     1       0.841  10.972   5.793  1.00  0.00     0.031 C 
ATOM     39  C   UNL     1       3.872  12.441   2.048  1.00  0.00     0.029 A 
ATOM     40  N   UNL     1       1.859  13.402   2.219  1.00  0.00    -0.354 N 
ATOM     41  C   UNL     1      -0.924  12.346   5.270  1.00  0.00     0.074 A 
ATOM     42  C   UNL     1      -0.400  11.302   6.128  1.00  0.00     0.031 C 
ATOM     43  C   UNL     1       3.770  13.346   1.062  1.00  0.00     0.029 A 
ATOM     44  C   UNL     1       2.453  13.976   1.119  1.00  0.00     0.049 A 
ATOM     45  H   UNL     1       0.961  13.650   2.535  1.00  0.00     0.167 HD
ATOM     46  C   UNL     1      -2.146  12.921   5.425  1.00  0.00     0.031 A 
ATOM     47  C   UNL     1       1.999  14.891   0.239  1.00  0.00     0.031 A 
ATOM     48  C   UNL     1      -2.689  13.958   4.582  1.00  0.00     0.049 A 
ATOM     49  C   UNL     1       0.622  15.476   0.399  1.00  0.00     0.074 A 
ATOM     50  C   UNL     1      -3.905  14.615   4.697  1.00  0.00     0.029 A 
ATOM     51  N   UNL     1      -2.060  14.487   3.466  1.00  0.00    -0.354 N 
ATOM     52  N   UNL     1      -0.272  15.241   1.327  1.00  0.00    -0.248 NA
ATOM     53  C   UNL     1       0.198  16.461  -0.609  1.00  0.00     0.031 C 
ATOM     54  C   UNL     1      -4.035  15.500   3.621  1.00  0.00     0.029 A 
ATOM     55  C   UNL     1      -2.875  15.439   2.869  1.00  0.00     0.049 A 
ATOM     56  H   UNL     1      -1.167  14.226   3.145  1.00  0.00     0.167 HD
ATOM     57  C   UNL     1      -1.351  16.067   1.031  1.00  0.00     0.074 A 
ATOM     58  C   UNL     1      -0.995  16.819  -0.153  1.00  0.00     0.031 C 
ATOM     59  C   UNL     1      -2.529  16.187   1.688  1.00  0.00     0.031 A 
BRANCH  46  60
ATOM     60  C   UNL     1      -3.010  12.422   6.554  1.00  0.00    -0.014 A 
ATOM     61  C   UNL     1      -2.704  12.718   7.892  1.00  0.00     0.009 A 
ATOM     62  C   UNL     1      -4.180  11.697   6.272  1.00  0.00     0.009 A 
ATOM     63  C   UNL     1      -3.528  12.263   8.925  1.00  0.00     0.001 A 
ATOM     64  C   UNL     1      -5.017  11.268   7.305  1.00  0.00     0.001 A 
ATOM     65  C   UNL     1      -4.685  11.542   8.630  1.00  0.00     0.000 A 
ENDBRANCH  46  60
BRANCH  47  66
ATOM     66  C   UNL     1       2.859  15.314  -0.899  1.00  0.00    -0.014 A 
ATOM     67  C   UNL     1       3.407  16.605  -0.941  1.00  0.00     0.009 A 
ATOM     68  C   UNL     1       3.122  14.431  -1.958  1.00  0.00     0.009 A 
ATOM     69  C   UNL     1       4.184  17.009  -2.030  1.00  0.00     0.001 A 
ATOM     70  C   UNL     1       3.924  14.827  -3.030  1.00  0.00     0.001 A 
ATOM     71  C   UNL     1       4.446  16.118  -3.070  1.00  0.00     0.000 A 
ENDBRANCH  47  66
BRANCH  59  72
ATOM     72  C   UNL     1      -3.516  17.196   1.165  1.00  0.00    -0.014 A 
ATOM     73  C   UNL     1      -4.218  16.982  -0.032  1.00  0.00     0.009 A 
ATOM     74  C   UNL     1      -3.770  18.367   1.898  1.00  0.00     0.009 A 
ATOM     75  C   UNL     1      -5.128  17.934  -0.499  1.00  0.00     0.001 A 
ATOM     76  C   UNL     1      -4.701  19.303   1.443  1.00  0.00     0.001 A 
ATOM     77  C   UNL     1      -5.373  19.090   0.241  1.00  0.00     0.000 A 
ENDBRANCH  59  72
ENDBRANCH  33  34
ENDBRANCH  25  28
ENDBRANCH  23  24
ENDBRANCH  22  23
ENDBRANCH   1  22
TORSDOF 14
