REMARK SMILES O=C(NCCCCNC(=O)c1nccnc1C(=O)Nc1n[nH]c2ncccc12)c1ccc(-c2c3nc(c(-c4ccccc4)c4ccc([nH]4)c(-c4ccccc4)c4nc(c(-c5ccccc5)c5ccc2[nH]5)C=C4)C=C3)cc1
REMARK SMILES IDX 5 1 4 2 3 3 1 4 2 5 29 7 30 8 76 9 31 10 75 11 32 12 33 13
REMARK SMILES IDX 34 14 69 15 35 16 74 17 68 18 70 19 36 20 73 21 67 22 66 23
REMARK SMILES IDX 37 25 59 26 44 27 58 28 45 29 48 30 57 31 71 32 46 33 47 34
REMARK SMILES IDX 56 36 72 37 49 38 38 39 39 40 43 41 40 42 42 43 41 44 60 45
REMARK SMILES IDX 61 46 65 47 62 48 64 49 63 50 50 51 51 52 55 53 52 54 54 55
REMARK SMILES IDX 53 56 6 57 7 58 8 59 9 60 10 62 11 63 12 64 16 65 13 66
REMARK SMILES IDX 15 67 14 68 17 69 18 70 19 71 20 73 21 74 28 75 22 76 23 77
REMARK SMILES IDX 27 78 24 80 26 81 25 82
REMARK H PARENT 3 6 70 24 48 35 8 61 19 72 22 79
REMARK Flexibility Score: inf
ROOT
ATOM      1  C   UNL     1       5.186   1.939  -1.224  1.00  0.00     0.023 C 
ENDROOT
BRANCH   1   2
ATOM      2  C   UNL     1       4.431   0.809  -0.534  1.00  0.00     0.116 C 
BRANCH   2   3
ATOM      3  N   UNL     1       2.978   0.905  -0.471  1.00  0.00    -0.352 N 
ATOM      4  O   UNL     1       0.922   0.051   0.020  1.00  0.00    -0.269 OA
ATOM      5  C   UNL     1       2.123  -0.124  -0.129  1.00  0.00     0.251 C 
ATOM      6  H   UNL     1       2.573   1.775  -0.691  1.00  0.00     0.163 HD
BRANCH   5   7
ATOM      7  C   UNL     1       2.713  -1.477  -0.068  1.00  0.00     0.039 A 
ATOM      8  C   UNL     1       3.795  -1.724   0.778  1.00  0.00     0.014 A 
ATOM      9  C   UNL     1       2.352  -2.390  -1.060  1.00  0.00     0.014 A 
ATOM     10  C   UNL     1       4.642  -2.783   0.489  1.00  0.00     0.010 A 
ATOM     11  C   UNL     1       3.128  -3.532  -1.252  1.00  0.00     0.010 A 
ATOM     12  C   UNL     1       4.303  -3.718  -0.506  1.00  0.00    -0.014 A 
BRANCH  12  13
ATOM     13  C   UNL     1       5.128  -4.939  -0.667  1.00  0.00     0.031 A 
ATOM     14  C   UNL     1       5.795  -5.288  -1.969  1.00  0.00     0.074 A 
ATOM     15  C   UNL     1       5.248  -5.752   0.402  1.00  0.00     0.049 A 
ATOM     16  N   UNL     1       6.493  -6.356  -2.269  1.00  0.00    -0.248 NA
ATOM     17  C   UNL     1       5.658  -4.333  -3.080  1.00  0.00     0.031 C 
ATOM     18  C   UNL     1       4.639  -5.513   1.715  1.00  0.00     0.029 A 
ATOM     19  N   UNL     1       5.925  -6.931   0.564  1.00  0.00    -0.354 N 
ATOM     20  C   UNL     1       6.854  -6.216  -3.604  1.00  0.00     0.074 A 
ATOM     21  C   UNL     1       6.282  -4.969  -4.065  1.00  0.00     0.031 C 
ATOM     22  C   UNL     1       5.012  -6.481   2.559  1.00  0.00     0.029 A 
ATOM     23  C   UNL     1       5.795  -7.461   1.824  1.00  0.00     0.049 A 
ATOM     24  H   UNL     1       6.452  -7.355  -0.151  1.00  0.00     0.167 HD
ATOM     25  C   UNL     1       7.593  -7.057  -4.370  1.00  0.00     0.031 A 
ATOM     26  C   UNL     1       6.215  -8.633   2.329  1.00  0.00     0.031 A 
ATOM     27  C   UNL     1       8.146  -8.302  -3.897  1.00  0.00     0.049 A 
ATOM     28  C   UNL     1       6.972  -9.566   1.435  1.00  0.00     0.074 A 
ATOM     29  C   UNL     1       8.936  -9.209  -4.585  1.00  0.00     0.029 A 
ATOM     30  N   UNL     1       7.960  -8.822  -2.625  1.00  0.00    -0.354 N 
ATOM     31  N   UNL     1       7.337  -9.401   0.187  1.00  0.00    -0.248 NA
ATOM     32  C   UNL     1       7.378 -10.848   2.021  1.00  0.00     0.031 C 
ATOM     33  C   UNL     1       9.161 -10.311  -3.755  1.00  0.00     0.029 A 
ATOM     34  C   UNL     1       8.589 -10.053  -2.520  1.00  0.00     0.049 A 
ATOM     35  H   UNL     1       7.456  -8.381  -1.903  1.00  0.00     0.167 HD
ATOM     36  C   UNL     1       8.043 -10.545  -0.152  1.00  0.00     0.074 A 
ATOM     37  C   UNL     1       8.076 -11.382   1.030  1.00  0.00     0.031 C 
ATOM     38  C   UNL     1       8.613 -10.874  -1.336  1.00  0.00     0.031 A 
BRANCH  25  39
ATOM     39  C   UNL     1       7.823  -6.689  -5.813  1.00  0.00    -0.014 A 
ATOM     40  C   UNL     1       8.649  -5.614  -6.176  1.00  0.00     0.009 A 
ATOM     41  C   UNL     1       7.267  -7.485  -6.829  1.00  0.00     0.009 A 
ATOM     42  C   UNL     1       8.891  -5.329  -7.524  1.00  0.00     0.001 A 
ATOM     43  C   UNL     1       7.536  -7.218  -8.173  1.00  0.00     0.001 A 
ATOM     44  C   UNL     1       8.341  -6.135  -8.520  1.00  0.00     0.000 A 
ENDBRANCH  25  39
BRANCH  26  45
ATOM     45  C   UNL     1       5.889  -9.001   3.731  1.00  0.00    -0.014 A 
ATOM     46  C   UNL     1       6.904  -9.158   4.685  1.00  0.00     0.009 A 
ATOM     47  C   UNL     1       4.555  -9.207   4.121  1.00  0.00     0.009 A 
ATOM     48  C   UNL     1       6.595  -9.559   5.986  1.00  0.00     0.001 A 
ATOM     49  C   UNL     1       4.244  -9.564   5.433  1.00  0.00     0.001 A 
ATOM     50  C   UNL     1       5.266  -9.758   6.359  1.00  0.00     0.000 A 
ENDBRANCH  26  45
BRANCH  38  51
ATOM     51  C   UNL     1       9.369 -12.172  -1.390  1.00  0.00    -0.014 A 
ATOM     52  C   UNL     1       8.714 -13.411  -1.307  1.00  0.00     0.009 A 
ATOM     53  C   UNL     1      10.764 -12.151  -1.549  1.00  0.00     0.009 A 
ATOM     54  C   UNL     1       9.446 -14.600  -1.336  1.00  0.00     0.001 A 
ATOM     55  C   UNL     1      11.488 -13.340  -1.619  1.00  0.00     0.001 A 
ATOM     56  C   UNL     1      10.830 -14.563  -1.499  1.00  0.00     0.000 A 
ENDBRANCH  38  51
ENDBRANCH  12  13
ENDBRANCH   5   7
ENDBRANCH   2   3
ENDBRANCH   1   2
BRANCH   1  57
ATOM     57  C   UNL     1       5.014   3.588  -0.768  1.00  0.00     0.023 C 
BRANCH  57  58
ATOM     58  C   UNL     1       5.413   4.716   1.080  1.00  0.00     0.116 C 
BRANCH  58  59
ATOM     59  N   UNL     1       6.773   5.052   1.874  1.00  0.00    -0.351 N 
ATOM     60  C   UNL     1       7.448   6.253   1.991  1.00  0.00     0.272 C 
ATOM     61  H   UNL     1       7.184   4.292   2.345  1.00  0.00     0.163 HD
ATOM     62  O   UNL     1       8.560   6.328   2.496  1.00  0.00    -0.267 OA
BRANCH  60  63
ATOM     63  C   UNL     1       6.743   7.452   1.507  1.00  0.00     0.159 A 
ATOM     64  N   UNL     1       5.692   7.808   2.320  1.00  0.00    -0.247 NA
ATOM     65  C   UNL     1       6.982   8.043   0.274  1.00  0.00     0.159 A 
ATOM     66  C   UNL     1       4.896   8.789   1.862  1.00  0.00     0.132 A 
ATOM     67  N   UNL     1       6.145   9.035  -0.175  1.00  0.00    -0.247 NA
ATOM     68  C   UNL     1       5.118   9.388   0.639  1.00  0.00     0.132 A 
BRANCH  65  69
ATOM     69  C   UNL     1       8.135   7.762  -0.639  1.00  0.00     0.277 C 
ATOM     70  O   UNL     1       8.762   8.732  -1.077  1.00  0.00    -0.267 OA
ATOM     71  N   UNL     1       8.573   6.504  -0.992  1.00  0.00    -0.303 N 
ATOM     72  H   UNL     1       9.445   6.482  -1.448  1.00  0.00     0.172 HD
BRANCH  71  73
ATOM     73  C   UNL     1       7.987   5.280  -0.808  1.00  0.00     0.164 A 
ATOM     74  N   UNL     1       8.787   4.210  -0.647  1.00  0.00    -0.155 NA
ATOM     75  C   UNL     1       6.619   4.994  -0.636  1.00  0.00     0.063 A 
ATOM     76  N   UNL     1       8.108   3.243   0.037  1.00  0.00    -0.259 N 
ATOM     77  C   UNL     1       6.770   3.477   0.186  1.00  0.00     0.157 A 
ATOM     78  C   UNL     1       4.991   5.723  -0.777  1.00  0.00     0.017 A 
ATOM     79  H   UNL     1       8.549   2.438   0.395  1.00  0.00     0.192 HD
ATOM     80  N   UNL     1       5.462   2.700   1.026  1.00  0.00    -0.237 NA
ATOM     81  C   UNL     1       3.582   4.972   0.011  1.00  0.00     0.021 A 
ATOM     82  C   UNL     1       3.848   3.459   0.861  1.00  0.00     0.113 A 
ENDBRANCH  71  73
ENDBRANCH  65  69
ENDBRANCH  60  63
ENDBRANCH  58  59
ENDBRANCH  57  58
ENDBRANCH   1  57
TORSDOF 13
