REMARK SMILES C[C@@H](C(=O)NCCCCNC(=O)c1ccc(-c2c3nc(c(-c4ccccc4)c4ccc([nH]4)c(-c4ccccc4)c4nc(c(-c5ccccc5)c5ccc2[nH]5)C=C4)C=C3)cc1)c1ccc(C[C@H]2CCC[C@H]2O)cc1
REMARK SMILES IDX 6 1 5 2 3 3 4 4 2 6 1 7 61 8 62 9 73 10 63 11 72 12 64 13
REMARK SMILES IDX 65 14 66 15 67 16 70 17 68 18 69 19 71 20 7 22 8 23 9 24
REMARK SMILES IDX 10 25 11 26 12 28 13 29 14 30 60 31 15 32 59 33 16 34 17 35
REMARK SMILES IDX 18 36 53 37 19 38 58 39 52 40 54 41 20 42 57 43 51 44 50 45
REMARK SMILES IDX 21 47 43 48 28 49 42 50 29 51 32 52 41 53 55 54 30 55 31 56
REMARK SMILES IDX 40 58 56 59 33 60 22 61 23 62 27 63 24 64 26 65 25 66 44 67
REMARK SMILES IDX 45 68 49 69 46 70 48 71 47 72 34 73 35 74 39 75 36 76 38 77
REMARK SMILES IDX 37 78
REMARK H PARENT 5 5 71 21 10 27 54 46 32 57
REMARK Flexibility Score: inf
ROOT
ATOM      1  C   UNL     1       3.389  -1.440   1.292  1.00  0.00     0.116 C 
ENDROOT
BRANCH   1   2
ATOM      2  N   UNL     1       2.270  -1.367   2.206  1.00  0.00    -0.356 N 
ATOM      3  C   UNL     1       0.954  -1.101   1.958  1.00  0.00     0.227 C 
ATOM      4  O   UNL     1       0.230  -0.965   2.947  1.00  0.00    -0.274 OA
ATOM      5  H   UNL     1       2.491  -1.536   3.151  1.00  0.00     0.163 HD
BRANCH   3   6
ATOM      6  C   UNL     1       0.432  -1.029   0.504  1.00  0.00     0.105 C 
ATOM      7  C   UNL     1       0.985   0.205  -0.221  1.00  0.00     0.023 C 
BRANCH   6   8
ATOM      8  C   UNL     1      -1.096  -1.097   0.465  1.00  0.00    -0.036 A 
ATOM      9  C   UNL     1      -1.888   0.005   0.116  1.00  0.00     0.005 A 
ATOM     10  C   UNL     1      -1.747  -2.281   0.850  1.00  0.00     0.005 A 
ATOM     11  C   UNL     1      -3.277  -0.055   0.200  1.00  0.00     0.004 A 
ATOM     12  C   UNL     1      -3.139  -2.324   0.978  1.00  0.00     0.004 A 
ATOM     13  C   UNL     1      -3.911  -1.190   0.705  1.00  0.00    -0.048 A 
BRANCH  13  14
ATOM     14  C   UNL     1      -5.384  -1.147   1.018  1.00  0.00     0.041 C 
BRANCH  14  15
ATOM     15  C   UNL     1      -5.789  -0.580   2.393  1.00  0.00     0.022 C 
ATOM     16  C   UNL     1      -5.191  -1.294   3.616  1.00  0.00     0.007 C 
ATOM     17  C   UNL     1      -5.567   0.916   2.679  1.00  0.00     0.117 C 
ATOM     18  C   UNL     1      -5.135  -0.248   4.734  1.00  0.00     0.003 C 
ATOM     19  C   UNL     1      -5.816   1.001   4.181  1.00  0.00     0.032 C 
BRANCH  17  20
ATOM     20  O   UNL     1      -4.260   1.399   2.424  1.00  0.00    -0.393 OA
ATOM     21  H   UNL     1      -3.623   0.910   2.967  1.00  0.00     0.210 HD
ENDBRANCH  17  20
ENDBRANCH  14  15
ENDBRANCH  13  14
ENDBRANCH   6   8
ENDBRANCH   3   6
ENDBRANCH   1   2
BRANCH   1  22
ATOM     22  C   UNL     1       4.169  -0.124   1.280  1.00  0.00     0.023 C 
BRANCH  22  23
ATOM     23  C   UNL     1       4.947   0.170   2.564  1.00  0.00     0.023 C 
BRANCH  23  24
ATOM     24  C   UNL     1       5.972  -0.887   2.954  1.00  0.00     0.116 C 
BRANCH  24  25
ATOM     25  N   UNL     1       6.958  -1.135   1.914  1.00  0.00    -0.352 N 
ATOM     26  C   UNL     1       8.309  -1.349   2.039  1.00  0.00     0.251 C 
ATOM     27  H   UNL     1       6.609  -1.151   0.993  1.00  0.00     0.163 HD
ATOM     28  O   UNL     1       9.020  -1.422   1.046  1.00  0.00    -0.269 OA
BRANCH  26  29
ATOM     29  C   UNL     1       8.905  -1.452   3.388  1.00  0.00     0.039 A 
ATOM     30  C   UNL     1      10.056  -0.714   3.672  1.00  0.00     0.014 A 
ATOM     31  C   UNL     1       8.317  -2.252   4.371  1.00  0.00     0.014 A 
ATOM     32  C   UNL     1      10.581  -0.726   4.965  1.00  0.00     0.010 A 
ATOM     33  C   UNL     1       8.798  -2.205   5.676  1.00  0.00     0.010 A 
ATOM     34  C   UNL     1       9.934  -1.442   5.985  1.00  0.00    -0.014 A 
BRANCH  34  35
ATOM     35  C   UNL     1      10.425  -1.400   7.384  1.00  0.00     0.031 A 
ATOM     36  C   UNL     1      10.934  -2.650   8.046  1.00  0.00     0.074 A 
ATOM     37  C   UNL     1      10.348  -0.250   8.082  1.00  0.00     0.049 A 
ATOM     38  N   UNL     1      11.347  -2.822   9.276  1.00  0.00    -0.248 NA
ATOM     39  C   UNL     1      10.957  -3.872   7.226  1.00  0.00     0.031 C 
ATOM     40  C   UNL     1       9.833   1.022   7.569  1.00  0.00     0.029 A 
ATOM     41  N   UNL     1      10.697   0.032   9.379  1.00  0.00    -0.354 N 
ATOM     42  C   UNL     1      11.659  -4.172   9.382  1.00  0.00     0.074 A 
ATOM     43  C   UNL     1      11.345  -4.781   8.108  1.00  0.00     0.031 C 
ATOM     44  C   UNL     1       9.924   1.953   8.533  1.00  0.00     0.029 A 
ATOM     45  C   UNL     1      10.465   1.337   9.740  1.00  0.00     0.049 A 
ATOM     46  H   UNL     1      11.078  -0.637   9.992  1.00  0.00     0.167 HD
ATOM     47  C   UNL     1      12.179  -4.841  10.438  1.00  0.00     0.031 A 
ATOM     48  C   UNL     1      10.659   1.966  10.914  1.00  0.00     0.031 A 
ATOM     49  C   UNL     1      12.505  -4.233  11.700  1.00  0.00     0.049 A 
ATOM     50  C   UNL     1      11.232   1.200  12.073  1.00  0.00     0.074 A 
ATOM     51  C   UNL     1      13.094  -4.814  12.810  1.00  0.00     0.029 A 
ATOM     52  N   UNL     1      12.265  -2.906  12.022  1.00  0.00    -0.354 N 
ATOM     53  N   UNL     1      11.590  -0.059  12.134  1.00  0.00    -0.248 NA
ATOM     54  C   UNL     1      11.438   1.948  13.322  1.00  0.00     0.031 C 
ATOM     55  C   UNL     1      13.165  -3.850  13.821  1.00  0.00     0.029 A 
ATOM     56  C   UNL     1      12.672  -2.655  13.321  1.00  0.00     0.049 A 
ATOM     57  H   UNL     1      11.866  -2.241  11.416  1.00  0.00     0.167 HD
ATOM     58  C   UNL     1      12.088  -0.249  13.417  1.00  0.00     0.074 A 
ATOM     59  C   UNL     1      12.000   1.029  14.094  1.00  0.00     0.031 C 
ATOM     60  C   UNL     1      12.576  -1.380  13.982  1.00  0.00     0.031 A 
BRANCH  47  61
ATOM     61  C   UNL     1      12.420  -6.315  10.272  1.00  0.00    -0.014 A 
ATOM     62  C   UNL     1      13.439  -6.797   9.435  1.00  0.00     0.009 A 
ATOM     63  C   UNL     1      11.640  -7.235  10.990  1.00  0.00     0.009 A 
ATOM     64  C   UNL     1      13.646  -8.171   9.291  1.00  0.00     0.001 A 
ATOM     65  C   UNL     1      11.868  -8.607  10.867  1.00  0.00     0.001 A 
ATOM     66  C   UNL     1      12.864  -9.073  10.010  1.00  0.00     0.000 A 
ENDBRANCH  47  61
BRANCH  48  67
ATOM     67  C   UNL     1      10.324   3.408  11.049  1.00  0.00    -0.014 A 
ATOM     68  C   UNL     1      11.342   4.367  11.162  1.00  0.00     0.009 A 
ATOM     69  C   UNL     1       8.986   3.832  11.066  1.00  0.00     0.009 A 
ATOM     70  C   UNL     1      11.027   5.719  11.317  1.00  0.00     0.001 A 
ATOM     71  C   UNL     1       8.675   5.188  11.193  1.00  0.00     0.001 A 
ATOM     72  C   UNL     1       9.694   6.128  11.327  1.00  0.00     0.000 A 
ENDBRANCH  48  67
BRANCH  60  73
ATOM     73  C   UNL     1      13.083  -1.279  15.393  1.00  0.00    -0.014 A 
ATOM     74  C   UNL     1      12.203  -1.139  16.477  1.00  0.00     0.009 A 
ATOM     75  C   UNL     1      14.462  -1.369  15.642  1.00  0.00     0.009 A 
ATOM     76  C   UNL     1      12.697  -1.058  17.780  1.00  0.00     0.001 A 
ATOM     77  C   UNL     1      14.951  -1.317  16.948  1.00  0.00     0.001 A 
ATOM     78  C   UNL     1      14.069  -1.153  18.015  1.00  0.00     0.000 A 
ENDBRANCH  60  73
ENDBRANCH  34  35
ENDBRANCH  26  29
ENDBRANCH  24  25
ENDBRANCH  23  24
ENDBRANCH  22  23
ENDBRANCH   1  22
TORSDOF 15
