REMARK SMILES COc1cccc(CC2(CO)CCN(c3nc(C)ccc3C(=O)NCCCCNC(=O)c3ccc(-c4c5nc(c(-c6ccccc6)c6ccc([nH]6)c(-c6ccccc6)c6nc(c(-c7ccccc7)c7ccc4[nH]7)C=C6)C=C5)cc3)CC2)c1
REMARK SMILES IDX 25 1 24 2 22 3 23 4 21 6 15 7 16 8 17 9 20 10 18 11 19 12
REMARK SMILES IDX 14 13 9 14 12 15 81 16 13 17 80 18 8 19 7 20 3 21 4 22 82 23
REMARK SMILES IDX 5 24 6 25 2 26 1 27 10 28 11 29 26 31 27 32 28 33 29 34
REMARK SMILES IDX 30 35 31 37 32 38 33 39 79 40 34 41 78 42 35 43 36 44 37 45
REMARK SMILES IDX 72 46 38 47 77 48 71 49 73 50 39 51 76 52 70 53 69 54 40 56
REMARK SMILES IDX 62 57 47 58 61 59 48 60 51 61 60 62 74 63 49 64 50 65 59 67
REMARK SMILES IDX 75 68 52 69 41 70 42 71 46 72 43 73 45 74 44 75 63 76 64 77
REMARK SMILES IDX 68 78 65 79 67 80 66 81 53 82 54 83 58 84 55 85 57 86 56 87
REMARK H PARENT 24 5 11 30 29 36 73 55 51 66
REMARK Flexibility Score: inf
ROOT
ATOM      1  C   UNL     1      -1.878  -3.486   6.175  1.00  0.00     0.116 C 
ENDROOT
BRANCH   1   2
ATOM      2  N   UNL     1      -0.987  -3.348   5.045  1.00  0.00    -0.352 N 
ATOM      3  C   UNL     1       0.170  -3.948   4.610  1.00  0.00     0.255 C 
ATOM      4  O   UNL     1       0.516  -3.514   3.514  1.00  0.00    -0.269 OA
ATOM      5  H   UNL     1      -1.285  -2.641   4.429  1.00  0.00     0.163 HD
BRANCH   3   6
ATOM      6  C   UNL     1       0.919  -5.053   5.306  1.00  0.00     0.082 A 
ATOM      7  C   UNL     1       1.930  -5.807   4.666  1.00  0.00     0.141 A 
ATOM      8  N   UNL     1       2.360  -6.989   5.200  1.00  0.00    -0.235 NA
ATOM      9  C   UNL     1       1.900  -7.415   6.392  1.00  0.00     0.040 A 
ATOM     10  C   UNL     1       0.566  -5.459   6.601  1.00  0.00     0.019 A 
ATOM     11  C   UNL     1       2.399  -8.743   6.870  1.00  0.00     0.067 C 
ATOM     12  C   UNL     1       1.042  -6.649   7.147  1.00  0.00     0.024 A 
BRANCH   7  13
ATOM     13  N   UNL     1       2.637  -5.472   3.532  1.00  0.00    -0.356 N 
ATOM     14  C   UNL     1       4.522  -5.097   1.312  1.00  0.00     0.001 C 
ATOM     15  C   UNL     1       3.816  -6.447   1.604  1.00  0.00     0.031 C 
ATOM     16  C   UNL     1       4.510  -4.216   2.588  1.00  0.00     0.031 C 
ATOM     17  C   UNL     1       2.514  -6.377   2.405  1.00  0.00     0.119 C 
ATOM     18  C   UNL     1       3.161  -4.139   3.297  1.00  0.00     0.119 C 
BRANCH  14  19
ATOM     19  C   UNL     1       3.965  -4.372   0.034  1.00  0.00     0.045 C 
BRANCH  19  20
ATOM     20  C   UNL     1       2.540  -3.875  -0.003  1.00  0.00    -0.044 A 
ATOM     21  C   UNL     1       0.905  -2.111   0.349  1.00  0.00     0.119 A 
ATOM     22  C   UNL     1      -0.130  -3.009   0.106  1.00  0.00     0.046 A 
ATOM     23  C   UNL     1       2.235  -2.539   0.306  1.00  0.00     0.050 A 
ATOM     24  C   UNL     1       0.164  -4.319  -0.265  1.00  0.00     0.004 A 
ATOM     25  C   UNL     1       1.492  -4.739  -0.348  1.00  0.00     0.004 A 
BRANCH  21  26
ATOM     26  O   UNL     1       0.551  -0.841   0.718  1.00  0.00    -0.497 OA
ATOM     27  C   UNL     1       1.110   0.139  -0.153  1.00  0.00     0.278 C 
ENDBRANCH  21  26
ENDBRANCH  19  20
ENDBRANCH  14  19
BRANCH  14  28
ATOM     28  C   UNL     1       6.025  -5.393   1.012  1.00  0.00     0.163 C 
BRANCH  28  29
ATOM     29  O   UNL     1       6.194  -6.224  -0.130  1.00  0.00    -0.396 OA
ATOM     30  H   UNL     1       5.763  -7.079   0.026  1.00  0.00     0.210 HD
ENDBRANCH  28  29
ENDBRANCH  14  28
ENDBRANCH   7  13
ENDBRANCH   3   6
ENDBRANCH   1   2
BRANCH   1  31
ATOM     31  C   UNL     1      -1.518  -2.485   7.270  1.00  0.00     0.023 C 
BRANCH  31  32
ATOM     32  C   UNL     1      -1.953  -1.044   6.969  1.00  0.00     0.023 C 
BRANCH  32  33
ATOM     33  C   UNL     1      -3.453  -0.841   6.752  1.00  0.00     0.116 C 
BRANCH  33  34
ATOM     34  N   UNL     1      -4.268  -1.380   7.832  1.00  0.00    -0.352 N 
ATOM     35  C   UNL     1      -5.420  -0.874   8.379  1.00  0.00     0.251 C 
ATOM     36  H   UNL     1      -3.947  -2.224   8.224  1.00  0.00     0.163 HD
ATOM     37  O   UNL     1      -5.931  -1.407   9.359  1.00  0.00    -0.269 OA
BRANCH  35  38
ATOM     38  C   UNL     1      -6.019   0.345   7.803  1.00  0.00     0.039 A 
ATOM     39  C   UNL     1      -6.297   1.420   8.651  1.00  0.00     0.014 A 
ATOM     40  C   UNL     1      -6.257   0.440   6.430  1.00  0.00     0.014 A 
ATOM     41  C   UNL     1      -6.730   2.629   8.106  1.00  0.00     0.010 A 
ATOM     42  C   UNL     1      -6.638   1.661   5.883  1.00  0.00     0.010 A 
ATOM     43  C   UNL     1      -6.855   2.772   6.715  1.00  0.00    -0.014 A 
BRANCH  43  44
ATOM     44  C   UNL     1      -7.143   4.091   6.103  1.00  0.00     0.031 A 
ATOM     45  C   UNL     1      -8.426   4.324   5.361  1.00  0.00     0.074 A 
ATOM     46  C   UNL     1      -6.199   5.051   6.143  1.00  0.00     0.049 A 
ATOM     47  N   UNL     1      -8.809   5.383   4.693  1.00  0.00    -0.248 NA
ATOM     48  C   UNL     1      -9.396   3.218   5.349  1.00  0.00     0.031 C 
ATOM     49  C   UNL     1      -4.893   4.929   6.797  1.00  0.00     0.029 A 
ATOM     50  N   UNL     1      -6.185   6.314   5.607  1.00  0.00    -0.354 N 
ATOM     51  C   UNL     1     -10.056   5.067   4.171  1.00  0.00     0.074 A 
ATOM     52  C   UNL     1     -10.349   3.706   4.567  1.00  0.00     0.031 C 
ATOM     53  C   UNL     1      -4.214   6.076   6.638  1.00  0.00     0.029 A 
ATOM     54  C   UNL     1      -5.014   6.995   5.837  1.00  0.00     0.049 A 
ATOM     55  H   UNL     1      -6.941   6.695   5.106  1.00  0.00     0.167 HD
ATOM     56  C   UNL     1     -10.888   5.846   3.440  1.00  0.00     0.031 A 
ATOM     57  C   UNL     1      -4.621   8.218   5.434  1.00  0.00     0.031 A 
ATOM     58  C   UNL     1     -10.597   7.200   3.049  1.00  0.00     0.049 A 
ATOM     59  C   UNL     1      -5.550   9.048   4.595  1.00  0.00     0.074 A 
ATOM     60  C   UNL     1     -11.405   8.093   2.368  1.00  0.00     0.029 A 
ATOM     61  N   UNL     1      -9.399   7.852   3.296  1.00  0.00    -0.354 N 
ATOM     62  N   UNL     1      -6.759   8.764   4.176  1.00  0.00    -0.248 NA
ATOM     63  C   UNL     1      -5.058  10.368   4.174  1.00  0.00     0.031 C 
ATOM     64  C   UNL     1     -10.676   9.268   2.155  1.00  0.00     0.029 A 
ATOM     65  C   UNL     1      -9.432   9.123   2.748  1.00  0.00     0.049 A 
ATOM     66  H   UNL     1      -8.637   7.468   3.787  1.00  0.00     0.167 HD
ATOM     67  C   UNL     1      -7.178   9.873   3.454  1.00  0.00     0.074 A 
ATOM     68  C   UNL     1      -6.103  10.843   3.511  1.00  0.00     0.031 C 
ATOM     69  C   UNL     1      -8.348  10.069   2.800  1.00  0.00     0.031 A 
BRANCH  56  70
ATOM     70  C   UNL     1     -12.194   5.245   3.003  1.00  0.00    -0.014 A 
ATOM     71  C   UNL     1     -13.227   5.008   3.924  1.00  0.00     0.009 A 
ATOM     72  C   UNL     1     -12.409   4.950   1.649  1.00  0.00     0.009 A 
ATOM     73  C   UNL     1     -14.438   4.456   3.500  1.00  0.00     0.001 A 
ATOM     74  C   UNL     1     -13.630   4.423   1.224  1.00  0.00     0.001 A 
ATOM     75  C   UNL     1     -14.640   4.169   2.151  1.00  0.00     0.000 A 
ENDBRANCH  56  70
BRANCH  57  76
ATOM     76  C   UNL     1      -3.280   8.730   5.814  1.00  0.00    -0.014 A 
ATOM     77  C   UNL     1      -3.154   9.762   6.757  1.00  0.00     0.009 A 
ATOM     78  C   UNL     1      -2.119   8.192   5.236  1.00  0.00     0.009 A 
ATOM     79  C   UNL     1      -1.894  10.259   7.096  1.00  0.00     0.001 A 
ATOM     80  C   UNL     1      -0.860   8.674   5.597  1.00  0.00     0.001 A 
ATOM     81  C   UNL     1      -0.748   9.712   6.520  1.00  0.00     0.000 A 
ENDBRANCH  57  76
BRANCH  69  82
ATOM     82  C   UNL     1      -8.527  11.385   2.100  1.00  0.00    -0.014 A 
ATOM     83  C   UNL     1      -7.852  11.663   0.901  1.00  0.00     0.009 A 
ATOM     84  C   UNL     1      -9.411  12.342   2.623  1.00  0.00     0.009 A 
ATOM     85  C   UNL     1      -8.039  12.885   0.254  1.00  0.00     0.001 A 
ATOM     86  C   UNL     1      -9.616  13.552   1.960  1.00  0.00     0.001 A 
ATOM     87  C   UNL     1      -8.924  13.826   0.780  1.00  0.00     0.000 A 
ENDBRANCH  69  82
ENDBRANCH  43  44
ENDBRANCH  35  38
ENDBRANCH  33  34
ENDBRANCH  32  33
ENDBRANCH  31  32
ENDBRANCH   1  31
TORSDOF 17
