REMARK SMILES Cc1ccccc1OCCN1C(=O)CC[C@H](C(=O)NCCCCNC(=O)c2ccc(-c3c4nc(c(-c5ccccc5)c5ccc([nH]5)c(-c5ccccc5)c5nc(c(-c6ccccc6)c6ccc3[nH]6)C=C5)C=C4)cc2)[C@@H]1c1ccco1
REMARK SMILES IDX 20 1 19 2 17 3 18 4 16 6 11 7 12 8 75 9 13 10 14 11 15 12
REMARK SMILES IDX 10 13 9 14 8 15 7 16 1 17 2 18 3 19 4 20 6 21 5 22 76 23
REMARK SMILES IDX 77 24 80 25 78 26 79 27 21 28 22 29 23 30 24 31 25 32 26 34
REMARK SMILES IDX 27 35 28 36 74 37 29 38 73 39 30 40 31 41 32 42 67 43 33 44
REMARK SMILES IDX 72 45 66 46 68 47 34 48 71 49 65 50 64 51 35 53 57 54 42 55
REMARK SMILES IDX 56 56 43 57 46 58 55 59 69 60 44 61 45 62 54 64 70 65 47 66
REMARK SMILES IDX 36 67 37 68 41 69 38 70 40 71 39 72 58 73 59 74 63 75 60 76
REMARK SMILES IDX 62 77 61 78 48 79 49 80 53 81 50 82 52 83 51 84
REMARK H PARENT 19 5 24 33 68 52 46 63
REMARK Flexibility Score: inf
ROOT
ATOM      1  C   UNL     1       3.179  -3.365   3.915  1.00  0.00     0.116 C 
ENDROOT
BRANCH   1   2
ATOM      2  N   UNL     1       3.687  -3.781   2.618  1.00  0.00    -0.356 N 
ATOM      3  C   UNL     1       3.604  -3.165   1.405  1.00  0.00     0.225 C 
ATOM      4  O   UNL     1       4.354  -3.575   0.512  1.00  0.00    -0.275 OA
ATOM      5  H   UNL     1       4.164  -4.643   2.616  1.00  0.00     0.163 HD
BRANCH   3   6
ATOM      6  C   UNL     1       2.651  -1.999   1.119  1.00  0.00     0.109 C 
ATOM      7  N   UNL     1       2.197   0.443   1.608  1.00  0.00    -0.328 N 
ATOM      8  C   UNL     1       0.988   0.201   2.232  1.00  0.00     0.223 C 
ATOM      9  C   UNL     1       3.216  -0.602   1.433  1.00  0.00     0.164 C 
ATOM     10  O   UNL     1       0.247   1.099   2.638  1.00  0.00    -0.275 OA
ATOM     11  C   UNL     1       0.600  -1.235   2.476  1.00  0.00     0.101 C 
ATOM     12  C   UNL     1       1.212  -2.265   1.550  1.00  0.00     0.026 C 
BRANCH   7  13
ATOM     13  C   UNL     1       2.579   1.845   1.377  1.00  0.00     0.162 C 
BRANCH  13  14
ATOM     14  C   UNL     1       2.388   2.355  -0.059  1.00  0.00     0.251 C 
BRANCH  14  15
ATOM     15  O   UNL     1       1.039   2.465  -0.517  1.00  0.00    -0.491 OA
BRANCH  15  16
ATOM     16  C   UNL     1       0.328   1.327  -0.776  1.00  0.00     0.122 A 
ATOM     17  C   UNL     1       2.058   0.151  -2.256  1.00  0.00     0.048 C 
ATOM     18  C   UNL     1       0.744   0.227  -1.540  1.00  0.00    -0.009 A 
ATOM     19  C   UNL     1      -0.128  -0.872  -1.667  1.00  0.00     0.007 A 
ATOM     20  C   UNL     1      -1.405  -0.858  -1.104  1.00  0.00     0.001 A 
ATOM     21  C   UNL     1      -0.977   1.351  -0.259  1.00  0.00     0.047 A 
ATOM     22  C   UNL     1      -1.838   0.265  -0.413  1.00  0.00     0.004 A 
ENDBRANCH  15  16
ENDBRANCH  14  15
ENDBRANCH  13  14
ENDBRANCH   7  13
BRANCH   9  23
ATOM     23  C   UNL     1       4.175  -0.573   2.581  1.00  0.00     0.127 A 
ATOM     24  C   UNL     1       5.507  -0.919   2.669  1.00  0.00     0.048 A 
ATOM     25  O   UNL     1       3.717  -0.158   3.799  1.00  0.00    -0.467 OA
ATOM     26  C   UNL     1       5.860  -0.763   4.021  1.00  0.00     0.042 A 
ATOM     27  C   UNL     1       4.756  -0.261   4.665  1.00  0.00     0.195 A 
ENDBRANCH   9  23
ENDBRANCH   3   6
ENDBRANCH   1   2
BRANCH   1  28
ATOM     28  C   UNL     1       2.317  -4.413   4.617  1.00  0.00     0.023 C 
BRANCH  28  29
ATOM     29  C   UNL     1       3.042  -5.699   5.017  1.00  0.00     0.023 C 
BRANCH  29  30
ATOM     30  C   UNL     1       4.241  -5.501   5.935  1.00  0.00     0.116 C 
BRANCH  30  31
ATOM     31  N   UNL     1       3.918  -5.198   7.318  1.00  0.00    -0.352 N 
ATOM     32  C   UNL     1       4.739  -4.863   8.382  1.00  0.00     0.251 C 
ATOM     33  H   UNL     1       2.959  -5.238   7.535  1.00  0.00     0.163 HD
ATOM     34  O   UNL     1       4.245  -4.777   9.498  1.00  0.00    -0.269 OA
BRANCH  32  35
ATOM     35  C   UNL     1       6.168  -4.469   8.185  1.00  0.00     0.039 A 
ATOM     36  C   UNL     1       6.729  -3.575   9.113  1.00  0.00     0.014 A 
ATOM     37  C   UNL     1       6.899  -4.806   7.052  1.00  0.00     0.014 A 
ATOM     38  C   UNL     1       7.875  -2.850   8.786  1.00  0.00     0.010 A 
ATOM     39  C   UNL     1       7.965  -4.017   6.671  1.00  0.00     0.010 A 
ATOM     40  C   UNL     1       8.410  -2.995   7.509  1.00  0.00    -0.014 A 
BRANCH  40  41
ATOM     41  C   UNL     1       9.289  -2.017   6.885  1.00  0.00     0.031 A 
ATOM     42  C   UNL     1      10.706  -2.308   6.616  1.00  0.00     0.074 A 
ATOM     43  C   UNL     1       8.729  -0.892   6.388  1.00  0.00     0.049 A 
ATOM     44  N   UNL     1      11.601  -1.392   6.457  1.00  0.00    -0.248 NA
ATOM     45  C   UNL     1      11.237  -3.664   6.534  1.00  0.00     0.031 C 
ATOM     46  C   UNL     1       9.296   0.031   5.408  1.00  0.00     0.029 A 
ATOM     47  N   UNL     1       7.549  -0.271   6.792  1.00  0.00    -0.354 N 
ATOM     48  C   UNL     1      12.725  -2.009   5.967  1.00  0.00     0.074 A 
ATOM     49  C   UNL     1      12.484  -3.427   6.112  1.00  0.00     0.031 C 
ATOM     50  C   UNL     1       8.631   1.197   5.481  1.00  0.00     0.029 A 
ATOM     51  C   UNL     1       7.727   1.107   6.616  1.00  0.00     0.049 A 
ATOM     52  H   UNL     1       6.742  -0.717   7.137  1.00  0.00     0.167 HD
ATOM     53  C   UNL     1      13.686  -1.277   5.340  1.00  0.00     0.031 A 
ATOM     54  C   UNL     1       7.640   2.004   7.640  1.00  0.00     0.031 A 
ATOM     55  C   UNL     1      13.347   0.139   5.276  1.00  0.00     0.049 A 
ATOM     56  C   UNL     1       8.945   2.742   7.840  1.00  0.00     0.074 A 
ATOM     57  C   UNL     1      12.786   0.922   4.280  1.00  0.00     0.029 A 
ATOM     58  N   UNL     1      13.269   0.879   6.450  1.00  0.00    -0.354 N 
ATOM     59  N   UNL     1      10.080   2.340   7.339  1.00  0.00    -0.248 NA
ATOM     60  C   UNL     1       9.092   3.949   8.648  1.00  0.00     0.031 C 
ATOM     61  C   UNL     1      12.291   2.108   4.882  1.00  0.00     0.029 A 
ATOM     62  C   UNL     1      12.585   2.060   6.233  1.00  0.00     0.049 A 
ATOM     63  H   UNL     1      13.648   0.601   7.315  1.00  0.00     0.167 HD
ATOM     64  C   UNL     1      11.078   3.190   7.716  1.00  0.00     0.074 A 
ATOM     65  C   UNL     1      10.414   4.182   8.543  1.00  0.00     0.031 C 
ATOM     66  C   UNL     1      12.370   2.999   7.325  1.00  0.00     0.031 A 
BRANCH  53  67
ATOM     67  C   UNL     1      14.767  -1.930   4.524  1.00  0.00    -0.014 A 
ATOM     68  C   UNL     1      15.177  -1.352   3.310  1.00  0.00     0.009 A 
ATOM     69  C   UNL     1      15.385  -3.139   4.886  1.00  0.00     0.009 A 
ATOM     70  C   UNL     1      16.086  -1.992   2.459  1.00  0.00     0.001 A 
ATOM     71  C   UNL     1      16.264  -3.804   4.021  1.00  0.00     0.001 A 
ATOM     72  C   UNL     1      16.607  -3.233   2.801  1.00  0.00     0.000 A 
ENDBRANCH  53  67
BRANCH  54  73
ATOM     73  C   UNL     1       6.716   1.581   8.728  1.00  0.00    -0.014 A 
ATOM     74  C   UNL     1       5.336   1.550   8.440  1.00  0.00     0.009 A 
ATOM     75  C   UNL     1       7.190   0.835   9.818  1.00  0.00     0.009 A 
ATOM     76  C   UNL     1       4.477   0.698   9.141  1.00  0.00     0.001 A 
ATOM     77  C   UNL     1       6.323  -0.011  10.521  1.00  0.00     0.001 A 
ATOM     78  C   UNL     1       4.979  -0.107  10.160  1.00  0.00     0.000 A 
ENDBRANCH  54  73
BRANCH  66  79
ATOM     79  C   UNL     1      13.562   3.723   7.883  1.00  0.00    -0.014 A 
ATOM     80  C   UNL     1      13.619   4.233   9.186  1.00  0.00     0.009 A 
ATOM     81  C   UNL     1      14.754   3.756   7.126  1.00  0.00     0.009 A 
ATOM     82  C   UNL     1      14.802   4.782   9.695  1.00  0.00     0.001 A 
ATOM     83  C   UNL     1      15.945   4.261   7.646  1.00  0.00     0.001 A 
ATOM     84  C   UNL     1      15.966   4.784   8.931  1.00  0.00     0.000 A 
ENDBRANCH  66  79
ENDBRANCH  40  41
ENDBRANCH  32  35
ENDBRANCH  30  31
ENDBRANCH  29  30
ENDBRANCH  28  29
ENDBRANCH   1  28
TORSDOF 16
