REMARK SMILES N#C/C(=C/c1cccc(OCC(=O)NCCCCNC(=O)c2ccc(-c3c4nc(c(-c5ccccc5)c5ccc([nH]5)c(-c5ccccc5)c5nc(c(-c6ccccc6)c6ccc3[nH]6)C=C5)C=C4)cc2)c1)c1nc2ccccc2[nH]1
REMARK SMILES IDX 15 1 14 2 12 3 13 4 11 6 10 7 9 8 5 9 6 10 70 11 7 12 8 13
REMARK SMILES IDX 4 14 3 15 2 16 1 17 71 18 72 19 79 20 73 21 78 22 74 24
REMARK SMILES IDX 77 25 75 26 76 27 16 28 17 29 18 30 19 31 20 32 21 34 22 35
REMARK SMILES IDX 23 36 69 37 24 38 68 39 25 40 26 41 27 42 62 43 28 44 67 45
REMARK SMILES IDX 61 46 63 47 29 48 66 49 60 50 59 51 30 53 52 54 37 55 51 56
REMARK SMILES IDX 38 57 41 58 50 59 64 60 39 61 40 62 49 64 65 65 42 66 31 67
REMARK SMILES IDX 32 68 36 69 33 70 35 71 34 72 53 73 54 74 58 75 55 76 57 77
REMARK SMILES IDX 56 78 43 79 44 80 48 81 45 82 47 83 46 84
REMARK H PARENT 14 5 79 23 19 33 63 52 41 63
REMARK Flexibility Score: inf
ROOT
ATOM      1  C   UNL     1      10.066   1.929   2.390  1.00  0.00     0.116 C 
ENDROOT
BRANCH   1   2
ATOM      2  N   UNL     1       8.637   1.911   2.645  1.00  0.00    -0.353 N 
ATOM      3  C   UNL     1       7.872   0.852   3.059  1.00  0.00     0.257 C 
ATOM      4  O   UNL     1       6.740   1.054   3.508  1.00  0.00    -0.271 OA
ATOM      5  H   UNL     1       8.161   2.761   2.503  1.00  0.00     0.163 HD
BRANCH   3   6
ATOM      6  C   UNL     1       8.437  -0.571   3.008  1.00  0.00     0.329 C 
BRANCH   6   7
ATOM      7  O   UNL     1       8.941  -1.002   1.755  1.00  0.00    -0.484 OA
BRANCH   7   8
ATOM      8  C   UNL     1       8.052  -1.178   0.728  1.00  0.00     0.120 A 
ATOM      9  C   UNL     1       5.870  -1.222  -0.351  1.00  0.00    -0.021 A 
ATOM     10  C   UNL     1       6.485  -1.517  -1.572  1.00  0.00     0.008 A 
ATOM     11  C   UNL     1       6.660  -1.079   0.803  1.00  0.00     0.054 A 
ATOM     12  C   UNL     1       7.872  -1.646  -1.645  1.00  0.00     0.004 A 
ATOM     13  C   UNL     1       8.649  -1.475  -0.499  1.00  0.00     0.046 A 
BRANCH   9  14
ATOM     14  C   UNL     1       4.403  -1.078  -0.299  1.00  0.00     0.031 C 
ATOM     15  C   UNL     1       3.728   0.025   0.081  1.00  0.00     0.095 C 
BRANCH  15  16
ATOM     16  C   UNL     1       2.208   0.025   0.081  1.00  0.00     0.103 C 
ATOM     17  N   UNL     1       0.947   0.025   0.081  1.00  0.00    -0.192 NA
ENDBRANCH  15  16
BRANCH  15  18
ATOM     18  C   UNL     1       4.386   1.239   0.425  1.00  0.00     0.149 A 
ATOM     19  N   UNL     1       5.273   1.956  -0.240  1.00  0.00    -0.228 NA
ATOM     20  N   UNL     1       4.114   1.822   1.644  1.00  0.00    -0.337 N 
ATOM     21  C   UNL     1       5.617   2.991   0.592  1.00  0.00     0.089 A 
ATOM     22  C   UNL     1       4.917   2.925   1.787  1.00  0.00     0.066 A 
ATOM     23  H   UNL     1       3.454   1.501   2.301  1.00  0.00     0.168 HD
ATOM     24  C   UNL     1       6.540   4.027   0.400  1.00  0.00     0.030 A 
ATOM     25  C   UNL     1       5.108   3.822   2.841  1.00  0.00     0.028 A 
ATOM     26  C   UNL     1       6.768   4.932   1.446  1.00  0.00     0.002 A 
ATOM     27  C   UNL     1       6.068   4.822   2.649  1.00  0.00     0.002 A 
ENDBRANCH  15  18
ENDBRANCH   9  14
ENDBRANCH   7   8
ENDBRANCH   6   7
ENDBRANCH   3   6
ENDBRANCH   1   2
BRANCH   1  28
ATOM     28  C   UNL     1      10.467   2.167   0.933  1.00  0.00     0.023 C 
BRANCH  28  29
ATOM     29  C   UNL     1      10.230   3.554   0.320  1.00  0.00     0.023 C 
BRANCH  29  30
ATOM     30  C   UNL     1      10.476   4.795   1.176  1.00  0.00     0.116 C 
BRANCH  30  31
ATOM     31  N   UNL     1      11.881   5.139   1.309  1.00  0.00    -0.352 N 
ATOM     32  C   UNL     1      12.513   6.339   1.082  1.00  0.00     0.251 C 
ATOM     33  H   UNL     1      12.467   4.405   1.605  1.00  0.00     0.163 HD
ATOM     34  O   UNL     1      13.748   6.386   1.119  1.00  0.00    -0.269 OA
BRANCH  32  35
ATOM     35  C   UNL     1      11.758   7.578   0.767  1.00  0.00     0.039 A 
ATOM     36  C   UNL     1      12.239   8.414  -0.249  1.00  0.00     0.014 A 
ATOM     37  C   UNL     1      10.623   7.964   1.488  1.00  0.00     0.014 A 
ATOM     38  C   UNL     1      11.560   9.594  -0.577  1.00  0.00     0.010 A 
ATOM     39  C   UNL     1       9.917   9.120   1.128  1.00  0.00     0.010 A 
ATOM     40  C   UNL     1      10.375   9.947   0.089  1.00  0.00    -0.014 A 
BRANCH  40  41
ATOM     41  C   UNL     1       9.606  11.156  -0.323  1.00  0.00     0.031 A 
ATOM     42  C   UNL     1       9.472  12.348   0.587  1.00  0.00     0.074 A 
ATOM     43  C   UNL     1       8.989  11.175  -1.521  1.00  0.00     0.049 A 
ATOM     44  N   UNL     1       8.855  13.485   0.374  1.00  0.00    -0.248 NA
ATOM     45  C   UNL     1      10.099  12.244   1.912  1.00  0.00     0.031 C 
ATOM     46  C   UNL     1       8.999  10.081  -2.492  1.00  0.00     0.029 A 
ATOM     47  N   UNL     1       8.233  12.151  -2.125  1.00  0.00    -0.354 N 
ATOM     48  C   UNL     1       9.013  14.229   1.537  1.00  0.00     0.074 A 
ATOM     49  C   UNL     1       9.744  13.394   2.468  1.00  0.00     0.031 C 
ATOM     50  C   UNL     1       8.303  10.452  -3.578  1.00  0.00     0.029 A 
ATOM     51  C   UNL     1       7.768  11.795  -3.368  1.00  0.00     0.049 A 
ATOM     52  H   UNL     1       8.042  13.021  -1.707  1.00  0.00     0.167 HD
ATOM     53  C   UNL     1       8.601  15.493   1.805  1.00  0.00     0.031 A 
ATOM     54  C   UNL     1       6.994  12.463  -4.245  1.00  0.00     0.031 A 
ATOM     55  C   UNL     1       7.861  16.326   0.891  1.00  0.00     0.049 A 
ATOM     56  C   UNL     1       6.523  13.852  -3.917  1.00  0.00     0.074 A 
ATOM     57  C   UNL     1       7.458  17.641   1.055  1.00  0.00     0.029 A 
ATOM     58  N   UNL     1       7.396  15.921  -0.350  1.00  0.00    -0.354 N 
ATOM     59  N   UNL     1       6.757  14.572  -2.848  1.00  0.00    -0.248 NA
ATOM     60  C   UNL     1       5.690  14.524  -4.925  1.00  0.00     0.031 C 
ATOM     61  C   UNL     1       6.693  18.009  -0.058  1.00  0.00     0.029 A 
ATOM     62  C   UNL     1       6.674  16.945  -0.945  1.00  0.00     0.049 A 
ATOM     63  H   UNL     1       7.555  15.036  -0.751  1.00  0.00     0.167 HD
ATOM     64  C   UNL     1       6.113  15.785  -3.058  1.00  0.00     0.074 A 
ATOM     65  C   UNL     1       5.498  15.712  -4.367  1.00  0.00     0.031 C 
ATOM     66  C   UNL     1       6.041  16.861  -2.237  1.00  0.00     0.031 A 
BRANCH  53  67
ATOM     67  C   UNL     1       8.926  16.047   3.168  1.00  0.00    -0.014 A 
ATOM     68  C   UNL     1      10.247  16.344   3.542  1.00  0.00     0.009 A 
ATOM     69  C   UNL     1       7.893  16.293   4.086  1.00  0.00     0.009 A 
ATOM     70  C   UNL     1      10.531  16.825   4.822  1.00  0.00     0.001 A 
ATOM     71  C   UNL     1       8.176  16.805   5.354  1.00  0.00     0.001 A 
ATOM     72  C   UNL     1       9.495  17.057   5.726  1.00  0.00     0.000 A 
ENDBRANCH  53  67
BRANCH  54  73
ATOM     73  C   UNL     1       6.621  11.817  -5.530  1.00  0.00    -0.014 A 
ATOM     74  C   UNL     1       7.189  12.247  -6.739  1.00  0.00     0.009 A 
ATOM     75  C   UNL     1       5.715  10.744  -5.548  1.00  0.00     0.009 A 
ATOM     76  C   UNL     1       6.849  11.622  -7.941  1.00  0.00     0.001 A 
ATOM     77  C   UNL     1       5.399  10.104  -6.748  1.00  0.00     0.001 A 
ATOM     78  C   UNL     1       5.961  10.546  -7.943  1.00  0.00     0.000 A 
ENDBRANCH  54  73
BRANCH  66  79
ATOM     79  C   UNL     1       5.271  18.055  -2.732  1.00  0.00    -0.014 A 
ATOM     80  C   UNL     1       3.870  18.030  -2.829  1.00  0.00     0.009 A 
ATOM     81  C   UNL     1       5.952  19.234  -3.075  1.00  0.00     0.009 A 
ATOM     82  C   UNL     1       3.172  19.149  -3.289  1.00  0.00     0.001 A 
ATOM     83  C   UNL     1       5.249  20.361  -3.507  1.00  0.00     0.001 A 
ATOM     84  C   UNL     1       3.861  20.314  -3.623  1.00  0.00     0.000 A 
ENDBRANCH  66  79
ENDBRANCH  40  41
ENDBRANCH  32  35
ENDBRANCH  30  31
ENDBRANCH  29  30
ENDBRANCH  28  29
ENDBRANCH   1  28
TORSDOF 16
