REMARK SMILES Cc1c(Cl)cccc1NC(=O)C[C@H](C(=O)NCCCCNC(=O)c1ccc(-c2c3nc(c(-c4ccccc4)c4ccc([nH]4)c(-c4ccccc4)c4nc(c(-c5ccccc5)c5ccc2[nH]5)C=C4)C=C3)cc1)[C@H](C)c1ccccc1
REMARK SMILES IDX 18 1 17 2 16 3 14 4 15 5 13 7 12 8 10 9 9 10 11 12 8 13 1 14
REMARK SMILES IDX 2 15 3 16 4 17 5 18 7 19 6 20 72 21 73 22 74 23 75 24 79 25
REMARK SMILES IDX 76 26 78 27 77 28 19 29 20 30 21 31 22 32 23 34 24 35 25 36
REMARK SMILES IDX 71 37 26 38 70 39 27 40 28 41 29 42 64 43 30 44 69 45 63 46
REMARK SMILES IDX 65 47 31 48 68 49 62 50 61 51 32 53 54 54 39 55 53 56 40 57
REMARK SMILES IDX 43 58 52 59 66 60 41 61 42 62 51 64 67 65 44 66 33 67 34 68
REMARK SMILES IDX 38 69 35 70 37 71 36 72 55 73 56 74 60 75 57 76 59 77 58 78
REMARK SMILES IDX 45 79 46 80 50 81 47 82 49 83 48 84
REMARK H PARENT 16 6 9 11 21 33 65 52 43 63
REMARK Flexibility Score: inf
ROOT
ATOM      1  C   UNL     1      -4.564   0.426   2.684  1.00  0.00     0.023 C 
ENDROOT
BRANCH   1   2
ATOM      2  C   UNL     1      -4.908  -0.752   0.877  1.00  0.00     0.116 C 
BRANCH   2   3
ATOM      3  N   UNL     1      -6.245  -1.400   0.257  1.00  0.00    -0.356 N 
ATOM      4  C   UNL     1      -6.909  -1.228  -0.916  1.00  0.00     0.224 C 
ATOM      5  O   UNL     1      -7.986  -1.815  -1.049  1.00  0.00    -0.275 OA
ATOM      6  H   UNL     1      -6.671  -2.059   0.852  1.00  0.00     0.163 HD
BRANCH   4   7
ATOM      7  C   UNL     1      -6.371  -0.310  -2.007  1.00  0.00     0.095 C 
BRANCH   7   8
ATOM      8  C   UNL     1      -6.793   1.132  -1.624  1.00  0.00     0.114 C 
BRANCH   8   9
ATOM      9  C   UNL     1      -5.812   2.247  -1.341  1.00  0.00     0.225 C 
ATOM     10  N   UNL     1      -5.158   2.369  -0.147  1.00  0.00    -0.326 N 
ATOM     11  H   UNL     1      -4.772   3.250   0.062  1.00  0.00     0.169 HD
ATOM     12  O   UNL     1      -5.559   3.084  -2.214  1.00  0.00    -0.275 OA
BRANCH  10  13
ATOM     13  C   UNL     1      -4.985   1.362   0.801  1.00  0.00     0.045 A 
ATOM     14  C   UNL     1      -2.132   1.468   0.438  1.00  0.00     0.048 C 
ATOM     15  C   UNL     1      -3.311   0.705   0.971  1.00  0.00    -0.009 A 
ATOM     16  C   UNL     1      -3.032  -0.821   1.878  1.00  0.00     0.046 A 
ATOM     17  Cl  UNL     1      -1.453  -1.485   1.997  1.00  0.00    -0.084 Cl
ATOM     18  C   UNL     1      -4.409  -1.671   2.670  1.00  0.00     0.021 A 
ATOM     19  C   UNL     1      -6.366   0.551   1.632  1.00  0.00     0.026 A 
ATOM     20  C   UNL     1      -6.079  -0.980   2.573  1.00  0.00     0.004 A 
ENDBRANCH  10  13
ENDBRANCH   8   9
ENDBRANCH   7   8
BRANCH   7  21
ATOM     21  C   UNL     1      -4.945  -0.794  -2.428  1.00  0.00     0.029 C 
ATOM     22  C   UNL     1      -3.846   0.253  -2.590  1.00  0.00     0.013 C 
BRANCH  21  23
ATOM     23  C   UNL     1      -4.916  -1.825  -3.564  1.00  0.00    -0.044 A 
ATOM     24  C   UNL     1      -5.312  -3.149  -3.299  1.00  0.00     0.004 A 
ATOM     25  C   UNL     1      -4.313  -1.546  -4.798  1.00  0.00     0.004 A 
ATOM     26  C   UNL     1      -5.013  -4.175  -4.197  1.00  0.00     0.000 A 
ATOM     27  C   UNL     1      -3.999  -2.575  -5.685  1.00  0.00     0.000 A 
ATOM     28  C   UNL     1      -4.328  -3.891  -5.375  1.00  0.00     0.000 A 
ENDBRANCH  21  23
ENDBRANCH   7  21
ENDBRANCH   4   7
ENDBRANCH   2   3
ENDBRANCH   1   2
BRANCH   1  29
ATOM     29  C   UNL     1      -5.019   0.344   4.340  1.00  0.00     0.023 C 
BRANCH  29  30
ATOM     30  C   UNL     1      -4.438  -0.718   5.267  1.00  0.00     0.116 C 
BRANCH  30  31
ATOM     31  N   UNL     1      -2.999  -0.903   5.130  1.00  0.00    -0.352 N 
ATOM     32  C   UNL     1      -2.194  -1.716   5.884  1.00  0.00     0.251 C 
ATOM     33  H   UNL     1      -2.557  -0.387   4.417  1.00  0.00     0.163 HD
ATOM     34  O   UNL     1      -0.997  -1.839   5.673  1.00  0.00    -0.269 OA
BRANCH  32  35
ATOM     35  C   UNL     1      -2.829  -2.363   7.032  1.00  0.00     0.039 A 
ATOM     36  C   UNL     1      -2.553  -1.829   8.289  1.00  0.00     0.014 A 
ATOM     37  C   UNL     1      -3.837  -3.308   6.830  1.00  0.00     0.014 A 
ATOM     38  C   UNL     1      -3.336  -2.219   9.363  1.00  0.00     0.010 A 
ATOM     39  C   UNL     1      -4.670  -3.629   7.890  1.00  0.00     0.010 A 
ATOM     40  C   UNL     1      -4.419  -3.090   9.162  1.00  0.00    -0.014 A 
BRANCH  40  41
ATOM     41  C   UNL     1      -5.274  -3.462  10.306  1.00  0.00     0.031 A 
ATOM     42  C   UNL     1      -5.262  -4.878  10.794  1.00  0.00     0.074 A 
ATOM     43  C   UNL     1      -6.030  -2.519  10.899  1.00  0.00     0.049 A 
ATOM     44  N   UNL     1      -5.899  -5.402  11.807  1.00  0.00    -0.248 NA
ATOM     45  C   UNL     1      -4.442  -5.839  10.035  1.00  0.00     0.031 C 
ATOM     46  C   UNL     1      -6.120  -1.116  10.482  1.00  0.00     0.029 A 
ATOM     47  N   UNL     1      -6.849  -2.591  11.994  1.00  0.00    -0.354 N 
ATOM     48  C   UNL     1      -5.561  -6.748  11.802  1.00  0.00     0.074 A 
ATOM     49  C   UNL     1      -4.717  -6.977  10.653  1.00  0.00     0.031 C 
ATOM     50  C   UNL     1      -6.910  -0.452  11.341  1.00  0.00     0.029 A 
ATOM     51  C   UNL     1      -7.418  -1.388  12.337  1.00  0.00     0.049 A 
ATOM     52  H   UNL     1      -7.015  -3.426  12.489  1.00  0.00     0.167 HD
ATOM     53  C   UNL     1      -5.907  -7.702  12.694  1.00  0.00     0.031 A 
ATOM     54  C   UNL     1      -8.258  -1.084  13.343  1.00  0.00     0.031 A 
ATOM     55  C   UNL     1      -6.747  -7.456  13.833  1.00  0.00     0.049 A 
ATOM     56  C   UNL     1      -8.662  -2.179  14.293  1.00  0.00     0.074 A 
ATOM     57  C   UNL     1      -7.135  -8.339  14.823  1.00  0.00     0.029 A 
ATOM     58  N   UNL     1      -7.334  -6.234  14.127  1.00  0.00    -0.354 N 
ATOM     59  N   UNL     1      -8.281  -3.435  14.316  1.00  0.00    -0.248 NA
ATOM     60  C   UNL     1      -9.600  -1.814  15.361  1.00  0.00     0.031 C 
ATOM     61  C   UNL     1      -8.018  -7.671  15.675  1.00  0.00     0.029 A 
ATOM     62  C   UNL     1      -8.112  -6.349  15.265  1.00  0.00     0.049 A 
ATOM     63  H   UNL     1      -7.215  -5.408  13.604  1.00  0.00     0.167 HD
ATOM     64  C   UNL     1      -8.908  -4.001  15.418  1.00  0.00     0.074 A 
ATOM     65  C   UNL     1      -9.672  -2.944  16.050  1.00  0.00     0.031 C 
ATOM     66  C   UNL     1      -8.859  -5.278  15.871  1.00  0.00     0.031 A 
BRANCH  53  67
ATOM     67  C   UNL     1      -5.397  -9.096  12.457  1.00  0.00    -0.014 A 
ATOM     68  C   UNL     1      -4.033  -9.409  12.577  1.00  0.00     0.009 A 
ATOM     69  C   UNL     1      -6.302 -10.120  12.143  1.00  0.00     0.009 A 
ATOM     70  C   UNL     1      -3.584 -10.713  12.357  1.00  0.00     0.001 A 
ATOM     71  C   UNL     1      -5.856 -11.430  11.958  1.00  0.00     0.001 A 
ATOM     72  C   UNL     1      -4.497 -11.723  12.057  1.00  0.00     0.000 A 
ENDBRANCH  53  67
BRANCH  54  73
ATOM     73  C   UNL     1      -8.779   0.301  13.506  1.00  0.00    -0.014 A 
ATOM     74  C   UNL     1      -8.461   1.064  14.641  1.00  0.00     0.009 A 
ATOM     75  C   UNL     1      -9.633   0.857  12.539  1.00  0.00     0.009 A 
ATOM     76  C   UNL     1      -9.022   2.331  14.825  1.00  0.00     0.001 A 
ATOM     77  C   UNL     1     -10.161   2.139  12.706  1.00  0.00     0.001 A 
ATOM     78  C   UNL     1      -9.868   2.868  13.857  1.00  0.00     0.000 A 
ENDBRANCH  54  73
BRANCH  66  79
ATOM     79  C   UNL     1      -9.614  -5.587  17.134  1.00  0.00    -0.014 A 
ATOM     80  C   UNL     1     -11.017  -5.592  17.168  1.00  0.00     0.009 A 
ATOM     81  C   UNL     1      -8.903  -5.925  18.296  1.00  0.00     0.009 A 
ATOM     82  C   UNL     1     -11.691  -5.889  18.354  1.00  0.00     0.001 A 
ATOM     83  C   UNL     1      -9.579  -6.262  19.468  1.00  0.00     0.001 A 
ATOM     84  C   UNL     1     -10.972  -6.230  19.500  1.00  0.00     0.000 A 
ENDBRANCH  66  79
ENDBRANCH  40  41
ENDBRANCH  32  35
ENDBRANCH  30  31
ENDBRANCH  29  30
ENDBRANCH   1  29
TORSDOF 16
