REMARK SMILES COc1cc(-c2nnc(S)n2-c2ccc(C(=O)NCCCCNC(=O)c3ccc(-c4c5nc(c(-c6ccccc6)c6ccc([nH]6)c(-c6ccccc6)c6nc(c(-c7ccccc7)c7ccc4[nH]7)C=C6)C=C5)cc3)cc2)cc(OC)c1OC
REMARK SMILES IDX 20 1 19 2 18 3 16 4 17 5 15 7 12 8 13 9 75 10 14 11 74 12
REMARK SMILES IDX 11 13 6 14 7 15 8 16 9 17 5 18 3 19 4 20 80 21 77 22 76 23
REMARK SMILES IDX 2 24 1 25 81 26 82 27 78 28 79 29 10 30 21 32 22 33 23 34
REMARK SMILES IDX 24 35 25 37 26 38 27 39 73 40 28 41 72 42 29 43 30 44 31 45
REMARK SMILES IDX 66 46 32 47 71 48 65 49 67 50 33 51 70 52 64 53 63 54 34 56
REMARK SMILES IDX 56 57 41 58 55 59 42 60 45 61 54 62 68 63 43 64 44 65 53 67
REMARK SMILES IDX 69 68 46 69 35 70 36 71 40 72 37 73 39 74 38 75 57 76 58 77
REMARK SMILES IDX 62 78 59 79 61 80 60 81 47 82 48 83 52 84 49 85 51 86 50 87
REMARK H PARENT 18 6 10 31 23 36 67 55 45 66
REMARK Flexibility Score: inf
ROOT
ATOM      1  C   UNL     1       3.271  -4.559  -7.106  1.00  0.00     0.023 C 
ENDROOT
BRANCH   1   2
ATOM      2  C   UNL     1       4.134  -3.334  -6.778  1.00  0.00     0.116 C 
BRANCH   2   3
ATOM      3  N   UNL     1       4.546  -2.642  -7.986  1.00  0.00    -0.352 N 
ATOM      4  C   UNL     1       4.070  -1.532  -8.638  1.00  0.00     0.251 C 
ATOM      5  O   UNL     1       4.679  -1.168  -9.645  1.00  0.00    -0.269 OA
ATOM      6  H   UNL     1       5.326  -3.052  -8.426  1.00  0.00     0.163 HD
BRANCH   4   7
ATOM      7  C   UNL     1       2.902  -0.728  -8.171  1.00  0.00     0.039 A 
ATOM      8  C   UNL     1       0.843   0.949  -7.277  1.00  0.00     0.050 A 
ATOM      9  C   UNL     1       1.780   1.447  -8.183  1.00  0.00     0.027 A 
ATOM     10  C   UNL     1       0.886  -0.381  -6.862  1.00  0.00     0.027 A 
ATOM     11  C   UNL     1       2.818   0.609  -8.608  1.00  0.00     0.016 A 
ATOM     12  C   UNL     1       1.885  -1.222  -7.351  1.00  0.00     0.016 A 
BRANCH   8  13
ATOM     13  N   UNL     1      -0.186   1.772  -6.771  1.00  0.00    -0.270 N 
ATOM     14  C   UNL     1      -0.445   2.048  -5.429  1.00  0.00     0.169 A 
ATOM     15  N   UNL     1      -1.603   2.675  -5.343  1.00  0.00    -0.129 NA
ATOM     16  N   UNL     1      -2.097   2.853  -6.617  1.00  0.00    -0.123 NA
ATOM     17  C   UNL     1      -1.250   2.307  -7.460  1.00  0.00     0.193 A 
BRANCH  14  18
ATOM     18  C   UNL     1       0.460   1.725  -4.321  1.00  0.00     0.027 A 
ATOM     19  C   UNL     1       0.981   0.481  -2.294  1.00  0.00     0.165 A 
ATOM     20  C   UNL     1       0.046   0.939  -3.244  1.00  0.00     0.062 A 
ATOM     21  C   UNL     1       2.350   0.795  -2.411  1.00  0.00     0.203 A 
ATOM     22  C   UNL     1       2.742   1.672  -3.443  1.00  0.00     0.165 A 
ATOM     23  C   UNL     1       1.796   2.134  -4.370  1.00  0.00     0.062 A 
BRANCH  19  24
ATOM     24  O   UNL     1       0.517  -0.431  -1.379  1.00  0.00    -0.493 OA
ATOM     25  C   UNL     1      -0.015   0.199  -0.210  1.00  0.00     0.278 C 
ENDBRANCH  19  24
BRANCH  21  26
ATOM     26  O   UNL     1       3.365   0.245  -1.680  1.00  0.00    -0.490 OA
ATOM     27  C   UNL     1       3.126  -0.321  -0.406  1.00  0.00     0.278 C 
ENDBRANCH  21  26
BRANCH  22  28
ATOM     28  O   UNL     1       3.996   2.147  -3.738  1.00  0.00    -0.493 OA
ATOM     29  C   UNL     1       5.088   1.810  -2.897  1.00  0.00     0.278 C 
ENDBRANCH  22  28
ENDBRANCH  14  18
BRANCH  17  30
ATOM     30  S   UNL     1      -1.530   2.127  -9.162  1.00  0.00    -0.103 SA
ATOM     31  H   UNL     1      -2.670   2.784  -9.507  1.00  0.00     0.111 HD
ENDBRANCH  17  30
ENDBRANCH   8  13
ENDBRANCH   4   7
ENDBRANCH   2   3
ENDBRANCH   1   2
BRANCH   1  32
ATOM     32  C   UNL     1       4.043  -5.765  -7.662  1.00  0.00     0.023 C 
BRANCH  32  33
ATOM     33  C   UNL     1       5.017  -6.409  -6.680  1.00  0.00     0.116 C 
BRANCH  33  34
ATOM     34  N   UNL     1       4.356  -6.928  -5.486  1.00  0.00    -0.352 N 
ATOM     35  C   UNL     1       4.935  -7.340  -4.301  1.00  0.00     0.251 C 
ATOM     36  H   UNL     1       3.375  -6.993  -5.531  1.00  0.00     0.163 HD
ATOM     37  O   UNL     1       4.357  -8.114  -3.552  1.00  0.00    -0.269 OA
BRANCH  35  38
ATOM     38  C   UNL     1       6.263  -6.815  -3.942  1.00  0.00     0.039 A 
ATOM     39  C   UNL     1       7.250  -7.648  -3.409  1.00  0.00     0.014 A 
ATOM     40  C   UNL     1       6.515  -5.463  -4.167  1.00  0.00     0.014 A 
ATOM     41  C   UNL     1       8.521  -7.124  -3.188  1.00  0.00     0.010 A 
ATOM     42  C   UNL     1       7.797  -4.979  -4.068  1.00  0.00     0.010 A 
ATOM     43  C   UNL     1       8.796  -5.793  -3.544  1.00  0.00    -0.014 A 
BRANCH  43  44
ATOM     44  C   UNL     1      10.166  -5.289  -3.521  1.00  0.00     0.031 A 
ATOM     45  C   UNL     1      11.129  -6.102  -4.314  1.00  0.00     0.074 A 
ATOM     46  C   UNL     1      10.512  -4.082  -3.024  1.00  0.00     0.049 A 
ATOM     47  N   UNL     1      12.114  -6.805  -3.867  1.00  0.00    -0.248 NA
ATOM     48  C   UNL     1      10.890  -6.260  -5.760  1.00  0.00     0.031 C 
ATOM     49  C   UNL     1       9.632  -3.033  -2.495  1.00  0.00     0.029 A 
ATOM     50  N   UNL     1      11.734  -3.480  -3.002  1.00  0.00    -0.354 N 
ATOM     51  C   UNL     1      12.753  -7.329  -4.987  1.00  0.00     0.074 A 
ATOM     52  C   UNL     1      11.858  -7.115  -6.097  1.00  0.00     0.031 C 
ATOM     53  C   UNL     1      10.304  -1.862  -2.441  1.00  0.00     0.029 A 
ATOM     54  C   UNL     1      11.697  -2.110  -2.764  1.00  0.00     0.049 A 
ATOM     55  H   UNL     1      12.574  -3.975  -3.142  1.00  0.00     0.167 HD
ATOM     56  C   UNL     1      14.076  -7.650  -4.956  1.00  0.00     0.031 A 
ATOM     57  C   UNL     1      12.731  -1.236  -2.852  1.00  0.00     0.031 A 
ATOM     58  C   UNL     1      14.570  -7.725  -3.603  1.00  0.00     0.049 A 
ATOM     59  C   UNL     1      13.981  -2.023  -2.771  1.00  0.00     0.074 A 
ATOM     60  C   UNL     1      14.236  -8.460  -2.482  1.00  0.00     0.029 A 
ATOM     61  N   UNL     1      15.299  -6.653  -3.146  1.00  0.00    -0.354 N 
ATOM     62  N   UNL     1      14.366  -2.644  -1.694  1.00  0.00    -0.248 NA
ATOM     63  C   UNL     1      14.575  -2.493  -4.012  1.00  0.00     0.031 C 
ATOM     64  C   UNL     1      14.350  -7.540  -1.397  1.00  0.00     0.029 A 
ATOM     65  C   UNL     1      14.828  -6.330  -1.902  1.00  0.00     0.049 A 
ATOM     66  H   UNL     1      16.029  -6.200  -3.627  1.00  0.00     0.167 HD
ATOM     67  C   UNL     1      14.864  -3.854  -2.152  1.00  0.00     0.074 A 
ATOM     68  C   UNL     1      15.070  -3.659  -3.587  1.00  0.00     0.031 C 
ATOM     69  C   UNL     1      14.784  -4.981  -1.384  1.00  0.00     0.031 A 
BRANCH  56  70
ATOM     70  C   UNL     1      15.011  -7.442  -6.125  1.00  0.00    -0.014 A 
ATOM     71  C   UNL     1      16.367  -7.786  -5.970  1.00  0.00     0.009 A 
ATOM     72  C   UNL     1      14.688  -6.653  -7.245  1.00  0.00     0.009 A 
ATOM     73  C   UNL     1      17.352  -7.284  -6.830  1.00  0.00     0.001 A 
ATOM     74  C   UNL     1      15.662  -6.186  -8.131  1.00  0.00     0.001 A 
ATOM     75  C   UNL     1      16.999  -6.474  -7.904  1.00  0.00     0.000 A 
ENDBRANCH  56  70
BRANCH  57  76
ATOM     76  C   UNL     1      12.735   0.193  -3.232  1.00  0.00    -0.014 A 
ATOM     77  C   UNL     1      13.849   1.005  -2.960  1.00  0.00     0.009 A 
ATOM     78  C   UNL     1      11.766   0.691  -4.121  1.00  0.00     0.009 A 
ATOM     79  C   UNL     1      14.011   2.246  -3.592  1.00  0.00     0.001 A 
ATOM     80  C   UNL     1      11.926   1.932  -4.750  1.00  0.00     0.001 A 
ATOM     81  C   UNL     1      13.057   2.701  -4.499  1.00  0.00     0.000 A 
ENDBRANCH  57  76
BRANCH  69  82
ATOM     82  C   UNL     1      14.378  -4.829   0.063  1.00  0.00    -0.014 A 
ATOM     83  C   UNL     1      13.148  -4.282   0.472  1.00  0.00     0.009 A 
ATOM     84  C   UNL     1      15.209  -5.395   1.040  1.00  0.00     0.009 A 
ATOM     85  C   UNL     1      12.780  -4.275   1.822  1.00  0.00     0.001 A 
ATOM     86  C   UNL     1      14.832  -5.409   2.384  1.00  0.00     0.001 A 
ATOM     87  C   UNL     1      13.621  -4.843   2.776  1.00  0.00     0.000 A 
ENDBRANCH  69  82
ENDBRANCH  43  44
ENDBRANCH  35  38
ENDBRANCH  33  34
ENDBRANCH  32  33
ENDBRANCH   1  32
TORSDOF 17
