REMARK SMILES CC(C)OCCS(=O)(=O)N1CCC[C@H](C(=O)NCCCCNC(=O)c2ccc(-c3c4nc(c(-c5ccccc5)c5ccc([nH]5)c(-c5ccccc5)c5nc(c(-c6ccccc6)c6ccc3[nH]6)C=C5)C=C4)cc2)C1
REMARK SMILES IDX 18 1 17 2 15 3 16 4 14 6 10 7 11 8 73 9 12 10 13 11 7 12
REMARK SMILES IDX 8 13 9 14 6 15 5 16 4 17 2 18 1 19 3 20 19 21 20 22 21 23
REMARK SMILES IDX 22 24 23 25 24 27 25 28 26 29 72 30 27 31 71 32 28 33 29 34
REMARK SMILES IDX 30 35 65 36 31 37 70 38 64 39 66 40 32 41 69 42 63 43 62 44
REMARK SMILES IDX 33 46 55 47 40 48 54 49 41 50 44 51 53 52 67 53 42 54 43 55
REMARK SMILES IDX 52 57 68 58 45 59 34 60 35 61 39 62 36 63 38 64 37 65 56 66
REMARK SMILES IDX 57 67 61 68 58 69 60 70 59 71 46 72 47 73 51 74 48 75 50 76
REMARK SMILES IDX 49 77
REMARK H PARENT 17 5 22 26 66 45 44 56
REMARK Flexibility Score: inf
ROOT
ATOM      1  C   UNL     1       3.773   1.227  -1.906  1.00  0.00     0.116 C 
ENDROOT
BRANCH   1   2
ATOM      2  N   UNL     1       3.071   2.365  -1.351  1.00  0.00    -0.356 N 
ATOM      3  C   UNL     1       1.925   2.988  -1.734  1.00  0.00     0.224 C 
ATOM      4  O   UNL     1       1.370   3.670  -0.862  1.00  0.00    -0.275 OA
ATOM      5  H   UNL     1       3.498   2.757  -0.555  1.00  0.00     0.163 HD
BRANCH   3   6
ATOM      6  C   UNL     1       1.301   2.923  -3.134  1.00  0.00     0.093 C 
ATOM      7  N   UNL     1       1.150   0.551  -3.859  1.00  0.00    -0.201 NA
ATOM      8  C   UNL     1       1.942   0.831  -5.106  1.00  0.00     0.102 C 
ATOM      9  C   UNL     1       0.387   1.729  -3.406  1.00  0.00     0.115 C 
ATOM     10  C   UNL     1       2.849   2.055  -4.992  1.00  0.00     0.018 C 
ATOM     11  C   UNL     1       2.229   3.257  -4.296  1.00  0.00     0.016 C 
BRANCH   7  12
ATOM     12  S   UNL     1       0.406  -0.984  -3.897  1.00  0.00     0.216 S 
ATOM     13  O   UNL     1       1.317  -1.895  -3.233  1.00  0.00    -0.212 OA
ATOM     14  O   UNL     1       0.052  -1.220  -5.285  1.00  0.00    -0.212 OA
BRANCH  12  15
ATOM     15  C   UNL     1      -1.155  -0.936  -3.006  1.00  0.00     0.182 C 
BRANCH  15  16
ATOM     16  C   UNL     1      -1.088  -1.239  -1.519  1.00  0.00     0.178 C 
BRANCH  16  17
ATOM     17  O   UNL     1      -1.060  -0.018  -0.783  1.00  0.00    -0.378 OA
BRANCH  17  18
ATOM     18  C   UNL     1      -0.037   0.157   0.198  1.00  0.00     0.112 C 
ATOM     19  C   UNL     1      -0.360  -0.511   1.524  1.00  0.00     0.038 C 
ATOM     20  C   UNL     1       1.338  -0.262  -0.281  1.00  0.00     0.038 C 
ENDBRANCH  17  18
ENDBRANCH  16  17
ENDBRANCH  15  16
ENDBRANCH  12  15
ENDBRANCH   7  12
ENDBRANCH   3   6
ENDBRANCH   1   2
BRANCH   1  21
ATOM     21  C   UNL     1       5.226   1.512  -2.258  1.00  0.00     0.023 C 
BRANCH  21  22
ATOM     22  C   UNL     1       6.202   1.278  -1.106  1.00  0.00     0.023 C 
BRANCH  22  23
ATOM     23  C   UNL     1       6.172  -0.116  -0.480  1.00  0.00     0.116 C 
BRANCH  23  24
ATOM     24  N   UNL     1       6.326  -1.205  -1.436  1.00  0.00    -0.352 N 
ATOM     25  C   UNL     1       7.132  -2.321  -1.349  1.00  0.00     0.251 C 
ATOM     26  H   UNL     1       5.781  -1.135  -2.253  1.00  0.00     0.163 HD
ATOM     27  O   UNL     1       7.229  -3.105  -2.276  1.00  0.00    -0.269 OA
BRANCH  25  28
ATOM     28  C   UNL     1       7.919  -2.526  -0.115  1.00  0.00     0.039 A 
ATOM     29  C   UNL     1       9.298  -2.721  -0.217  1.00  0.00     0.014 A 
ATOM     30  C   UNL     1       7.302  -2.441   1.135  1.00  0.00     0.014 A 
ATOM     31  C   UNL     1      10.074  -2.737   0.943  1.00  0.00     0.010 A 
ATOM     32  C   UNL     1       8.086  -2.369   2.280  1.00  0.00     0.010 A 
ATOM     33  C   UNL     1       9.480  -2.511   2.196  1.00  0.00    -0.014 A 
BRANCH  33  34
ATOM     34  C   UNL     1      10.299  -2.403   3.429  1.00  0.00     0.031 A 
ATOM     35  C   UNL     1      10.098  -3.380   4.554  1.00  0.00     0.074 A 
ATOM     36  C   UNL     1      11.159  -1.376   3.573  1.00  0.00     0.049 A 
ATOM     37  N   UNL     1      10.668  -3.410   5.732  1.00  0.00    -0.248 NA
ATOM     38  C   UNL     1       9.101  -4.440   4.342  1.00  0.00     0.031 C 
ATOM     39  C   UNL     1      11.399  -0.322   2.584  1.00  0.00     0.029 A 
ATOM     40  N   UNL     1      11.986  -1.043   4.617  1.00  0.00    -0.354 N 
ATOM     41  C   UNL     1      10.078  -4.471   6.407  1.00  0.00     0.074 A 
ATOM     42  C   UNL     1       9.070  -5.024   5.530  1.00  0.00     0.031 C 
ATOM     43  C   UNL     1      12.329   0.523   3.057  1.00  0.00     0.029 A 
ATOM     44  C   UNL     1      12.723   0.095   4.395  1.00  0.00     0.049 A 
ATOM     45  H   UNL     1      12.046  -1.570   5.446  1.00  0.00     0.167 HD
ATOM     46  C   UNL     1      10.363  -4.956   7.639  1.00  0.00     0.031 A 
ATOM     47  C   UNL     1      13.614   0.728   5.183  1.00  0.00     0.031 A 
ATOM     48  C   UNL     1      11.379  -4.419   8.502  1.00  0.00     0.049 A 
ATOM     49  C   UNL     1      13.931   0.159   6.537  1.00  0.00     0.074 A 
ATOM     50  C   UNL     1      11.803  -4.890   9.732  1.00  0.00     0.029 A 
ATOM     51  N   UNL     1      12.129  -3.285   8.226  1.00  0.00    -0.354 N 
ATOM     52  N   UNL     1      13.432  -0.902   7.123  1.00  0.00    -0.248 NA
ATOM     53  C   UNL     1      14.945   0.866   7.332  1.00  0.00     0.031 C 
ATOM     54  C   UNL     1      12.770  -4.009  10.226  1.00  0.00     0.029 A 
ATOM     55  C   UNL     1      12.992  -3.024   9.277  1.00  0.00     0.049 A 
ATOM     56  H   UNL     1      12.057  -2.746   7.405  1.00  0.00     0.167 HD
ATOM     57  C   UNL     1      14.086  -1.004   8.344  1.00  0.00     0.074 A 
ATOM     58  C   UNL     1      15.030   0.093   8.405  1.00  0.00     0.031 C 
ATOM     59  C   UNL     1      13.920  -1.924   9.326  1.00  0.00     0.031 A 
BRANCH  46  60
ATOM     60  C   UNL     1       9.548  -6.123   8.125  1.00  0.00    -0.014 A 
ATOM     61  C   UNL     1       9.665  -7.394   7.536  1.00  0.00     0.009 A 
ATOM     62  C   UNL     1       8.659  -5.953   9.197  1.00  0.00     0.009 A 
ATOM     63  C   UNL     1       8.874  -8.455   7.980  1.00  0.00     0.001 A 
ATOM     64  C   UNL     1       7.894  -7.025   9.661  1.00  0.00     0.001 A 
ATOM     65  C   UNL     1       7.992  -8.271   9.044  1.00  0.00     0.000 A 
ENDBRANCH  46  60
BRANCH  47  66
ATOM     66  C   UNL     1      14.283   1.965   4.699  1.00  0.00    -0.014 A 
ATOM     67  C   UNL     1      15.641   1.951   4.347  1.00  0.00     0.009 A 
ATOM     68  C   UNL     1      13.563   3.164   4.577  1.00  0.00     0.009 A 
ATOM     69  C   UNL     1      16.270   3.118   3.905  1.00  0.00     0.001 A 
ATOM     70  C   UNL     1      14.187   4.322   4.108  1.00  0.00     0.001 A 
ATOM     71  C   UNL     1      15.542   4.300   3.780  1.00  0.00     0.000 A 
ENDBRANCH  47  66
BRANCH  59  72
ATOM     72  C   UNL     1      14.797  -1.800  10.540  1.00  0.00    -0.014 A 
ATOM     73  C   UNL     1      14.600  -0.777  11.481  1.00  0.00     0.009 A 
ATOM     74  C   UNL     1      15.804  -2.751  10.769  1.00  0.00     0.009 A 
ATOM     75  C   UNL     1      15.417  -0.692  12.610  1.00  0.00     0.001 A 
ATOM     76  C   UNL     1      16.598  -2.680  11.914  1.00  0.00     0.001 A 
ATOM     77  C   UNL     1      16.410  -1.646  12.828  1.00  0.00     0.000 A 
ENDBRANCH  59  72
ENDBRANCH  33  34
ENDBRANCH  25  28
ENDBRANCH  23  24
ENDBRANCH  22  23
ENDBRANCH  21  22
ENDBRANCH   1  21
TORSDOF 16
