REMARK SMILES Cc1ccccc1-n1c(S[C@@H](C)C(=O)NCCCCNC(=O)c2ccc(-c3c4nc(c(-c5ccccc5)c5ccc([nH]5)c(-c5ccccc5)c5nc(c(-c6ccccc6)c6ccc3[nH]6)C=C5)C=C4)cc2)nc2sc3c(c2c1=O)C[C@@H](C(C)C)OC3
REMARK SMILES IDX 17 1 16 2 15 3 13 4 14 5 11 7 12 8 10 9 9 10 8 11 77 12
REMARK SMILES IDX 71 13 76 14 78 15 72 16 75 17 73 18 74 19 79 20 85 21 80 22
REMARK SMILES IDX 84 23 7 24 1 25 2 26 3 27 4 28 6 29 5 30 81 31 82 32 83 33
REMARK SMILES IDX 18 34 19 35 20 36 21 37 22 39 23 40 24 41 70 42 25 43 69 44
REMARK SMILES IDX 26 45 27 46 28 47 63 48 29 49 68 50 62 51 64 52 30 53 67 54
REMARK SMILES IDX 61 55 60 56 31 58 53 59 38 60 52 61 39 62 42 63 51 64 65 65
REMARK SMILES IDX 40 66 41 67 50 69 66 70 43 71 32 72 33 73 37 74 34 75 36 76
REMARK SMILES IDX 35 77 54 78 55 79 59 80 56 81 58 82 57 83 44 84 45 85 49 86
REMARK SMILES IDX 46 87 48 88 47 89
REMARK H PARENT 15 6 20 38 64 57 42 68
REMARK Flexibility Score: inf
ROOT
ATOM      1  C   UNL     1      -1.065   4.705  -0.790  1.00  0.00     0.023 C 
ENDROOT
BRANCH   1   2
ATOM      2  C   UNL     1      -0.374   3.393  -1.135  1.00  0.00     0.116 C 
BRANCH   2   3
ATOM      3  N   UNL     1      -0.971   2.402  -1.984  1.00  0.00    -0.355 N 
ATOM      4  C   UNL     1      -0.461   1.204  -2.417  1.00  0.00     0.233 C 
ATOM      5  O   UNL     1      -1.360   0.411  -2.750  1.00  0.00    -0.274 OA
ATOM      6  H   UNL     1      -1.879   2.612  -2.301  1.00  0.00     0.163 HD
BRANCH   4   7
ATOM      7  C   UNL     1       1.009   0.839  -2.755  1.00  0.00     0.140 C 
ATOM      8  C   UNL     1       1.182  -0.689  -3.007  1.00  0.00     0.030 C 
BRANCH   7   9
ATOM      9  S   UNL     1       2.538   1.258  -1.925  1.00  0.00    -0.074 SA
BRANCH   9  10
ATOM     10  C   UNL     1       2.375   2.247  -0.516  1.00  0.00     0.177 A 
ATOM     11  N   UNL     1       1.662   1.857   0.629  1.00  0.00    -0.255 N 
ATOM     12  C   UNL     1       1.425   2.802   1.662  1.00  0.00     0.267 A 
ATOM     13  N   UNL     1       2.994   3.379  -0.658  1.00  0.00    -0.212 NA
ATOM     14  C   UNL     1       2.015   4.125   1.425  1.00  0.00     0.081 A 
ATOM     15  O   UNL     1       0.737   2.583   2.636  1.00  0.00    -0.268 OA
ATOM     16  C   UNL     1       2.805   4.285   0.317  1.00  0.00     0.132 A 
ATOM     17  C   UNL     1       1.847   5.373   2.112  1.00  0.00    -0.014 A 
ATOM     18  S   UNL     1       3.491   5.841   0.200  1.00  0.00    -0.117 S 
ATOM     19  C   UNL     1       2.645   6.369   1.573  1.00  0.00     0.037 A 
ATOM     20  C   UNL     1       0.978   5.728   3.273  1.00  0.00     0.070 C 
ATOM     21  C   UNL     1       2.816   7.750   2.128  1.00  0.00     0.207 C 
ATOM     22  C   UNL     1       1.661   6.844   4.095  1.00  0.00     0.125 C 
ATOM     23  O   UNL     1       1.909   7.976   3.227  1.00  0.00    -0.372 OA
BRANCH  11  24
ATOM     24  C   UNL     1       0.975   0.593   0.691  1.00  0.00     0.054 A 
ATOM     25  C   UNL     1       3.126  -0.775   0.751  1.00  0.00     0.046 C 
ATOM     26  C   UNL     1       1.645  -0.632   0.546  1.00  0.00    -0.027 A 
ATOM     27  C   UNL     1       0.898  -1.792   0.256  1.00  0.00     0.005 A 
ATOM     28  C   UNL     1      -0.489  -1.744   0.123  1.00  0.00     0.000 A 
ATOM     29  C   UNL     1      -0.431   0.577   0.738  1.00  0.00     0.027 A 
ATOM     30  C   UNL     1      -1.158  -0.560   0.389  1.00  0.00     0.002 A 
ENDBRANCH  11  24
BRANCH  22  31
ATOM     31  C   UNL     1       2.939   6.399   4.857  1.00  0.00     0.012 C 
ATOM     32  C   UNL     1       3.458   7.529   5.750  1.00  0.00     0.010 C 
ATOM     33  C   UNL     1       2.705   5.141   5.697  1.00  0.00     0.010 C 
ENDBRANCH  22  31
ENDBRANCH   9  10
ENDBRANCH   7   9
ENDBRANCH   4   7
ENDBRANCH   2   3
ENDBRANCH   1   2
BRANCH   1  34
ATOM     34  C   UNL     1      -2.197   4.851   0.267  1.00  0.00     0.023 C 
BRANCH  34  35
ATOM     35  C   UNL     1      -2.550   3.912   1.455  1.00  0.00     0.116 C 
BRANCH  35  36
ATOM     36  N   UNL     1      -1.711   3.745   2.652  1.00  0.00    -0.352 N 
ATOM     37  C   UNL     1      -2.183   3.991   3.956  1.00  0.00     0.251 C 
ATOM     38  H   UNL     1      -0.779   3.450   2.536  1.00  0.00     0.163 HD
ATOM     39  O   UNL     1      -2.845   4.986   4.234  1.00  0.00    -0.269 OA
BRANCH  37  40
ATOM     40  C   UNL     1      -1.933   2.924   5.034  1.00  0.00     0.039 A 
ATOM     41  C   UNL     1      -2.022   3.192   6.410  1.00  0.00     0.014 A 
ATOM     42  C   UNL     1      -1.868   1.576   4.688  1.00  0.00     0.014 A 
ATOM     43  C   UNL     1      -2.090   2.132   7.383  1.00  0.00     0.010 A 
ATOM     44  C   UNL     1      -1.942   0.533   5.662  1.00  0.00     0.010 A 
ATOM     45  C   UNL     1      -2.093   0.760   7.027  1.00  0.00    -0.014 A 
BRANCH  45  46
ATOM     46  C   UNL     1      -2.760  -0.275   7.965  1.00  0.00     0.031 A 
ATOM     47  C   UNL     1      -4.248  -0.245   7.483  1.00  0.00     0.074 A 
ATOM     48  C   UNL     1      -2.497  -1.550   8.477  1.00  0.00     0.049 A 
ATOM     49  N   UNL     1      -4.636  -0.744   6.341  1.00  0.00    -0.248 NA
ATOM     50  C   UNL     1      -5.315   0.567   8.095  1.00  0.00     0.031 C 
ATOM     51  C   UNL     1      -2.860  -1.808   9.893  1.00  0.00     0.029 A 
ATOM     52  N   UNL     1      -1.864  -2.798   8.151  1.00  0.00    -0.354 N 
ATOM     53  C   UNL     1      -6.036  -0.652   6.290  1.00  0.00     0.074 A 
ATOM     54  C   UNL     1      -6.371   0.350   7.278  1.00  0.00     0.031 C 
ATOM     55  C   UNL     1      -2.644  -3.096  10.248  1.00  0.00     0.029 A 
ATOM     56  C   UNL     1      -2.148  -3.868   9.112  1.00  0.00     0.049 A 
ATOM     57  H   UNL     1      -1.294  -2.923   7.358  1.00  0.00     0.167 HD
ATOM     58  C   UNL     1      -6.767  -1.717   5.808  1.00  0.00     0.031 A 
ATOM     59  C   UNL     1      -2.255  -5.265   9.037  1.00  0.00     0.031 A 
ATOM     60  C   UNL     1      -5.913  -2.844   5.979  1.00  0.00     0.049 A 
ATOM     61  C   UNL     1      -2.023  -5.893   7.690  1.00  0.00     0.074 A 
ATOM     62  C   UNL     1      -5.676  -3.371   7.215  1.00  0.00     0.029 A 
ATOM     63  N   UNL     1      -5.088  -3.397   5.029  1.00  0.00    -0.354 N 
ATOM     64  N   UNL     1      -3.013  -6.154   6.873  1.00  0.00    -0.248 NA
ATOM     65  C   UNL     1      -0.732  -6.229   7.090  1.00  0.00     0.031 C 
ATOM     66  C   UNL     1      -4.480  -3.987   7.019  1.00  0.00     0.029 A 
ATOM     67  C   UNL     1      -4.081  -4.062   5.697  1.00  0.00     0.049 A 
ATOM     68  H   UNL     1      -5.195  -3.330   4.052  1.00  0.00     0.167 HD
ATOM     69  C   UNL     1      -2.451  -5.806   5.676  1.00  0.00     0.074 A 
ATOM     70  C   UNL     1      -1.122  -6.356   5.809  1.00  0.00     0.031 C 
ATOM     71  C   UNL     1      -2.845  -4.612   5.109  1.00  0.00     0.031 A 
BRANCH  58  72
ATOM     72  C   UNL     1      -8.223  -2.136   5.712  1.00  0.00    -0.014 A 
ATOM     73  C   UNL     1      -8.530  -3.522   5.923  1.00  0.00     0.009 A 
ATOM     74  C   UNL     1      -9.253  -1.355   5.208  1.00  0.00     0.009 A 
ATOM     75  C   UNL     1      -9.739  -4.117   5.592  1.00  0.00     0.001 A 
ATOM     76  C   UNL     1     -10.493  -1.953   4.884  1.00  0.00     0.001 A 
ATOM     77  C   UNL     1     -10.726  -3.325   5.052  1.00  0.00     0.000 A 
ENDBRANCH  58  72
BRANCH  59  78
ATOM     78  C   UNL     1      -3.248  -6.162   9.834  1.00  0.00    -0.014 A 
ATOM     79  C   UNL     1      -2.854  -7.067  10.822  1.00  0.00     0.009 A 
ATOM     80  C   UNL     1      -4.558  -6.389   9.313  1.00  0.00     0.009 A 
ATOM     81  C   UNL     1      -3.714  -8.121  11.235  1.00  0.00     0.001 A 
ATOM     82  C   UNL     1      -5.401  -7.439   9.694  1.00  0.00     0.001 A 
ATOM     83  C   UNL     1      -4.974  -8.318  10.662  1.00  0.00     0.000 A 
ENDBRANCH  59  78
BRANCH  71  84
ATOM     84  C   UNL     1      -1.848  -3.713   4.396  1.00  0.00    -0.014 A 
ATOM     85  C   UNL     1      -0.442  -3.865   4.444  1.00  0.00     0.009 A 
ATOM     86  C   UNL     1      -2.292  -2.538   3.794  1.00  0.00     0.009 A 
ATOM     87  C   UNL     1       0.460  -2.914   3.968  1.00  0.00     0.001 A 
ATOM     88  C   UNL     1      -1.395  -1.587   3.315  1.00  0.00     0.001 A 
ATOM     89  C   UNL     1      -0.025  -1.745   3.443  1.00  0.00     0.000 A 
ENDBRANCH  71  84
ENDBRANCH  45  46
ENDBRANCH  37  40
ENDBRANCH  35  36
ENDBRANCH  34  35
ENDBRANCH   1  34
TORSDOF 15
