REMARK SMILES O=C(NCCCCNC(=O)[C@@H]1CCCC[C@H]1C(=O)Nc1ccc(NC(=O)c2ccco2)cc1)c1ccc(-c2c3nc(c(-c4ccccc4)c4ccc([nH]4)c(-c4ccccc4)c4nc(c(-c5ccccc5)c5ccc2[nH]5)C=C4)C=C3)cc1
REMARK SMILES IDX 6 1 5 2 4 3 3 4 1 5 2 6 34 8 35 9 81 10 36 11 80 12 37 13
REMARK SMILES IDX 38 14 39 15 74 16 40 17 79 18 73 19 75 20 41 21 78 22 72 23
REMARK SMILES IDX 71 24 42 26 64 27 49 28 63 29 50 30 53 31 62 32 76 33 51 34
REMARK SMILES IDX 52 35 61 37 77 38 54 39 43 40 44 41 48 42 45 43 47 44 46 45
REMARK SMILES IDX 65 46 66 47 70 48 67 49 69 50 68 51 55 52 56 53 60 54 57 55
REMARK SMILES IDX 59 56 58 57 7 58 8 59 9 60 10 62 11 63 12 64 16 65 13 66
REMARK SMILES IDX 15 67 14 68 17 69 18 70 19 71 20 73 21 74 33 75 22 76 32 77
REMARK SMILES IDX 23 78 24 79 25 80 26 82 27 83 28 84 31 85 29 86 30 87
REMARK H PARENT 3 7 75 25 53 36 8 61 19 72 24 81
REMARK Flexibility Score: inf
ROOT
ATOM      1  C   UNL     1       4.257  -0.158  -3.683  1.00  0.00     0.023 C 
ENDROOT
BRANCH   1   2
ATOM      2  C   UNL     1       4.751  -0.961  -2.487  1.00  0.00     0.023 C 
BRANCH   2   3
ATOM      3  C   UNL     1       4.445  -0.320  -1.146  1.00  0.00     0.116 C 
BRANCH   3   4
ATOM      4  N   UNL     1       3.035   0.006  -0.971  1.00  0.00    -0.352 N 
ATOM      5  O   UNL     1       1.099   0.196   0.188  1.00  0.00    -0.269 OA
ATOM      6  C   UNL     1       2.307  -0.009   0.191  1.00  0.00     0.251 C 
ATOM      7  H   UNL     1       2.547   0.267  -1.785  1.00  0.00     0.163 HD
BRANCH   6   8
ATOM      8  C   UNL     1       3.013  -0.318   1.446  1.00  0.00     0.039 A 
ATOM      9  C   UNL     1       4.189   0.365   1.762  1.00  0.00     0.014 A 
ATOM     10  C   UNL     1       2.541  -1.351   2.256  1.00  0.00     0.014 A 
ATOM     11  C   UNL     1       4.969  -0.080   2.817  1.00  0.00     0.010 A 
ATOM     12  C   UNL     1       3.283  -1.737   3.372  1.00  0.00     0.010 A 
ATOM     13  C   UNL     1       4.515  -1.122   3.642  1.00  0.00    -0.014 A 
BRANCH  13  14
ATOM     14  C   UNL     1       5.321  -1.492   4.827  1.00  0.00     0.031 A 
ATOM     15  C   UNL     1       5.983  -2.834   4.935  1.00  0.00     0.074 A 
ATOM     16  C   UNL     1       5.487  -0.564   5.789  1.00  0.00     0.049 A 
ATOM     17  N   UNL     1       6.746  -3.294   5.894  1.00  0.00    -0.248 NA
ATOM     18  C   UNL     1       5.760  -3.785   3.834  1.00  0.00     0.031 C 
ATOM     19  C   UNL     1       4.886   0.774   5.781  1.00  0.00     0.029 A 
ATOM     20  N   UNL     1       6.229  -0.589   6.938  1.00  0.00    -0.354 N 
ATOM     21  C   UNL     1       7.080  -4.590   5.524  1.00  0.00     0.074 A 
ATOM     22  C   UNL     1       6.422  -4.852   4.262  1.00  0.00     0.031 C 
ATOM     23  C   UNL     1       5.334   1.462   6.840  1.00  0.00     0.029 A 
ATOM     24  C   UNL     1       6.193   0.594   7.634  1.00  0.00     0.049 A 
ATOM     25  H   UNL     1       6.740  -1.376   7.236  1.00  0.00     0.167 HD
ATOM     26  C   UNL     1       7.868  -5.476   6.179  1.00  0.00     0.031 A 
ATOM     27  C   UNL     1       6.775   0.940   8.795  1.00  0.00     0.031 A 
ATOM     28  C   UNL     1       8.517  -5.208   7.436  1.00  0.00     0.049 A 
ATOM     29  C   UNL     1       7.624  -0.069   9.505  1.00  0.00     0.074 A 
ATOM     30  C   UNL     1       9.332  -6.041   8.183  1.00  0.00     0.029 A 
ATOM     31  N   UNL     1       8.425  -4.011   8.131  1.00  0.00    -0.354 N 
ATOM     32  N   UNL     1       7.930  -1.291   9.140  1.00  0.00    -0.248 NA
ATOM     33  C   UNL     1       8.206   0.347  10.787  1.00  0.00     0.031 C 
ATOM     34  C   UNL     1       9.705  -5.360   9.348  1.00  0.00     0.029 A 
ATOM     35  C   UNL     1       9.159  -4.087   9.303  1.00  0.00     0.049 A 
ATOM     36  H   UNL     1       7.914  -3.224   7.834  1.00  0.00     0.167 HD
ATOM     37  C   UNL     1       8.743  -1.790  10.145  1.00  0.00     0.074 A 
ATOM     38  C   UNL     1       8.908  -0.727  11.118  1.00  0.00     0.031 C 
ATOM     39  C   UNL     1       9.298  -3.021  10.259  1.00  0.00     0.031 A 
BRANCH  26  40
ATOM     40  C   UNL     1       8.055  -6.832   5.558  1.00  0.00    -0.014 A 
ATOM     41  C   UNL     1       8.875  -7.009   4.433  1.00  0.00     0.009 A 
ATOM     42  C   UNL     1       7.443  -7.956   6.136  1.00  0.00     0.009 A 
ATOM     43  C   UNL     1       9.059  -8.282   3.885  1.00  0.00     0.001 A 
ATOM     44  C   UNL     1       7.647  -9.229   5.600  1.00  0.00     0.001 A 
ATOM     45  C   UNL     1       8.449  -9.390   4.472  1.00  0.00     0.000 A 
ENDBRANCH  26  40
BRANCH  27  46
ATOM     46  C   UNL     1       6.550   2.295   9.357  1.00  0.00    -0.014 A 
ATOM     47  C   UNL     1       7.585   3.240   9.384  1.00  0.00     0.009 A 
ATOM     48  C   UNL     1       5.285   2.655   9.848  1.00  0.00     0.009 A 
ATOM     49  C   UNL     1       7.363   4.514   9.910  1.00  0.00     0.001 A 
ATOM     50  C   UNL     1       5.058   3.939  10.345  1.00  0.00     0.001 A 
ATOM     51  C   UNL     1       6.099   4.864  10.384  1.00  0.00     0.000 A 
ENDBRANCH  27  46
BRANCH  39  52
ATOM     52  C   UNL     1      10.144  -3.264  11.474  1.00  0.00    -0.014 A 
ATOM     53  C   UNL     1       9.560  -3.441  12.738  1.00  0.00     0.009 A 
ATOM     54  C   UNL     1      11.540  -3.320  11.351  1.00  0.00     0.009 A 
ATOM     55  C   UNL     1      10.363  -3.633  13.863  1.00  0.00     0.001 A 
ATOM     56  C   UNL     1      12.339  -3.537  12.474  1.00  0.00     0.001 A 
ATOM     57  C   UNL     1      11.750  -3.683  13.729  1.00  0.00     0.000 A 
ENDBRANCH  39  52
ENDBRANCH  13  14
ENDBRANCH   6   8
ENDBRANCH   3   4
ENDBRANCH   2   3
ENDBRANCH   1   2
BRANCH   1  58
ATOM     58  C   UNL     1       4.782   1.272  -3.759  1.00  0.00     0.116 C 
BRANCH  58  59
ATOM     59  N   UNL     1       6.209   1.326  -4.005  1.00  0.00    -0.356 N 
ATOM     60  C   UNL     1       6.907   1.591  -5.138  1.00  0.00     0.223 C 
ATOM     61  H   UNL     1       6.767   1.138  -3.216  1.00  0.00     0.163 HD
ATOM     62  O   UNL     1       8.138   1.521  -5.087  1.00  0.00    -0.275 OA
BRANCH  60  63
ATOM     63  C   UNL     1       6.223   1.979  -6.440  1.00  0.00     0.091 C 
ATOM     64  C   UNL     1       5.516   3.341  -6.365  1.00  0.00     0.014 C 
ATOM     65  C   UNL     1       5.385   0.846  -7.048  1.00  0.00     0.091 C 
ATOM     66  C   UNL     1       4.856   3.700  -7.693  1.00  0.00     0.001 C 
ATOM     67  C   UNL     1       4.680   1.270  -8.345  1.00  0.00     0.014 C 
ATOM     68  C   UNL     1       3.925   2.589  -8.166  1.00  0.00     0.001 C 
BRANCH  65  69
ATOM     69  C   UNL     1       6.066  -0.540  -7.147  1.00  0.00     0.228 C 
ATOM     70  O   UNL     1       5.657  -1.464  -6.431  1.00  0.00    -0.274 OA
ATOM     71  N   UNL     1       7.013  -0.889  -8.063  1.00  0.00    -0.326 N 
ATOM     72  H   UNL     1       7.306  -1.828  -8.024  1.00  0.00     0.169 HD
BRANCH  71  73
ATOM     73  C   UNL     1       7.628  -0.120  -9.043  1.00  0.00     0.041 A 
ATOM     74  C   UNL     1       7.507  -0.520 -10.365  1.00  0.00     0.028 A 
ATOM     75  C   UNL     1       8.355   1.021  -8.743  1.00  0.00     0.028 A 
ATOM     76  C   UNL     1       7.884   0.357 -11.383  1.00  0.00     0.028 A 
ATOM     77  C   UNL     1       8.693   1.916  -9.757  1.00  0.00     0.028 A 
ATOM     78  C   UNL     1       8.363   1.632 -11.084  1.00  0.00     0.041 A 
BRANCH  78  79
ATOM     79  N   UNL     1       8.504   2.686 -12.003  1.00  0.00    -0.319 N 
ATOM     80  C   UNL     1       8.054   2.872 -13.295  1.00  0.00     0.291 C 
ATOM     81  H   UNL     1       9.028   3.443 -11.655  1.00  0.00     0.170 HD
ATOM     82  O   UNL     1       8.290   3.962 -13.820  1.00  0.00    -0.265 OA
BRANCH  80  83
ATOM     83  C   UNL     1       7.305   1.840 -13.963  1.00  0.00     0.191 A 
ATOM     84  C   UNL     1       5.983   1.439 -13.875  1.00  0.00     0.056 A 
ATOM     85  O   UNL     1       7.967   1.040 -14.853  1.00  0.00    -0.459 OA
ATOM     86  C   UNL     1       5.847   0.313 -14.727  1.00  0.00     0.043 A 
ATOM     87  C   UNL     1       7.079   0.119 -15.306  1.00  0.00     0.196 A 
ENDBRANCH  80  83
ENDBRANCH  78  79
ENDBRANCH  71  73
ENDBRANCH  65  69
ENDBRANCH  60  63
ENDBRANCH  58  59
ENDBRANCH   1  58
TORSDOF 15
