REMARK SMILES CC[C@H](C)[C@H](NC(=O)[C@H](C)Oc1ccc2c(C)c(C)c(=O)oc2c1C)C(=O)NCCCCNC(=O)c1ccc(-c2c3nc(c(-c4ccccc4)c4ccc([nH]4)c(-c4ccccc4)c4nc(c(-c5ccccc5)c5ccc2[nH]5)C=C4)C=C3)cc1
REMARK SMILES IDX 29 1 28 2 26 3 27 4 5 6 3 7 4 8 2 9 1 10 6 11 7 12 8 14 9 15
REMARK SMILES IDX 10 16 11 17 12 18 13 19 24 20 14 21 23 22 25 23 15 24 22 25
REMARK SMILES IDX 16 26 20 27 17 28 18 29 21 30 19 31 30 32 31 33 32 34 33 35
REMARK SMILES IDX 34 36 35 38 36 39 37 40 83 41 38 42 82 43 39 44 40 45 41 46
REMARK SMILES IDX 76 47 42 48 81 49 75 50 77 51 43 52 80 53 74 54 73 55 44 57
REMARK SMILES IDX 66 58 51 59 65 60 52 61 55 62 64 63 78 64 53 65 54 66 63 68
REMARK SMILES IDX 79 69 56 70 45 71 46 72 50 73 47 74 49 75 48 76 67 77 68 78
REMARK SMILES IDX 72 79 69 80 71 81 70 82 57 83 58 84 62 85 59 86 61 87 60 88
REMARK H PARENT 28 5 6 13 33 37 77 56 55 67
REMARK Flexibility Score: inf
ROOT
ATOM      1  C   UNL     1       4.921  -2.046  -3.735  1.00  0.00     0.116 C 
ENDROOT
BRANCH   1   2
ATOM      2  N   UNL     1       5.183  -3.296  -3.049  1.00  0.00    -0.354 N 
ATOM      3  C   UNL     1       4.751  -4.570  -3.223  1.00  0.00     0.242 C 
ATOM      4  O   UNL     1       4.984  -5.320  -2.262  1.00  0.00    -0.273 OA
ATOM      5  H   UNL     1       5.810  -3.199  -2.296  1.00  0.00     0.163 HD
BRANCH   3   6
ATOM      6  C   UNL     1       3.943  -5.133  -4.441  1.00  0.00     0.174 C 
BRANCH   6   7
ATOM      7  C   UNL     1       4.498  -5.112  -5.896  1.00  0.00     0.018 C 
ATOM      8  C   UNL     1       4.386  -3.791  -6.634  1.00  0.00     0.010 C 
BRANCH   7   9
ATOM      9  C   UNL     1       5.932  -5.675  -5.995  1.00  0.00     0.002 C 
ATOM     10  C   UNL     1       6.256  -6.181  -7.399  1.00  0.00     0.004 C 
ENDBRANCH   7   9
ENDBRANCH   6   7
BRANCH   6  11
ATOM     11  N   UNL     1       2.465  -5.247  -4.387  1.00  0.00    -0.341 N 
ATOM     12  C   UNL     1       1.421  -4.378  -4.303  1.00  0.00     0.261 C 
ATOM     13  H   UNL     1       2.165  -6.184  -4.420  1.00  0.00     0.164 HD
ATOM     14  O   UNL     1       0.292  -4.820  -4.530  1.00  0.00    -0.271 OA
BRANCH  12  15
ATOM     15  C   UNL     1       1.639  -2.940  -3.856  1.00  0.00     0.258 C 
ATOM     16  C   UNL     1       0.734  -2.639  -2.671  1.00  0.00     0.064 C 
BRANCH  15  17
ATOM     17  O   UNL     1       1.691  -2.112  -5.014  1.00  0.00    -0.480 OA
BRANCH  17  18
ATOM     18  C   UNL     1       1.222  -0.853  -5.220  1.00  0.00     0.127 A 
ATOM     19  C   UNL     1       0.253  -0.191  -4.476  1.00  0.00     0.047 A 
ATOM     20  C   UNL     1       1.722  -0.209  -6.371  1.00  0.00     0.035 A 
ATOM     21  C   UNL     1      -0.262   1.052  -4.885  1.00  0.00     0.016 A 
ATOM     22  C   UNL     1       1.114   0.980  -6.815  1.00  0.00     0.145 A 
ATOM     23  C   UNL     1       2.855  -0.793  -7.169  1.00  0.00     0.052 C 
ATOM     24  C   UNL     1       0.123   1.632  -6.095  1.00  0.00     0.021 A 
ATOM     25  O   UNL     1       1.490   1.450  -8.087  1.00  0.00    -0.422 OA
ATOM     26  C   UNL     1      -0.525   2.820  -6.677  1.00  0.00    -0.030 A 
ATOM     27  C   UNL     1       0.704   2.354  -8.774  1.00  0.00     0.339 A 
ATOM     28  C   UNL     1      -1.434   3.632  -5.794  1.00  0.00     0.045 C 
ATOM     29  C   UNL     1      -0.309   3.100  -7.980  1.00  0.00     0.038 A 
ATOM     30  O   UNL     1       0.878   2.555  -9.972  1.00  0.00    -0.246 OA
ATOM     31  C   UNL     1      -1.070   4.149  -8.741  1.00  0.00     0.052 C 
ENDBRANCH  17  18
ENDBRANCH  15  17
ENDBRANCH  12  15
ENDBRANCH   6  11
ENDBRANCH   3   6
ENDBRANCH   1   2
BRANCH   1  32
ATOM     32  C   UNL     1       4.081  -1.095  -2.868  1.00  0.00     0.023 C 
BRANCH  32  33
ATOM     33  C   UNL     1       4.820   0.038  -2.191  1.00  0.00     0.023 C 
BRANCH  33  34
ATOM     34  C   UNL     1       5.529   0.978  -3.150  1.00  0.00     0.116 C 
BRANCH  34  35
ATOM     35  N   UNL     1       4.652   1.651  -4.107  1.00  0.00    -0.352 N 
ATOM     36  C   UNL     1       4.485   3.003  -4.321  1.00  0.00     0.251 C 
ATOM     37  H   UNL     1       4.106   1.059  -4.674  1.00  0.00     0.163 HD
ATOM     38  O   UNL     1       3.684   3.433  -5.142  1.00  0.00    -0.269 OA
BRANCH  36  39
ATOM     39  C   UNL     1       5.254   3.931  -3.472  1.00  0.00     0.039 A 
ATOM     40  C   UNL     1       4.560   4.804  -2.633  1.00  0.00     0.014 A 
ATOM     41  C   UNL     1       6.633   3.761  -3.355  1.00  0.00     0.014 A 
ATOM     42  C   UNL     1       5.234   5.402  -1.569  1.00  0.00     0.010 A 
ATOM     43  C   UNL     1       7.268   4.255  -2.227  1.00  0.00     0.010 A 
ATOM     44  C   UNL     1       6.572   5.066  -1.313  1.00  0.00    -0.014 A 
BRANCH  44  45
ATOM     45  C   UNL     1       7.297   5.546  -0.113  1.00  0.00     0.031 A 
ATOM     46  C   UNL     1       8.567   6.324  -0.301  1.00  0.00     0.074 A 
ATOM     47  C   UNL     1       6.893   5.200   1.126  1.00  0.00     0.049 A 
ATOM     48  N   UNL     1       9.486   6.633   0.575  1.00  0.00    -0.248 NA
ATOM     49  C   UNL     1       8.866   6.764  -1.675  1.00  0.00     0.031 C 
ATOM     50  C   UNL     1       5.692   4.428   1.453  1.00  0.00     0.029 A 
ATOM     51  N   UNL     1       7.464   5.456   2.348  1.00  0.00    -0.354 N 
ATOM     52  C   UNL     1      10.490   7.258  -0.151  1.00  0.00     0.074 A 
ATOM     53  C   UNL     1      10.095   7.234  -1.542  1.00  0.00     0.031 C 
ATOM     54  C   UNL     1       5.591   4.317   2.788  1.00  0.00     0.029 A 
ATOM     55  C   UNL     1       6.744   4.962   3.408  1.00  0.00     0.049 A 
ATOM     56  H   UNL     1       8.310   5.948   2.455  1.00  0.00     0.167 HD
ATOM     57  C   UNL     1      11.629   7.830   0.300  1.00  0.00     0.031 A 
ATOM     58  C   UNL     1       6.986   5.021   4.731  1.00  0.00     0.031 A 
ATOM     59  C   UNL     1      11.995   7.903   1.685  1.00  0.00     0.049 A 
ATOM     60  C   UNL     1       8.237   5.694   5.220  1.00  0.00     0.074 A 
ATOM     61  C   UNL     1      13.120   8.473   2.251  1.00  0.00     0.029 A 
ATOM     62  N   UNL     1      11.217   7.418   2.725  1.00  0.00    -0.354 N 
ATOM     63  N   UNL     1       9.203   6.239   4.520  1.00  0.00    -0.248 NA
ATOM     64  C   UNL     1       8.432   5.762   6.675  1.00  0.00     0.031 C 
ATOM     65  C   UNL     1      13.025   8.329   3.639  1.00  0.00     0.029 A 
ATOM     66  C   UNL     1      11.825   7.700   3.934  1.00  0.00     0.049 A 
ATOM     67  H   UNL     1      10.361   6.944   2.619  1.00  0.00     0.167 HD
ATOM     68  C   UNL     1      10.108   6.736   5.447  1.00  0.00     0.074 A 
ATOM     69  C   UNL     1       9.577   6.428   6.760  1.00  0.00     0.031 C 
ATOM     70  C   UNL     1      11.272   7.393   5.228  1.00  0.00     0.031 A 
BRANCH  57  71
ATOM     71  C   UNL     1      12.535   8.440  -0.728  1.00  0.00    -0.014 A 
ATOM     72  C   UNL     1      12.172   9.623  -1.393  1.00  0.00     0.009 A 
ATOM     73  C   UNL     1      13.754   7.824  -1.047  1.00  0.00     0.009 A 
ATOM     74  C   UNL     1      12.993  10.154  -2.388  1.00  0.00     0.001 A 
ATOM     75  C   UNL     1      14.586   8.374  -2.023  1.00  0.00     0.001 A 
ATOM     76  C   UNL     1      14.200   9.531  -2.699  1.00  0.00     0.000 A 
ENDBRANCH  57  71
BRANCH  58  77
ATOM     77  C   UNL     1       5.983   4.480   5.681  1.00  0.00    -0.014 A 
ATOM     78  C   UNL     1       5.092   5.354   6.324  1.00  0.00     0.009 A 
ATOM     79  C   UNL     1       5.863   3.100   5.904  1.00  0.00     0.009 A 
ATOM     80  C   UNL     1       4.099   4.856   7.171  1.00  0.00     0.001 A 
ATOM     81  C   UNL     1       4.858   2.605   6.740  1.00  0.00     0.001 A 
ATOM     82  C   UNL     1       3.978   3.483   7.373  1.00  0.00     0.000 A 
ENDBRANCH  58  77
BRANCH  70  83
ATOM     83  C   UNL     1      12.041   7.869   6.423  1.00  0.00    -0.014 A 
ATOM     84  C   UNL     1      12.849   6.992   7.160  1.00  0.00     0.009 A 
ATOM     85  C   UNL     1      12.041   9.237   6.742  1.00  0.00     0.009 A 
ATOM     86  C   UNL     1      13.640   7.478   8.203  1.00  0.00     0.001 A 
ATOM     87  C   UNL     1      12.847   9.720   7.772  1.00  0.00     0.001 A 
ATOM     88  C   UNL     1      13.645   8.840   8.502  1.00  0.00     0.000 A 
ENDBRANCH  70  83
ENDBRANCH  44  45
ENDBRANCH  36  39
ENDBRANCH  34  35
ENDBRANCH  33  34
ENDBRANCH  32  33
ENDBRANCH   1  32
TORSDOF 17
