REMARK SMILES O=Cc1[nH]nc2cc(C(=O)NCCCCNC(=O)c3ccc(-c4c5nc(c(-c6ccccc6)c6ccc([nH]6)c(-c6ccccc6)c6nc(c(-c7ccccc7)c7ccc4[nH]7)C=C6)C=C5)cc3)ccc12
REMARK SMILES IDX 14 1 13 2 12 3 11 4 9 5 10 6 8 8 3 9 4 10 69 11 5 12 6 14
REMARK SMILES IDX 68 15 7 16 67 17 2 18 1 19 15 20 16 21 17 22 18 24 19 25
REMARK SMILES IDX 20 26 66 27 21 28 65 29 22 30 23 31 24 32 59 33 25 34 64 35
REMARK SMILES IDX 58 36 60 37 26 38 63 39 57 40 56 41 27 43 49 44 34 45 48 46
REMARK SMILES IDX 35 47 38 48 47 49 61 50 36 51 37 52 46 54 62 55 39 56 28 57
REMARK SMILES IDX 29 58 33 59 30 60 32 61 31 62 50 63 51 64 55 65 52 66 54 67
REMARK SMILES IDX 53 68 40 69 41 70 45 71 42 72 44 73 43 74
REMARK H PARENT 11 7 4 13 16 23 60 42 38 53
REMARK Flexibility Score: inf
ROOT
ATOM      1  C   UNL     1       0.806   7.359  -5.045  1.00  0.00     0.023 C 
ENDROOT
BRANCH   1   2
ATOM      2  C   UNL     1       0.816   6.030  -4.279  1.00  0.00     0.023 C 
BRANCH   2   3
ATOM      3  C   UNL     1       0.717   4.791  -5.172  1.00  0.00     0.116 C 
BRANCH   3   4
ATOM      4  N   UNL     1       2.009   4.471  -5.742  1.00  0.00    -0.352 N 
ATOM      5  C   UNL     1       3.026   3.631  -5.370  1.00  0.00     0.251 C 
ATOM      6  O   UNL     1       4.013   3.619  -6.110  1.00  0.00    -0.269 OA
ATOM      7  H   UNL     1       2.196   4.962  -6.575  1.00  0.00     0.163 HD
BRANCH   5   8
ATOM      8  C   UNL     1       3.008   2.723  -4.178  1.00  0.00     0.042 A 
ATOM      9  C   UNL     1       3.259   0.003  -1.119  1.00  0.00     0.105 A 
ATOM     10  N   UNL     1       4.312  -0.693  -1.653  1.00  0.00    -0.274 N 
ATOM     11  C   UNL     1       3.033   1.003  -2.035  1.00  0.00     0.030 A 
ATOM     12  N   UNL     1       4.737  -0.251  -2.848  1.00  0.00    -0.175 NA
ATOM     13  H   UNL     1       4.726  -1.460  -1.195  1.00  0.00     0.190 HD
ATOM     14  C   UNL     1       3.961   0.810  -3.118  1.00  0.00     0.094 A 
ATOM     15  C   UNL     1       2.092   2.020  -1.931  1.00  0.00     0.013 A 
ATOM     16  C   UNL     1       3.960   1.667  -4.229  1.00  0.00     0.044 A 
ATOM     17  C   UNL     1       2.147   2.893  -3.044  1.00  0.00     0.015 A 
BRANCH   9  18
ATOM     18  C   UNL     1       2.623  -0.335   0.123  1.00  0.00     0.280 C 
ATOM     19  O   UNL     1       1.637   0.225   0.593  1.00  0.00    -0.296 OA
ENDBRANCH   9  18
ENDBRANCH   5   8
ENDBRANCH   3   4
ENDBRANCH   2   3
ENDBRANCH   1   2
BRANCH   1  20
ATOM     20  C   UNL     1      -0.469   7.642  -5.835  1.00  0.00     0.116 C 
BRANCH  20  21
ATOM     21  N   UNL     1      -1.674   7.608  -5.022  1.00  0.00    -0.352 N 
ATOM     22  C   UNL     1      -2.852   8.294  -5.208  1.00  0.00     0.251 C 
ATOM     23  H   UNL     1      -1.643   7.017  -4.236  1.00  0.00     0.163 HD
ATOM     24  O   UNL     1      -3.749   8.229  -4.381  1.00  0.00    -0.269 OA
BRANCH  22  25
ATOM     25  C   UNL     1      -3.001   9.152  -6.401  1.00  0.00     0.039 A 
ATOM     26  C   UNL     1      -3.405  10.478  -6.227  1.00  0.00     0.014 A 
ATOM     27  C   UNL     1      -2.707   8.661  -7.675  1.00  0.00     0.014 A 
ATOM     28  C   UNL     1      -3.446  11.335  -7.327  1.00  0.00     0.010 A 
ATOM     29  C   UNL     1      -2.687   9.532  -8.759  1.00  0.00     0.010 A 
ATOM     30  C   UNL     1      -3.050  10.878  -8.594  1.00  0.00    -0.014 A 
BRANCH  30  31
ATOM     31  C   UNL     1      -2.994  11.794  -9.760  1.00  0.00     0.031 A 
ATOM     32  C   UNL     1      -3.905  11.576 -10.934  1.00  0.00     0.074 A 
ATOM     33  C   UNL     1      -2.066  12.770  -9.794  1.00  0.00     0.049 A 
ATOM     34  N   UNL     1      -3.946  12.215 -12.076  1.00  0.00    -0.248 NA
ATOM     35  C   UNL     1      -4.879  10.477 -10.823  1.00  0.00     0.031 C 
ATOM     36  C   UNL     1      -1.092  13.054  -8.738  1.00  0.00     0.029 A 
ATOM     37  N   UNL     1      -1.781  13.696 -10.766  1.00  0.00    -0.354 N 
ATOM     38  C   UNL     1      -4.929  11.582 -12.826  1.00  0.00     0.074 A 
ATOM     39  C   UNL     1      -5.432  10.486 -12.027  1.00  0.00     0.031 C 
ATOM     40  C   UNL     1      -0.329  14.094  -9.112  1.00  0.00     0.029 A 
ATOM     41  C   UNL     1      -0.735  14.526 -10.445  1.00  0.00     0.049 A 
ATOM     42  H   UNL     1      -2.280  13.759 -11.612  1.00  0.00     0.167 HD
ATOM     43  C   UNL     1      -5.382  11.895 -14.062  1.00  0.00     0.031 A 
ATOM     44  C   UNL     1      -0.160  15.518 -11.150  1.00  0.00     0.031 A 
ATOM     45  C   UNL     1      -4.898  12.998 -14.847  1.00  0.00     0.049 A 
ATOM     46  C   UNL     1      -0.691  15.854 -12.515  1.00  0.00     0.074 A 
ATOM     47  C   UNL     1      -5.342  13.438 -16.082  1.00  0.00     0.029 A 
ATOM     48  N   UNL     1      -3.859  13.836 -14.472  1.00  0.00    -0.354 N 
ATOM     49  N   UNL     1      -1.672  15.293 -13.180  1.00  0.00    -0.248 NA
ATOM     50  C   UNL     1      -0.044  16.968 -13.222  1.00  0.00     0.031 C 
ATOM     51  C   UNL     1      -4.543  14.517 -16.474  1.00  0.00     0.029 A 
ATOM     52  C   UNL     1      -3.635  14.778 -15.461  1.00  0.00     0.049 A 
ATOM     53  H   UNL     1      -3.356  13.770 -13.629  1.00  0.00     0.167 HD
ATOM     54  C   UNL     1      -1.778  16.003 -14.368  1.00  0.00     0.074 A 
ATOM     55  C   UNL     1      -0.771  17.043 -14.328  1.00  0.00     0.031 C 
ATOM     56  C   UNL     1      -2.634  15.810 -15.401  1.00  0.00     0.031 A 
BRANCH  43  57
ATOM     57  C   UNL     1      -6.459  11.025 -14.646  1.00  0.00    -0.014 A 
ATOM     58  C   UNL     1      -7.772  11.061 -14.150  1.00  0.00     0.009 A 
ATOM     59  C   UNL     1      -6.165  10.185 -15.731  1.00  0.00     0.009 A 
ATOM     60  C   UNL     1      -8.761  10.248 -14.708  1.00  0.00     0.001 A 
ATOM     61  C   UNL     1      -7.162   9.394 -16.305  1.00  0.00     0.001 A 
ATOM     62  C   UNL     1      -8.456   9.420 -15.787  1.00  0.00     0.000 A 
ENDBRANCH  43  57
BRANCH  44  63
ATOM     63  C   UNL     1       0.979  16.279 -10.574  1.00  0.00    -0.014 A 
ATOM     64  C   UNL     1       0.807  17.608 -10.156  1.00  0.00     0.009 A 
ATOM     65  C   UNL     1       2.244  15.685 -10.447  1.00  0.00     0.009 A 
ATOM     66  C   UNL     1       1.887  18.336  -9.650  1.00  0.00     0.001 A 
ATOM     67  C   UNL     1       3.315  16.407  -9.915  1.00  0.00     0.001 A 
ATOM     68  C   UNL     1       3.138  17.734  -9.527  1.00  0.00     0.000 A 
ENDBRANCH  44  63
BRANCH  56  69
ATOM     69  C   UNL     1      -2.546  16.769 -16.554  1.00  0.00    -0.014 A 
ATOM     70  C   UNL     1      -1.488  16.707 -17.473  1.00  0.00     0.009 A 
ATOM     71  C   UNL     1      -3.564  17.716 -16.746  1.00  0.00     0.009 A 
ATOM     72  C   UNL     1      -1.438  17.597 -18.548  1.00  0.00     0.001 A 
ATOM     73  C   UNL     1      -3.525  18.585 -17.836  1.00  0.00     0.001 A 
ATOM     74  C   UNL     1      -2.458  18.531 -18.731  1.00  0.00     0.000 A 
ENDBRANCH  56  69
ENDBRANCH  30  31
ENDBRANCH  22  25
ENDBRANCH  20  21
ENDBRANCH   1  20
TORSDOF 12
