REMARK SMILES C[C@H](CC(=O)NCCCCNC(=O)c1ccc(-c2c3nc(c(-c4ccccc4)c4ccc([nH]4)c(-c4ccccc4)c4nc(c(-c5ccccc5)c5ccc2[nH]5)C=C4)C=C3)cc1)NC(=O)Cn1nc2ccccn2c1=O
REMARK SMILES IDX 7 1 6 2 4 3 5 4 3 6 2 7 1 8 62 9 63 10 64 12 65 13 66 14
REMARK SMILES IDX 67 15 74 16 68 17 73 18 75 19 69 20 72 21 70 22 71 23 8 24
REMARK SMILES IDX 9 25 10 26 11 27 12 28 13 30 14 31 15 32 61 33 16 34 60 35
REMARK SMILES IDX 17 36 18 37 19 38 54 39 20 40 59 41 53 42 55 43 21 44 58 45
REMARK SMILES IDX 52 46 51 47 22 49 44 50 29 51 43 52 30 53 33 54 42 55 56 56
REMARK SMILES IDX 31 57 32 58 41 60 57 61 34 62 23 63 24 64 28 65 25 66 27 67
REMARK SMILES IDX 26 68 45 69 46 70 50 71 47 72 49 73 48 74 35 75 36 76 40 77
REMARK SMILES IDX 37 78 39 79 38 80
REMARK H PARENT 6 5 62 11 11 29 55 48 33 59
REMARK Flexibility Score: inf
ROOT
ATOM      1  C   UNL     1      -0.982  -0.678   2.312  1.00  0.00     0.116 C 
ENDROOT
BRANCH   1   2
ATOM      2  N   UNL     1       0.453  -0.517   2.436  1.00  0.00    -0.356 N 
ATOM      3  C   UNL     1       1.392  -0.348   1.466  1.00  0.00     0.222 C 
ATOM      4  O   UNL     1       2.574  -0.268   1.806  1.00  0.00    -0.275 OA
ATOM      5  H   UNL     1       0.799  -0.532   3.358  1.00  0.00     0.163 HD
BRANCH   3   6
ATOM      6  C   UNL     1       0.993  -0.248   0.009  1.00  0.00     0.124 C 
BRANCH   6   7
ATOM      7  C   UNL     1       0.696  -1.572  -0.714  1.00  0.00     0.088 C 
ATOM      8  C   UNL     1       1.349  -2.812  -0.106  1.00  0.00     0.031 C 
BRANCH   7   9
ATOM      9  N   UNL     1      -0.742  -1.781  -0.893  1.00  0.00    -0.352 N 
ATOM     10  C   UNL     1      -1.520  -1.598  -1.999  1.00  0.00     0.242 C 
ATOM     11  H   UNL     1      -1.220  -2.102  -0.094  1.00  0.00     0.163 HD
ATOM     12  O   UNL     1      -2.715  -1.893  -1.905  1.00  0.00    -0.273 OA
BRANCH  10  13
ATOM     13  C   UNL     1      -0.893  -1.228  -3.332  1.00  0.00     0.249 C 
BRANCH  13  14
ATOM     14  N   UNL     1      -0.118  -0.013  -3.302  1.00  0.00    -0.203 N 
ATOM     15  N   UNL     1      -0.532   1.135  -2.658  1.00  0.00    -0.149 NA
ATOM     16  C   UNL     1       1.001   0.248  -4.105  1.00  0.00     0.350 A 
ATOM     17  C   UNL     1       0.313   2.026  -3.071  1.00  0.00     0.161 A 
ATOM     18  N   UNL     1       1.245   1.585  -3.947  1.00  0.00    -0.250 N 
ATOM     19  O   UNL     1       1.597  -0.548  -4.822  1.00  0.00    -0.246 OA
ATOM     20  C   UNL     1       0.333   3.454  -2.733  1.00  0.00     0.050 A 
ATOM     21  C   UNL     1       2.145   2.387  -4.589  1.00  0.00     0.098 A 
ATOM     22  C   UNL     1       1.007   4.254  -3.576  1.00  0.00     0.005 A 
ATOM     23  C   UNL     1       2.036   3.715  -4.442  1.00  0.00     0.019 A 
ENDBRANCH  13  14
ENDBRANCH  10  13
ENDBRANCH   7   9
ENDBRANCH   6   7
ENDBRANCH   3   6
ENDBRANCH   1   2
BRANCH   1  24
ATOM     24  C   UNL     1      -1.399  -2.147   2.405  1.00  0.00     0.023 C 
BRANCH  24  25
ATOM     25  C   UNL     1      -1.139  -2.816   3.750  1.00  0.00     0.023 C 
BRANCH  25  26
ATOM     26  C   UNL     1      -1.875  -2.187   4.918  1.00  0.00     0.116 C 
BRANCH  26  27
ATOM     27  N   UNL     1      -3.319  -2.178   4.737  1.00  0.00    -0.352 N 
ATOM     28  C   UNL     1      -4.300  -2.453   5.656  1.00  0.00     0.251 C 
ATOM     29  H   UNL     1      -3.634  -1.944   3.834  1.00  0.00     0.163 HD
ATOM     30  O   UNL     1      -5.474  -2.533   5.311  1.00  0.00    -0.269 OA
BRANCH  28  31
ATOM     31  C   UNL     1      -3.921  -2.687   7.063  1.00  0.00     0.039 A 
ATOM     32  C   UNL     1      -4.454  -3.792   7.730  1.00  0.00     0.014 A 
ATOM     33  C   UNL     1      -3.013  -1.841   7.705  1.00  0.00     0.014 A 
ATOM     34  C   UNL     1      -4.025  -4.084   9.024  1.00  0.00     0.010 A 
ATOM     35  C   UNL     1      -2.523  -2.182   8.958  1.00  0.00     0.010 A 
ATOM     36  C   UNL     1      -3.030  -3.302   9.633  1.00  0.00    -0.014 A 
BRANCH  36  37
ATOM     37  C   UNL     1      -2.510  -3.634  10.981  1.00  0.00     0.031 A 
ATOM     38  C   UNL     1      -2.706  -2.673  12.119  1.00  0.00     0.074 A 
ATOM     39  C   UNL     1      -1.807  -4.769  11.163  1.00  0.00     0.049 A 
ATOM     40  N   UNL     1      -2.282  -2.759  13.354  1.00  0.00    -0.248 NA
ATOM     41  C   UNL     1      -3.454  -1.439  11.825  1.00  0.00     0.031 C 
ATOM     42  C   UNL     1      -1.512  -5.761  10.127  1.00  0.00     0.029 A 
ATOM     43  N   UNL     1      -1.210  -5.276  12.289  1.00  0.00    -0.354 N 
ATOM     44  C   UNL     1      -2.696  -1.588  13.976  1.00  0.00     0.074 A 
ATOM     45  C   UNL     1      -3.353  -0.782  12.971  1.00  0.00     0.031 C 
ATOM     46  C   UNL     1      -0.819  -6.773  10.674  1.00  0.00     0.029 A 
ATOM     47  C   UNL     1      -0.586  -6.483  12.084  1.00  0.00     0.049 A 
ATOM     48  H   UNL     1      -1.228  -4.819  13.161  1.00  0.00     0.167 HD
ATOM     49  C   UNL     1      -2.561  -1.224  15.273  1.00  0.00     0.031 A 
ATOM     50  C   UNL     1       0.100  -7.265  12.938  1.00  0.00     0.031 A 
ATOM     51  C   UNL     1      -1.916  -2.030  16.273  1.00  0.00     0.049 A 
ATOM     52  C   UNL     1       0.248  -6.832  14.370  1.00  0.00     0.074 A 
ATOM     53  C   UNL     1      -1.776  -1.777  17.626  1.00  0.00     0.029 A 
ATOM     54  N   UNL     1      -1.300  -3.248  16.027  1.00  0.00    -0.354 N 
ATOM     55  N   UNL     1      -0.209  -5.754  14.959  1.00  0.00    -0.248 NA
ATOM     56  C   UNL     1       0.998  -7.732  15.257  1.00  0.00     0.031 C 
ATOM     57  C   UNL     1      -1.028  -2.817  18.189  1.00  0.00     0.029 A 
ATOM     58  C   UNL     1      -0.756  -3.747  17.198  1.00  0.00     0.049 A 
ATOM     59  H   UNL     1      -1.255  -3.691  15.149  1.00  0.00     0.167 HD
ATOM     60  C   UNL     1       0.171  -5.860  16.290  1.00  0.00     0.074 A 
ATOM     61  C   UNL     1       0.882  -7.115  16.424  1.00  0.00     0.031 C 
ATOM     62  C   UNL     1      -0.050  -4.996  17.312  1.00  0.00     0.031 A 
BRANCH  49  63
ATOM     63  C   UNL     1      -3.121   0.112  15.677  1.00  0.00    -0.014 A 
ATOM     64  C   UNL     1      -4.506   0.342  15.709  1.00  0.00     0.009 A 
ATOM     65  C   UNL     1      -2.253   1.149  16.053  1.00  0.00     0.009 A 
ATOM     66  C   UNL     1      -5.008   1.594  16.070  1.00  0.00     0.001 A 
ATOM     67  C   UNL     1      -2.759   2.389  16.445  1.00  0.00     0.001 A 
ATOM     68  C   UNL     1      -4.135   2.614  16.442  1.00  0.00     0.000 A 
ENDBRANCH  49  63
BRANCH  50  69
ATOM     69  C   UNL     1       0.682  -8.549  12.468  1.00  0.00    -0.014 A 
ATOM     70  C   UNL     1       0.145  -9.773  12.899  1.00  0.00     0.009 A 
ATOM     71  C   UNL     1       1.779  -8.561  11.593  1.00  0.00     0.009 A 
ATOM     72  C   UNL     1       0.713 -10.980  12.485  1.00  0.00     0.001 A 
ATOM     73  C   UNL     1       2.326  -9.770  11.158  1.00  0.00     0.001 A 
ATOM     74  C   UNL     1       1.799 -10.978  11.612  1.00  0.00     0.000 A 
ENDBRANCH  50  69
BRANCH  62  75
ATOM     75  C   UNL     1       0.452  -5.398  18.670  1.00  0.00    -0.014 A 
ATOM     76  C   UNL     1       1.823  -5.399  18.973  1.00  0.00     0.009 A 
ATOM     77  C   UNL     1      -0.467  -5.745  19.673  1.00  0.00     0.009 A 
ATOM     78  C   UNL     1       2.264  -5.773  20.243  1.00  0.00     0.001 A 
ATOM     79  C   UNL     1      -0.025  -6.088  20.951  1.00  0.00     0.001 A 
ATOM     80  C   UNL     1       1.340  -6.112  21.232  1.00  0.00     0.000 A 
ENDBRANCH  62  75
ENDBRANCH  36  37
ENDBRANCH  28  31
ENDBRANCH  26  27
ENDBRANCH  25  26
ENDBRANCH  24  25
ENDBRANCH   1  24
TORSDOF 15
