REMARK SMILES O=C(N/N=C/c1ccccc1O)C(=O)Nc1cccc(C(=O)NCCCCNC(=O)c2ccc(-c3c4nc(c(-c5ccccc5)c5ccc([nH]5)c(-c5ccccc5)c5nc(c(-c6ccccc6)c6ccc3[nH]6)C=C5)C=C4)cc2)c1
REMARK SMILES IDX 24 1 23 2 21 3 22 4 20 6 16 7 17 8 79 9 18 10 19 11 15 12
REMARK SMILES IDX 13 13 14 14 2 16 1 17 3 18 4 20 5 21 6 22 7 23 11 24 8 25
REMARK SMILES IDX 10 26 9 27 12 28 25 30 26 31 27 32 28 33 29 34 30 36 31 37
REMARK SMILES IDX 32 38 78 39 33 40 77 41 34 42 35 43 36 44 71 45 37 46 76 47
REMARK SMILES IDX 70 48 72 49 38 50 75 51 69 52 68 53 39 55 61 56 46 57 60 58
REMARK SMILES IDX 47 59 50 60 59 61 73 62 48 63 49 64 58 66 74 67 51 68 40 69
REMARK SMILES IDX 41 70 45 71 42 72 44 73 43 74 62 75 63 76 67 77 64 78 66 79
REMARK SMILES IDX 65 80 52 81 53 82 57 83 54 84 56 85 55 86
REMARK H PARENT 23 5 15 15 3 19 12 29 28 35 72 54 50 65
REMARK Flexibility Score: inf
ROOT
ATOM      1  C   UNL     1       3.242  -1.304  -3.241  1.00  0.00     0.116 C 
ENDROOT
BRANCH   1   2
ATOM      2  N   UNL     1       4.398  -2.166  -3.393  1.00  0.00    -0.352 N 
ATOM      3  C   UNL     1       5.446  -2.406  -2.543  1.00  0.00     0.251 C 
ATOM      4  O   UNL     1       6.234  -3.321  -2.796  1.00  0.00    -0.269 OA
ATOM      5  H   UNL     1       4.436  -2.660  -4.244  1.00  0.00     0.163 HD
BRANCH   3   6
ATOM      6  C   UNL     1       5.730  -1.596  -1.329  1.00  0.00     0.041 A 
ATOM      7  C   UNL     1       5.340   0.922   0.534  1.00  0.00     0.042 A 
ATOM      8  C   UNL     1       6.087   0.023   1.946  1.00  0.00     0.026 A 
ATOM      9  C   UNL     1       5.241   0.159  -1.113  1.00  0.00     0.040 A 
ATOM     10  C   UNL     1       6.743  -1.664   1.673  1.00  0.00     0.003 A 
ATOM     11  C   UNL     1       6.520  -2.476   0.065  1.00  0.00     0.014 A 
BRANCH   7  12
ATOM     12  N   UNL     1       4.350   1.834   0.899  1.00  0.00    -0.318 N 
ATOM     13  C   UNL     1       2.983   1.581   0.934  1.00  0.00     0.315 C 
ATOM     14  O   UNL     1       2.263   2.425   1.472  1.00  0.00    -0.263 OA
ATOM     15  H   UNL     1       4.645   2.738   1.154  1.00  0.00     0.170 HD
BRANCH  13  16
ATOM     16  C   UNL     1       2.297   0.294   0.408  1.00  0.00     0.329 C 
ATOM     17  O   UNL     1       1.208   0.389  -0.157  1.00  0.00    -0.262 OA
ATOM     18  N   UNL     1       2.825  -0.971   0.699  1.00  0.00    -0.239 N 
ATOM     19  H   UNL     1       2.438  -1.558   1.389  1.00  0.00     0.194 HD
BRANCH  18  20
ATOM     20  N   UNL     1       3.925  -1.336  -0.048  1.00  0.00    -0.180 NA
ATOM     21  C   UNL     1       5.138  -1.065   0.541  1.00  0.00     0.145 C 
BRANCH  21  22
ATOM     22  C   UNL     1       7.058  -0.355  -0.050  1.00  0.00     0.036 A 
ATOM     23  C   UNL     1       7.977   0.609   0.704  1.00  0.00     0.013 A 
ATOM     24  C   UNL     1       7.994  -0.638  -1.228  1.00  0.00     0.124 A 
ATOM     25  C   UNL     1       9.374   0.870   0.590  1.00  0.00     0.001 A 
ATOM     26  C   UNL     1       9.412  -0.427  -1.332  1.00  0.00     0.047 A 
ATOM     27  C   UNL     1      10.114   0.272  -0.386  1.00  0.00     0.004 A 
BRANCH  24  28
ATOM     28  O   UNL     1       7.601  -0.942  -2.534  1.00  0.00    -0.507 OA
ATOM     29  H   UNL     1       6.701  -1.122  -2.723  1.00  0.00     0.293 HD
ENDBRANCH  24  28
ENDBRANCH  21  22
ENDBRANCH  18  20
ENDBRANCH  13  16
ENDBRANCH   7  12
ENDBRANCH   3   6
ENDBRANCH   1   2
BRANCH   1  30
ATOM     30  C   UNL     1       3.316  -0.067  -4.132  1.00  0.00     0.023 C 
BRANCH  30  31
ATOM     31  C   UNL     1       2.835  -0.289  -5.564  1.00  0.00     0.023 C 
BRANCH  31  32
ATOM     32  C   UNL     1       1.382  -0.732  -5.695  1.00  0.00     0.116 C 
BRANCH  32  33
ATOM     33  N   UNL     1       0.419   0.200  -5.125  1.00  0.00    -0.352 N 
ATOM     34  C   UNL     1      -0.883   0.399  -5.529  1.00  0.00     0.251 C 
ATOM     35  H   UNL     1       0.732   0.746  -4.368  1.00  0.00     0.163 HD
ATOM     36  O   UNL     1      -1.589   1.268  -5.034  1.00  0.00    -0.269 OA
BRANCH  34  37
ATOM     37  C   UNL     1      -1.397  -0.442  -6.626  1.00  0.00     0.039 A 
ATOM     38  C   UNL     1      -1.805   0.169  -7.813  1.00  0.00     0.014 A 
ATOM     39  C   UNL     1      -1.345  -1.833  -6.513  1.00  0.00     0.014 A 
ATOM     40  C   UNL     1      -2.078  -0.622  -8.929  1.00  0.00     0.010 A 
ATOM     41  C   UNL     1      -1.558  -2.614  -7.642  1.00  0.00     0.010 A 
ATOM     42  C   UNL     1      -1.907  -2.014  -8.863  1.00  0.00    -0.014 A 
BRANCH  42  43
ATOM     43  C   UNL     1      -2.060  -2.875 -10.059  1.00  0.00     0.031 A 
ATOM     44  C   UNL     1      -3.150  -3.905 -10.100  1.00  0.00     0.074 A 
ATOM     45  C   UNL     1      -1.151  -2.809 -11.051  1.00  0.00     0.049 A 
ATOM     46  N   UNL     1      -3.356  -4.855 -10.975  1.00  0.00    -0.248 NA
ATOM     47  C   UNL     1      -4.117  -3.883  -8.990  1.00  0.00     0.031 C 
ATOM     48  C   UNL     1      -0.019  -1.880 -11.109  1.00  0.00     0.029 A 
ATOM     49  N   UNL     1      -1.024  -3.558 -12.194  1.00  0.00    -0.354 N 
ATOM     50  C   UNL     1      -4.450  -5.566 -10.503  1.00  0.00     0.074 A 
ATOM     51  C   UNL     1      -4.847  -4.957  -9.252  1.00  0.00     0.031 C 
ATOM     52  C   UNL     1       0.678  -2.108 -12.234  1.00  0.00     0.029 A 
ATOM     53  C   UNL     1       0.069  -3.221 -12.954  1.00  0.00     0.049 A 
ATOM     54  H   UNL     1      -1.657  -4.269 -12.445  1.00  0.00     0.167 HD
ATOM     55  C   UNL     1      -5.075  -6.628 -11.065  1.00  0.00     0.031 A 
ATOM     56  C   UNL     1       0.536  -3.758 -14.096  1.00  0.00     0.031 A 
ATOM     57  C   UNL     1      -4.699  -7.215 -12.321  1.00  0.00     0.049 A 
ATOM     58  C   UNL     1      -0.189  -4.919 -14.715  1.00  0.00     0.074 A 
ATOM     59  C   UNL     1      -5.309  -8.250 -13.007  1.00  0.00     0.029 A 
ATOM     60  N   UNL     1      -3.614  -6.811 -13.084  1.00  0.00    -0.354 N 
ATOM     61  N   UNL     1      -1.254  -5.549 -14.283  1.00  0.00    -0.248 NA
ATOM     62  C   UNL     1       0.348  -5.438 -15.981  1.00  0.00     0.031 C 
ATOM     63  C   UNL     1      -4.576  -8.493 -14.173  1.00  0.00     0.029 A 
ATOM     64  C   UNL     1      -3.531  -7.584 -14.229  1.00  0.00     0.049 A 
ATOM     65  H   UNL     1      -2.995  -6.084 -12.847  1.00  0.00     0.167 HD
ATOM     66  C   UNL     1      -1.531  -6.520 -15.236  1.00  0.00     0.074 A 
ATOM     67  C   UNL     1      -0.526  -6.393 -16.271  1.00  0.00     0.031 C 
ATOM     68  C   UNL     1      -2.530  -7.434 -15.252  1.00  0.00     0.031 A 
BRANCH  55  69
ATOM     69  C   UNL     1      -6.227  -7.223 -10.310  1.00  0.00    -0.014 A 
ATOM     70  C   UNL     1      -7.459  -6.557 -10.220  1.00  0.00     0.009 A 
ATOM     71  C   UNL     1      -6.082  -8.475  -9.692  1.00  0.00     0.009 A 
ATOM     72  C   UNL     1      -8.511  -7.114  -9.492  1.00  0.00     0.001 A 
ATOM     73  C   UNL     1      -7.145  -9.042  -8.986  1.00  0.00     0.001 A 
ATOM     74  C   UNL     1      -8.354  -8.357  -8.879  1.00  0.00     0.000 A 
ENDBRANCH  55  69
BRANCH  56  75
ATOM     75  C   UNL     1       1.749  -3.193 -14.739  1.00  0.00    -0.014 A 
ATOM     76  C   UNL     1       1.635  -2.409 -15.897  1.00  0.00     0.009 A 
ATOM     77  C   UNL     1       3.022  -3.429 -14.199  1.00  0.00     0.009 A 
ATOM     78  C   UNL     1       2.775  -1.888 -16.513  1.00  0.00     0.001 A 
ATOM     79  C   UNL     1       4.159  -2.888 -14.805  1.00  0.00     0.001 A 
ATOM     80  C   UNL     1       4.035  -2.124 -15.965  1.00  0.00     0.000 A 
ENDBRANCH  56  75
BRANCH  68  81
ATOM     81  C   UNL     1      -2.613  -8.341 -16.444  1.00  0.00    -0.014 A 
ATOM     82  C   UNL     1      -1.744  -9.433 -16.587  1.00  0.00     0.009 A 
ATOM     83  C   UNL     1      -3.613  -8.130 -17.406  1.00  0.00     0.009 A 
ATOM     84  C   UNL     1      -1.865 -10.287 -17.684  1.00  0.00     0.001 A 
ATOM     85  C   UNL     1      -3.743  -8.997 -18.490  1.00  0.00     0.001 A 
ATOM     86  C   UNL     1      -2.866 -10.072 -18.631  1.00  0.00     0.000 A 
ENDBRANCH  68  81
ENDBRANCH  42  43
ENDBRANCH  34  37
ENDBRANCH  32  33
ENDBRANCH  31  32
ENDBRANCH  30  31
ENDBRANCH   1  30
TORSDOF 16
