REMARK SMILES CCc1ccnc(C(=O)c2[nH]c3ccc(OC(F)(F)F)cc3c2CC(=O)NCCCCNC(=O)c2ccc(-c3c4nc(c(-c5ccccc5)c5ccc([nH]5)c(-c5ccccc5)c5nc(c(-c6ccccc6)c6ccc3[nH]6)C=C5)C=C4)cc2)c1
REMARK SMILES IDX 28 1 27 2 25 3 26 4 24 6 23 7 10 8 11 9 12 10 22 12 13 13
REMARK SMILES IDX 21 14 14 15 15 16 8 17 9 18 7 19 3 20 4 21 83 22 5 23 6 24
REMARK SMILES IDX 2 25 1 26 16 27 17 28 18 29 19 30 20 31 29 32 30 33 31 34
REMARK SMILES IDX 32 35 33 36 34 38 35 39 36 40 82 41 37 42 81 43 38 44 39 45
REMARK SMILES IDX 40 46 75 47 41 48 80 49 74 50 76 51 42 52 79 53 73 54 72 55
REMARK SMILES IDX 43 57 65 58 50 59 64 60 51 61 54 62 63 63 77 64 52 65 53 66
REMARK SMILES IDX 62 68 78 69 55 70 44 71 45 72 49 73 46 74 48 75 47 76 66 77
REMARK SMILES IDX 67 78 71 79 68 80 70 81 69 82 56 83 57 84 61 85 58 86 60 87
REMARK SMILES IDX 59 88
REMARK H PARENT 27 5 11 11 32 37 76 56 54 67
REMARK Flexibility Score: inf
ROOT
ATOM      1  C   UNL     1       5.340  -0.707   7.508  1.00  0.00     0.116 C 
ENDROOT
BRANCH   1   2
ATOM      2  N   UNL     1       5.462  -2.049   6.982  1.00  0.00    -0.356 N 
ATOM      3  C   UNL     1       5.567  -2.464   5.684  1.00  0.00     0.224 C 
ATOM      4  O   UNL     1       5.830  -3.653   5.482  1.00  0.00    -0.275 OA
ATOM      5  H   UNL     1       5.471  -2.767   7.656  1.00  0.00     0.163 HD
BRANCH   3   6
ATOM      6  C   UNL     1       5.501  -1.474   4.530  1.00  0.00     0.138 C 
BRANCH   6   7
ATOM      7  C   UNL     1       4.222  -0.691   4.423  1.00  0.00    -0.002 A 
ATOM      8  C   UNL     1       2.940  -1.190   4.210  1.00  0.00     0.093 A 
ATOM      9  N   UNL     1       2.068  -0.127   4.287  1.00  0.00    -0.352 N 
ATOM     10  C   UNL     1       2.752   1.056   4.414  1.00  0.00     0.046 A 
ATOM     11  H   UNL     1       1.087  -0.205   4.256  1.00  0.00     0.167 HD
ATOM     12  C   UNL     1       4.105   0.740   4.479  1.00  0.00     0.008 A 
ATOM     13  C   UNL     1       2.276   2.368   4.495  1.00  0.00     0.030 A 
ATOM     14  C   UNL     1       5.028   1.799   4.615  1.00  0.00     0.057 A 
ATOM     15  C   UNL     1       3.214   3.397   4.643  1.00  0.00     0.049 A 
ATOM     16  C   UNL     1       4.580   3.125   4.703  1.00  0.00     0.130 A 
BRANCH   8  17
ATOM     17  C   UNL     1       2.503  -2.566   4.034  1.00  0.00     0.227 C 
ATOM     18  O   UNL     1       2.646  -3.391   4.929  1.00  0.00    -0.285 OA
BRANCH  17  19
ATOM     19  C   UNL     1       1.831  -2.946   2.733  1.00  0.00     0.113 A 
ATOM     20  C   UNL     1       0.999  -2.424   0.524  1.00  0.00    -0.044 A 
ATOM     21  C   UNL     1       0.538  -3.742   0.451  1.00  0.00     0.024 A 
ATOM     22  C   UNL     1       1.688  -2.038   1.680  1.00  0.00     0.036 A 
ATOM     23  C   UNL     1       0.746  -4.590   1.526  1.00  0.00     0.112 A 
ATOM     24  N   UNL     1       1.360  -4.217   2.665  1.00  0.00    -0.253 NA
BRANCH  20  25
ATOM     25  C   UNL     1       0.744  -1.501  -0.645  1.00  0.00     0.032 C 
ATOM     26  C   UNL     1       1.051  -0.023  -0.426  1.00  0.00     0.009 C 
ENDBRANCH  20  25
ENDBRANCH  17  19
ENDBRANCH   8  17
BRANCH  16  27
ATOM     27  O   UNL     1       5.584   4.040   4.849  1.00  0.00    -0.406 OA
BRANCH  27  28
ATOM     28  C   UNL     1       5.224   5.402   5.003  1.00  0.00     0.573 C 
ATOM     29  F   UNL     1       4.573   5.859   3.912  1.00  0.00    -0.132 F 
ATOM     30  F   UNL     1       4.453   5.582   6.097  1.00  0.00    -0.132 F 
ATOM     31  F   UNL     1       6.350   6.133   5.157  1.00  0.00    -0.132 F 
ENDBRANCH  27  28
ENDBRANCH  16  27
ENDBRANCH   6   7
ENDBRANCH   3   6
ENDBRANCH   1   2
BRANCH   1  32
ATOM     32  C   UNL     1       3.902  -0.336   7.865  1.00  0.00     0.023 C 
BRANCH  32  33
ATOM     33  C   UNL     1       3.311  -1.071   9.071  1.00  0.00     0.023 C 
BRANCH  33  34
ATOM     34  C   UNL     1       4.086  -0.934  10.376  1.00  0.00     0.116 C 
BRANCH  34  35
ATOM     35  N   UNL     1       4.312   0.446  10.772  1.00  0.00    -0.352 N 
ATOM     36  C   UNL     1       4.400   0.991  12.028  1.00  0.00     0.251 C 
ATOM     37  H   UNL     1       4.417   1.084  10.029  1.00  0.00     0.163 HD
ATOM     38  O   UNL     1       4.514   2.208  12.156  1.00  0.00    -0.269 OA
BRANCH  36  39
ATOM     39  C   UNL     1       4.319   0.135  13.232  1.00  0.00     0.039 A 
ATOM     40  C   UNL     1       3.541   0.580  14.307  1.00  0.00     0.014 A 
ATOM     41  C   UNL     1       5.011  -1.076  13.327  1.00  0.00     0.014 A 
ATOM     42  C   UNL     1       3.410  -0.212  15.450  1.00  0.00     0.010 A 
ATOM     43  C   UNL     1       4.842  -1.889  14.448  1.00  0.00     0.010 A 
ATOM     44  C   UNL     1       4.040  -1.464  15.516  1.00  0.00    -0.014 A 
BRANCH  44  45
ATOM     45  C   UNL     1       3.859  -2.341  16.697  1.00  0.00     0.031 A 
ATOM     46  C   UNL     1       4.997  -2.585  17.645  1.00  0.00     0.074 A 
ATOM     47  C   UNL     1       2.680  -2.961  16.887  1.00  0.00     0.049 A 
ATOM     48  N   UNL     1       5.033  -3.346  18.709  1.00  0.00    -0.248 NA
ATOM     49  C   UNL     1       6.265  -1.899  17.349  1.00  0.00     0.031 C 
ATOM     50  C   UNL     1       1.508  -2.843  16.016  1.00  0.00     0.029 A 
ATOM     51  N   UNL     1       2.276  -3.820  17.876  1.00  0.00    -0.354 N 
ATOM     52  C   UNL     1       6.329  -3.251  19.196  1.00  0.00     0.074 A 
ATOM     53  C   UNL     1       7.055  -2.375  18.301  1.00  0.00     0.031 C 
ATOM     54  C   UNL     1       0.511  -3.588  16.521  1.00  0.00     0.029 A 
ATOM     55  C   UNL     1       0.980  -4.248  17.736  1.00  0.00     0.049 A 
ATOM     56  H   UNL     1       2.861  -4.104  18.616  1.00  0.00     0.167 HD
ATOM     57  C   UNL     1       6.867  -3.833  20.294  1.00  0.00     0.031 A 
ATOM     58  C   UNL     1       0.248  -5.076  18.503  1.00  0.00     0.031 A 
ATOM     59  C   UNL     1       6.148  -4.685  21.202  1.00  0.00     0.049 A 
ATOM     60  C   UNL     1       0.854  -5.676  19.736  1.00  0.00     0.074 A 
ATOM     61  C   UNL     1       6.597  -5.274  22.372  1.00  0.00     0.029 A 
ATOM     62  N   UNL     1       4.827  -5.066  21.042  1.00  0.00    -0.354 N 
ATOM     63  N   UNL     1       2.066  -5.534  20.211  1.00  0.00    -0.248 NA
ATOM     64  C   UNL     1      -0.016  -6.543  20.545  1.00  0.00     0.031 C 
ATOM     65  C   UNL     1       5.548  -6.029  22.912  1.00  0.00     0.029 A 
ATOM     66  C   UNL     1       4.444  -5.889  22.088  1.00  0.00     0.049 A 
ATOM     67  H   UNL     1       4.246  -4.793  20.296  1.00  0.00     0.167 HD
ATOM     68  C   UNL     1       2.102  -6.280  21.381  1.00  0.00     0.074 A 
ATOM     69  C   UNL     1       0.788  -6.865  21.549  1.00  0.00     0.031 C 
ATOM     70  C   UNL     1       3.134  -6.463  22.239  1.00  0.00     0.031 A 
BRANCH  57  71
ATOM     71  C   UNL     1       8.317  -3.565  20.565  1.00  0.00    -0.014 A 
ATOM     72  C   UNL     1       8.733  -2.345  21.119  1.00  0.00     0.009 A 
ATOM     73  C   UNL     1       9.275  -4.549  20.278  1.00  0.00     0.009 A 
ATOM     74  C   UNL     1      10.088  -2.104  21.354  1.00  0.00     0.001 A 
ATOM     75  C   UNL     1      10.627  -4.311  20.530  1.00  0.00     0.001 A 
ATOM     76  C   UNL     1      11.032  -3.087  21.061  1.00  0.00     0.000 A 
ENDBRANCH  57  71
BRANCH  58  77
ATOM     77  C   UNL     1      -1.159  -5.365  18.138  1.00  0.00    -0.014 A 
ATOM     78  C   UNL     1      -2.208  -4.709  18.801  1.00  0.00     0.009 A 
ATOM     79  C   UNL     1      -1.458  -6.289  17.127  1.00  0.00     0.009 A 
ATOM     80  C   UNL     1      -3.534  -4.988  18.468  1.00  0.00     0.001 A 
ATOM     81  C   UNL     1      -2.786  -6.554  16.787  1.00  0.00     0.001 A 
ATOM     82  C   UNL     1      -3.822  -5.908  17.461  1.00  0.00     0.000 A 
ENDBRANCH  58  77
BRANCH  70  83
ATOM     83  C   UNL     1       2.870  -7.314  23.443  1.00  0.00    -0.014 A 
ATOM     84  C   UNL     1       2.871  -8.714  23.348  1.00  0.00     0.009 A 
ATOM     85  C   UNL     1       2.641  -6.711  24.688  1.00  0.00     0.009 A 
ATOM     86  C   UNL     1       2.622  -9.495  24.477  1.00  0.00     0.001 A 
ATOM     87  C   UNL     1       2.407  -7.495  25.818  1.00  0.00     0.001 A 
ATOM     88  C   UNL     1       2.392  -8.885  25.711  1.00  0.00     0.000 A 
ENDBRANCH  70  83
ENDBRANCH  44  45
ENDBRANCH  36  39
ENDBRANCH  34  35
ENDBRANCH  33  34
ENDBRANCH  32  33
ENDBRANCH   1  32
TORSDOF 17
