REMARK SMILES COCC[C@]1(C(=O)NCCCCNC(=O)c2ccc(-c3c4nc(c(-c5ccccc5)c5ccc([nH]5)c(-c5ccccc5)c5nc(c(-c6ccccc6)c6ccc3[nH]6)C=C5)C=C4)cc2)CCCN(C(=O)Cc2c(C)nc(C)[nH]c2=O)C1
REMARK SMILES IDX 10 1 9 2 8 3 6 4 7 5 5 7 64 8 80 9 65 10 67 11 66 12 4 13
REMARK SMILES IDX 3 14 2 15 1 16 68 17 69 18 70 19 71 20 72 21 78 22 73 23
REMARK SMILES IDX 74 24 77 25 79 26 75 27 76 29 11 30 12 31 13 32 14 33 15 35
REMARK SMILES IDX 16 36 17 37 63 38 18 39 62 40 19 41 20 42 21 43 56 44 22 45
REMARK SMILES IDX 61 46 55 47 57 48 23 49 60 50 54 51 53 52 24 54 46 55 31 56
REMARK SMILES IDX 45 57 32 58 35 59 44 60 58 61 33 62 34 63 43 65 59 66 36 67
REMARK SMILES IDX 25 68 26 69 30 70 27 71 29 72 28 73 47 74 48 75 52 76 49 77
REMARK SMILES IDX 51 78 50 79 37 80 38 81 42 82 39 83 41 84 40 85
REMARK H PARENT 8 6 77 28 13 34 57 53 35 64
REMARK Flexibility Score: inf
ROOT
ATOM      1  C   UNL     1       1.431  -4.826  -2.767  1.00  0.00     0.023 C 
ENDROOT
BRANCH   1   2
ATOM      2  C   UNL     1       1.651  -3.406  -2.251  1.00  0.00     0.116 C 
BRANCH   2   3
ATOM      3  N   UNL     1       0.430  -2.805  -1.742  1.00  0.00    -0.356 N 
ATOM      4  C   UNL     1       0.069  -2.343  -0.509  1.00  0.00     0.228 C 
ATOM      5  O   UNL     1      -1.113  -2.007  -0.406  1.00  0.00    -0.274 OA
ATOM      6  H   UNL     1      -0.276  -2.712  -2.421  1.00  0.00     0.163 HD
BRANCH   4   7
ATOM      7  C   UNL     1       1.051  -2.310   0.685  1.00  0.00     0.069 C 
ATOM      8  C   UNL     1       1.378  -3.804   1.035  1.00  0.00     0.021 C 
ATOM      9  C   UNL     1       2.311  -1.482   0.321  1.00  0.00     0.136 C 
ATOM     10  C   UNL     1       2.693  -4.009   1.792  1.00  0.00     0.023 C 
ATOM     11  N   UNL     1       3.459  -1.800   1.165  1.00  0.00    -0.341 N 
ATOM     12  C   UNL     1       3.813  -3.208   1.151  1.00  0.00     0.119 C 
BRANCH   7  13
ATOM     13  C   UNL     1       0.355  -1.708   1.959  1.00  0.00     0.047 C 
BRANCH  13  14
ATOM     14  C   UNL     1       0.250  -0.185   2.123  1.00  0.00     0.161 C 
BRANCH  14  15
ATOM     15  O   UNL     1      -0.639   0.432   1.201  1.00  0.00    -0.385 OA
ATOM     16  C   UNL     1      -0.002   1.142   0.151  1.00  0.00     0.194 C 
ENDBRANCH  14  15
ENDBRANCH  13  14
ENDBRANCH   7  13
BRANCH  11  17
ATOM     17  C   UNL     1       4.091  -0.784   1.871  1.00  0.00     0.227 C 
ATOM     18  O   UNL     1       3.751   0.395   1.721  1.00  0.00    -0.275 OA
BRANCH  17  19
ATOM     19  C   UNL     1       5.305  -1.091   2.758  1.00  0.00     0.143 C 
BRANCH  19  20
ATOM     20  C   UNL     1       5.089  -2.092   3.859  1.00  0.00     0.048 A 
ATOM     21  C   UNL     1       5.717  -3.277   4.024  1.00  0.00     0.049 A 
ATOM     22  C   UNL     1       4.093  -1.718   4.896  1.00  0.00     0.254 A 
ATOM     23  C   UNL     1       6.799  -3.806   3.111  1.00  0.00     0.067 C 
ATOM     24  N   UNL     1       5.407  -4.174   5.021  1.00  0.00    -0.240 NA
ATOM     25  N   UNL     1       3.870  -2.643   5.869  1.00  0.00    -0.311 N 
ATOM     26  O   UNL     1       3.501  -0.645   4.888  1.00  0.00    -0.269 OA
ATOM     27  C   UNL     1       4.518  -3.837   5.892  1.00  0.00     0.105 A 
ATOM     28  H   UNL     1       3.218  -2.441   6.578  1.00  0.00     0.171 HD
ATOM     29  C   UNL     1       4.121  -4.797   6.974  1.00  0.00     0.087 C 
ENDBRANCH  19  20
ENDBRANCH  17  19
ENDBRANCH  11  17
ENDBRANCH   4   7
ENDBRANCH   2   3
ENDBRANCH   1   2
BRANCH   1  30
ATOM     30  C   UNL     1       0.529  -4.930  -3.994  1.00  0.00     0.023 C 
BRANCH  30  31
ATOM     31  C   UNL     1       0.924  -4.035  -5.161  1.00  0.00     0.116 C 
BRANCH  31  32
ATOM     32  N   UNL     1       2.285  -4.267  -5.623  1.00  0.00    -0.352 N 
ATOM     33  C   UNL     1       2.739  -4.476  -6.903  1.00  0.00     0.251 C 
ATOM     34  H   UNL     1       2.975  -4.276  -4.921  1.00  0.00     0.163 HD
ATOM     35  O   UNL     1       3.908  -4.790  -7.103  1.00  0.00    -0.269 OA
BRANCH  33  36
ATOM     36  C   UNL     1       1.798  -4.356  -8.034  1.00  0.00     0.039 A 
ATOM     37  C   UNL     1       1.753  -5.375  -8.987  1.00  0.00     0.014 A 
ATOM     38  C   UNL     1       0.934  -3.261  -8.125  1.00  0.00     0.014 A 
ATOM     39  C   UNL     1       0.786  -5.332  -9.993  1.00  0.00     0.010 A 
ATOM     40  C   UNL     1      -0.079  -3.263  -9.077  1.00  0.00     0.010 A 
ATOM     41  C   UNL     1      -0.164  -4.298 -10.021  1.00  0.00    -0.014 A 
BRANCH  41  42
ATOM     42  C   UNL     1      -1.258  -4.285 -11.024  1.00  0.00     0.031 A 
ATOM     43  C   UNL     1      -1.353  -3.163 -12.022  1.00  0.00     0.074 A 
ATOM     44  C   UNL     1      -2.210  -5.239 -10.987  1.00  0.00     0.049 A 
ATOM     45  N   UNL     1      -2.270  -2.944 -12.931  1.00  0.00    -0.248 NA
ATOM     46  C   UNL     1      -0.297  -2.138 -11.976  1.00  0.00     0.031 C 
ATOM     47  C   UNL     1      -2.263  -6.351 -10.033  1.00  0.00     0.029 A 
ATOM     48  N   UNL     1      -3.325  -5.420 -11.767  1.00  0.00    -0.354 N 
ATOM     49  C   UNL     1      -1.916  -1.748 -13.542  1.00  0.00     0.074 A 
ATOM     50  C   UNL     1      -0.726  -1.266 -12.876  1.00  0.00     0.031 C 
ATOM     51  C   UNL     1      -3.340  -7.107 -10.298  1.00  0.00     0.029 A 
ATOM     52  C   UNL     1      -4.076  -6.514 -11.410  1.00  0.00     0.049 A 
ATOM     53  H   UNL     1      -3.564  -4.822 -12.511  1.00  0.00     0.167 HD
ATOM     54  C   UNL     1      -2.518  -1.115 -14.576  1.00  0.00     0.031 A 
ATOM     55  C   UNL     1      -5.234  -6.982 -11.914  1.00  0.00     0.031 A 
ATOM     56  C   UNL     1      -3.685  -1.608 -15.255  1.00  0.00     0.049 A 
ATOM     57  C   UNL     1      -5.874  -6.264 -13.070  1.00  0.00     0.074 A 
ATOM     58  C   UNL     1      -4.317  -1.083 -16.369  1.00  0.00     0.029 A 
ATOM     59  N   UNL     1      -4.399  -2.735 -14.882  1.00  0.00    -0.354 N 
ATOM     60  N   UNL     1      -5.471  -5.187 -13.699  1.00  0.00    -0.248 NA
ATOM     61  C   UNL     1      -7.124  -6.835 -13.593  1.00  0.00     0.031 C 
ATOM     62  C   UNL     1      -5.448  -1.860 -16.635  1.00  0.00     0.029 A 
ATOM     63  C   UNL     1      -5.484  -2.904 -15.725  1.00  0.00     0.049 A 
ATOM     64  H   UNL     1      -4.168  -3.328 -14.131  1.00  0.00     0.167 HD
ATOM     65  C   UNL     1      -6.400  -4.969 -14.709  1.00  0.00     0.074 A 
ATOM     66  C   UNL     1      -7.375  -6.036 -14.620  1.00  0.00     0.031 C 
ATOM     67  C   UNL     1      -6.442  -3.973 -15.627  1.00  0.00     0.031 A 
BRANCH  54  68
ATOM     68  C   UNL     1      -1.930   0.190 -15.036  1.00  0.00    -0.014 A 
ATOM     69  C   UNL     1      -0.700   0.240 -15.712  1.00  0.00     0.009 A 
ATOM     70  C   UNL     1      -2.647   1.380 -14.843  1.00  0.00     0.009 A 
ATOM     71  C   UNL     1      -0.188   1.460 -16.159  1.00  0.00     0.001 A 
ATOM     72  C   UNL     1      -2.147   2.595 -15.316  1.00  0.00     0.001 A 
ATOM     73  C   UNL     1      -0.915   2.634 -15.967  1.00  0.00     0.000 A 
ENDBRANCH  54  68
BRANCH  55  74
ATOM     74  C   UNL     1      -5.871  -8.194 -11.332  1.00  0.00    -0.014 A 
ATOM     75  C   UNL     1      -5.936  -9.390 -12.064  1.00  0.00     0.009 A 
ATOM     76  C   UNL     1      -6.444  -8.153 -10.052  1.00  0.00     0.009 A 
ATOM     77  C   UNL     1      -6.594 -10.506 -11.542  1.00  0.00     0.001 A 
ATOM     78  C   UNL     1      -7.073  -9.280  -9.518  1.00  0.00     0.001 A 
ATOM     79  C   UNL     1      -7.159 -10.451 -10.269  1.00  0.00     0.000 A 
ENDBRANCH  55  74
BRANCH  67  80
ATOM     80  C   UNL     1      -7.556  -4.012 -16.635  1.00  0.00    -0.014 A 
ATOM     81  C   UNL     1      -8.881  -3.726 -16.272  1.00  0.00     0.009 A 
ATOM     82  C   UNL     1      -7.265  -4.297 -17.979  1.00  0.00     0.009 A 
ATOM     83  C   UNL     1      -9.897  -3.758 -17.229  1.00  0.00     0.001 A 
ATOM     84  C   UNL     1      -8.277  -4.297 -18.939  1.00  0.00     0.001 A 
ATOM     85  C   UNL     1      -9.593  -4.037 -18.561  1.00  0.00     0.000 A 
ENDBRANCH  67  80
ENDBRANCH  41  42
ENDBRANCH  33  36
ENDBRANCH  31  32
ENDBRANCH  30  31
ENDBRANCH   1  30
TORSDOF 17
