REMARK SMILES CC[N@@H+]1CCC[C@@H]1C[N@@H+](C)C[C@H]([NH3+])C(=O)NCCCCNC(=O)c1ccc(-c2c3nc(c(-c4ccccc4)c4ccc([nH]4)c(-c4ccccc4)c4nc(c(-c5ccccc5)c5ccc2[nH]5)C=C4)C=C3)cc1
REMARK SMILES IDX 17 1 16 2 14 3 15 4 12 6 11 7 9 8 10 9 8 11 7 12 3 13 4 14
REMARK SMILES IDX 5 16 6 17 2 18 1 19 13 20 18 24 19 25 20 26 21 27 22 28
REMARK SMILES IDX 23 30 24 31 25 32 71 33 26 34 70 35 27 36 28 37 29 38 64 39
REMARK SMILES IDX 30 40 69 41 63 42 65 43 31 44 68 45 62 46 61 47 32 49 54 50
REMARK SMILES IDX 39 51 53 52 40 53 43 54 52 55 66 56 41 57 42 58 51 60 67 61
REMARK SMILES IDX 44 62 33 63 34 64 38 65 35 66 37 67 36 68 55 69 56 70 60 71
REMARK SMILES IDX 57 72 59 73 58 74 45 75 46 76 50 77 47 78 49 79 48 80
REMARK H PARENT 16 5 9 10 3 15 13 21 13 22 13 23 21 29 65 48 43 59
REMARK Flexibility Score: inf
ROOT
ATOM      1  C   UNL     1      -2.496   3.308   4.628  1.00  0.00     0.116 C 
ENDROOT
BRANCH   1   2
ATOM      2  N   UNL     1      -3.586   3.553   3.718  1.00  0.00    -0.351 N 
ATOM      3  C   UNL     1      -3.611   3.389   2.357  1.00  0.00     0.284 C 
ATOM      4  O   UNL     1      -4.731   3.366   1.830  1.00  0.00    -0.268 OA
ATOM      5  H   UNL     1      -4.420   3.881   4.126  1.00  0.00     0.163 HD
BRANCH   3   6
ATOM      6  C   UNL     1      -2.345   3.234   1.465  1.00  0.00     0.326 C 
BRANCH   6   7
ATOM      7  C   UNL     1      -1.944   1.789   1.020  1.00  0.00     0.338 C 
BRANCH   7   8
ATOM      8  N   UNL     1      -1.545   0.681   1.917  1.00  0.00    -0.327 N 
ATOM      9  C   UNL     1      -2.756   0.037   2.454  1.00  0.00     0.333 C 
ATOM     10  H   UNL     1      -1.004   0.063   1.312  1.00  0.00     0.348 HD
BRANCH   8  11
ATOM     11  C   UNL     1      -0.584   0.962   2.997  1.00  0.00     0.327 C 
BRANCH  11  12
ATOM     12  C   UNL     1       0.961   1.021   2.794  1.00  0.00     0.239 C 
ATOM     13  N   UNL     1       1.803   1.404   3.988  1.00  0.00    -0.328 N 
ATOM     14  C   UNL     1       2.919   2.213   3.465  1.00  0.00     0.262 C 
ATOM     15  H   UNL     1       2.069   0.520   4.422  1.00  0.00     0.348 HD
ATOM     16  C   UNL     1       2.316   2.970   2.308  1.00  0.00     0.068 C 
ATOM     17  C   UNL     1       1.463   1.908   1.649  1.00  0.00     0.077 C 
BRANCH  13  18
ATOM     18  C   UNL     1       1.169   2.106   5.110  1.00  0.00     0.259 C 
ATOM     19  C   UNL     1       0.452   1.172   6.070  1.00  0.00     0.071 C 
ENDBRANCH  13  18
ENDBRANCH  11  12
ENDBRANCH   8  11
ENDBRANCH   7   8
ENDBRANCH   6   7
BRANCH   6  20
ATOM     20  N   UNL     1      -1.227   4.125   1.853  1.00  0.00    -0.343 N 
ATOM     21  H   UNL     1      -0.848   3.822   2.750  1.00  0.00     0.345 HD
ATOM     22  H   UNL     1      -1.568   5.083   1.933  1.00  0.00     0.345 HD
ATOM     23  H   UNL     1      -0.496   4.082   1.143  1.00  0.00     0.345 HD
ENDBRANCH   6  20
ENDBRANCH   3   6
ENDBRANCH   1   2
BRANCH   1  24
ATOM     24  C   UNL     1      -2.544   3.989   5.986  1.00  0.00     0.023 C 
BRANCH  24  25
ATOM     25  C   UNL     1      -3.569   3.482   6.996  1.00  0.00     0.023 C 
BRANCH  25  26
ATOM     26  C   UNL     1      -3.829   1.978   7.045  1.00  0.00     0.116 C 
BRANCH  26  27
ATOM     27  N   UNL     1      -2.696   1.178   7.494  1.00  0.00    -0.352 N 
ATOM     28  C   UNL     1      -2.409   0.560   8.692  1.00  0.00     0.251 C 
ATOM     29  H   UNL     1      -2.000   1.056   6.808  1.00  0.00     0.163 HD
ATOM     30  O   UNL     1      -1.320   0.040   8.877  1.00  0.00    -0.269 OA
BRANCH  28  31
ATOM     31  C   UNL     1      -3.420   0.546   9.765  1.00  0.00     0.039 A 
ATOM     32  C   UNL     1      -3.046   0.846  11.077  1.00  0.00     0.014 A 
ATOM     33  C   UNL     1      -4.749   0.275   9.454  1.00  0.00     0.014 A 
ATOM     34  C   UNL     1      -4.036   1.014  12.047  1.00  0.00     0.010 A 
ATOM     35  C   UNL     1      -5.734   0.570  10.378  1.00  0.00     0.010 A 
ATOM     36  C   UNL     1      -5.390   0.955  11.681  1.00  0.00    -0.014 A 
BRANCH  36  37
ATOM     37  C   UNL     1      -6.482   1.319  12.614  1.00  0.00     0.031 A 
ATOM     38  C   UNL     1      -7.572   0.325  12.908  1.00  0.00     0.074 A 
ATOM     39  C   UNL     1      -6.568   2.586  13.065  1.00  0.00     0.049 A 
ATOM     40  N   UNL     1      -8.701   0.501  13.544  1.00  0.00    -0.248 NA
ATOM     41  C   UNL     1      -7.392  -1.033  12.365  1.00  0.00     0.031 C 
ATOM     42  C   UNL     1      -5.612   3.661  12.778  1.00  0.00     0.029 A 
ATOM     43  N   UNL     1      -7.518   3.192  13.846  1.00  0.00    -0.354 N 
ATOM     44  C   UNL     1      -9.381  -0.706  13.436  1.00  0.00     0.074 A 
ATOM     45  C   UNL     1      -8.566  -1.585  12.629  1.00  0.00     0.031 C 
ATOM     46  C   UNL     1      -6.006   4.781  13.405  1.00  0.00     0.029 A 
ATOM     47  C   UNL     1      -7.261   4.519  14.096  1.00  0.00     0.049 A 
ATOM     48  H   UNL     1      -8.309   2.721  14.195  1.00  0.00     0.167 HD
ATOM     49  C   UNL     1     -10.569  -1.057  13.981  1.00  0.00     0.031 A 
ATOM     50  C   UNL     1      -7.964   5.423  14.802  1.00  0.00     0.031 A 
ATOM     51  C   UNL     1     -11.350  -0.188  14.817  1.00  0.00     0.049 A 
ATOM     52  C   UNL     1      -9.249   4.992  15.448  1.00  0.00     0.074 A 
ATOM     53  C   UNL     1     -12.527  -0.463  15.490  1.00  0.00     0.029 A 
ATOM     54  N   UNL     1     -11.020   1.128  15.103  1.00  0.00    -0.354 N 
ATOM     55  N   UNL     1      -9.847   3.825  15.397  1.00  0.00    -0.248 NA
ATOM     56  C   UNL     1      -9.950   5.996  16.259  1.00  0.00     0.031 C 
ATOM     57  C   UNL     1     -12.926   0.699  16.159  1.00  0.00     0.029 A 
ATOM     58  C   UNL     1     -11.974   1.683  15.937  1.00  0.00     0.049 A 
ATOM     59  H   UNL     1     -10.225   1.598  14.763  1.00  0.00     0.167 HD
ATOM     60  C   UNL     1     -10.980   3.946  16.189  1.00  0.00     0.074 A 
ATOM     61  C   UNL     1     -10.976   5.295  16.721  1.00  0.00     0.031 C 
ATOM     62  C   UNL     1     -11.940   3.027  16.452  1.00  0.00     0.031 A 
BRANCH  49  63
ATOM     63  C   UNL     1     -11.078  -2.442  13.691  1.00  0.00    -0.014 A 
ATOM     64  C   UNL     1     -10.436  -3.578  14.213  1.00  0.00     0.009 A 
ATOM     65  C   UNL     1     -12.216  -2.617  12.890  1.00  0.00     0.009 A 
ATOM     66  C   UNL     1     -10.894  -4.859  13.898  1.00  0.00     0.001 A 
ATOM     67  C   UNL     1     -12.692  -3.898  12.603  1.00  0.00     0.001 A 
ATOM     68  C   UNL     1     -12.023  -5.018  13.097  1.00  0.00     0.000 A 
ENDBRANCH  49  63
BRANCH  50  69
ATOM     69  C   UNL     1      -7.446   6.805  14.970  1.00  0.00    -0.014 A 
ATOM     70  C   UNL     1      -6.929   7.218  16.208  1.00  0.00     0.009 A 
ATOM     71  C   UNL     1      -7.449   7.713  13.900  1.00  0.00     0.009 A 
ATOM     72  C   UNL     1      -6.449   8.519  16.379  1.00  0.00     0.001 A 
ATOM     73  C   UNL     1      -6.944   9.005  14.067  1.00  0.00     0.001 A 
ATOM     74  C   UNL     1      -6.453   9.410  15.307  1.00  0.00     0.000 A 
ENDBRANCH  50  69
BRANCH  62  75
ATOM     75  C   UNL     1     -13.042   3.444  17.380  1.00  0.00    -0.014 A 
ATOM     76  C   UNL     1     -14.050   4.325  16.961  1.00  0.00     0.009 A 
ATOM     77  C   UNL     1     -13.089   2.916  18.680  1.00  0.00     0.009 A 
ATOM     78  C   UNL     1     -15.070   4.694  17.839  1.00  0.00     0.001 A 
ATOM     79  C   UNL     1     -14.125   3.266  19.545  1.00  0.00     0.001 A 
ATOM     80  C   UNL     1     -15.110   4.160  19.127  1.00  0.00     0.000 A 
ENDBRANCH  62  75
ENDBRANCH  36  37
ENDBRANCH  28  31
ENDBRANCH  26  27
ENDBRANCH  25  26
ENDBRANCH  24  25
ENDBRANCH   1  24
TORSDOF 17
