REMARK SMILES COC[C@@H](C)N(C)C(=O)N1CCC(CC(=O)NCCCCNC(=O)c2ccc(-c3c4nc(c(-c5ccccc5)c5ccc([nH]5)c(-c5ccccc5)c5nc(c(-c6ccccc6)c6ccc3[nH]6)C=C5)C=C4)cc2)CC1
REMARK SMILES IDX 18 1 17 2 15 3 16 4 14 6 13 7 8 8 9 9 10 10 11 11 74 12
REMARK SMILES IDX 12 13 73 14 6 15 7 16 4 17 5 18 3 19 2 20 1 21 19 22 20 23
REMARK SMILES IDX 21 24 22 25 23 26 24 28 25 29 26 30 72 31 27 32 71 33 28 34
REMARK SMILES IDX 29 35 30 36 65 37 31 38 70 39 64 40 66 41 32 42 69 43 63 44
REMARK SMILES IDX 62 45 33 47 55 48 40 49 54 50 41 51 44 52 53 53 67 54 42 55
REMARK SMILES IDX 43 56 52 58 68 59 45 60 34 61 35 62 39 63 36 64 38 65 37 66
REMARK SMILES IDX 56 67 57 68 61 69 58 70 60 71 59 72 46 73 47 74 51 75 48 76
REMARK SMILES IDX 50 77 49 78
REMARK H PARENT 17 5 22 27 66 46 44 57
REMARK Flexibility Score: inf
ROOT
ATOM      1  C   UNL     1       7.762   5.724  -2.531  1.00  0.00     0.116 C 
ENDROOT
BRANCH   1   2
ATOM      2  N   UNL     1       7.781   7.127  -2.915  1.00  0.00    -0.356 N 
ATOM      3  C   UNL     1       6.966   8.159  -2.543  1.00  0.00     0.220 C 
ATOM      4  O   UNL     1       7.147   9.260  -3.065  1.00  0.00    -0.275 OA
ATOM      5  H   UNL     1       8.496   7.373  -3.546  1.00  0.00     0.163 HD
BRANCH   3   6
ATOM      6  C   UNL     1       5.857   7.955  -1.519  1.00  0.00     0.103 C 
BRANCH   6   7
ATOM      7  C   UNL     1       4.468   7.682  -2.139  1.00  0.00     0.002 C 
ATOM      8  C   UNL     1       2.162   4.515  -1.798  1.00  0.00     0.320 C 
ATOM      9  O   UNL     1       3.140   3.783  -1.658  1.00  0.00    -0.248 OA
ATOM     10  N   UNL     1       2.275   5.770  -2.369  1.00  0.00    -0.325 N 
ATOM     11  C   UNL     1       3.162   5.938  -3.495  1.00  0.00     0.121 C 
ATOM     12  C   UNL     1       2.068   6.971  -1.571  1.00  0.00     0.121 C 
ATOM     13  C   UNL     1       4.512   6.450  -3.041  1.00  0.00     0.026 C 
ATOM     14  C   UNL     1       3.405   7.506  -1.035  1.00  0.00     0.026 C 
BRANCH   8  15
ATOM     15  N   UNL     1       0.870   4.125  -1.472  1.00  0.00    -0.323 N 
ATOM     16  C   UNL     1      -0.306   4.828  -1.967  1.00  0.00     0.149 C 
BRANCH  15  17
ATOM     17  C   UNL     1       0.631   2.853  -0.753  1.00  0.00     0.109 C 
ATOM     18  C   UNL     1       1.214   2.899   0.660  1.00  0.00     0.033 C 
BRANCH  17  19
ATOM     19  C   UNL     1       1.108   1.625  -1.566  1.00  0.00     0.184 C 
BRANCH  19  20
ATOM     20  O   UNL     1       0.415   0.419  -1.223  1.00  0.00    -0.383 OA
ATOM     21  C   UNL     1       1.042  -0.336  -0.196  1.00  0.00     0.194 C 
ENDBRANCH  19  20
ENDBRANCH  17  19
ENDBRANCH  15  17
ENDBRANCH   8  15
ENDBRANCH   6   7
ENDBRANCH   3   6
ENDBRANCH   1   2
BRANCH   1  22
ATOM     22  C   UNL     1       7.224   4.832  -3.655  1.00  0.00     0.023 C 
BRANCH  22  23
ATOM     23  C   UNL     1       8.245   4.388  -4.686  1.00  0.00     0.023 C 
BRANCH  23  24
ATOM     24  C   UNL     1       9.257   3.391  -4.161  1.00  0.00     0.116 C 
BRANCH  24  25
ATOM     25  N   UNL     1       8.660   2.153  -3.673  1.00  0.00    -0.352 N 
ATOM     26  C   UNL     1       9.055   0.856  -3.911  1.00  0.00     0.251 C 
ATOM     27  H   UNL     1       7.869   2.260  -3.096  1.00  0.00     0.163 HD
ATOM     28  O   UNL     1       8.400  -0.090  -3.501  1.00  0.00    -0.269 OA
BRANCH  26  29
ATOM     29  C   UNL     1      10.270   0.630  -4.718  1.00  0.00     0.039 A 
ATOM     30  C   UNL     1      10.211  -0.249  -5.801  1.00  0.00     0.014 A 
ATOM     31  C   UNL     1      11.427   1.367  -4.460  1.00  0.00     0.014 A 
ATOM     32  C   UNL     1      11.291  -0.321  -6.680  1.00  0.00     0.010 A 
ATOM     33  C   UNL     1      12.448   1.380  -5.396  1.00  0.00     0.010 A 
ATOM     34  C   UNL     1      12.397   0.528  -6.509  1.00  0.00    -0.014 A 
BRANCH  34  35
ATOM     35  C   UNL     1      13.533   0.529  -7.460  1.00  0.00     0.031 A 
ATOM     36  C   UNL     1      14.908   0.174  -6.968  1.00  0.00     0.074 A 
ATOM     37  C   UNL     1      13.346   0.929  -8.733  1.00  0.00     0.049 A 
ATOM     38  N   UNL     1      16.049   0.207  -7.607  1.00  0.00    -0.248 NA
ATOM     39  C   UNL     1      15.022  -0.230  -5.556  1.00  0.00     0.031 C 
ATOM     40  C   UNL     1      12.071   1.353  -9.316  1.00  0.00     0.029 A 
ATOM     41  N   UNL     1      14.240   1.047  -9.767  1.00  0.00    -0.354 N 
ATOM     42  C   UNL     1      17.012  -0.137  -6.667  1.00  0.00     0.074 A 
ATOM     43  C   UNL     1      16.334  -0.313  -5.404  1.00  0.00     0.031 C 
ATOM     44  C   UNL     1      12.258   1.646 -10.614  1.00  0.00     0.029 A 
ATOM     45  C   UNL     1      13.668   1.468 -10.943  1.00  0.00     0.049 A 
ATOM     46  H   UNL     1      15.200   0.848  -9.675  1.00  0.00     0.167 HD
ATOM     47  C   UNL     1      18.341  -0.320  -6.844  1.00  0.00     0.031 A 
ATOM     48  C   UNL     1      14.222   1.682 -12.150  1.00  0.00     0.031 A 
ATOM     49  C   UNL     1      19.008  -0.183  -8.109  1.00  0.00     0.049 A 
ATOM     50  C   UNL     1      15.695   1.447 -12.331  1.00  0.00     0.074 A 
ATOM     51  C   UNL     1      20.336  -0.416  -8.414  1.00  0.00     0.029 A 
ATOM     52  N   UNL     1      18.387   0.216  -9.283  1.00  0.00    -0.354 N 
ATOM     53  N   UNL     1      16.583   1.058 -11.449  1.00  0.00    -0.248 NA
ATOM     54  C   UNL     1      16.239   1.670 -13.678  1.00  0.00     0.031 C 
ATOM     55  C   UNL     1      20.528  -0.122  -9.769  1.00  0.00     0.029 A 
ATOM     56  C   UNL     1      19.309   0.250 -10.313  1.00  0.00     0.049 A 
ATOM     57  H   UNL     1      17.433   0.442  -9.369  1.00  0.00     0.167 HD
ATOM     58  C   UNL     1      17.785   0.965 -12.138  1.00  0.00     0.074 A 
ATOM     59  C   UNL     1      17.508   1.325 -13.514  1.00  0.00     0.031 C 
ATOM     60  C   UNL     1      19.009   0.611 -11.674  1.00  0.00     0.031 A 
BRANCH  47  61
ATOM     61  C   UNL     1      19.148  -0.691  -5.632  1.00  0.00    -0.014 A 
ATOM     62  C   UNL     1      19.008  -1.949  -5.023  1.00  0.00     0.009 A 
ATOM     63  C   UNL     1      20.056   0.230  -5.088  1.00  0.00     0.009 A 
ATOM     64  C   UNL     1      19.725  -2.259  -3.866  1.00  0.00     0.001 A 
ATOM     65  C   UNL     1      20.795  -0.095  -3.949  1.00  0.00     0.001 A 
ATOM     66  C   UNL     1      20.620  -1.333  -3.332  1.00  0.00     0.000 A 
ENDBRANCH  47  61
BRANCH  48  67
ATOM     67  C   UNL     1      13.373   2.105 -13.294  1.00  0.00    -0.014 A 
ATOM     68  C   UNL     1      13.070   1.198 -14.321  1.00  0.00     0.009 A 
ATOM     69  C   UNL     1      12.857   3.408 -13.364  1.00  0.00     0.009 A 
ATOM     70  C   UNL     1      12.286   1.594 -15.407  1.00  0.00     0.001 A 
ATOM     71  C   UNL     1      12.053   3.794 -14.440  1.00  0.00     0.001 A 
ATOM     72  C   UNL     1      11.775   2.889 -15.464  1.00  0.00     0.000 A 
ENDBRANCH  48  67
BRANCH  60  73
ATOM     73  C   UNL     1      20.130   0.567 -12.670  1.00  0.00    -0.014 A 
ATOM     74  C   UNL     1      20.709   1.745 -13.164  1.00  0.00     0.009 A 
ATOM     75  C   UNL     1      20.643  -0.673 -13.082  1.00  0.00     0.009 A 
ATOM     76  C   UNL     1      21.765   1.681 -14.076  1.00  0.00     0.001 A 
ATOM     77  C   UNL     1      21.715  -0.733 -13.973  1.00  0.00     0.001 A 
ATOM     78  C   UNL     1      22.269   0.444 -14.475  1.00  0.00     0.000 A 
ENDBRANCH  60  73
ENDBRANCH  34  35
ENDBRANCH  26  29
ENDBRANCH  24  25
ENDBRANCH  23  24
ENDBRANCH  22  23
ENDBRANCH   1  22
TORSDOF 16
