REMARK SMILES COc1cccc(CSc2nc3ccccc3c(=O)n2CCC(=O)NCCCCNC(=O)c2ccc(-c3c4nc(c(-c5ccccc5)c5ccc([nH]5)c(-c5ccccc5)c5nc(c(-c6ccccc6)c6ccc3[nH]6)C=C5)C=C4)cc2)c1
REMARK SMILES IDX 23 1 24 2 25 3 22 5 21 6 20 7 10 8 11 9 12 10 18 11 13 12
REMARK SMILES IDX 17 13 19 14 14 15 16 16 15 17 9 18 8 19 7 20 3 21 4 22 81 23
REMARK SMILES IDX 5 24 6 25 2 26 1 27 26 28 27 29 28 30 29 31 30 32 31 33
REMARK SMILES IDX 32 35 33 36 34 37 80 38 35 39 79 40 36 41 37 42 38 43 73 44
REMARK SMILES IDX 39 45 78 46 72 47 74 48 40 49 77 50 71 51 70 52 41 54 63 55
REMARK SMILES IDX 48 56 62 57 49 58 52 59 61 60 75 61 50 62 51 63 60 65 76 66
REMARK SMILES IDX 53 67 42 68 43 69 47 70 44 71 46 72 45 73 64 74 65 75 69 76
REMARK SMILES IDX 66 77 68 78 67 79 54 80 55 81 59 82 56 83 58 84 57 85
REMARK H PARENT 25 4 30 34 74 53 52 64
REMARK Flexibility Score: inf
ROOT
ATOM      1  C   UNL     1       6.061   2.068   1.619  1.00  0.00     0.221 C 
ATOM      2  O   UNL     1       5.657   1.139   2.319  1.00  0.00    -0.275 OA
ATOM      3  N   UNL     1       7.113   2.817   2.067  1.00  0.00    -0.356 N 
ATOM      4  H   UNL     1       7.563   2.486   2.878  1.00  0.00     0.163 HD
ENDROOT
BRANCH   1   5
ATOM      5  C   UNL     1       5.409   2.384   0.282  1.00  0.00     0.122 C 
BRANCH   5   6
ATOM      6  C   UNL     1       3.877   2.451   0.422  1.00  0.00     0.138 C 
BRANCH   6   7
ATOM      7  N   UNL     1       3.341   3.776   0.099  1.00  0.00    -0.287 N 
ATOM      8  C   UNL     1       3.374   4.897   0.907  1.00  0.00     0.171 A 
ATOM      9  N   UNL     1       3.597   6.079   0.410  1.00  0.00    -0.224 NA
ATOM     10  C   UNL     1       3.772   6.214  -0.972  1.00  0.00     0.079 A 
ATOM     11  C   UNL     1       2.990   3.933  -1.247  1.00  0.00     0.262 A 
ATOM     12  C   UNL     1       4.402   7.341  -1.504  1.00  0.00     0.029 A 
ATOM     13  C   UNL     1       3.336   5.229  -1.847  1.00  0.00     0.066 A 
ATOM     14  O   UNL     1       2.530   3.040  -1.953  1.00  0.00    -0.269 OA
ATOM     15  C   UNL     1       4.562   7.481  -2.888  1.00  0.00     0.002 A 
ATOM     16  C   UNL     1       3.418   5.387  -3.235  1.00  0.00     0.016 A 
ATOM     17  C   UNL     1       4.038   6.521  -3.755  1.00  0.00     0.001 A 
BRANCH   8  18
ATOM     18  S   UNL     1       3.237   4.931   2.656  1.00  0.00    -0.083 SA
BRANCH  18  19
ATOM     19  C   UNL     1       2.700   3.389   3.387  1.00  0.00     0.113 C 
BRANCH  19  20
ATOM     20  C   UNL     1       1.304   2.980   3.014  1.00  0.00    -0.034 A 
ATOM     21  C   UNL     1      -0.207   1.508   1.807  1.00  0.00     0.119 A 
ATOM     22  C   UNL     1      -1.275   2.331   2.163  1.00  0.00     0.046 A 
ATOM     23  C   UNL     1       1.067   1.805   2.284  1.00  0.00     0.051 A 
ATOM     24  C   UNL     1      -1.071   3.452   2.967  1.00  0.00     0.004 A 
ATOM     25  C   UNL     1       0.215   3.781   3.382  1.00  0.00     0.005 A 
BRANCH  21  26
ATOM     26  O   UNL     1      -0.520   0.454   0.994  1.00  0.00    -0.497 OA
ATOM     27  C   UNL     1       0.571  -0.175   0.326  1.00  0.00     0.278 C 
ENDBRANCH  21  26
ENDBRANCH  19  20
ENDBRANCH  18  19
ENDBRANCH   8  18
ENDBRANCH   6   7
ENDBRANCH   5   6
ENDBRANCH   1   5
BRANCH   3  28
ATOM     28  C   UNL     1       7.651   4.043   1.497  1.00  0.00     0.116 C 
BRANCH  28  29
ATOM     29  C   UNL     1       6.611   5.149   1.579  1.00  0.00     0.023 C 
BRANCH  29  30
ATOM     30  C   UNL     1       6.807   6.217   2.648  1.00  0.00     0.023 C 
BRANCH  30  31
ATOM     31  C   UNL     1       7.751   7.312   2.203  1.00  0.00     0.116 C 
BRANCH  31  32
ATOM     32  N   UNL     1       7.351   7.950   0.953  1.00  0.00    -0.352 N 
ATOM     33  C   UNL     1       7.846   9.078   0.340  1.00  0.00     0.251 C 
ATOM     34  H   UNL     1       6.615   7.505   0.475  1.00  0.00     0.163 HD
ATOM     35  O   UNL     1       7.386   9.453  -0.729  1.00  0.00    -0.269 OA
BRANCH  33  36
ATOM     36  C   UNL     1       8.846   9.899   1.057  1.00  0.00     0.039 A 
ATOM     37  C   UNL     1       8.662  11.284   1.087  1.00  0.00     0.014 A 
ATOM     38  C   UNL     1       9.851   9.311   1.817  1.00  0.00     0.014 A 
ATOM     39  C   UNL     1       9.405  12.054   1.980  1.00  0.00     0.010 A 
ATOM     40  C   UNL     1      10.470  10.047   2.811  1.00  0.00     0.010 A 
ATOM     41  C   UNL     1      10.258  11.429   2.900  1.00  0.00    -0.014 A 
BRANCH  41  42
ATOM     42  C   UNL     1      10.961  12.189   3.959  1.00  0.00     0.031 A 
ATOM     43  C   UNL     1      12.461  12.118   4.048  1.00  0.00     0.074 A 
ATOM     44  C   UNL     1      10.249  12.852   4.891  1.00  0.00     0.049 A 
ATOM     45  N   UNL     1      13.258  12.598   4.967  1.00  0.00    -0.248 NA
ATOM     46  C   UNL     1      13.153  11.351   2.997  1.00  0.00     0.031 C 
ATOM     47  C   UNL     1       8.785  12.920   4.964  1.00  0.00     0.029 A 
ATOM     48  N   UNL     1      10.665  13.602   5.960  1.00  0.00    -0.354 N 
ATOM     49  C   UNL     1      14.526  12.139   4.634  1.00  0.00     0.074 A 
ATOM     50  C   UNL     1      14.384  11.289   3.476  1.00  0.00     0.031 C 
ATOM     51  C   UNL     1       8.431  13.722   5.982  1.00  0.00     0.029 A 
ATOM     52  C   UNL     1       9.636  14.192   6.654  1.00  0.00     0.049 A 
ATOM     53  H   UNL     1      11.612  13.709   6.207  1.00  0.00     0.167 HD
ATOM     54  C   UNL     1      15.712  12.431   5.216  1.00  0.00     0.031 A 
ATOM     55  C   UNL     1       9.670  15.034   7.702  1.00  0.00     0.031 A 
ATOM     56  C   UNL     1      15.853  13.343   6.315  1.00  0.00     0.049 A 
ATOM     57  C   UNL     1      11.006  15.440   8.257  1.00  0.00     0.074 A 
ATOM     58  C   UNL     1      17.008  13.777   6.940  1.00  0.00     0.029 A 
ATOM     59  N   UNL     1      14.792  13.991   6.929  1.00  0.00    -0.354 N 
ATOM     60  N   UNL     1      12.203  15.040   7.900  1.00  0.00    -0.248 NA
ATOM     61  C   UNL     1      10.996  16.431   9.341  1.00  0.00     0.031 C 
ATOM     62  C   UNL     1      16.643  14.686   7.939  1.00  0.00     0.029 A 
ATOM     63  C   UNL     1      15.265  14.838   7.913  1.00  0.00     0.049 A 
ATOM     64  H   UNL     1      13.843  13.866   6.698  1.00  0.00     0.167 HD
ATOM     65  C   UNL     1      13.091  15.755   8.692  1.00  0.00     0.074 A 
ATOM     66  C   UNL     1      12.293  16.620   9.538  1.00  0.00     0.031 C 
ATOM     67  C   UNL     1      14.444  15.701   8.720  1.00  0.00     0.031 A 
BRANCH  54  68
ATOM     68  C   UNL     1      16.934  11.771   4.643  1.00  0.00    -0.014 A 
ATOM     69  C   UNL     1      17.409  12.110   3.364  1.00  0.00     0.009 A 
ATOM     70  C   UNL     1      17.604  10.779   5.374  1.00  0.00     0.009 A 
ATOM     71  C   UNL     1      18.492  11.429   2.807  1.00  0.00     0.001 A 
ATOM     72  C   UNL     1      18.709  10.123   4.827  1.00  0.00     0.001 A 
ATOM     73  C   UNL     1      19.142  10.437   3.539  1.00  0.00     0.000 A 
ENDBRANCH  54  68
BRANCH  55  74
ATOM     74  C   UNL     1       8.412  15.611   8.241  1.00  0.00    -0.014 A 
ATOM     75  C   UNL     1       8.087  16.953   7.983  1.00  0.00     0.009 A 
ATOM     76  C   UNL     1       7.533  14.837   9.012  1.00  0.00     0.009 A 
ATOM     77  C   UNL     1       6.925  17.517   8.513  1.00  0.00     0.001 A 
ATOM     78  C   UNL     1       6.358  15.398   9.521  1.00  0.00     0.001 A 
ATOM     79  C   UNL     1       6.060  16.738   9.280  1.00  0.00     0.000 A 
ENDBRANCH  55  74
BRANCH  67  80
ATOM     80  C   UNL     1      15.142  16.642   9.655  1.00  0.00    -0.014 A 
ATOM     81  C   UNL     1      15.168  16.407  11.038  1.00  0.00     0.009 A 
ATOM     82  C   UNL     1      15.817  17.756   9.135  1.00  0.00     0.009 A 
ATOM     83  C   UNL     1      15.835  17.290  11.887  1.00  0.00     0.001 A 
ATOM     84  C   UNL     1      16.503  18.624   9.984  1.00  0.00     0.001 A 
ATOM     85  C   UNL     1      16.505  18.395  11.359  1.00  0.00     0.000 A 
ENDBRANCH  67  80
ENDBRANCH  41  42
ENDBRANCH  33  36
ENDBRANCH  31  32
ENDBRANCH  30  31
ENDBRANCH  29  30
ENDBRANCH  28  29
ENDBRANCH   3  28
TORSDOF 17
