REMARK SMILES CCOC(=O)c1cc(C[NH2+]CC(=O)NCCCCNC(=O)c2ccc(-c3c4nc(c(-c5ccccc5)c5ccc([nH]5)c(-c5ccccc5)c5nc(c(-c6ccccc6)c6ccc3[nH]6)C=C5)C=C4)cc2)c(C)o1
REMARK SMILES IDX 12 1 13 2 14 3 11 5 10 6 9 9 8 10 6 11 7 12 72 13 70 14
REMARK SMILES IDX 71 15 4 16 5 17 3 18 2 19 1 20 15 21 16 22 17 23 18 24 19 25
REMARK SMILES IDX 20 26 21 28 22 29 23 30 69 31 24 32 68 33 25 34 26 35 27 36
REMARK SMILES IDX 62 37 28 38 67 39 61 40 63 41 29 42 66 43 60 44 59 45 30 47
REMARK SMILES IDX 52 48 37 49 51 50 38 51 41 52 50 53 64 54 39 55 40 56 49 58
REMARK SMILES IDX 65 59 42 60 31 61 32 62 36 63 33 64 35 65 34 66 53 67 54 68
REMARK SMILES IDX 58 69 55 70 57 71 56 72 43 73 44 74 48 75 45 76 47 77 46 78
REMARK H PARENT 14 4 10 7 10 8 19 27 63 46 41 57
REMARK Flexibility Score: inf
ROOT
ATOM      1  C   UNL     1       4.441  -4.279   2.691  1.00  0.00     0.275 C 
ATOM      2  O   UNL     1       3.922  -5.389   2.548  1.00  0.00    -0.269 OA
ATOM      3  N   UNL     1       3.738  -3.343   3.405  1.00  0.00    -0.351 N 
ATOM      4  H   UNL     1       2.921  -3.687   3.832  1.00  0.00     0.163 HD
ENDROOT
BRANCH   1   5
ATOM      5  C   UNL     1       5.810  -3.956   2.048  1.00  0.00     0.362 C 
BRANCH   5   6
ATOM      6  N   UNL     1       5.714  -3.547   0.614  1.00  0.00    -0.335 N 
ATOM      7  H   UNL     1       6.648  -3.385   0.236  1.00  0.00     0.347 HD
ATOM      8  H   UNL     1       5.268  -4.280   0.063  1.00  0.00     0.347 HD
BRANCH   6   9
ATOM      9  C   UNL     1       4.940  -2.327   0.554  1.00  0.00     0.301 C 
BRANCH   9  10
ATOM     10  C   UNL     1       4.745  -1.686  -0.763  1.00  0.00     0.048 A 
ATOM     11  C   UNL     1       3.588  -0.366  -2.167  1.00  0.00     0.212 A 
ATOM     12  C   UNL     1       3.458  -1.452  -1.325  1.00  0.00     0.068 A 
ATOM     13  O   UNL     1       4.918  -0.110  -2.363  1.00  0.00    -0.454 OA
ATOM     14  C   UNL     1       5.618  -0.911  -1.502  1.00  0.00     0.110 A 
ATOM     15  C   UNL     1       7.072  -0.659  -1.423  1.00  0.00     0.088 C 
BRANCH  11  16
ATOM     16  C   UNL     1       2.587   0.570  -2.631  1.00  0.00     0.374 C 
ATOM     17  O   UNL     1       2.775   1.634  -3.203  1.00  0.00    -0.242 OA
BRANCH  16  18
ATOM     18  O   UNL     1       1.376   0.166  -2.139  1.00  0.00    -0.460 OA
BRANCH  18  19
ATOM     19  C   UNL     1       0.613   1.173  -1.464  1.00  0.00     0.230 C 
ATOM     20  C   UNL     1       0.542   0.759  -0.001  1.00  0.00     0.049 C 
ENDBRANCH  18  19
ENDBRANCH  16  18
ENDBRANCH  11  16
ENDBRANCH   9  10
ENDBRANCH   6   9
ENDBRANCH   5   6
ENDBRANCH   1   5
BRANCH   3  21
ATOM     21  C   UNL     1       3.990  -1.928   3.640  1.00  0.00     0.116 C 
BRANCH  21  22
ATOM     22  C   UNL     1       3.018  -1.029   2.857  1.00  0.00     0.023 C 
BRANCH  22  23
ATOM     23  C   UNL     1       1.633  -0.886   3.470  1.00  0.00     0.023 C 
BRANCH  23  24
ATOM     24  C   UNL     1       1.600  -0.037   4.725  1.00  0.00     0.116 C 
BRANCH  24  25
ATOM     25  N   UNL     1       2.047   1.333   4.505  1.00  0.00    -0.352 N 
ATOM     26  C   UNL     1       1.463   2.511   4.905  1.00  0.00     0.251 C 
ATOM     27  H   UNL     1       2.886   1.428   3.998  1.00  0.00     0.163 HD
ATOM     28  O   UNL     1       1.917   3.588   4.536  1.00  0.00    -0.269 OA
BRANCH  26  29
ATOM     29  C   UNL     1       0.254   2.461   5.750  1.00  0.00     0.039 A 
ATOM     30  C   UNL     1      -0.837   3.269   5.426  1.00  0.00     0.014 A 
ATOM     31  C   UNL     1       0.178   1.561   6.815  1.00  0.00     0.014 A 
ATOM     32  C   UNL     1      -2.037   3.108   6.119  1.00  0.00     0.010 A 
ATOM     33  C   UNL     1      -1.046   1.320   7.420  1.00  0.00     0.010 A 
ATOM     34  C   UNL     1      -2.163   2.099   7.088  1.00  0.00    -0.014 A 
BRANCH  34  35
ATOM     35  C   UNL     1      -3.444   1.848   7.791  1.00  0.00     0.031 A 
ATOM     36  C   UNL     1      -3.510   1.982   9.287  1.00  0.00     0.074 A 
ATOM     37  C   UNL     1      -4.517   1.418   7.099  1.00  0.00     0.049 A 
ATOM     38  N   UNL     1      -4.503   1.723  10.097  1.00  0.00    -0.248 NA
ATOM     39  C   UNL     1      -2.282   2.427   9.968  1.00  0.00     0.031 C 
ATOM     40  C   UNL     1      -4.563   1.188   5.653  1.00  0.00     0.029 A 
ATOM     41  N   UNL     1      -5.778   1.089   7.527  1.00  0.00    -0.354 N 
ATOM     42  C   UNL     1      -4.009   1.940  11.377  1.00  0.00     0.074 A 
ATOM     43  C   UNL     1      -2.614   2.291  11.242  1.00  0.00     0.031 C 
ATOM     44  C   UNL     1      -5.800   0.794   5.310  1.00  0.00     0.029 A 
ATOM     45  C   UNL     1      -6.620   0.703   6.513  1.00  0.00     0.049 A 
ATOM     46  H   UNL     1      -6.053   1.127   8.471  1.00  0.00     0.167 HD
ATOM     47  C   UNL     1      -4.664   1.882  12.560  1.00  0.00     0.031 A 
ATOM     48  C   UNL     1      -7.910   0.320   6.550  1.00  0.00     0.031 A 
ATOM     49  C   UNL     1      -6.059   1.568  12.690  1.00  0.00     0.049 A 
ATOM     50  C   UNL     1      -8.625   0.287   7.872  1.00  0.00     0.074 A 
ATOM     51  C   UNL     1      -6.839   1.556  13.832  1.00  0.00     0.029 A 
ATOM     52  N   UNL     1      -6.886   1.213  11.634  1.00  0.00    -0.354 N 
ATOM     53  N   UNL     1      -8.164   0.569   9.066  1.00  0.00    -0.248 NA
ATOM     54  C   UNL     1     -10.040  -0.105   7.847  1.00  0.00     0.031 C 
ATOM     55  C   UNL     1      -8.129   1.152  13.473  1.00  0.00     0.029 A 
ATOM     56  C   UNL     1      -8.164   0.962  12.101  1.00  0.00     0.049 A 
ATOM     57  H   UNL     1      -6.604   1.150  10.693  1.00  0.00     0.167 HD
ATOM     58  C   UNL     1      -9.238   0.414   9.932  1.00  0.00     0.074 A 
ATOM     59  C   UNL     1     -10.376   0.029   9.123  1.00  0.00     0.031 C 
ATOM     60  C   UNL     1      -9.280   0.578  11.277  1.00  0.00     0.031 A 
BRANCH  47  61
ATOM     61  C   UNL     1      -3.866   2.168  13.802  1.00  0.00    -0.014 A 
ATOM     62  C   UNL     1      -3.376   3.456  14.074  1.00  0.00     0.009 A 
ATOM     63  C   UNL     1      -3.604   1.136  14.716  1.00  0.00     0.009 A 
ATOM     64  C   UNL     1      -2.600   3.694  15.210  1.00  0.00     0.001 A 
ATOM     65  C   UNL     1      -2.855   1.384  15.868  1.00  0.00     0.001 A 
ATOM     66  C   UNL     1      -2.344   2.658  16.108  1.00  0.00     0.000 A 
ENDBRANCH  47  61
BRANCH  48  67
ATOM     67  C   UNL     1      -8.619  -0.029   5.291  1.00  0.00    -0.014 A 
ATOM     68  C   UNL     1      -9.590   0.835   4.762  1.00  0.00     0.009 A 
ATOM     69  C   UNL     1      -8.325  -1.219   4.608  1.00  0.00     0.009 A 
ATOM     70  C   UNL     1     -10.270   0.502   3.588  1.00  0.00     0.001 A 
ATOM     71  C   UNL     1      -8.987  -1.536   3.420  1.00  0.00     0.001 A 
ATOM     72  C   UNL     1      -9.965  -0.680   2.916  1.00  0.00     0.000 A 
ENDBRANCH  48  67
BRANCH  60  73
ATOM     73  C   UNL     1     -10.606   0.370  11.951  1.00  0.00    -0.014 A 
ATOM     74  C   UNL     1     -11.146  -0.914  12.117  1.00  0.00     0.009 A 
ATOM     75  C   UNL     1     -11.301   1.475  12.468  1.00  0.00     0.009 A 
ATOM     76  C   UNL     1     -12.373  -1.084  12.761  1.00  0.00     0.001 A 
ATOM     77  C   UNL     1     -12.513   1.299  13.136  1.00  0.00     0.001 A 
ATOM     78  C   UNL     1     -13.052   0.021  13.274  1.00  0.00     0.000 A 
ENDBRANCH  60  73
ENDBRANCH  34  35
ENDBRANCH  26  29
ENDBRANCH  24  25
ENDBRANCH  23  24
ENDBRANCH  22  23
ENDBRANCH  21  22
ENDBRANCH   3  21
TORSDOF 17
