REMARK SMILES CCc1ccc(C(=O)NC[C@@H](CC(C)C)C(=O)NCCCCNC(=O)c2ccc(-c3c4nc(c(-c5ccccc5)c5ccc([nH]5)c(-c5ccccc5)c5nc(c(-c6ccccc6)c6ccc3[nH]6)C=C5)C=C4)cc2)s1
REMARK SMILES IDX 19 1 18 2 16 3 17 4 11 6 10 7 9 8 7 9 8 10 6 12 3 13 4 14
REMARK SMILES IDX 74 15 5 16 2 17 1 18 12 19 13 20 14 21 15 22 20 23 21 24
REMARK SMILES IDX 22 25 23 26 24 27 25 29 26 30 27 31 73 32 28 33 72 34 29 35
REMARK SMILES IDX 30 36 31 37 66 38 32 39 71 40 65 41 67 42 33 43 70 44 64 45
REMARK SMILES IDX 63 46 34 48 56 49 41 50 55 51 42 52 45 53 54 54 68 55 43 56
REMARK SMILES IDX 44 57 53 59 69 60 46 61 35 62 36 63 40 64 37 65 39 66 38 67
REMARK SMILES IDX 57 68 58 69 62 70 59 71 61 72 60 73 47 74 48 75 52 76 49 77
REMARK SMILES IDX 51 78 50 79
REMARK H PARENT 18 5 9 11 23 28 67 47 45 58
REMARK Flexibility Score: inf
ROOT
ATOM      1  C   UNL     1      -1.032   8.942  -0.417  1.00  0.00     0.116 C 
ENDROOT
BRANCH   1   2
ATOM      2  N   UNL     1      -0.539   8.599   0.901  1.00  0.00    -0.356 N 
ATOM      3  C   UNL     1       0.718   8.360   1.358  1.00  0.00     0.224 C 
ATOM      4  O   UNL     1       0.851   8.266   2.583  1.00  0.00    -0.275 OA
ATOM      5  H   UNL     1      -1.239   8.527   1.589  1.00  0.00     0.163 HD
BRANCH   3   6
ATOM      6  C   UNL     1       1.939   8.222   0.453  1.00  0.00     0.098 C 
BRANCH   6   7
ATOM      7  C   UNL     1       1.702   7.352  -0.790  1.00  0.00     0.129 C 
BRANCH   7   8
ATOM      8  N   UNL     1       2.837   6.506  -1.115  1.00  0.00    -0.351 N 
ATOM      9  C   UNL     1       3.012   5.143  -1.036  1.00  0.00     0.261 C 
ATOM     10  O   UNL     1       4.015   4.721  -1.620  1.00  0.00    -0.268 OA
ATOM     11  H   UNL     1       3.622   6.995  -1.452  1.00  0.00     0.163 HD
BRANCH   9  12
ATOM     12  C   UNL     1       2.081   4.280  -0.315  1.00  0.00     0.092 A 
ATOM     13  C   UNL     1       0.951   2.203   0.510  1.00  0.00     0.005 A 
ATOM     14  C   UNL     1       0.508   3.344   1.150  1.00  0.00     0.016 A 
ATOM     15  S   UNL     1       2.113   2.595  -0.679  1.00  0.00    -0.135 S 
ATOM     16  C   UNL     1       1.173   4.525   0.698  1.00  0.00     0.026 A 
BRANCH  13  17
ATOM     17  C   UNL     1       0.531   0.789   0.826  1.00  0.00     0.043 C 
ATOM     18  C   UNL     1       0.988  -0.291  -0.143  1.00  0.00     0.010 C 
ENDBRANCH  13  17
ENDBRANCH   9  12
ENDBRANCH   7   8
ENDBRANCH   6   7
BRANCH   6  19
ATOM     19  C   UNL     1       2.683   9.553   0.175  1.00  0.00     0.018 C 
BRANCH  19  20
ATOM     20  C   UNL     1       1.894  10.690  -0.508  1.00  0.00    -0.017 C 
ATOM     21  C   UNL     1       1.205  11.603   0.513  1.00  0.00     0.007 C 
ATOM     22  C   UNL     1       2.816  11.553  -1.377  1.00  0.00     0.007 C 
ENDBRANCH  19  20
ENDBRANCH   6  19
ENDBRANCH   3   6
ENDBRANCH   1   2
BRANCH   1  23
ATOM     23  C   UNL     1      -2.458   8.469  -0.661  1.00  0.00     0.023 C 
BRANCH  23  24
ATOM     24  C   UNL     1      -3.523   9.209   0.146  1.00  0.00     0.023 C 
BRANCH  24  25
ATOM     25  C   UNL     1      -3.441  10.732   0.103  1.00  0.00     0.116 C 
BRANCH  25  26
ATOM     26  N   UNL     1      -3.432  11.273  -1.250  1.00  0.00    -0.352 N 
ATOM     27  C   UNL     1      -4.272  12.190  -1.834  1.00  0.00     0.251 C 
ATOM     28  H   UNL     1      -2.716  10.931  -1.833  1.00  0.00     0.163 HD
ATOM     29  O   UNL     1      -4.173  12.445  -3.030  1.00  0.00    -0.269 OA
BRANCH  27  30
ATOM     30  C   UNL     1      -5.324  12.833  -1.024  1.00  0.00     0.039 A 
ATOM     31  C   UNL     1      -6.635  12.835  -1.504  1.00  0.00     0.014 A 
ATOM     32  C   UNL     1      -5.024  13.387   0.223  1.00  0.00     0.014 A 
ATOM     33  C   UNL     1      -7.663  13.312  -0.690  1.00  0.00     0.010 A 
ATOM     34  C   UNL     1      -6.058  13.784   1.063  1.00  0.00     0.010 A 
ATOM     35  C   UNL     1      -7.388  13.743   0.619  1.00  0.00    -0.014 A 
BRANCH  35  36
ATOM     36  C   UNL     1      -8.482  14.134   1.542  1.00  0.00     0.031 A 
ATOM     37  C   UNL     1      -8.569  15.541   2.064  1.00  0.00     0.074 A 
ATOM     38  C   UNL     1      -9.361  13.203   1.963  1.00  0.00     0.049 A 
ATOM     39  N   UNL     1      -9.427  16.055   2.908  1.00  0.00    -0.248 NA
ATOM     40  C   UNL     1      -7.542  16.487   1.597  1.00  0.00     0.031 C 
ATOM     41  C   UNL     1      -9.358  11.791   1.572  1.00  0.00     0.029 A 
ATOM     42  N   UNL     1     -10.431  13.307   2.816  1.00  0.00    -0.354 N 
ATOM     43  C   UNL     1      -9.035  17.375   3.085  1.00  0.00     0.074 A 
ATOM     44  C   UNL     1      -7.833  17.569   2.303  1.00  0.00     0.031 C 
ATOM     45  C   UNL     1     -10.396  11.171   2.156  1.00  0.00     0.029 A 
ATOM     46  C   UNL     1     -11.115  12.128   2.989  1.00  0.00     0.049 A 
ATOM     47  H   UNL     1     -10.684  14.147   3.263  1.00  0.00     0.167 HD
ATOM     48  C   UNL     1      -9.633  18.348   3.813  1.00  0.00     0.031 A 
ATOM     49  C   UNL     1     -12.201  11.849   3.733  1.00  0.00     0.031 A 
ATOM     50  C   UNL     1     -10.834  18.162   4.582  1.00  0.00     0.049 A 
ATOM     51  C   UNL     1     -12.844  12.945   4.535  1.00  0.00     0.074 A 
ATOM     52  C   UNL     1     -11.547  19.100   5.308  1.00  0.00     0.029 A 
ATOM     53  N   UNL     1     -11.500  16.955   4.723  1.00  0.00    -0.354 N 
ATOM     54  N   UNL     1     -12.501  14.206   4.636  1.00  0.00    -0.248 NA
ATOM     55  C   UNL     1     -14.034  12.579   5.316  1.00  0.00     0.031 C 
ATOM     56  C   UNL     1     -12.621  18.451   5.924  1.00  0.00     0.029 A 
ATOM     57  C   UNL     1     -12.605  17.119   5.540  1.00  0.00     0.049 A 
ATOM     58  H   UNL     1     -11.228  16.107   4.304  1.00  0.00     0.167 HD
ATOM     59  C   UNL     1     -13.446  14.790   5.469  1.00  0.00     0.074 A 
ATOM     60  C   UNL     1     -14.386  13.749   5.832  1.00  0.00     0.031 C 
ATOM     61  C   UNL     1     -13.529  16.073   5.894  1.00  0.00     0.031 A 
BRANCH  48  62
ATOM     62  C   UNL     1      -8.987  19.705   3.810  1.00  0.00    -0.014 A 
ATOM     63  C   UNL     1      -9.009  20.516   2.663  1.00  0.00     0.009 A 
ATOM     64  C   UNL     1      -8.371  20.191   4.973  1.00  0.00     0.009 A 
ATOM     65  C   UNL     1      -8.395  21.769   2.671  1.00  0.00     0.001 A 
ATOM     66  C   UNL     1      -7.783  21.457   4.987  1.00  0.00     0.001 A 
ATOM     67  C   UNL     1      -7.786  22.240   3.833  1.00  0.00     0.000 A 
ENDBRANCH  48  62
BRANCH  49  68
ATOM     68  C   UNL     1     -12.770  10.477   3.736  1.00  0.00    -0.014 A 
ATOM     69  C   UNL     1     -13.990  10.215   3.095  1.00  0.00     0.009 A 
ATOM     70  C   UNL     1     -12.104   9.426   4.385  1.00  0.00     0.009 A 
ATOM     71  C   UNL     1     -14.546   8.934   3.126  1.00  0.00     0.001 A 
ATOM     72  C   UNL     1     -12.649   8.140   4.392  1.00  0.00     0.001 A 
ATOM     73  C   UNL     1     -13.874   7.897   3.771  1.00  0.00     0.000 A 
ENDBRANCH  49  68
BRANCH  61  74
ATOM     74  C   UNL     1     -14.693  16.428   6.774  1.00  0.00    -0.014 A 
ATOM     75  C   UNL     1     -14.754  16.002   8.110  1.00  0.00     0.009 A 
ATOM     76  C   UNL     1     -15.729  17.228   6.266  1.00  0.00     0.009 A 
ATOM     77  C   UNL     1     -15.847  16.341   8.909  1.00  0.00     0.001 A 
ATOM     78  C   UNL     1     -16.807  17.588   7.075  1.00  0.00     0.001 A 
ATOM     79  C   UNL     1     -16.870  17.137   8.393  1.00  0.00     0.000 A 
ENDBRANCH  61  74
ENDBRANCH  35  36
ENDBRANCH  27  30
ENDBRANCH  25  26
ENDBRANCH  24  25
ENDBRANCH  23  24
ENDBRANCH   1  23
TORSDOF 17
