REMARK SMILES NC(=O)c1ccc(NC(=O)Cc2ccccc2C(=O)NCCCCNC(=O)c2ccc(-c3c4nc(c(-c5ccccc5)c5ccc([nH]5)c(-c5ccccc5)c5nc(c(-c6ccccc6)c6ccc3[nH]6)C=C5)C=C4)cc2)cc1
REMARK SMILES IDX 21 1 20 2 18 3 19 4 17 6 12 7 13 8 14 9 16 10 15 11 11 12
REMARK SMILES IDX 9 13 8 14 10 16 7 17 4 18 5 19 77 20 6 21 76 22 2 23 1 24
REMARK SMILES IDX 3 27 22 28 23 29 24 30 25 31 26 32 27 34 28 35 29 36 75 37
REMARK SMILES IDX 30 38 74 39 31 40 32 41 33 42 68 43 34 44 73 45 67 46 69 47
REMARK SMILES IDX 35 48 72 49 66 50 65 51 36 53 58 54 43 55 57 56 44 57 47 58
REMARK SMILES IDX 56 59 70 60 45 61 46 62 55 64 71 65 48 66 37 67 38 68 42 69
REMARK SMILES IDX 39 70 41 71 40 72 59 73 60 74 64 75 61 76 63 77 62 78 49 79
REMARK SMILES IDX 50 80 54 81 51 82 53 83 52 84
REMARK H PARENT 20 5 8 15 1 25 1 26 25 33 69 52 47 63
REMARK Flexibility Score: inf
ROOT
ATOM      1  C   UNL     1       2.192  -2.143  -9.412  1.00  0.00     0.116 C 
ENDROOT
BRANCH   1   2
ATOM      2  N   UNL     1       2.179  -3.405  -8.696  1.00  0.00    -0.352 N 
ATOM      3  C   UNL     1       1.305  -4.004  -7.818  1.00  0.00     0.251 C 
ATOM      4  O   UNL     1       1.466  -5.210  -7.609  1.00  0.00    -0.269 OA
ATOM      5  H   UNL     1       2.974  -3.956  -8.879  1.00  0.00     0.163 HD
BRANCH   3   6
ATOM      6  C   UNL     1       0.156  -3.326  -7.135  1.00  0.00     0.043 A 
ATOM      7  C   UNL     1       0.173  -2.063  -6.513  1.00  0.00    -0.026 A 
ATOM      8  C   UNL     1      -1.023  -1.537  -5.982  1.00  0.00     0.005 A 
ATOM      9  C   UNL     1      -2.160  -2.322  -5.855  1.00  0.00     0.000 A 
ATOM     10  C   UNL     1      -1.000  -4.115  -6.973  1.00  0.00     0.014 A 
ATOM     11  C   UNL     1      -2.133  -3.631  -6.309  1.00  0.00     0.001 A 
BRANCH   7  12
ATOM     12  C   UNL     1       1.415  -1.247  -6.316  1.00  0.00     0.136 C 
BRANCH  12  13
ATOM     13  C   UNL     1       2.571  -2.001  -5.668  1.00  0.00     0.228 C 
ATOM     14  N   UNL     1       2.701  -2.163  -4.327  1.00  0.00    -0.326 N 
ATOM     15  H   UNL     1       3.451  -2.757  -4.091  1.00  0.00     0.169 HD
ATOM     16  O   UNL     1       3.473  -2.516  -6.339  1.00  0.00    -0.274 OA
BRANCH  14  17
ATOM     17  C   UNL     1       2.023  -1.687  -3.202  1.00  0.00     0.041 A 
ATOM     18  C   UNL     1       0.844  -0.792  -0.823  1.00  0.00     0.039 A 
ATOM     19  C   UNL     1       0.345  -0.370  -2.046  1.00  0.00     0.016 A 
ATOM     20  C   UNL     1       1.923  -1.675  -0.770  1.00  0.00     0.016 A 
ATOM     21  C   UNL     1       0.949  -0.804  -3.221  1.00  0.00     0.027 A 
ATOM     22  C   UNL     1       2.503  -2.125  -1.960  1.00  0.00     0.027 A 
BRANCH  18  23
ATOM     23  C   UNL     1       0.205  -0.245   0.387  1.00  0.00     0.248 C 
ATOM     24  N   UNL     1       1.063   0.230   1.338  1.00  0.00    -0.366 N 
ATOM     25  H   UNL     1       0.709   0.611   2.174  1.00  0.00     0.159 HD
ATOM     26  H   UNL     1       2.035   0.191   1.188  1.00  0.00     0.159 HD
ATOM     27  O   UNL     1      -1.002  -0.154   0.487  1.00  0.00    -0.270 OA
ENDBRANCH  18  23
ENDBRANCH  14  17
ENDBRANCH  12  13
ENDBRANCH   7  12
ENDBRANCH   3   6
ENDBRANCH   1   2
BRANCH   1  28
ATOM     28  C   UNL     1       3.292  -1.147  -9.009  1.00  0.00     0.023 C 
BRANCH  28  29
ATOM     29  C   UNL     1       4.742  -1.600  -9.116  1.00  0.00     0.023 C 
BRANCH  29  30
ATOM     30  C   UNL     1       5.428  -0.942 -10.288  1.00  0.00     0.116 C 
BRANCH  30  31
ATOM     31  N   UNL     1       5.361   0.522 -10.266  1.00  0.00    -0.352 N 
ATOM     32  C   UNL     1       6.130   1.412 -10.974  1.00  0.00     0.251 C 
ATOM     33  H   UNL     1       4.683   0.915  -9.670  1.00  0.00     0.163 HD
ATOM     34  O   UNL     1       5.978   2.622 -10.868  1.00  0.00    -0.269 OA
BRANCH  32  35
ATOM     35  C   UNL     1       7.219   0.852 -11.790  1.00  0.00     0.039 A 
ATOM     36  C   UNL     1       8.523   1.263 -11.518  1.00  0.00     0.014 A 
ATOM     37  C   UNL     1       6.957  -0.218 -12.644  1.00  0.00     0.014 A 
ATOM     38  C   UNL     1       9.581   0.529 -12.042  1.00  0.00     0.010 A 
ATOM     39  C   UNL     1       8.005  -1.027 -13.040  1.00  0.00     0.010 A 
ATOM     40  C   UNL     1       9.326  -0.650 -12.759  1.00  0.00    -0.014 A 
BRANCH  40  41
ATOM     41  C   UNL     1      10.427  -1.489 -13.276  1.00  0.00     0.031 A 
ATOM     42  C   UNL     1      10.543  -1.699 -14.759  1.00  0.00     0.074 A 
ATOM     43  C   UNL     1      11.266  -2.099 -12.417  1.00  0.00     0.049 A 
ATOM     44  N   UNL     1      11.386  -2.444 -15.422  1.00  0.00    -0.248 NA
ATOM     45  C   UNL     1       9.551  -1.013 -15.609  1.00  0.00     0.031 C 
ATOM     46  C   UNL     1      11.204  -2.013 -10.955  1.00  0.00     0.029 A 
ATOM     47  N   UNL     1      12.341  -2.915 -12.655  1.00  0.00    -0.354 N 
ATOM     48  C   UNL     1      11.007  -2.336 -16.753  1.00  0.00     0.074 A 
ATOM     49  C   UNL     1       9.818  -1.520 -16.800  1.00  0.00     0.031 C 
ATOM     50  C   UNL     1      12.226  -2.709 -10.430  1.00  0.00     0.029 A 
ATOM     51  C   UNL     1      12.987  -3.321 -11.512  1.00  0.00     0.049 A 
ATOM     52  H   UNL     1      12.623  -3.184 -13.558  1.00  0.00     0.167 HD
ATOM     53  C   UNL     1      11.619  -2.842 -17.847  1.00  0.00     0.031 A 
ATOM     54  C   UNL     1      14.075  -4.099 -11.364  1.00  0.00     0.031 A 
ATOM     55  C   UNL     1      12.823  -3.619 -17.792  1.00  0.00     0.049 A 
ATOM     56  C   UNL     1      14.746  -4.638 -12.598  1.00  0.00     0.074 A 
ATOM     57  C   UNL     1      13.571  -4.127 -18.838  1.00  0.00     0.029 A 
ATOM     58  N   UNL     1      13.459  -3.993 -16.618  1.00  0.00    -0.354 N 
ATOM     59  N   UNL     1      14.422  -4.464 -13.857  1.00  0.00    -0.248 NA
ATOM     60  C   UNL     1      15.938  -5.471 -12.390  1.00  0.00     0.031 C 
ATOM     61  C   UNL     1      14.639  -4.847 -18.294  1.00  0.00     0.029 A 
ATOM     62  C   UNL     1      14.582  -4.744 -16.912  1.00  0.00     0.049 A 
ATOM     63  H   UNL     1      13.156  -3.759 -15.711  1.00  0.00     0.167 HD
ATOM     64  C   UNL     1      15.381  -5.147 -14.592  1.00  0.00     0.074 A 
ATOM     65  C   UNL     1      16.311  -5.718 -13.638  1.00  0.00     0.031 C 
ATOM     66  C   UNL     1      15.486  -5.295 -15.936  1.00  0.00     0.031 A 
BRANCH  53  67
ATOM     67  C   UNL     1      10.994  -2.554 -19.182  1.00  0.00    -0.014 A 
ATOM     68  C   UNL     1      10.992  -1.255 -19.719  1.00  0.00     0.009 A 
ATOM     69  C   UNL     1      10.404  -3.593 -19.916  1.00  0.00     0.009 A 
ATOM     70  C   UNL     1      10.379  -0.997 -20.946  1.00  0.00     0.001 A 
ATOM     71  C   UNL     1       9.819  -3.337 -21.158  1.00  0.00     0.001 A 
ATOM     72  C   UNL     1       9.797  -2.039 -21.666  1.00  0.00     0.000 A 
ENDBRANCH  53  67
BRANCH  54  73
ATOM     73  C   UNL     1      14.613  -4.392 -10.010  1.00  0.00    -0.014 A 
ATOM     74  C   UNL     1      15.837  -3.843  -9.595  1.00  0.00     0.009 A 
ATOM     75  C   UNL     1      13.914  -5.229  -9.126  1.00  0.00     0.009 A 
ATOM     76  C   UNL     1      16.363  -4.151  -8.338  1.00  0.00     0.001 A 
ATOM     77  C   UNL     1      14.428  -5.512  -7.859  1.00  0.00     0.001 A 
ATOM     78  C   UNL     1      15.657  -4.981  -7.470  1.00  0.00     0.000 A 
ENDBRANCH  54  73
BRANCH  66  79
ATOM     79  C   UNL     1      16.657  -6.081 -16.446  1.00  0.00    -0.014 A 
ATOM     80  C   UNL     1      16.705  -7.477 -16.313  1.00  0.00     0.009 A 
ATOM     81  C   UNL     1      17.698  -5.420 -17.115  1.00  0.00     0.009 A 
ATOM     82  C   UNL     1      17.792  -8.193 -16.815  1.00  0.00     0.001 A 
ATOM     83  C   UNL     1      18.768  -6.142 -17.642  1.00  0.00     0.001 A 
ATOM     84  C   UNL     1      18.818  -7.526 -17.484  1.00  0.00     0.000 A 
ENDBRANCH  66  79
ENDBRANCH  40  41
ENDBRANCH  32  35
ENDBRANCH  30  31
ENDBRANCH  29  30
ENDBRANCH  28  29
ENDBRANCH   1  28
TORSDOF 15
