REMARK SMILES COc1ccccc1[C@@H]1CN(C(=O)c2cnn3ccccc23)C[C@H]1C(=O)NCCCCNC(=O)c1ccc(-c2c3nc(c(-c4ccccc4)c4ccc([nH]4)c(-c4ccccc4)c4nc(c(-c5ccccc5)c5ccc2[nH]5)C=C4)C=C3)cc1
REMARK SMILES IDX 29 1 28 2 27 3 25 4 26 5 24 7 9 8 10 9 11 10 23 11 8 12 3 13
REMARK SMILES IDX 4 14 5 15 7 16 6 17 2 18 1 19 12 20 13 21 14 22 15 23 22 24
REMARK SMILES IDX 16 25 17 26 21 27 18 28 20 29 19 30 30 31 31 32 32 33 33 34
REMARK SMILES IDX 34 36 35 37 36 38 82 39 37 40 81 41 38 42 39 43 40 44 75 45
REMARK SMILES IDX 41 46 80 47 74 48 76 49 42 50 79 51 73 52 72 53 43 55 65 56
REMARK SMILES IDX 50 57 64 58 51 59 54 60 63 61 77 62 52 63 53 64 62 66 78 67
REMARK SMILES IDX 55 68 44 69 45 70 49 71 46 72 48 73 47 74 66 75 67 76 71 77
REMARK SMILES IDX 68 78 70 79 69 80 56 81 57 82 61 83 58 84 60 85 59 86
REMARK H PARENT 27 6 32 35 76 54 54 65
REMARK Flexibility Score: inf
ROOT
ATOM      1  C   UNL     1       6.382  -1.165  -3.057  1.00  0.00     0.023 C 
ENDROOT
BRANCH   1   2
ATOM      2  C   UNL     1       5.965  -0.011  -2.145  1.00  0.00     0.116 C 
BRANCH   2   3
ATOM      3  N   UNL     1       4.808   0.694  -2.655  1.00  0.00    -0.356 N 
ATOM      4  C   UNL     1       3.535   0.786  -2.194  1.00  0.00     0.225 C 
ATOM      5  O   UNL     1       2.753   1.470  -2.863  1.00  0.00    -0.275 OA
ATOM      6  H   UNL     1       4.974   1.197  -3.485  1.00  0.00     0.163 HD
BRANCH   4   7
ATOM      7  C   UNL     1       3.055   0.123  -0.915  1.00  0.00     0.107 C 
ATOM      8  C   UNL     1       3.120  -1.418  -0.899  1.00  0.00     0.057 C 
ATOM      9  C   UNL     1       3.431  -1.760   0.557  1.00  0.00     0.129 C 
ATOM     10  N   UNL     1       4.258  -0.644   0.985  1.00  0.00    -0.337 N 
ATOM     11  C   UNL     1       3.833   0.579   0.324  1.00  0.00     0.134 C 
BRANCH   8  12
ATOM     12  C   UNL     1       1.952  -2.160  -1.508  1.00  0.00    -0.000 A 
ATOM     13  C   UNL     1       0.670  -2.252  -0.943  1.00  0.00     0.122 A 
ATOM     14  C   UNL     1      -0.334  -3.002  -1.567  1.00  0.00     0.047 A 
ATOM     15  C   UNL     1      -0.073  -3.684  -2.755  1.00  0.00     0.004 A 
ATOM     16  C   UNL     1       2.190  -2.859  -2.711  1.00  0.00     0.008 A 
ATOM     17  C   UNL     1       1.195  -3.623  -3.321  1.00  0.00     0.001 A 
BRANCH  13  18
ATOM     18  O   UNL     1       0.399  -1.804   0.321  1.00  0.00    -0.496 OA
ATOM     19  C   UNL     1      -0.043  -0.451   0.372  1.00  0.00     0.278 C 
ENDBRANCH  13  18
ENDBRANCH   8  12
BRANCH  10  20
ATOM     20  C   UNL     1       5.209  -0.632   1.989  1.00  0.00     0.257 C 
ATOM     21  O   UNL     1       5.675   0.415   2.427  1.00  0.00    -0.269 OA
BRANCH  20  22
ATOM     22  C   UNL     1       5.639  -1.916   2.500  1.00  0.00     0.085 A 
ATOM     23  C   UNL     1       5.602  -2.364   3.833  1.00  0.00     0.150 A 
ATOM     24  C   UNL     1       6.236  -2.959   1.816  1.00  0.00     0.079 A 
ATOM     25  N   UNL     1       6.034  -3.618   3.979  1.00  0.00    -0.176 NA
ATOM     26  N   UNL     1       6.412  -3.999   2.733  1.00  0.00    -0.240 N 
ATOM     27  C   UNL     1       6.655  -3.182   0.470  1.00  0.00     0.029 A 
ATOM     28  C   UNL     1       6.902  -5.248   2.344  1.00  0.00     0.113 A 
ATOM     29  C   UNL     1       7.129  -4.389   0.108  1.00  0.00     0.004 A 
ATOM     30  C   UNL     1       7.247  -5.474   1.065  1.00  0.00     0.020 A 
ENDBRANCH  20  22
ENDBRANCH  10  20
ENDBRANCH   4   7
ENDBRANCH   2   3
ENDBRANCH   1   2
BRANCH   1  31
ATOM     31  C   UNL     1       6.848  -0.764  -4.462  1.00  0.00     0.023 C 
BRANCH  31  32
ATOM     32  C   UNL     1       8.028   0.197  -4.485  1.00  0.00     0.116 C 
BRANCH  32  33
ATOM     33  N   UNL     1       9.215  -0.355  -3.840  1.00  0.00    -0.352 N 
ATOM     34  C   UNL     1      10.408   0.292  -3.580  1.00  0.00     0.251 C 
ATOM     35  H   UNL     1       9.159  -1.296  -3.558  1.00  0.00     0.163 HD
ATOM     36  O   UNL     1      11.439  -0.330  -3.396  1.00  0.00    -0.269 OA
BRANCH  34  37
ATOM     37  C   UNL     1      10.400   1.764  -3.523  1.00  0.00     0.039 A 
ATOM     38  C   UNL     1      11.355   2.513  -4.213  1.00  0.00     0.014 A 
ATOM     39  C   UNL     1       9.385   2.383  -2.796  1.00  0.00     0.014 A 
ATOM     40  C   UNL     1      11.227   3.899  -4.237  1.00  0.00     0.010 A 
ATOM     41  C   UNL     1       9.196   3.739  -2.909  1.00  0.00     0.010 A 
ATOM     42  C   UNL     1      10.130   4.505  -3.602  1.00  0.00    -0.014 A 
BRANCH  42  43
ATOM     43  C   UNL     1       9.872   5.930  -3.780  1.00  0.00     0.031 A 
ATOM     44  C   UNL     1       9.710   6.362  -5.197  1.00  0.00     0.074 A 
ATOM     45  C   UNL     1       9.564   6.758  -2.760  1.00  0.00     0.049 A 
ATOM     46  N   UNL     1      10.481   7.145  -5.875  1.00  0.00    -0.248 NA
ATOM     47  C   UNL     1       8.625   5.761  -5.991  1.00  0.00     0.031 C 
ATOM     48  C   UNL     1       9.352   6.418  -1.348  1.00  0.00     0.029 A 
ATOM     49  N   UNL     1       9.246   8.081  -2.798  1.00  0.00    -0.354 N 
ATOM     50  C   UNL     1       9.880   7.297  -7.122  1.00  0.00     0.074 A 
ATOM     51  C   UNL     1       8.843   6.299  -7.193  1.00  0.00     0.031 C 
ATOM     52  C   UNL     1       8.712   7.435  -0.730  1.00  0.00     0.029 A 
ATOM     53  C   UNL     1       8.627   8.555  -1.648  1.00  0.00     0.049 A 
ATOM     54  H   UNL     1       9.439   8.654  -3.575  1.00  0.00     0.167 HD
ATOM     55  C   UNL     1      10.121   8.392  -7.897  1.00  0.00     0.031 A 
ATOM     56  C   UNL     1       8.057   9.773  -1.473  1.00  0.00     0.031 A 
ATOM     57  C   UNL     1      11.262   9.134  -7.424  1.00  0.00     0.049 A 
ATOM     58  C   UNL     1       8.601  10.670  -2.516  1.00  0.00     0.074 A 
ATOM     59  C   UNL     1      12.602   8.860  -7.238  1.00  0.00     0.029 A 
ATOM     60  N   UNL     1      10.999  10.261  -6.682  1.00  0.00    -0.354 N 
ATOM     61  N   UNL     1       9.843  11.057  -2.552  1.00  0.00    -0.248 NA
ATOM     62  C   UNL     1       7.873  10.789  -3.768  1.00  0.00     0.031 C 
ATOM     63  C   UNL     1      12.949   9.537  -6.031  1.00  0.00     0.029 A 
ATOM     64  C   UNL     1      11.827  10.243  -5.592  1.00  0.00     0.049 A 
ATOM     65  H   UNL     1      10.335  10.955  -6.896  1.00  0.00     0.167 HD
ATOM     66  C   UNL     1      10.178  11.028  -3.897  1.00  0.00     0.074 A 
ATOM     67  C   UNL     1       8.900  10.971  -4.603  1.00  0.00     0.031 C 
ATOM     68  C   UNL     1      11.458  10.761  -4.293  1.00  0.00     0.031 A 
BRANCH  55  69
ATOM     69  C   UNL     1       9.090   9.038  -8.794  1.00  0.00    -0.014 A 
ATOM     70  C   UNL     1       9.464  10.178  -9.533  1.00  0.00     0.009 A 
ATOM     71  C   UNL     1       7.712   8.767  -8.713  1.00  0.00     0.009 A 
ATOM     72  C   UNL     1       8.508  11.047 -10.072  1.00  0.00     0.001 A 
ATOM     73  C   UNL     1       6.756   9.609  -9.287  1.00  0.00     0.001 A 
ATOM     74  C   UNL     1       7.153  10.768  -9.938  1.00  0.00     0.000 A 
ENDBRANCH  55  69
BRANCH  56  75
ATOM     75  C   UNL     1       6.905  10.161  -0.633  1.00  0.00    -0.014 A 
ATOM     76  C   UNL     1       6.674  11.509  -0.313  1.00  0.00     0.009 A 
ATOM     77  C   UNL     1       5.871   9.242  -0.383  1.00  0.00     0.009 A 
ATOM     78  C   UNL     1       5.436  11.927   0.192  1.00  0.00     0.001 A 
ATOM     79  C   UNL     1       4.635   9.659   0.123  1.00  0.00     0.001 A 
ATOM     80  C   UNL     1       4.412  11.005   0.394  1.00  0.00     0.000 A 
ENDBRANCH  56  75
BRANCH  68  81
ATOM     81  C   UNL     1      12.540  10.762  -3.241  1.00  0.00    -0.014 A 
ATOM     82  C   UNL     1      12.551   9.887  -2.140  1.00  0.00     0.009 A 
ATOM     83  C   UNL     1      13.661  11.577  -3.452  1.00  0.00     0.009 A 
ATOM     84  C   UNL     1      13.641   9.854  -1.262  1.00  0.00     0.001 A 
ATOM     85  C   UNL     1      14.758  11.529  -2.590  1.00  0.00     0.001 A 
ATOM     86  C   UNL     1      14.745  10.673  -1.491  1.00  0.00     0.000 A 
ENDBRANCH  68  81
ENDBRANCH  42  43
ENDBRANCH  34  37
ENDBRANCH  32  33
ENDBRANCH  31  32
ENDBRANCH   1  31
TORSDOF 15
