REMARK SMILES CC[C@@H](NC(=O)[C@H](C)C[NH2+]C)C(=O)NCCCCNC(=O)c1ccc(-c2c3nc(c(-c4ccccc4)c4ccc([nH]4)c(-c4ccccc4)c4nc(c(-c5ccccc5)c5ccc2[nH]5)C=C4)C=C3)cc1
REMARK SMILES IDX 15 1 14 2 12 3 13 4 3 6 2 7 1 8 4 9 5 10 6 12 7 13 8 14 9 15
REMARK SMILES IDX 10 16 11 17 16 20 17 21 18 22 19 23 20 24 21 26 22 27 23 28
REMARK SMILES IDX 69 29 24 30 68 31 25 32 26 33 27 34 62 35 28 36 67 37 61 38
REMARK SMILES IDX 63 39 29 40 66 41 60 42 59 43 30 45 52 46 37 47 51 48 38 49
REMARK SMILES IDX 41 50 50 51 64 52 39 53 40 54 49 56 65 57 42 58 31 59 32 60
REMARK SMILES IDX 36 61 33 62 35 63 34 64 53 65 54 66 58 67 55 68 57 69 56 70
REMARK SMILES IDX 43 71 44 72 48 73 45 74 47 75 46 76
REMARK H PARENT 14 5 4 11 10 18 10 19 19 25 63 44 41 55
REMARK Flexibility Score: inf
ROOT
ATOM      1  C   UNL     1       1.831   4.762   2.510  1.00  0.00     0.116 C 
ENDROOT
BRANCH   1   2
ATOM      2  N   UNL     1       2.330   4.106   1.311  1.00  0.00    -0.354 N 
ATOM      3  C   UNL     1       1.772   3.096   0.577  1.00  0.00     0.242 C 
ATOM      4  O   UNL     1       2.379   2.718  -0.428  1.00  0.00    -0.273 OA
ATOM      5  H   UNL     1       3.196   4.438   0.979  1.00  0.00     0.163 HD
BRANCH   3   6
ATOM      6  C   UNL     1       0.532   2.336   1.090  1.00  0.00     0.171 C 
BRANCH   6   7
ATOM      7  C   UNL     1       1.064   1.402   2.206  1.00  0.00     0.031 C 
ATOM      8  C   UNL     1       0.029   0.634   3.010  1.00  0.00     0.006 C 
ENDBRANCH   6   7
BRANCH   6   9
ATOM      9  N   UNL     1      -0.558   3.219   1.523  1.00  0.00    -0.344 N 
ATOM     10  C   UNL     1      -1.415   4.017   0.826  1.00  0.00     0.229 C 
ATOM     11  H   UNL     1      -0.696   3.238   2.498  1.00  0.00     0.164 HD
ATOM     12  O   UNL     1      -2.390   4.439   1.459  1.00  0.00    -0.275 OA
BRANCH  10  13
ATOM     13  C   UNL     1      -1.180   4.507  -0.609  1.00  0.00     0.130 C 
ATOM     14  C   UNL     1      -0.911   3.397  -1.615  1.00  0.00     0.024 C 
BRANCH  13  15
ATOM     15  C   UNL     1      -0.155   5.656  -0.586  1.00  0.00     0.273 C 
BRANCH  15  16
ATOM     16  N   UNL     1       0.395   6.074  -1.880  1.00  0.00    -0.348 N 
ATOM     17  C   UNL     1       1.638   6.822  -1.688  1.00  0.00     0.330 C 
ATOM     18  H   UNL     1      -0.283   6.667  -2.358  1.00  0.00     0.346 HD
ATOM     19  H   UNL     1       0.591   5.245  -2.440  1.00  0.00     0.346 HD
ENDBRANCH  15  16
ENDBRANCH  13  15
ENDBRANCH  10  13
ENDBRANCH   6   9
ENDBRANCH   3   6
ENDBRANCH   1   2
BRANCH   1  20
ATOM     20  C   UNL     1       2.900   5.618   3.181  1.00  0.00     0.023 C 
BRANCH  20  21
ATOM     21  C   UNL     1       3.404   6.797   2.341  1.00  0.00     0.023 C 
BRANCH  21  22
ATOM     22  C   UNL     1       2.341   7.815   1.934  1.00  0.00     0.116 C 
BRANCH  22  23
ATOM     23  N   UNL     1       1.781   8.522   3.070  1.00  0.00    -0.352 N 
ATOM     24  C   UNL     1       1.729   9.869   3.332  1.00  0.00     0.251 C 
ATOM     25  H   UNL     1       1.375   7.948   3.759  1.00  0.00     0.163 HD
ATOM     26  O   UNL     1       1.347  10.255   4.433  1.00  0.00    -0.269 OA
BRANCH  24  27
ATOM     27  C   UNL     1       2.160  10.862   2.321  1.00  0.00     0.039 A 
ATOM     28  C   UNL     1       2.950  11.932   2.750  1.00  0.00     0.014 A 
ATOM     29  C   UNL     1       1.766  10.784   0.981  1.00  0.00     0.014 A 
ATOM     30  C   UNL     1       3.383  12.891   1.832  1.00  0.00     0.010 A 
ATOM     31  C   UNL     1       2.251  11.711   0.052  1.00  0.00     0.010 A 
ATOM     32  C   UNL     1       3.062  12.777   0.469  1.00  0.00    -0.014 A 
BRANCH  32  33
ATOM     33  C   UNL     1       3.607  13.767  -0.499  1.00  0.00     0.031 A 
ATOM     34  C   UNL     1       2.708  14.744  -1.206  1.00  0.00     0.074 A 
ATOM     35  C   UNL     1       4.935  13.803  -0.726  1.00  0.00     0.049 A 
ATOM     36  N   UNL     1       3.036  15.746  -1.986  1.00  0.00    -0.248 NA
ATOM     37  C   UNL     1       1.259  14.572  -1.028  1.00  0.00     0.031 C 
ATOM     38  C   UNL     1       5.917  12.883  -0.147  1.00  0.00     0.029 A 
ATOM     39  N   UNL     1       5.691  14.659  -1.487  1.00  0.00    -0.354 N 
ATOM     40  C   UNL     1       1.838  16.331  -2.377  1.00  0.00     0.074 A 
ATOM     41  C   UNL     1       0.775  15.537  -1.798  1.00  0.00     0.031 C 
ATOM     42  C   UNL     1       7.147  13.249  -0.540  1.00  0.00     0.029 A 
ATOM     43  C   UNL     1       7.041  14.412  -1.416  1.00  0.00     0.049 A 
ATOM     44  H   UNL     1       5.303  15.381  -2.033  1.00  0.00     0.167 HD
ATOM     45  C   UNL     1       1.638  17.440  -3.129  1.00  0.00     0.031 A 
ATOM     46  C   UNL     1       8.082  15.054  -1.980  1.00  0.00     0.031 A 
ATOM     47  C   UNL     1       2.688  18.228  -3.722  1.00  0.00     0.049 A 
ATOM     48  C   UNL     1       7.831  16.278  -2.817  1.00  0.00     0.074 A 
ATOM     49  C   UNL     1       2.578  19.386  -4.474  1.00  0.00     0.029 A 
ATOM     50  N   UNL     1       4.040  17.935  -3.638  1.00  0.00    -0.354 N 
ATOM     51  N   UNL     1       6.695  16.862  -3.108  1.00  0.00    -0.248 NA
ATOM     52  C   UNL     1       9.014  16.942  -3.384  1.00  0.00     0.031 C 
ATOM     53  C   UNL     1       3.860  19.767  -4.885  1.00  0.00     0.029 A 
ATOM     54  C   UNL     1       4.773  18.878  -4.342  1.00  0.00     0.049 A 
ATOM     55  H   UNL     1       4.423  17.170  -3.151  1.00  0.00     0.167 HD
ATOM     56  C   UNL     1       7.027  17.971  -3.876  1.00  0.00     0.074 A 
ATOM     57  C   UNL     1       8.471  17.995  -3.977  1.00  0.00     0.031 C 
ATOM     58  C   UNL     1       6.208  18.885  -4.451  1.00  0.00     0.031 A 
BRANCH  45  59
ATOM     59  C   UNL     1       0.216  17.879  -3.351  1.00  0.00    -0.014 A 
ATOM     60  C   UNL     1      -0.538  18.436  -2.305  1.00  0.00     0.009 A 
ATOM     61  C   UNL     1      -0.359  17.788  -4.628  1.00  0.00     0.009 A 
ATOM     62  C   UNL     1      -1.847  18.867  -2.527  1.00  0.00     0.001 A 
ATOM     63  C   UNL     1      -1.659  18.245  -4.853  1.00  0.00     0.001 A 
ATOM     64  C   UNL     1      -2.405  18.777  -3.802  1.00  0.00     0.000 A 
ENDBRANCH  45  59
BRANCH  46  65
ATOM     65  C   UNL     1       9.467  14.562  -1.761  1.00  0.00    -0.014 A 
ATOM     66  C   UNL     1      10.378  15.299  -0.988  1.00  0.00     0.009 A 
ATOM     67  C   UNL     1       9.892  13.360  -2.348  1.00  0.00     0.009 A 
ATOM     68  C   UNL     1      11.694  14.858  -0.835  1.00  0.00     0.001 A 
ATOM     69  C   UNL     1      11.199  12.906  -2.168  1.00  0.00     0.001 A 
ATOM     70  C   UNL     1      12.103  13.661  -1.422  1.00  0.00     0.000 A 
ENDBRANCH  46  65
BRANCH  58  71
ATOM     71  C   UNL     1       6.863  19.994  -5.228  1.00  0.00    -0.014 A 
ATOM     72  C   UNL     1       7.500  19.746  -6.455  1.00  0.00     0.009 A 
ATOM     73  C   UNL     1       6.841  21.305  -4.727  1.00  0.00     0.009 A 
ATOM     74  C   UNL     1       8.144  20.780  -7.139  1.00  0.00     0.001 A 
ATOM     75  C   UNL     1       7.458  22.342  -5.429  1.00  0.00     0.001 A 
ATOM     76  C   UNL     1       8.120  22.076  -6.627  1.00  0.00     0.000 A 
ENDBRANCH  58  71
ENDBRANCH  32  33
ENDBRANCH  24  27
ENDBRANCH  22  23
ENDBRANCH  21  22
ENDBRANCH  20  21
ENDBRANCH   1  20
TORSDOF 16
