REMARK SMILES O=C(NCCCCNC(=O)c1ccc(F)cc1-c1ccc(F)c(Cl)c1)c1ccc(-c2c3nc(c(-c4ccccc4)c4ccc([nH]4)c(-c4ccccc4)c4nc(c(-c5ccccc5)c5ccc2[nH]5)C=C4)C=C3)cc1
REMARK SMILES IDX 5 1 4 2 3 3 1 4 2 5 26 7 27 8 73 9 28 10 72 11 29 12 30 13
REMARK SMILES IDX 31 14 66 15 32 16 71 17 65 18 67 19 33 20 70 21 64 22 63 23
REMARK SMILES IDX 34 25 56 26 41 27 55 28 42 29 45 30 54 31 68 32 43 33 44 34
REMARK SMILES IDX 53 36 69 37 46 38 35 39 36 40 40 41 37 42 39 43 38 44 57 45
REMARK SMILES IDX 58 46 62 47 59 48 61 49 60 50 47 51 48 52 52 53 49 54 51 55
REMARK SMILES IDX 50 56 6 57 7 58 8 59 9 60 10 62 11 63 12 64 17 65 13 66
REMARK SMILES IDX 16 67 14 68 15 69 18 70 19 71 25 72 20 73 23 74 21 75 24 76
REMARK SMILES IDX 22 77
REMARK H PARENT 3 6 67 24 45 35 8 61
REMARK Flexibility Score: inf
ROOT
ATOM      1  C   UNL     1       5.023  -1.305   2.105  1.00  0.00     0.023 C 
ENDROOT
BRANCH   1   2
ATOM      2  C   UNL     1       4.656  -1.121   0.637  1.00  0.00     0.116 C 
BRANCH   2   3
ATOM      3  N   UNL     1       3.220  -1.100   0.409  1.00  0.00    -0.352 N 
ATOM      4  O   UNL     1       1.207  -0.219  -0.099  1.00  0.00    -0.269 OA
ATOM      5  C   UNL     1       2.429  -0.107  -0.117  1.00  0.00     0.251 C 
ATOM      6  H   UNL     1       2.742  -1.921   0.670  1.00  0.00     0.163 HD
BRANCH   5   7
ATOM      7  C   UNL     1       3.048   1.114  -0.675  1.00  0.00     0.039 A 
ATOM      8  C   UNL     1       4.150   1.034  -1.529  1.00  0.00     0.014 A 
ATOM      9  C   UNL     1       2.513   2.359  -0.335  1.00  0.00     0.014 A 
ATOM     10  C   UNL     1       4.811   2.195  -1.917  1.00  0.00     0.010 A 
ATOM     11  C   UNL     1       3.126   3.526  -0.797  1.00  0.00     0.010 A 
ATOM     12  C   UNL     1       4.301   3.453  -1.562  1.00  0.00    -0.014 A 
BRANCH  12  13
ATOM     13  C   UNL     1       4.979   4.688  -2.029  1.00  0.00     0.031 A 
ATOM     14  C   UNL     1       5.585   5.655  -1.050  1.00  0.00     0.074 A 
ATOM     15  C   UNL     1       5.036   4.943  -3.350  1.00  0.00     0.049 A 
ATOM     16  N   UNL     1       6.165   6.806  -1.281  1.00  0.00    -0.248 NA
ATOM     17  C   UNL     1       5.525   5.286   0.372  1.00  0.00     0.031 C 
ATOM     18  C   UNL     1       4.495   4.078  -4.401  1.00  0.00     0.029 A 
ATOM     19  N   UNL     1       5.574   6.002  -4.035  1.00  0.00    -0.354 N 
ATOM     20  C   UNL     1       6.516   7.311  -0.035  1.00  0.00     0.074 A 
ATOM     21  C   UNL     1       6.060   6.353   0.950  1.00  0.00     0.031 C 
ATOM     22  C   UNL     1       4.750   4.628  -5.596  1.00  0.00     0.029 A 
ATOM     23  C   UNL     1       5.408   5.913  -5.395  1.00  0.00     0.049 A 
ATOM     24  H   UNL     1       6.035   6.752  -3.594  1.00  0.00     0.167 HD
ATOM     25  C   UNL     1       7.160   8.466   0.261  1.00  0.00     0.031 A 
ATOM     26  C   UNL     1       5.718   6.782  -6.374  1.00  0.00     0.031 A 
ATOM     27  C   UNL     1       7.600   9.423  -0.722  1.00  0.00     0.049 A 
ATOM     28  C   UNL     1       6.377   8.082  -6.017  1.00  0.00     0.074 A 
ATOM     29  C   UNL     1       8.285  10.609  -0.525  1.00  0.00     0.029 A 
ATOM     30  N   UNL     1       7.386   9.308  -2.088  1.00  0.00    -0.354 N 
ATOM     31  N   UNL     1       6.730   8.532  -4.837  1.00  0.00    -0.248 NA
ATOM     32  C   UNL     1       6.684   8.993  -7.128  1.00  0.00     0.031 C 
ATOM     33  C   UNL     1       8.428  11.243  -1.764  1.00  0.00     0.029 A 
ATOM     34  C   UNL     1       7.898  10.417  -2.742  1.00  0.00     0.049 A 
ATOM     35  H   UNL     1       6.936   8.551  -2.528  1.00  0.00     0.167 HD
ATOM     36  C   UNL     1       7.328   9.763  -5.065  1.00  0.00     0.074 A 
ATOM     37  C   UNL     1       7.298   9.985  -6.497  1.00  0.00     0.031 C 
ATOM     38  C   UNL     1       7.862  10.628  -4.168  1.00  0.00     0.031 A 
BRANCH  25  39
ATOM     39  C   UNL     1       7.387   8.780   1.717  1.00  0.00    -0.014 A 
ATOM     40  C   UNL     1       8.283   8.035   2.501  1.00  0.00     0.009 A 
ATOM     41  C   UNL     1       6.708   9.858   2.308  1.00  0.00     0.009 A 
ATOM     42  C   UNL     1       8.457   8.332   3.855  1.00  0.00     0.001 A 
ATOM     43  C   UNL     1       6.909  10.174   3.653  1.00  0.00     0.001 A 
ATOM     44  C   UNL     1       7.772   9.403   4.429  1.00  0.00     0.000 A 
ENDBRANCH  25  39
BRANCH  26  45
ATOM     45  C   UNL     1       5.389   6.445  -7.782  1.00  0.00    -0.014 A 
ATOM     46  C   UNL     1       6.405   6.147  -8.702  1.00  0.00     0.009 A 
ATOM     47  C   UNL     1       4.051   6.388  -8.205  1.00  0.00     0.009 A 
ATOM     48  C   UNL     1       6.087   5.815 -10.021  1.00  0.00     0.001 A 
ATOM     49  C   UNL     1       3.735   6.024  -9.515  1.00  0.00     0.001 A 
ATOM     50  C   UNL     1       4.754   5.747 -10.424  1.00  0.00     0.000 A 
ENDBRANCH  26  45
BRANCH  38  51
ATOM     51  C   UNL     1       8.505  11.874  -4.709  1.00  0.00    -0.014 A 
ATOM     52  C   UNL     1       7.742  12.922  -5.248  1.00  0.00     0.009 A 
ATOM     53  C   UNL     1       9.899  12.019  -4.630  1.00  0.00     0.009 A 
ATOM     54  C   UNL     1       8.368  14.077  -5.724  1.00  0.00     0.001 A 
ATOM     55  C   UNL     1      10.518  13.187  -5.077  1.00  0.00     0.001 A 
ATOM     56  C   UNL     1       9.753  14.211  -5.631  1.00  0.00     0.000 A 
ENDBRANCH  38  51
ENDBRANCH  12  13
ENDBRANCH   5   7
ENDBRANCH   2   3
ENDBRANCH   1   2
BRANCH   1  57
ATOM     57  C   UNL     1       4.552  -2.612   2.737  1.00  0.00     0.023 C 
BRANCH  57  58
ATOM     58  C   UNL     1       4.937  -3.880   1.982  1.00  0.00     0.116 C 
BRANCH  58  59
ATOM     59  N   UNL     1       6.375  -4.046   1.840  1.00  0.00    -0.352 N 
ATOM     60  C   UNL     1       7.155  -5.137   2.141  1.00  0.00     0.251 C 
ATOM     61  H   UNL     1       6.857  -3.268   1.478  1.00  0.00     0.163 HD
ATOM     62  O   UNL     1       8.368  -5.100   1.959  1.00  0.00    -0.269 OA
BRANCH  60  63
ATOM     63  C   UNL     1       6.513  -6.356   2.682  1.00  0.00     0.047 A 
ATOM     64  C   UNL     1       5.533  -6.983   1.889  1.00  0.00     0.017 A 
ATOM     65  C   UNL     1       6.879  -6.885   3.939  1.00  0.00    -0.003 A 
ATOM     66  C   UNL     1       4.842  -8.089   2.376  1.00  0.00     0.040 A 
ATOM     67  C   UNL     1       6.165  -8.006   4.402  1.00  0.00     0.048 A 
ATOM     68  C   UNL     1       5.157  -8.582   3.633  1.00  0.00     0.123 A 
ATOM     69  F   UNL     1       4.483  -9.634   4.114  1.00  0.00    -0.207 F 
BRANCH  65  70
ATOM     70  C   UNL     1       7.968  -6.341   4.770  1.00  0.00    -0.016 A 
ATOM     71  C   UNL     1       7.905  -5.049   5.320  1.00  0.00     0.012 A 
ATOM     72  C   UNL     1       9.104  -7.128   5.041  1.00  0.00     0.032 A 
ATOM     73  C   UNL     1       8.949  -4.556   6.110  1.00  0.00     0.041 A 
ATOM     74  C   UNL     1      10.144  -6.636   5.833  1.00  0.00     0.077 A 
ATOM     75  C   UNL     1      10.061  -5.353   6.363  1.00  0.00     0.141 A 
ATOM     76  Cl  UNL     1      11.511  -7.634   6.150  1.00  0.00    -0.081 Cl
ATOM     77  F   UNL     1      11.046  -4.862   7.130  1.00  0.00    -0.205 F 
ENDBRANCH  65  70
ENDBRANCH  60  63
ENDBRANCH  58  59
ENDBRANCH  57  58
ENDBRANCH   1  57
TORSDOF 12
