REMARK SMILES O=C(NCCCCNC(=O)c1nn(Cc2ccc(F)cc2)c2c1CN(C(=O)[C@H]1CC1(F)F)CC2)c1ccc(-c2c3nc(c(-c4ccccc4)c4ccc([nH]4)c(-c4ccccc4)c4nc(c(-c5ccccc5)c5ccc2[nH]5)C=C4)C=C3)cc1
REMARK SMILES IDX 5 1 4 2 3 3 1 4 2 5 35 7 36 8 82 9 37 10 81 11 38 12 39 13
REMARK SMILES IDX 40 14 75 15 41 16 80 17 74 18 76 19 42 20 79 21 73 22 72 23
REMARK SMILES IDX 43 25 65 26 50 27 64 28 51 29 54 30 63 31 77 32 52 33 53 34
REMARK SMILES IDX 62 36 78 37 55 38 44 39 45 40 49 41 46 42 48 43 47 44 66 45
REMARK SMILES IDX 67 46 71 47 68 48 70 49 69 50 56 51 57 52 61 53 58 54 60 55
REMARK SMILES IDX 59 56 6 57 7 58 8 59 9 60 10 62 11 63 12 64 23 65 13 66
REMARK SMILES IDX 22 67 24 68 34 69 25 70 33 71 14 72 15 73 16 74 21 75 17 76
REMARK SMILES IDX 20 77 18 78 19 79 26 80 27 81 28 82 29 83 30 84 31 85 32 86
REMARK H PARENT 3 6 76 24 54 35 8 61
REMARK Flexibility Score: inf
ROOT
ATOM      1  C   UNL     1      18.991 -11.336  -4.996  1.00  0.00     0.023 C 
ENDROOT
BRANCH   1   2
ATOM      2  C   UNL     1      20.096 -12.082  -5.746  1.00  0.00     0.116 C 
BRANCH   2   3
ATOM      3  N   UNL     1      20.569 -11.425  -6.947  1.00  0.00    -0.352 N 
ATOM      4  O   UNL     1      21.866 -10.430  -8.428  1.00  0.00    -0.269 OA
ATOM      5  C   UNL     1      21.584 -10.556  -7.232  1.00  0.00     0.251 C 
ATOM      6  H   UNL     1      20.037 -11.660  -7.742  1.00  0.00     0.163 HD
BRANCH   5   7
ATOM      7  C   UNL     1      22.295  -9.700  -6.243  1.00  0.00     0.039 A 
ATOM      8  C   UNL     1      22.174  -9.771  -4.855  1.00  0.00     0.014 A 
ATOM      9  C   UNL     1      23.099  -8.682  -6.795  1.00  0.00     0.014 A 
ATOM     10  C   UNL     1      22.753  -8.791  -4.048  1.00  0.00     0.010 A 
ATOM     11  C   UNL     1      23.677  -7.704  -5.998  1.00  0.00     0.010 A 
ATOM     12  C   UNL     1      23.464  -7.736  -4.625  1.00  0.00    -0.014 A 
BRANCH  12  13
ATOM     13  C   UNL     1      24.119  -6.766  -3.751  1.00  0.00     0.031 A 
ATOM     14  C   UNL     1      25.265  -7.321  -2.979  1.00  0.00     0.074 A 
ATOM     15  C   UNL     1      23.838  -5.446  -3.753  1.00  0.00     0.049 A 
ATOM     16  N   UNL     1      25.390  -7.415  -1.696  1.00  0.00    -0.248 NA
ATOM     17  C   UNL     1      26.359  -7.954  -3.736  1.00  0.00     0.031 C 
ATOM     18  C   UNL     1      22.950  -4.723  -4.667  1.00  0.00     0.029 A 
ATOM     19  N   UNL     1      24.385  -4.443  -3.005  1.00  0.00    -0.354 N 
ATOM     20  C   UNL     1      26.660  -7.944  -1.474  1.00  0.00     0.074 A 
ATOM     21  C   UNL     1      27.137  -8.404  -2.753  1.00  0.00     0.031 C 
ATOM     22  C   UNL     1      23.201  -3.396  -4.578  1.00  0.00     0.029 A 
ATOM     23  C   UNL     1      24.168  -3.167  -3.517  1.00  0.00     0.049 A 
ATOM     24  H   UNL     1      24.890  -4.608  -2.176  1.00  0.00     0.167 HD
ATOM     25  C   UNL     1      27.329  -7.720  -0.308  1.00  0.00     0.031 A 
ATOM     26  C   UNL     1      24.785  -2.016  -3.142  1.00  0.00     0.031 A 
ATOM     27  C   UNL     1      26.441  -7.290   0.741  1.00  0.00     0.049 A 
ATOM     28  C   UNL     1      25.392  -2.239  -1.812  1.00  0.00     0.074 A 
ATOM     29  C   UNL     1      25.328  -7.814   1.367  1.00  0.00     0.029 A 
ATOM     30  N   UNL     1      26.452  -5.953   1.055  1.00  0.00    -0.354 N 
ATOM     31  N   UNL     1      24.699  -2.392  -0.722  1.00  0.00    -0.248 NA
ATOM     32  C   UNL     1      26.761  -2.722  -1.759  1.00  0.00     0.031 C 
ATOM     33  C   UNL     1      24.482  -6.691   1.612  1.00  0.00     0.029 A 
ATOM     34  C   UNL     1      25.154  -5.546   1.183  1.00  0.00     0.049 A 
ATOM     35  H   UNL     1      27.251  -5.389   1.169  1.00  0.00     0.167 HD
ATOM     36  C   UNL     1      25.369  -3.384  -0.023  1.00  0.00     0.074 A 
ATOM     37  C   UNL     1      26.684  -3.473  -0.657  1.00  0.00     0.031 C 
ATOM     38  C   UNL     1      24.694  -4.231   0.809  1.00  0.00     0.031 A 
BRANCH  25  39
ATOM     39  C   UNL     1      28.813  -7.407  -0.261  1.00  0.00    -0.014 A 
ATOM     40  C   UNL     1      29.380  -7.062   0.983  1.00  0.00     0.009 A 
ATOM     41  C   UNL     1      29.582  -7.111  -1.402  1.00  0.00     0.009 A 
ATOM     42  C   UNL     1      30.571  -6.333   1.065  1.00  0.00     0.001 A 
ATOM     43  C   UNL     1      30.796  -6.424  -1.320  1.00  0.00     0.001 A 
ATOM     44  C   UNL     1      31.269  -5.997  -0.089  1.00  0.00     0.000 A 
ENDBRANCH  25  39
BRANCH  26  45
ATOM     45  C   UNL     1      25.132  -0.829  -3.957  1.00  0.00    -0.014 A 
ATOM     46  C   UNL     1      25.499   0.384  -3.349  1.00  0.00     0.009 A 
ATOM     47  C   UNL     1      25.381  -0.967  -5.335  1.00  0.00     0.009 A 
ATOM     48  C   UNL     1      26.127   1.401  -4.084  1.00  0.00     0.001 A 
ATOM     49  C   UNL     1      26.004   0.049  -6.069  1.00  0.00     0.001 A 
ATOM     50  C   UNL     1      26.391   1.228  -5.440  1.00  0.00     0.000 A 
ENDBRANCH  26  45
BRANCH  38  51
ATOM     51  C   UNL     1      23.269  -3.895   1.161  1.00  0.00    -0.014 A 
ATOM     52  C   UNL     1      22.241  -3.796   0.206  1.00  0.00     0.009 A 
ATOM     53  C   UNL     1      22.928  -3.826   2.519  1.00  0.00     0.009 A 
ATOM     54  C   UNL     1      20.915  -3.603   0.605  1.00  0.00     0.001 A 
ATOM     55  C   UNL     1      21.602  -3.656   2.917  1.00  0.00     0.001 A 
ATOM     56  C   UNL     1      20.596  -3.538   1.961  1.00  0.00     0.000 A 
ENDBRANCH  38  51
ENDBRANCH  12  13
ENDBRANCH   5   7
ENDBRANCH   2   3
ENDBRANCH   1   2
BRANCH   1  57
ATOM     57  C   UNL     1      17.758 -10.964  -5.827  1.00  0.00     0.023 C 
BRANCH  57  58
ATOM     58  C   UNL     1      17.038 -12.124  -6.517  1.00  0.00     0.116 C 
BRANCH  58  59
ATOM     59  N   UNL     1      16.378 -13.008  -5.567  1.00  0.00    -0.351 N 
ATOM     60  C   UNL     1      15.033 -13.301  -5.439  1.00  0.00     0.272 C 
ATOM     61  H   UNL     1      16.973 -13.461  -4.927  1.00  0.00     0.163 HD
ATOM     62  O   UNL     1      14.663 -13.909  -4.435  1.00  0.00    -0.267 OA
BRANCH  60  63
ATOM     63  C   UNL     1      14.080 -12.838  -6.461  1.00  0.00     0.155 A 
ATOM     64  N   UNL     1      14.368 -12.837  -7.780  1.00  0.00    -0.167 NA
ATOM     65  C   UNL     1      12.753 -12.373  -6.246  1.00  0.00     0.026 A 
ATOM     66  N   UNL     1      13.311 -12.241  -8.372  1.00  0.00    -0.264 N 
ATOM     67  C   UNL     1      12.343 -11.901  -7.478  1.00  0.00     0.046 A 
ATOM     68  C   UNL     1      11.938 -12.265  -4.995  1.00  0.00     0.159 C 
ATOM     69  C   UNL     1      11.076 -11.166  -7.720  1.00  0.00     0.078 C 
ATOM     70  N   UNL     1      10.608 -11.708  -5.342  1.00  0.00    -0.337 N 
ATOM     71  C   UNL     1      10.585 -10.634  -6.355  1.00  0.00     0.126 C 
BRANCH  66  72
ATOM     72  C   UNL     1      13.275 -12.113  -9.824  1.00  0.00     0.180 C 
BRANCH  72  73
ATOM     73  C   UNL     1      14.270 -11.098 -10.337  1.00  0.00    -0.026 A 
ATOM     74  C   UNL     1      15.636 -11.425 -10.412  1.00  0.00     0.008 A 
ATOM     75  C   UNL     1      13.852  -9.825 -10.754  1.00  0.00     0.008 A 
ATOM     76  C   UNL     1      16.562 -10.504 -10.898  1.00  0.00     0.039 A 
ATOM     77  C   UNL     1      14.781  -8.906 -11.246  1.00  0.00     0.039 A 
ATOM     78  C   UNL     1      16.125  -9.254 -11.315  1.00  0.00     0.123 A 
ATOM     79  F   UNL     1      17.011  -8.370 -11.794  1.00  0.00    -0.207 F 
ENDBRANCH  72  73
ENDBRANCH  66  72
BRANCH  70  80
ATOM     80  C   UNL     1       9.480 -12.227  -4.712  1.00  0.00     0.232 C 
ATOM     81  O   UNL     1       9.521 -13.095  -3.861  1.00  0.00    -0.274 OA
BRANCH  80  82
ATOM     82  C   UNL     1       8.177 -11.622  -5.074  1.00  0.00     0.154 C 
ATOM     83  C   UNL     1       7.524 -11.913  -6.416  1.00  0.00     0.097 C 
ATOM     84  C   UNL     1       6.957 -12.458  -5.161  1.00  0.00     0.260 C 
ATOM     85  F   UNL     1       6.944 -13.820  -4.984  1.00  0.00    -0.206 F 
ATOM     86  F   UNL     1       5.741 -11.977  -4.725  1.00  0.00    -0.206 F 
ENDBRANCH  80  82
ENDBRANCH  70  80
ENDBRANCH  60  63
ENDBRANCH  58  59
ENDBRANCH  57  58
ENDBRANCH   1  57
TORSDOF 15
