REMARK SMILES Cc1ccc(S(=O)(=O)N(c2ccccc2)[C@H](C)C(=O)NCCCCNC(=O)c2ccc(-c3c4nc(c(-c5ccccc5)c5ccc([nH]5)c(-c5ccccc5)c5nc(c(-c6ccccc6)c6ccc3[nH]6)C=C5)C=C4)cc2)cc1
REMARK SMILES IDX 22 1 21 2 20 3 18 4 19 5 16 7 17 8 9 9 6 10 7 11 8 12 5 13
REMARK SMILES IDX 1 14 2 15 3 16 77 17 4 18 76 19 10 20 11 21 15 22 12 23
REMARK SMILES IDX 14 24 13 25 23 26 24 27 25 28 26 29 27 31 28 32 29 33 75 34
REMARK SMILES IDX 30 35 74 36 31 37 32 38 33 39 68 40 34 41 73 42 67 43 69 44
REMARK SMILES IDX 35 45 72 46 66 47 65 48 36 50 58 51 43 52 57 53 44 54 47 55
REMARK SMILES IDX 56 56 70 57 45 58 46 59 55 61 71 62 48 63 37 64 38 65 42 66
REMARK SMILES IDX 39 67 41 68 40 69 59 70 60 71 64 72 61 73 63 74 62 75 49 76
REMARK SMILES IDX 50 77 54 78 51 79 53 80 52 81
REMARK H PARENT 20 6 25 30 69 49 47 60
REMARK Flexibility Score: inf
ROOT
ATOM      1  C   UNL     1      -3.446  -1.290   1.910  1.00  0.00     0.023 C 
ENDROOT
BRANCH   1   2
ATOM      2  C   UNL     1      -4.617  -0.744   1.094  1.00  0.00     0.116 C 
BRANCH   2   3
ATOM      3  N   UNL     1      -5.355   0.343   1.709  1.00  0.00    -0.354 N 
ATOM      4  C   UNL     1      -6.035   1.386   1.137  1.00  0.00     0.243 C 
ATOM      5  O   UNL     1      -6.877   1.930   1.866  1.00  0.00    -0.273 OA
ATOM      6  H   UNL     1      -5.369   0.330   2.693  1.00  0.00     0.163 HD
BRANCH   4   7
ATOM      7  C   UNL     1      -5.783   1.925  -0.283  1.00  0.00     0.185 C 
ATOM      8  C   UNL     1      -4.301   2.192  -0.559  1.00  0.00     0.043 C 
BRANCH   7   9
ATOM      9  N   UNL     1      -6.518   1.228  -1.402  1.00  0.00    -0.254 N 
BRANCH   9  10
ATOM     10  S   UNL     1      -7.109   2.274  -2.620  1.00  0.00     0.265 S 
ATOM     11  O   UNL     1      -5.960   3.016  -3.108  1.00  0.00    -0.201 OA
ATOM     12  O   UNL     1      -8.242   2.986  -2.063  1.00  0.00    -0.201 OA
BRANCH  10  13
ATOM     13  C   UNL     1      -7.722   1.371  -4.035  1.00  0.00     0.088 A 
ATOM     14  C   UNL     1      -8.542  -0.808  -7.662  1.00  0.00     0.044 C 
ATOM     15  C   UNL     1      -8.293  -0.034  -6.402  1.00  0.00    -0.051 A 
ATOM     16  C   UNL     1      -7.896   1.305  -6.458  1.00  0.00     0.005 A 
ATOM     17  C   UNL     1      -8.495  -0.629  -5.150  1.00  0.00     0.005 A 
ATOM     18  C   UNL     1      -7.593   1.996  -5.284  1.00  0.00     0.022 A 
ATOM     19  C   UNL     1      -8.246   0.083  -3.970  1.00  0.00     0.022 A 
ENDBRANCH  10  13
ENDBRANCH   9  10
BRANCH   9  20
ATOM     20  C   UNL     1      -6.156  -0.106  -1.729  1.00  0.00     0.053 A 
ATOM     21  C   UNL     1      -6.894  -1.118  -1.108  1.00  0.00     0.027 A 
ATOM     22  C   UNL     1      -5.095  -0.426  -2.574  1.00  0.00     0.027 A 
ATOM     23  C   UNL     1      -6.569  -2.452  -1.323  1.00  0.00     0.002 A 
ATOM     24  C   UNL     1      -4.773  -1.769  -2.789  1.00  0.00     0.002 A 
ATOM     25  C   UNL     1      -5.505  -2.778  -2.160  1.00  0.00     0.000 A 
ENDBRANCH   9  20
ENDBRANCH   7   9
ENDBRANCH   4   7
ENDBRANCH   2   3
ENDBRANCH   1   2
BRANCH   1  26
ATOM     26  C   UNL     1      -3.823  -2.144   3.123  1.00  0.00     0.023 C 
BRANCH  26  27
ATOM     27  C   UNL     1      -4.635  -3.399   2.821  1.00  0.00     0.116 C 
BRANCH  27  28
ATOM     28  N   UNL     1      -3.903  -4.519   2.256  1.00  0.00    -0.352 N 
ATOM     29  C   UNL     1      -4.351  -5.767   1.845  1.00  0.00     0.251 C 
ATOM     30  H   UNL     1      -2.936  -4.370   2.147  1.00  0.00     0.163 HD
ATOM     31  O   UNL     1      -3.524  -6.604   1.510  1.00  0.00    -0.269 OA
BRANCH  29  32
ATOM     32  C   UNL     1      -5.806  -6.074   1.672  1.00  0.00     0.039 A 
ATOM     33  C   UNL     1      -6.166  -7.082   0.759  1.00  0.00     0.014 A 
ATOM     34  C   UNL     1      -6.813  -5.308   2.245  1.00  0.00     0.014 A 
ATOM     35  C   UNL     1      -7.469  -7.149   0.260  1.00  0.00     0.010 A 
ATOM     36  C   UNL     1      -8.065  -5.286   1.673  1.00  0.00     0.010 A 
ATOM     37  C   UNL     1      -8.376  -6.165   0.638  1.00  0.00    -0.014 A 
BRANCH  37  38
ATOM     38  C   UNL     1      -9.618  -5.864  -0.054  1.00  0.00     0.031 A 
ATOM     39  C   UNL     1     -10.922  -6.163   0.560  1.00  0.00     0.074 A 
ATOM     40  C   UNL     1      -9.558  -5.100  -1.167  1.00  0.00     0.049 A 
ATOM     41  N   UNL     1     -12.023  -6.234  -0.106  1.00  0.00    -0.248 NA
ATOM     42  C   UNL     1     -11.085  -6.440   1.984  1.00  0.00     0.031 C 
ATOM     43  C   UNL     1     -10.633  -4.333  -1.787  1.00  0.00     0.029 A 
ATOM     44  N   UNL     1      -8.516  -5.021  -2.089  1.00  0.00    -0.354 N 
ATOM     45  C   UNL     1     -13.047  -6.238   0.809  1.00  0.00     0.074 A 
ATOM     46  C   UNL     1     -12.417  -6.460   2.090  1.00  0.00     0.031 C 
ATOM     47  C   UNL     1     -10.314  -4.113  -3.073  1.00  0.00     0.029 A 
ATOM     48  C   UNL     1      -9.110  -4.879  -3.350  1.00  0.00     0.049 A 
ATOM     49  H   UNL     1      -7.552  -5.057  -1.893  1.00  0.00     0.167 HD
ATOM     50  C   UNL     1     -14.306  -5.903   0.414  1.00  0.00     0.031 A 
ATOM     51  C   UNL     1      -8.968  -5.813  -4.336  1.00  0.00     0.031 A 
ATOM     52  C   UNL     1     -14.380  -5.599  -1.013  1.00  0.00     0.049 A 
ATOM     53  C   UNL     1     -10.285  -6.420  -4.784  1.00  0.00     0.074 A 
ATOM     54  C   UNL     1     -14.485  -4.429  -1.748  1.00  0.00     0.029 A 
ATOM     55  N   UNL     1     -14.045  -6.589  -1.922  1.00  0.00    -0.354 N 
ATOM     56  N   UNL     1     -11.437  -6.178  -4.222  1.00  0.00    -0.248 NA
ATOM     57  C   UNL     1     -10.385  -7.441  -5.826  1.00  0.00     0.031 C 
ATOM     58  C   UNL     1     -14.230  -4.736  -3.114  1.00  0.00     0.029 A 
ATOM     59  C   UNL     1     -13.983  -6.092  -3.208  1.00  0.00     0.049 A 
ATOM     60  H   UNL     1     -13.873  -7.528  -1.682  1.00  0.00     0.167 HD
ATOM     61  C   UNL     1     -12.394  -6.998  -4.756  1.00  0.00     0.074 A 
ATOM     62  C   UNL     1     -11.685  -7.777  -5.755  1.00  0.00     0.031 C 
ATOM     63  C   UNL     1     -13.680  -7.005  -4.298  1.00  0.00     0.031 A 
BRANCH  50  64
ATOM     64  C   UNL     1     -15.413  -5.607   1.392  1.00  0.00    -0.014 A 
ATOM     65  C   UNL     1     -16.400  -4.661   1.064  1.00  0.00     0.009 A 
ATOM     66  C   UNL     1     -15.524  -6.208   2.658  1.00  0.00     0.009 A 
ATOM     67  C   UNL     1     -17.378  -4.262   1.983  1.00  0.00     0.001 A 
ATOM     68  C   UNL     1     -16.473  -5.783   3.598  1.00  0.00     0.001 A 
ATOM     69  C   UNL     1     -17.395  -4.801   3.262  1.00  0.00     0.000 A 
ENDBRANCH  50  64
BRANCH  51  70
ATOM     70  C   UNL     1      -7.685  -6.569  -4.264  1.00  0.00    -0.014 A 
ATOM     71  C   UNL     1      -6.488  -5.889  -4.561  1.00  0.00     0.009 A 
ATOM     72  C   UNL     1      -7.612  -7.771  -3.542  1.00  0.00     0.009 A 
ATOM     73  C   UNL     1      -5.264  -6.344  -4.060  1.00  0.00     0.001 A 
ATOM     74  C   UNL     1      -6.383  -8.222  -3.042  1.00  0.00     0.001 A 
ATOM     75  C   UNL     1      -5.218  -7.492  -3.273  1.00  0.00     0.000 A 
ENDBRANCH  51  70
BRANCH  63  76
ATOM     76  C   UNL     1     -14.778  -7.905  -4.804  1.00  0.00    -0.014 A 
ATOM     77  C   UNL     1     -14.898  -8.306  -6.139  1.00  0.00     0.009 A 
ATOM     78  C   UNL     1     -15.818  -8.295  -3.929  1.00  0.00     0.009 A 
ATOM     79  C   UNL     1     -15.961  -9.119  -6.559  1.00  0.00     0.001 A 
ATOM     80  C   UNL     1     -16.890  -9.085  -4.347  1.00  0.00     0.001 A 
ATOM     81  C   UNL     1     -16.953  -9.511  -5.663  1.00  0.00     0.000 A 
ENDBRANCH  63  76
ENDBRANCH  37  38
ENDBRANCH  29  32
ENDBRANCH  27  28
ENDBRANCH  26  27
ENDBRANCH   1  26
TORSDOF 15
