REMARK SMILES C[C@H]1CN(c2ccc([N+](=O)[O-])c(C(=O)NCCCCNC(=O)c3ccc(-c4c5nc(c(-c6ccccc6)c6ccc([nH]6)c(-c6ccccc6)c6nc(c(-c7ccccc7)c7ccc4[nH]7)C=C6)C=C5)cc3)c2)C[C@H](C)O1
REMARK SMILES IDX 18 1 17 2 16 3 15 4 13 5 14 6 12 8 5 9 6 10 71 11 7 12 8 13
REMARK SMILES IDX 4 14 1 15 2 16 3 17 75 18 73 19 72 20 74 21 9 22 10 23 11 24
REMARK SMILES IDX 19 25 20 26 21 27 22 29 23 30 24 31 70 32 25 33 69 34 26 35
REMARK SMILES IDX 27 36 28 37 63 38 29 39 68 40 62 41 64 42 30 43 67 44 61 45
REMARK SMILES IDX 60 46 31 48 53 49 38 50 52 51 39 52 42 53 51 54 65 55 40 56
REMARK SMILES IDX 41 57 50 59 66 60 43 61 32 62 33 63 37 64 34 65 36 66 35 67
REMARK SMILES IDX 54 68 55 69 59 70 56 71 58 72 57 73 44 74 45 75 49 76 46 77
REMARK SMILES IDX 48 78 47 79
REMARK H PARENT 15 7 20 28 64 47 42 58
REMARK Flexibility Score: inf
ROOT
ATOM      1  C   UNL     1      -4.642  -1.244   5.953  1.00  0.00     0.023 C 
ENDROOT
BRANCH   1   2
ATOM      2  C   UNL     1      -3.468  -1.857   5.205  1.00  0.00     0.023 C 
BRANCH   2   3
ATOM      3  C   UNL     1      -2.309  -0.928   4.874  1.00  0.00     0.116 C 
BRANCH   3   4
ATOM      4  N   UNL     1      -1.661  -0.318   6.027  1.00  0.00    -0.352 N 
ATOM      5  C   UNL     1      -0.338  -0.069   6.329  1.00  0.00     0.258 C 
ATOM      6  O   UNL     1      -0.106   0.469   7.407  1.00  0.00    -0.269 OA
ATOM      7  H   UNL     1      -2.289  -0.028   6.726  1.00  0.00     0.163 HD
BRANCH   5   8
ATOM      8  C   UNL     1       0.788  -0.510   5.457  1.00  0.00     0.119 A 
ATOM      9  C   UNL     1       1.442  -1.534   3.336  1.00  0.00     0.038 A 
ATOM     10  C   UNL     1       2.637  -1.954   3.936  1.00  0.00     0.033 A 
ATOM     11  C   UNL     1       0.603  -0.699   4.080  1.00  0.00     0.047 A 
ATOM     12  C   UNL     1       2.963  -1.589   5.239  1.00  0.00     0.088 A 
ATOM     13  C   UNL     1       2.023  -0.883   5.994  1.00  0.00     0.282 A 
BRANCH   9  14
ATOM     14  N   UNL     1       1.092  -1.987   2.087  1.00  0.00    -0.366 N 
ATOM     15  C   UNL     1       0.023  -0.885  -1.399  1.00  0.00     0.040 C 
ATOM     16  C   UNL     1       0.895  -1.488  -0.302  1.00  0.00     0.135 C 
ATOM     17  C   UNL     1       0.293  -1.244   1.106  1.00  0.00     0.148 C 
ATOM     18  O   UNL     1       1.051  -2.891  -0.603  1.00  0.00    -0.372 OA
ATOM     19  C   UNL     1       1.778  -3.626   0.399  1.00  0.00     0.135 C 
ATOM     20  C   UNL     1       1.161  -3.429   1.793  1.00  0.00     0.148 C 
ATOM     21  C   UNL     1       3.267  -3.285   0.385  1.00  0.00     0.040 C 
ENDBRANCH   9  14
BRANCH  13  22
ATOM     22  N   UNL     1       2.424  -0.518   7.336  1.00  0.00     0.063 N 
ATOM     23  O   UNL     1       2.553  -1.444   8.149  1.00  0.00    -0.258 OA
ATOM     24  O   UNL     1       2.754   0.662   7.517  1.00  0.00    -0.258 OA
ENDBRANCH  13  22
ENDBRANCH   5   8
ENDBRANCH   3   4
ENDBRANCH   2   3
ENDBRANCH   1   2
BRANCH   1  25
ATOM     25  C   UNL     1      -5.198   0.052   5.377  1.00  0.00     0.116 C 
BRANCH  25  26
ATOM     26  N   UNL     1      -5.602  -0.049   3.982  1.00  0.00    -0.352 N 
ATOM     27  C   UNL     1      -6.795   0.286   3.381  1.00  0.00     0.251 C 
ATOM     28  H   UNL     1      -4.917  -0.412   3.376  1.00  0.00     0.163 HD
ATOM     29  O   UNL     1      -6.969   0.053   2.194  1.00  0.00    -0.269 OA
BRANCH  27  30
ATOM     30  C   UNL     1      -7.882   0.887   4.186  1.00  0.00     0.039 A 
ATOM     31  C   UNL     1      -9.174   0.373   4.055  1.00  0.00     0.014 A 
ATOM     32  C   UNL     1      -7.627   1.925   5.084  1.00  0.00     0.014 A 
ATOM     33  C   UNL     1     -10.191   0.840   4.890  1.00  0.00     0.010 A 
ATOM     34  C   UNL     1      -8.619   2.327   5.974  1.00  0.00     0.010 A 
ATOM     35  C   UNL     1      -9.911   1.786   5.889  1.00  0.00    -0.014 A 
BRANCH  35  36
ATOM     36  C   UNL     1     -10.953   2.209   6.859  1.00  0.00     0.031 A 
ATOM     37  C   UNL     1     -11.412   3.641   6.906  1.00  0.00     0.074 A 
ATOM     38  C   UNL     1     -11.442   1.315   7.742  1.00  0.00     0.049 A 
ATOM     39  N   UNL     1     -12.290   4.199   7.701  1.00  0.00    -0.248 NA
ATOM     40  C   UNL     1     -10.785   4.573   5.955  1.00  0.00     0.031 C 
ATOM     41  C   UNL     1     -11.043  -0.091   7.838  1.00  0.00     0.029 A 
ATOM     42  N   UNL     1     -12.383   1.459   8.731  1.00  0.00    -0.354 N 
ATOM     43  C   UNL     1     -12.303   5.546   7.360  1.00  0.00     0.074 A 
ATOM     44  C   UNL     1     -11.313   5.731   6.323  1.00  0.00     0.031 C 
ATOM     45  C   UNL     1     -11.763  -0.689   8.801  1.00  0.00     0.029 A 
ATOM     46  C   UNL     1     -12.644   0.298   9.418  1.00  0.00     0.049 A 
ATOM     47  H   UNL     1     -12.830   2.314   8.929  1.00  0.00     0.167 HD
ATOM     48  C   UNL     1     -13.084   6.538   7.851  1.00  0.00     0.031 A 
ATOM     49  C   UNL     1     -13.498   0.053  10.430  1.00  0.00     0.031 A 
ATOM     50  C   UNL     1     -14.083   6.352   8.869  1.00  0.00     0.049 A 
ATOM     51  C   UNL     1     -14.352   1.173  10.956  1.00  0.00     0.074 A 
ATOM     52  C   UNL     1     -14.976   7.279   9.379  1.00  0.00     0.029 A 
ATOM     53  N   UNL     1     -14.319   5.160   9.534  1.00  0.00    -0.354 N 
ATOM     54  N   UNL     1     -14.415   2.421  10.560  1.00  0.00    -0.248 NA
ATOM     55  C   UNL     1     -15.263   0.844  12.061  1.00  0.00     0.031 C 
ATOM     56  C   UNL     1     -15.717   6.660  10.390  1.00  0.00     0.029 A 
ATOM     57  C   UNL     1     -15.325   5.334  10.470  1.00  0.00     0.049 A 
ATOM     58  H   UNL     1     -13.843   4.315   9.367  1.00  0.00     0.167 HD
ATOM     59  C   UNL     1     -15.392   3.018  11.347  1.00  0.00     0.074 A 
ATOM     60  C   UNL     1     -15.906   1.990  12.229  1.00  0.00     0.031 C 
ATOM     61  C   UNL     1     -15.825   4.302  11.339  1.00  0.00     0.031 A 
BRANCH  48  62
ATOM     62  C   UNL     1     -12.882   7.920   7.294  1.00  0.00    -0.014 A 
ATOM     63  C   UNL     1     -13.264   8.239   5.981  1.00  0.00     0.009 A 
ATOM     64  C   UNL     1     -12.338   8.927   8.106  1.00  0.00     0.009 A 
ATOM     65  C   UNL     1     -13.071   9.529   5.482  1.00  0.00     0.001 A 
ATOM     66  C   UNL     1     -12.174  10.223   7.614  1.00  0.00     0.001 A 
ATOM     67  C   UNL     1     -12.531  10.520   6.300  1.00  0.00     0.000 A 
ENDBRANCH  48  62
BRANCH  49  68
ATOM     68  C   UNL     1     -13.614  -1.315  11.000  1.00  0.00    -0.014 A 
ATOM     69  C   UNL     1     -14.775  -2.075  10.790  1.00  0.00     0.009 A 
ATOM     70  C   UNL     1     -12.579  -1.859  11.776  1.00  0.00     0.009 A 
ATOM     71  C   UNL     1     -14.911  -3.338  11.370  1.00  0.00     0.001 A 
ATOM     72  C   UNL     1     -12.705  -3.135  12.330  1.00  0.00     0.001 A 
ATOM     73  C   UNL     1     -13.875  -3.868  12.136  1.00  0.00     0.000 A 
ENDBRANCH  49  68
BRANCH  61  74
ATOM     74  C   UNL     1     -16.935   4.655  12.289  1.00  0.00    -0.014 A 
ATOM     75  C   UNL     1     -16.714   4.742  13.672  1.00  0.00     0.009 A 
ATOM     76  C   UNL     1     -18.215   4.936  11.785  1.00  0.00     0.009 A 
ATOM     77  C   UNL     1     -17.762   5.065  14.535  1.00  0.00     0.001 A 
ATOM     78  C   UNL     1     -19.254   5.288  12.647  1.00  0.00     0.001 A 
ATOM     79  C   UNL     1     -19.029   5.342  14.022  1.00  0.00     0.000 A 
ENDBRANCH  61  74
ENDBRANCH  35  36
ENDBRANCH  27  30
ENDBRANCH  25  26
ENDBRANCH   1  25
TORSDOF 13
