REMARK SMILES O=C(NCCCCNC(=O)c1c(/C=C2/SC(=S)N=C2O)cnc2ccccc12)c1ccc(-c2c3nc(c(-c4ccccc4)c4ccc([nH]4)c(-c4ccccc4)c4nc(c(-c5ccccc5)c5ccc2[nH]5)C=C4)C=C3)cc1
REMARK SMILES IDX 5 1 4 2 3 3 1 4 2 5 29 7 30 8 76 9 31 10 75 11 32 12 33 13
REMARK SMILES IDX 34 14 69 15 35 16 74 17 68 18 70 19 36 20 73 21 67 22 66 23
REMARK SMILES IDX 37 25 59 26 44 27 58 28 45 29 48 30 57 31 71 32 46 33 47 34
REMARK SMILES IDX 56 36 72 37 49 38 38 39 39 40 43 41 40 42 42 43 41 44 60 45
REMARK SMILES IDX 61 46 65 47 62 48 64 49 63 50 50 51 51 52 55 53 52 54 54 55
REMARK SMILES IDX 53 56 6 57 7 58 8 59 9 60 10 62 11 63 12 64 28 65 21 66
REMARK SMILES IDX 23 67 27 68 22 69 24 70 26 71 25 72 13 73 14 74 15 75 19 76
REMARK SMILES IDX 16 77 18 78 17 79 20 80
REMARK H PARENT 3 6 70 24 48 35 8 61 20 81
REMARK Flexibility Score: inf
ROOT
ATOM      1  C   UNL     1       4.980  -0.432   2.461  1.00  0.00     0.023 C 
ENDROOT
BRANCH   1   2
ATOM      2  C   UNL     1       4.566  -0.809   1.043  1.00  0.00     0.116 C 
BRANCH   2   3
ATOM      3  N   UNL     1       3.126  -0.860   0.859  1.00  0.00    -0.352 N 
ATOM      4  O   UNL     1       1.098  -0.232   0.109  1.00  0.00    -0.269 OA
ATOM      5  C   UNL     1       2.318  -0.118   0.033  1.00  0.00     0.251 C 
ATOM      6  H   UNL     1       2.658  -1.528   1.410  1.00  0.00     0.163 HD
BRANCH   5   7
ATOM      7  C   UNL     1       2.909   0.842  -0.921  1.00  0.00     0.039 A 
ATOM      8  C   UNL     1       3.985   0.484  -1.738  1.00  0.00     0.014 A 
ATOM      9  C   UNL     1       2.360   2.123  -1.004  1.00  0.00     0.014 A 
ATOM     10  C   UNL     1       4.601   1.446  -2.534  1.00  0.00     0.010 A 
ATOM     11  C   UNL     1       2.929   3.065  -1.862  1.00  0.00     0.010 A 
ATOM     12  C   UNL     1       4.073   2.743  -2.610  1.00  0.00    -0.014 A 
BRANCH  12  13
ATOM     13  C   UNL     1       4.687   3.754  -3.504  1.00  0.00     0.031 A 
ATOM     14  C   UNL     1       5.309   4.999  -2.941  1.00  0.00     0.074 A 
ATOM     15  C   UNL     1       4.641   3.566  -4.836  1.00  0.00     0.049 A 
ATOM     16  N   UNL     1       5.796   6.037  -3.573  1.00  0.00    -0.248 NA
ATOM     17  C   UNL     1       5.383   5.097  -1.475  1.00  0.00     0.031 C 
ATOM     18  C   UNL     1       4.070   2.394  -5.503  1.00  0.00     0.029 A 
ATOM     19  N   UNL     1       5.067   4.364  -5.866  1.00  0.00    -0.354 N 
ATOM     20  C   UNL     1       6.208   6.922  -2.585  1.00  0.00     0.074 A 
ATOM     21  C   UNL     1       5.893   6.309  -1.312  1.00  0.00     0.031 C 
ATOM     22  C   UNL     1       4.186   2.547  -6.830  1.00  0.00     0.029 A 
ATOM     23  C   UNL     1       4.776   3.852  -7.106  1.00  0.00     0.049 A 
ATOM     24  H   UNL     1       5.534   5.220  -5.730  1.00  0.00     0.167 HD
ATOM     25  C   UNL     1       6.793   8.136  -2.728  1.00  0.00     0.031 A 
ATOM     26  C   UNL     1       4.928   4.385  -8.332  1.00  0.00     0.031 A 
ATOM     27  C   UNL     1       7.092   8.745  -3.999  1.00  0.00     0.049 A 
ATOM     28  C   UNL     1       5.528   5.753  -8.468  1.00  0.00     0.074 A 
ATOM     29  C   UNL     1       7.717   9.954  -4.250  1.00  0.00     0.029 A 
ATOM     30  N   UNL     1       6.775   8.194  -5.232  1.00  0.00    -0.354 N 
ATOM     31  N   UNL     1       5.945   6.566  -7.528  1.00  0.00    -0.248 NA
ATOM     32  C   UNL     1       5.682   6.277  -9.832  1.00  0.00     0.031 C 
ATOM     33  C   UNL     1       7.719  10.165  -5.633  1.00  0.00     0.029 A 
ATOM     34  C   UNL     1       7.160   9.055  -6.247  1.00  0.00     0.049 A 
ATOM     35  H   UNL     1       6.339   7.322  -5.366  1.00  0.00     0.167 HD
ATOM     36  C   UNL     1       6.438   7.684  -8.185  1.00  0.00     0.074 A 
ATOM     37  C   UNL     1       6.271   7.444  -9.604  1.00  0.00     0.031 C 
ATOM     38  C   UNL     1       6.989   8.804  -7.656  1.00  0.00     0.031 A 
BRANCH  25  39
ATOM     39  C   UNL     1       7.099   8.908  -1.472  1.00  0.00    -0.014 A 
ATOM     40  C   UNL     1       8.094   8.491  -0.574  1.00  0.00     0.009 A 
ATOM     41  C   UNL     1       6.384  10.084  -1.191  1.00  0.00     0.009 A 
ATOM     42  C   UNL     1       8.329   9.206   0.604  1.00  0.00     0.001 A 
ATOM     43  C   UNL     1       6.644  10.814  -0.030  1.00  0.00     0.001 A 
ATOM     44  C   UNL     1       7.606  10.367   0.874  1.00  0.00     0.000 A 
ENDBRANCH  25  39
BRANCH  26  45
ATOM     45  C   UNL     1       4.476   3.612  -9.517  1.00  0.00    -0.014 A 
ATOM     46  C   UNL     1       5.407   3.028 -10.387  1.00  0.00     0.009 A 
ATOM     47  C   UNL     1       3.106   3.405  -9.746  1.00  0.00     0.009 A 
ATOM     48  C   UNL     1       4.973   2.258 -11.469  1.00  0.00     0.001 A 
ATOM     49  C   UNL     1       2.677   2.611 -10.810  1.00  0.00     0.001 A 
ATOM     50  C   UNL     1       3.611   2.042 -11.674  1.00  0.00     0.000 A 
ENDBRANCH  26  45
BRANCH  38  51
ATOM     51  C   UNL     1       7.500   9.844  -8.613  1.00  0.00    -0.014 A 
ATOM     52  C   UNL     1       6.626  10.678  -9.326  1.00  0.00     0.009 A 
ATOM     53  C   UNL     1       8.885  10.040  -8.740  1.00  0.00     0.009 A 
ATOM     54  C   UNL     1       7.132  11.678 -10.161  1.00  0.00     0.001 A 
ATOM     55  C   UNL     1       9.386  11.057  -9.553  1.00  0.00     0.001 A 
ATOM     56  C   UNL     1       8.509  11.872 -10.266  1.00  0.00     0.000 A 
ENDBRANCH  38  51
ENDBRANCH  12  13
ENDBRANCH   5   7
ENDBRANCH   2   3
ENDBRANCH   1   2
BRANCH   1  57
ATOM     57  C   UNL     1       4.479  -1.353   3.571  1.00  0.00     0.023 C 
BRANCH  57  58
ATOM     58  C   UNL     1       4.630  -2.846   3.318  1.00  0.00     0.116 C 
BRANCH  58  59
ATOM     59  N   UNL     1       5.972  -3.259   2.943  1.00  0.00    -0.352 N 
ATOM     60  C   UNL     1       6.570  -4.440   3.281  1.00  0.00     0.252 C 
ATOM     61  H   UNL     1       6.497  -2.632   2.396  1.00  0.00     0.163 HD
ATOM     62  O   UNL     1       7.507  -4.918   2.648  1.00  0.00    -0.269 OA
BRANCH  60  63
ATOM     63  C   UNL     1       6.120  -5.174   4.452  1.00  0.00     0.058 A 
ATOM     64  C   UNL     1       6.742  -4.949   5.684  1.00  0.00     0.007 A 
ATOM     65  C   UNL     1       5.022  -6.064   4.278  1.00  0.00     0.014 A 
ATOM     66  C   UNL     1       6.159  -5.658   6.734  1.00  0.00     0.120 A 
ATOM     67  C   UNL     1       4.517  -6.665   5.439  1.00  0.00     0.071 A 
ATOM     68  C   UNL     1       4.393  -6.337   3.034  1.00  0.00     0.011 A 
ATOM     69  N   UNL     1       5.081  -6.476   6.640  1.00  0.00    -0.256 NA
ATOM     70  C   UNL     1       3.379  -7.457   5.341  1.00  0.00     0.029 A 
ATOM     71  C   UNL     1       3.260  -7.141   2.958  1.00  0.00     0.001 A 
ATOM     72  C   UNL     1       2.743  -7.693   4.120  1.00  0.00     0.002 A 
BRANCH  64  73
ATOM     73  C   UNL     1       7.739  -3.913   6.060  1.00  0.00     0.031 C 
ATOM     74  C   UNL     1       8.735  -3.177   5.526  1.00  0.00     0.077 C 
ATOM     75  S   UNL     1       9.346  -1.852   6.535  1.00  0.00    -0.053 SA
ATOM     76  C   UNL     1       9.503  -3.007   4.268  1.00  0.00     0.227 C 
ATOM     77  C   UNL     1      10.095  -1.081   5.130  1.00  0.00     0.168 C 
ATOM     78  N   UNL     1      10.182  -1.926   4.055  1.00  0.00    -0.194 NA
ATOM     79  S   UNL     1      10.591   0.514   5.163  1.00  0.00    -0.050 S 
BRANCH  76  80
ATOM     80  O   UNL     1       9.621  -3.985   3.379  1.00  0.00    -0.492 OA
ATOM     81  H   UNL     1       9.146  -4.784   3.496  1.00  0.00     0.295 HD
ENDBRANCH  76  80
ENDBRANCH  64  73
ENDBRANCH  60  63
ENDBRANCH  58  59
ENDBRANCH  57  58
ENDBRANCH   1  57
TORSDOF 13
