REMARK SMILES O=C(NCCCCNC(=O)[C@H]1COCCN1C(=O)c1ccc(Br)nc1)c1ccc(-c2c3nc(c(-c4ccccc4)c4ccc([nH]4)c(-c4ccccc4)c4nc(c(-c5ccccc5)c5ccc2[nH]5)C=C4)C=C3)cc1
REMARK SMILES IDX 5 1 4 2 3 3 1 4 2 5 26 7 27 8 73 9 28 10 72 11 29 12 30 13
REMARK SMILES IDX 31 14 66 15 32 16 71 17 65 18 67 19 33 20 70 21 64 22 63 23
REMARK SMILES IDX 34 25 56 26 41 27 55 28 42 29 45 30 54 31 68 32 43 33 44 34
REMARK SMILES IDX 53 36 69 37 46 38 35 39 36 40 40 41 37 42 39 43 38 44 57 45
REMARK SMILES IDX 58 46 62 47 59 48 61 49 60 50 47 51 48 52 52 53 49 54 51 55
REMARK SMILES IDX 50 56 6 57 7 58 8 59 9 60 10 62 11 63 12 64 16 65 13 66
REMARK SMILES IDX 15 67 14 68 17 69 18 70 19 71 20 72 25 73 21 74 24 75 22 76
REMARK SMILES IDX 23 77
REMARK H PARENT 3 6 67 24 45 35 8 61
REMARK Flexibility Score: inf
ROOT
ATOM      1  C   UNL     1      11.432   2.011   6.702  1.00  0.00     0.023 C 
ENDROOT
BRANCH   1   2
ATOM      2  C   UNL     1      11.754   0.532   6.844  1.00  0.00     0.116 C 
BRANCH   2   3
ATOM      3  N   UNL     1      12.301  -0.045   5.628  1.00  0.00    -0.352 N 
ATOM      4  O   UNL     1      13.829  -1.126   4.363  1.00  0.00    -0.269 OA
ATOM      5  C   UNL     1      13.423  -0.821   5.480  1.00  0.00     0.251 C 
ATOM      6  H   UNL     1      11.801   0.145   4.801  1.00  0.00     0.163 HD
BRANCH   5   7
ATOM      7  C   UNL     1      14.154  -1.271   6.682  1.00  0.00     0.039 A 
ATOM      8  C   UNL     1      13.466  -1.837   7.759  1.00  0.00     0.014 A 
ATOM      9  C   UNL     1      15.542  -1.123   6.726  1.00  0.00     0.014 A 
ATOM     10  C   UNL     1      14.152  -2.156   8.924  1.00  0.00     0.010 A 
ATOM     11  C   UNL     1      16.241  -1.517   7.869  1.00  0.00     0.010 A 
ATOM     12  C   UNL     1      15.549  -2.025   8.979  1.00  0.00    -0.014 A 
BRANCH  12  13
ATOM     13  C   UNL     1      16.281  -2.537  10.161  1.00  0.00     0.031 A 
ATOM     14  C   UNL     1      17.035  -1.617  11.075  1.00  0.00     0.074 A 
ATOM     15  C   UNL     1      16.270  -3.865  10.386  1.00  0.00     0.049 A 
ATOM     16  N   UNL     1      17.752  -1.917  12.128  1.00  0.00    -0.248 NA
ATOM     17  C   UNL     1      16.987  -0.178  10.771  1.00  0.00     0.031 C 
ATOM     18  C   UNL     1      15.579  -4.856   9.553  1.00  0.00     0.029 A 
ATOM     19  N   UNL     1      16.852  -4.614  11.375  1.00  0.00    -0.354 N 
ATOM     20  C   UNL     1      18.261  -0.713  12.598  1.00  0.00     0.074 A 
ATOM     21  C   UNL     1      17.779   0.324  11.711  1.00  0.00     0.031 C 
ATOM     22  C   UNL     1      15.758  -6.075  10.079  1.00  0.00     0.029 A 
ATOM     23  C   UNL     1      16.627  -5.962  11.243  1.00  0.00     0.049 A 
ATOM     24  H   UNL     1      17.379  -4.223  12.109  1.00  0.00     0.167 HD
ATOM     25  C   UNL     1      19.059  -0.500  13.672  1.00  0.00     0.031 A 
ATOM     26  C   UNL     1      17.097  -7.001  11.956  1.00  0.00     0.031 A 
ATOM     27  C   UNL     1      19.526  -1.538  14.553  1.00  0.00     0.049 A 
ATOM     28  C   UNL     1      18.014  -6.732  13.111  1.00  0.00     0.074 A 
ATOM     29  C   UNL     1      20.279  -1.411  15.708  1.00  0.00     0.029 A 
ATOM     30  N   UNL     1      19.301  -2.893  14.369  1.00  0.00    -0.354 N 
ATOM     31  N   UNL     1      18.426  -5.582  13.584  1.00  0.00    -0.248 NA
ATOM     32  C   UNL     1      18.536  -7.904  13.826  1.00  0.00     0.031 C 
ATOM     33  C   UNL     1      20.562  -2.694  16.188  1.00  0.00     0.029 A 
ATOM     34  C   UNL     1      19.940  -3.616  15.362  1.00  0.00     0.049 A 
ATOM     35  H   UNL     1      18.767  -3.284  13.640  1.00  0.00     0.167 HD
ATOM     36  C   UNL     1      19.250  -5.890  14.657  1.00  0.00     0.074 A 
ATOM     37  C   UNL     1      19.257  -7.333  14.781  1.00  0.00     0.031 C 
ATOM     38  C   UNL     1      19.945  -5.052  15.462  1.00  0.00     0.031 A 
BRANCH  25  39
ATOM     39  C   UNL     1      19.512   0.906  13.947  1.00  0.00    -0.014 A 
ATOM     40  C   UNL     1      18.642   1.864  14.488  1.00  0.00     0.009 A 
ATOM     41  C   UNL     1      20.858   1.250  13.740  1.00  0.00     0.009 A 
ATOM     42  C   UNL     1      19.107   3.144  14.800  1.00  0.00     0.001 A 
ATOM     43  C   UNL     1      21.325   2.523  14.073  1.00  0.00     0.001 A 
ATOM     44  C   UNL     1      20.448   3.470  14.598  1.00  0.00     0.000 A 
ENDBRANCH  25  39
BRANCH  26  45
ATOM     45  C   UNL     1      16.747  -8.388  11.560  1.00  0.00    -0.014 A 
ATOM     46  C   UNL     1      15.913  -9.177  12.365  1.00  0.00     0.009 A 
ATOM     47  C   UNL     1      17.245  -8.929  10.363  1.00  0.00     0.009 A 
ATOM     48  C   UNL     1      15.605 -10.487  11.991  1.00  0.00     0.001 A 
ATOM     49  C   UNL     1      16.910 -10.226   9.976  1.00  0.00     0.001 A 
ATOM     50  C   UNL     1      16.099 -11.008  10.795  1.00  0.00     0.000 A 
ENDBRANCH  26  45
BRANCH  38  51
ATOM     51  C   UNL     1      20.762  -5.679  16.553  1.00  0.00    -0.014 A 
ATOM     52  C   UNL     1      21.966  -6.340  16.262  1.00  0.00     0.009 A 
ATOM     53  C   UNL     1      20.344  -5.576  17.888  1.00  0.00     0.009 A 
ATOM     54  C   UNL     1      22.722  -6.909  17.287  1.00  0.00     0.001 A 
ATOM     55  C   UNL     1      21.116  -6.122  18.913  1.00  0.00     0.001 A 
ATOM     56  C   UNL     1      22.300  -6.794  18.612  1.00  0.00     0.000 A 
ENDBRANCH  38  51
ENDBRANCH  12  13
ENDBRANCH   5   7
ENDBRANCH   2   3
ENDBRANCH   1   2
BRANCH   1  57
ATOM     57  C   UNL     1      10.400   2.345   5.627  1.00  0.00     0.023 C 
BRANCH  57  58
ATOM     58  C   UNL     1       9.079   1.588   5.737  1.00  0.00     0.116 C 
BRANCH  58  59
ATOM     59  N   UNL     1       8.392   1.907   6.972  1.00  0.00    -0.354 N 
ATOM     60  C   UNL     1       7.200   2.525   7.211  1.00  0.00     0.245 C 
ATOM     61  H   UNL     1       8.871   1.627   7.785  1.00  0.00     0.163 HD
ATOM     62  O   UNL     1       6.940   2.764   8.393  1.00  0.00    -0.273 OA
BRANCH  60  63
ATOM     63  C   UNL     1       6.273   2.945   6.047  1.00  0.00     0.200 C 
ATOM     64  C   UNL     1       4.843   2.437   6.329  1.00  0.00     0.195 C 
ATOM     65  N   UNL     1       6.268   4.414   5.842  1.00  0.00    -0.322 N 
ATOM     66  O   UNL     1       4.149   3.184   7.336  1.00  0.00    -0.377 OA
ATOM     67  C   UNL     1       5.525   5.158   6.867  1.00  0.00     0.149 C 
ATOM     68  C   UNL     1       4.117   4.584   7.036  1.00  0.00     0.181 C 
BRANCH  65  69
ATOM     69  C   UNL     1       6.984   5.138   4.896  1.00  0.00     0.256 C 
ATOM     70  O   UNL     1       7.083   6.363   4.914  1.00  0.00    -0.269 OA
BRANCH  69  71
ATOM     71  C   UNL     1       7.676   4.447   3.797  1.00  0.00     0.058 A 
ATOM     72  C   UNL     1       7.036   3.571   2.922  1.00  0.00     0.018 A 
ATOM     73  C   UNL     1       9.018   4.726   3.582  1.00  0.00     0.126 A 
ATOM     74  C   UNL     1       7.785   2.935   1.931  1.00  0.00     0.037 A 
ATOM     75  N   UNL     1       9.771   4.106   2.641  1.00  0.00    -0.249 NA
ATOM     76  C   UNL     1       9.142   3.221   1.838  1.00  0.00     0.106 A 
ATOM     77  Br  UNL     1      10.187   2.307   0.549  1.00  0.00    -0.029 Br
ENDBRANCH  69  71
ENDBRANCH  65  69
ENDBRANCH  60  63
ENDBRANCH  58  59
ENDBRANCH  57  58
ENDBRANCH   1  57
TORSDOF 13
