REMARK SMILES CC(C)c1ccc(C(=O)NC[C@H]2CC[C@@H](C(=O)NCCCCNC(=O)c3ccc(-c4c5nc(c(-c6ccccc6)c6ccc([nH]6)c(-c6ccccc6)c6nc(c(-c7ccccc7)c7ccc4[nH]7)C=C6)C=C5)cc3)O2)cc1
REMARK SMILES IDX 19 1 18 2 16 3 17 4 15 6 12 7 13 8 74 9 14 10 11 11 10 12
REMARK SMILES IDX 8 13 9 14 7 16 4 17 5 18 76 19 6 20 75 21 2 22 1 23 3 24
REMARK SMILES IDX 20 25 21 26 22 27 23 28 24 29 25 31 26 32 27 33 73 34 28 35
REMARK SMILES IDX 72 36 29 37 30 38 31 39 66 40 32 41 71 42 65 43 67 44 33 45
REMARK SMILES IDX 70 46 64 47 63 48 34 50 56 51 41 52 55 53 42 54 45 55 54 56
REMARK SMILES IDX 68 57 43 58 44 59 53 61 69 62 46 63 35 64 36 65 40 66 37 67
REMARK SMILES IDX 39 68 38 69 57 70 58 71 62 72 59 73 61 74 60 75 47 76 48 77
REMARK SMILES IDX 52 78 49 79 51 80 50 81
REMARK H PARENT 18 5 10 15 23 30 67 49 45 60
REMARK Flexibility Score: inf
ROOT
ATOM      1  C   UNL     1     -10.148  -4.414   1.986  1.00  0.00     0.116 C 
ENDROOT
BRANCH   1   2
ATOM      2  N   UNL     1      -9.518  -4.307   3.289  1.00  0.00    -0.354 N 
ATOM      3  C   UNL     1      -8.192  -4.247   3.612  1.00  0.00     0.249 C 
ATOM      4  O   UNL     1      -7.895  -4.273   4.809  1.00  0.00    -0.272 OA
ATOM      5  H   UNL     1     -10.138  -4.272   4.053  1.00  0.00     0.163 HD
BRANCH   3   6
ATOM      6  C   UNL     1      -7.135  -4.109   2.505  1.00  0.00     0.207 C 
ATOM      7  C   UNL     1      -5.434  -2.546   2.049  1.00  0.00     0.138 C 
ATOM      8  C   UNL     1      -4.841  -3.948   2.025  1.00  0.00     0.037 C 
ATOM      9  O   UNL     1      -6.857  -2.723   2.224  1.00  0.00    -0.363 OA
ATOM     10  C   UNL     1      -5.801  -4.728   2.887  1.00  0.00     0.045 C 
BRANCH   7  11
ATOM     11  C   UNL     1      -4.824  -1.669   3.166  1.00  0.00     0.148 C 
BRANCH  11  12
ATOM     12  N   UNL     1      -5.112  -0.252   2.965  1.00  0.00    -0.349 N 
ATOM     13  C   UNL     1      -5.839   0.680   3.658  1.00  0.00     0.251 C 
ATOM     14  O   UNL     1      -5.753   1.849   3.274  1.00  0.00    -0.269 OA
ATOM     15  H   UNL     1      -4.693   0.114   2.153  1.00  0.00     0.163 HD
BRANCH  13  16
ATOM     16  C   UNL     1      -6.688   0.377   4.843  1.00  0.00     0.039 A 
ATOM     17  C   UNL     1      -8.356  -0.018   7.120  1.00  0.00    -0.045 A 
ATOM     18  C   UNL     1      -7.797   1.236   6.843  1.00  0.00     0.005 A 
ATOM     19  C   UNL     1      -8.094  -1.054   6.211  1.00  0.00     0.005 A 
ATOM     20  C   UNL     1      -6.974   1.429   5.724  1.00  0.00     0.014 A 
ATOM     21  C   UNL     1      -7.284  -0.854   5.085  1.00  0.00     0.014 A 
BRANCH  17  22
ATOM     22  C   UNL     1      -9.267  -0.287   8.314  1.00  0.00     0.013 C 
ATOM     23  C   UNL     1      -8.763  -1.467   9.159  1.00  0.00     0.012 C 
ATOM     24  C   UNL     1      -9.497   0.913   9.241  1.00  0.00     0.012 C 
ENDBRANCH  17  22
ENDBRANCH  13  16
ENDBRANCH  11  12
ENDBRANCH   7  11
ENDBRANCH   3   6
ENDBRANCH   1   2
BRANCH   1  25
ATOM     25  C   UNL     1     -10.631  -5.842   1.721  1.00  0.00     0.023 C 
BRANCH  25  26
ATOM     26  C   UNL     1     -11.729  -6.337   2.671  1.00  0.00     0.023 C 
BRANCH  26  27
ATOM     27  C   UNL     1     -13.006  -5.501   2.693  1.00  0.00     0.116 C 
BRANCH  27  28
ATOM     28  N   UNL     1     -13.692  -5.471   1.411  1.00  0.00    -0.352 N 
ATOM     29  C   UNL     1     -15.037  -5.600   1.143  1.00  0.00     0.251 C 
ATOM     30  H   UNL     1     -13.114  -5.340   0.625  1.00  0.00     0.163 HD
ATOM     31  O   UNL     1     -15.435  -5.671  -0.008  1.00  0.00    -0.269 OA
BRANCH  29  32
ATOM     32  C   UNL     1     -15.998  -5.690   2.266  1.00  0.00     0.039 A 
ATOM     33  C   UNL     1     -16.951  -6.713   2.258  1.00  0.00     0.014 A 
ATOM     34  C   UNL     1     -15.947  -4.784   3.328  1.00  0.00     0.014 A 
ATOM     35  C   UNL     1     -17.802  -6.877   3.355  1.00  0.00     0.010 A 
ATOM     36  C   UNL     1     -16.753  -4.984   4.445  1.00  0.00     0.010 A 
ATOM     37  C   UNL     1     -17.681  -6.038   4.475  1.00  0.00    -0.014 A 
BRANCH  37  38
ATOM     38  C   UNL     1     -18.502  -6.239   5.696  1.00  0.00     0.031 A 
ATOM     39  C   UNL     1     -19.479  -5.181   6.124  1.00  0.00     0.074 A 
ATOM     40  C   UNL     1     -18.305  -7.326   6.468  1.00  0.00     0.049 A 
ATOM     41  N   UNL     1     -20.168  -5.092   7.233  1.00  0.00    -0.248 NA
ATOM     42  C   UNL     1     -19.691  -4.063   5.190  1.00  0.00     0.031 C 
ATOM     43  C   UNL     1     -17.375  -8.420   6.178  1.00  0.00     0.029 A 
ATOM     44  N   UNL     1     -18.864  -7.677   7.672  1.00  0.00    -0.354 N 
ATOM     45  C   UNL     1     -20.880  -3.903   7.139  1.00  0.00     0.074 A 
ATOM     46  C   UNL     1     -20.508  -3.284   5.885  1.00  0.00     0.031 C 
ATOM     47  C   UNL     1     -17.433  -9.321   7.173  1.00  0.00     0.029 A 
ATOM     48  C   UNL     1     -18.366  -8.848   8.191  1.00  0.00     0.049 A 
ATOM     49  H   UNL     1     -19.557  -7.140   8.121  1.00  0.00     0.167 HD
ATOM     50  C   UNL     1     -21.774  -3.379   8.011  1.00  0.00     0.031 A 
ATOM     51  C   UNL     1     -18.613  -9.461   9.364  1.00  0.00     0.031 A 
ATOM     52  C   UNL     1     -22.152  -3.994   9.254  1.00  0.00     0.049 A 
ATOM     53  C   UNL     1     -19.586  -8.841  10.330  1.00  0.00     0.074 A 
ATOM     54  C   UNL     1     -23.067  -3.549  10.193  1.00  0.00     0.029 A 
ATOM     55  N   UNL     1     -21.638  -5.189   9.729  1.00  0.00    -0.354 N 
ATOM     56  N   UNL     1     -20.272  -7.731  10.212  1.00  0.00    -0.248 NA
ATOM     57  C   UNL     1     -19.821  -9.564  11.589  1.00  0.00     0.031 C 
ATOM     58  C   UNL     1     -23.081  -4.460  11.254  1.00  0.00     0.029 A 
ATOM     59  C   UNL     1     -22.210  -5.494  10.952  1.00  0.00     0.049 A 
ATOM     60  H   UNL     1     -20.966  -5.740   9.266  1.00  0.00     0.167 HD
ATOM     61  C   UNL     1     -21.043  -7.639  11.364  1.00  0.00     0.074 A 
ATOM     62  C   UNL     1     -20.747  -8.810  12.163  1.00  0.00     0.031 C 
ATOM     63  C   UNL     1     -21.919  -6.671  11.726  1.00  0.00     0.031 A 
BRANCH  50  64
ATOM     64  C   UNL     1     -22.408  -2.067   7.643  1.00  0.00    -0.014 A 
ATOM     65  C   UNL     1     -23.361  -1.990   6.615  1.00  0.00     0.009 A 
ATOM     66  C   UNL     1     -22.079  -0.904   8.355  1.00  0.00     0.009 A 
ATOM     67  C   UNL     1     -23.947  -0.766   6.285  1.00  0.00     0.001 A 
ATOM     68  C   UNL     1     -22.686   0.313   8.041  1.00  0.00     0.001 A 
ATOM     69  C   UNL     1     -23.613   0.383   7.002  1.00  0.00     0.000 A 
ENDBRANCH  50  64
BRANCH  51  70
ATOM     70  C   UNL     1     -17.924 -10.733   9.705  1.00  0.00    -0.014 A 
ATOM     71  C   UNL     1     -18.639 -11.940   9.746  1.00  0.00     0.009 A 
ATOM     72  C   UNL     1     -16.556 -10.743  10.019  1.00  0.00     0.009 A 
ATOM     73  C   UNL     1     -18.005 -13.126  10.125  1.00  0.00     0.001 A 
ATOM     74  C   UNL     1     -15.919 -11.935  10.370  1.00  0.00     0.001 A 
ATOM     75  C   UNL     1     -16.646 -13.123  10.434  1.00  0.00     0.000 A 
ENDBRANCH  51  70
BRANCH  63  76
ATOM     76  C   UNL     1     -22.662  -6.861  13.017  1.00  0.00    -0.014 A 
ATOM     77  C   UNL     1     -22.033  -6.667  14.256  1.00  0.00     0.009 A 
ATOM     78  C   UNL     1     -24.028  -7.183  12.987  1.00  0.00     0.009 A 
ATOM     79  C   UNL     1     -22.754  -6.817  15.442  1.00  0.00     0.001 A 
ATOM     80  C   UNL     1     -24.751  -7.308  14.173  1.00  0.00     0.001 A 
ATOM     81  C   UNL     1     -24.113  -7.131  15.400  1.00  0.00     0.000 A 
ENDBRANCH  63  76
ENDBRANCH  37  38
ENDBRANCH  29  32
ENDBRANCH  27  28
ENDBRANCH  26  27
ENDBRANCH  25  26
ENDBRANCH   1  25
TORSDOF 15
