REMARK SMILES CNC(=O)NC(=O)CCSc1csc(C(=O)NCCCCNC(=O)c2ccc(-c3c4nc(c(-c5ccccc5)c5ccc([nH]5)c(-c5ccccc5)c5nc(c(-c6ccccc6)c6ccc3[nH]6)C=C5)C=C4)cc2)c1
REMARK SMILES IDX 18 1 17 2 15 3 16 4 14 6 11 7 12 8 73 9 13 10 10 11 9 12
REMARK SMILES IDX 8 13 6 14 1 15 2 16 3 17 4 19 5 20 7 22 19 23 20 24 21 25
REMARK SMILES IDX 22 26 23 27 24 29 25 30 26 31 72 32 27 33 71 34 28 35 29 36
REMARK SMILES IDX 30 37 65 38 31 39 70 40 64 41 66 42 32 43 69 44 63 45 62 46
REMARK SMILES IDX 33 48 55 49 40 50 54 51 41 52 44 53 53 54 67 55 42 56 43 57
REMARK SMILES IDX 52 59 68 60 45 61 34 62 35 63 39 64 36 65 38 66 37 67 56 68
REMARK SMILES IDX 57 69 61 70 58 71 60 72 59 73 46 74 47 75 51 76 48 77 50 78
REMARK SMILES IDX 49 79
REMARK H PARENT 17 5 2 18 5 21 22 28 66 47 44 58
REMARK Flexibility Score: inf
ROOT
ATOM      1  C   UNL     1       0.846  -4.597  -3.006  1.00  0.00     0.116 C 
ENDROOT
BRANCH   1   2
ATOM      2  N   UNL     1       0.119  -4.654  -4.260  1.00  0.00    -0.351 N 
ATOM      3  C   UNL     1      -0.203  -3.621  -5.123  1.00  0.00     0.261 C 
ATOM      4  O   UNL     1      -0.910  -3.905  -6.092  1.00  0.00    -0.268 OA
ATOM      5  H   UNL     1      -0.187  -5.549  -4.534  1.00  0.00     0.163 HD
BRANCH   3   6
ATOM      6  C   UNL     1       0.264  -2.277  -4.821  1.00  0.00     0.093 A 
ATOM      7  C   UNL     1       1.276  -0.554  -3.668  1.00  0.00     0.019 A 
ATOM      8  C   UNL     1       0.262   0.132  -4.292  1.00  0.00     0.080 A 
ATOM      9  C   UNL     1       1.424  -1.859  -4.196  1.00  0.00     0.040 A 
ATOM     10  S   UNL     1      -0.695  -0.919  -5.254  1.00  0.00    -0.137 S 
BRANCH   7  11
ATOM     11  S   UNL     1       2.264   0.079  -2.367  1.00  0.00    -0.125 SA
BRANCH  11  12
ATOM     12  C   UNL     1       2.223  -1.299  -1.163  1.00  0.00     0.085 C 
BRANCH  12  13
ATOM     13  C   UNL     1       1.013  -1.519  -0.252  1.00  0.00     0.112 C 
BRANCH  13  14
ATOM     14  C   UNL     1      -0.365  -1.625  -0.845  1.00  0.00     0.228 C 
ATOM     15  C   UNL     1       0.451   1.585   0.481  1.00  0.00     0.144 C 
ATOM     16  N   UNL     1      -0.307   1.648  -0.739  1.00  0.00    -0.341 N 
ATOM     17  C   UNL     1      -1.145   0.800  -1.340  1.00  0.00     0.321 C 
ATOM     18  H   UNL     1      -0.184   2.491  -1.232  1.00  0.00     0.165 HD
ATOM     19  O   UNL     1      -1.934   1.272  -2.163  1.00  0.00    -0.248 OA
ATOM     20  N   UNL     1      -1.169  -0.547  -1.141  1.00  0.00    -0.278 N 
ATOM     21  H   UNL     1      -2.095  -0.864  -1.247  1.00  0.00     0.174 HD
ATOM     22  O   UNL     1      -0.840  -2.746  -1.068  1.00  0.00    -0.275 OA
ENDBRANCH  13  14
ENDBRANCH  12  13
ENDBRANCH  11  12
ENDBRANCH   7  11
ENDBRANCH   3   6
ENDBRANCH   1   2
BRANCH   1  23
ATOM     23  C   UNL     1       0.306  -5.506  -1.911  1.00  0.00     0.023 C 
BRANCH  23  24
ATOM     24  C   UNL     1       0.520  -6.992  -2.139  1.00  0.00     0.023 C 
BRANCH  24  25
ATOM     25  C   UNL     1       1.956  -7.398  -2.436  1.00  0.00     0.116 C 
BRANCH  25  26
ATOM     26  N   UNL     1       2.894  -7.067  -1.370  1.00  0.00    -0.352 N 
ATOM     27  C   UNL     1       3.803  -7.889  -0.741  1.00  0.00     0.251 C 
ATOM     28  H   UNL     1       2.876  -6.134  -1.058  1.00  0.00     0.163 HD
ATOM     29  O   UNL     1       4.463  -7.489   0.211  1.00  0.00    -0.269 OA
BRANCH  27  30
ATOM     30  C   UNL     1       3.935  -9.283  -1.210  1.00  0.00     0.039 A 
ATOM     31  C   UNL     1       3.797 -10.328  -0.294  1.00  0.00     0.014 A 
ATOM     32  C   UNL     1       4.082  -9.546  -2.573  1.00  0.00     0.014 A 
ATOM     33  C   UNL     1       3.706 -11.641  -0.762  1.00  0.00     0.010 A 
ATOM     34  C   UNL     1       3.887 -10.837  -3.041  1.00  0.00     0.010 A 
ATOM     35  C   UNL     1       3.696 -11.899  -2.143  1.00  0.00    -0.014 A 
BRANCH  35  36
ATOM     36  C   UNL     1       3.497 -13.266  -2.687  1.00  0.00     0.031 A 
ATOM     37  C   UNL     1       4.567 -13.882  -3.546  1.00  0.00     0.074 A 
ATOM     38  C   UNL     1       2.328 -13.911  -2.498  1.00  0.00     0.049 A 
ATOM     39  N   UNL     1       4.540 -14.997  -4.231  1.00  0.00    -0.248 NA
ATOM     40  C   UNL     1       5.823 -13.125  -3.682  1.00  0.00     0.031 C 
ATOM     41  C   UNL     1       1.196 -13.412  -1.714  1.00  0.00     0.029 A 
ATOM     42  N   UNL     1       1.893 -15.126  -2.968  1.00  0.00    -0.354 N 
ATOM     43  C   UNL     1       5.757 -15.057  -4.897  1.00  0.00     0.074 A 
ATOM     44  C   UNL     1       6.476 -13.844  -4.581  1.00  0.00     0.031 C 
ATOM     45  C   UNL     1       0.208 -14.322  -1.738  1.00  0.00     0.029 A 
ATOM     46  C   UNL     1       0.614 -15.443  -2.579  1.00  0.00     0.049 A 
ATOM     47  H   UNL     1       2.446 -15.714  -3.531  1.00  0.00     0.167 HD
ATOM     48  C   UNL     1       6.244 -16.044  -5.685  1.00  0.00     0.031 A 
ATOM     49  C   UNL     1      -0.153 -16.509  -2.881  1.00  0.00     0.031 A 
ATOM     50  C   UNL     1       5.535 -17.257  -5.986  1.00  0.00     0.049 A 
ATOM     51  C   UNL     1       0.401 -17.582  -3.779  1.00  0.00     0.074 A 
ATOM     52  C   UNL     1       5.963 -18.342  -6.730  1.00  0.00     0.029 A 
ATOM     53  N   UNL     1       4.249 -17.544  -5.558  1.00  0.00    -0.354 N 
ATOM     54  N   UNL     1       1.577 -17.652  -4.354  1.00  0.00    -0.248 NA
ATOM     55  C   UNL     1      -0.476 -18.727  -4.063  1.00  0.00     0.031 C 
ATOM     56  C   UNL     1       4.914 -19.262  -6.800  1.00  0.00     0.029 A 
ATOM     57  C   UNL     1       3.859 -18.781  -6.041  1.00  0.00     0.049 A 
ATOM     58  H   UNL     1       3.695 -16.957  -4.994  1.00  0.00     0.167 HD
ATOM     59  C   UNL     1       1.597 -18.865  -5.031  1.00  0.00     0.074 A 
ATOM     60  C   UNL     1       0.318 -19.500  -4.792  1.00  0.00     0.031 C 
ATOM     61  C   UNL     1       2.588 -19.407  -5.780  1.00  0.00     0.031 A 
BRANCH  48  62
ATOM     62  C   UNL     1       7.609 -15.842  -6.282  1.00  0.00    -0.014 A 
ATOM     63  C   UNL     1       8.764 -15.833  -5.482  1.00  0.00     0.009 A 
ATOM     64  C   UNL     1       7.746 -15.686  -7.670  1.00  0.00     0.009 A 
ATOM     65  C   UNL     1      10.021 -15.630  -6.055  1.00  0.00     0.001 A 
ATOM     66  C   UNL     1       9.008 -15.519  -8.244  1.00  0.00     0.001 A 
ATOM     67  C   UNL     1      10.142 -15.479  -7.435  1.00  0.00     0.000 A 
ENDBRANCH  48  62
BRANCH  49  68
ATOM     68  C   UNL     1      -1.527 -16.626  -2.321  1.00  0.00    -0.014 A 
ATOM     69  C   UNL     1      -1.826 -17.610  -1.366  1.00  0.00     0.009 A 
ATOM     70  C   UNL     1      -2.552 -15.766  -2.748  1.00  0.00     0.009 A 
ATOM     71  C   UNL     1      -3.126 -17.751  -0.874  1.00  0.00     0.001 A 
ATOM     72  C   UNL     1      -3.843 -15.888  -2.231  1.00  0.00     0.001 A 
ATOM     73  C   UNL     1      -4.132 -16.887  -1.303  1.00  0.00     0.000 A 
ENDBRANCH  49  68
BRANCH  61  74
ATOM     74  C   UNL     1       2.363 -20.781  -6.344  1.00  0.00    -0.014 A 
ATOM     75  C   UNL     1       1.476 -21.006  -7.407  1.00  0.00     0.009 A 
ATOM     76  C   UNL     1       3.111 -21.859  -5.842  1.00  0.00     0.009 A 
ATOM     77  C   UNL     1       1.323 -22.288  -7.938  1.00  0.00     0.001 A 
ATOM     78  C   UNL     1       2.980 -23.133  -6.396  1.00  0.00     0.001 A 
ATOM     79  C   UNL     1       2.080 -23.348  -7.438  1.00  0.00     0.000 A 
ENDBRANCH  61  74
ENDBRANCH  35  36
ENDBRANCH  27  30
ENDBRANCH  25  26
ENDBRANCH  24  25
ENDBRANCH  23  24
ENDBRANCH   1  23
TORSDOF 15
