REMARK SMILES CC(C)C[C@@H](CNc1ccc(C(N)=O)cc1)C(=O)NCCCCNC(=O)c1ccc(-c2c3nc(c(-c4ccccc4)c4ccc([nH]4)c(-c4ccccc4)c4nc(c(-c5ccccc5)c5ccc2[nH]5)C=C4)C=C3)cc1
REMARK SMILES IDX 20 1 19 2 17 3 18 4 5 6 4 7 2 8 1 9 3 10 6 11 7 12 8 14 9 15
REMARK SMILES IDX 16 16 10 17 15 18 11 19 12 20 13 21 14 22 21 25 22 26 23 27
REMARK SMILES IDX 24 28 25 29 26 31 27 32 28 33 74 34 29 35 73 36 30 37 31 38
REMARK SMILES IDX 32 39 67 40 33 41 72 42 66 43 68 44 34 45 71 46 65 47 64 48
REMARK SMILES IDX 35 50 57 51 42 52 56 53 43 54 46 55 55 56 69 57 44 58 45 59
REMARK SMILES IDX 54 61 70 62 47 63 36 64 37 65 41 66 38 67 40 68 39 69 58 70
REMARK SMILES IDX 59 71 63 72 60 73 62 74 61 75 48 76 49 77 53 78 50 79 52 80
REMARK SMILES IDX 51 81
REMARK H PARENT 19 5 7 13 13 23 13 24 24 30 68 49 46 60
REMARK Flexibility Score: inf
ROOT
ATOM      1  C   UNL     1      -3.344  -0.120   3.390  1.00  0.00     0.116 C 
ENDROOT
BRANCH   1   2
ATOM      2  N   UNL     1      -3.682  -0.386   2.011  1.00  0.00    -0.356 N 
ATOM      3  C   UNL     1      -2.932  -0.970   1.035  1.00  0.00     0.224 C 
ATOM      4  O   UNL     1      -3.526  -1.345   0.019  1.00  0.00    -0.275 OA
ATOM      5  H   UNL     1      -4.585  -0.105   1.737  1.00  0.00     0.163 HD
BRANCH   3   6
ATOM      6  C   UNL     1      -1.413  -1.136   1.138  1.00  0.00     0.098 C 
BRANCH   6   7
ATOM      7  C   UNL     1      -0.705   0.201   1.428  1.00  0.00     0.018 C 
BRANCH   7   8
ATOM      8  C   UNL     1       0.831   0.197   1.383  1.00  0.00    -0.017 C 
ATOM      9  C   UNL     1       1.374  -0.088  -0.016  1.00  0.00     0.007 C 
ATOM     10  C   UNL     1       1.343   1.561   1.865  1.00  0.00     0.007 C 
ENDBRANCH   7   8
ENDBRANCH   6   7
BRANCH   6  11
ATOM     11  C   UNL     1      -1.003  -2.403   1.912  1.00  0.00     0.126 C 
BRANCH  11  12
ATOM     12  N   UNL     1      -1.202  -2.344   3.355  1.00  0.00    -0.384 N 
ATOM     13  H   UNL     1      -0.873  -1.552   3.838  1.00  0.00     0.160 HD
BRANCH  12  14
ATOM     14  C   UNL     1      -1.828  -3.341   4.087  1.00  0.00     0.034 A 
ATOM     15  C   UNL     1      -2.507  -3.001   5.268  1.00  0.00     0.026 A 
ATOM     16  C   UNL     1      -1.910  -4.670   3.663  1.00  0.00     0.026 A 
ATOM     17  C   UNL     1      -3.296  -3.931   5.963  1.00  0.00     0.016 A 
ATOM     18  C   UNL     1      -2.662  -5.618   4.371  1.00  0.00     0.016 A 
ATOM     19  C   UNL     1      -3.389  -5.246   5.505  1.00  0.00     0.039 A 
BRANCH  19  20
ATOM     20  C   UNL     1      -4.221  -6.282   6.176  1.00  0.00     0.248 C 
ATOM     21  N   UNL     1      -5.254  -5.862   6.968  1.00  0.00    -0.366 N 
ATOM     22  O   UNL     1      -4.021  -7.478   6.002  1.00  0.00    -0.270 OA
ATOM     23  H   UNL     1      -5.410  -4.900   7.104  1.00  0.00     0.159 HD
ATOM     24  H   UNL     1      -5.841  -6.523   7.401  1.00  0.00     0.159 HD
ENDBRANCH  19  20
ENDBRANCH  12  14
ENDBRANCH  11  12
ENDBRANCH   6  11
ENDBRANCH   3   6
ENDBRANCH   1   2
BRANCH   1  25
ATOM     25  C   UNL     1      -3.754   1.265   3.868  1.00  0.00     0.023 C 
BRANCH  25  26
ATOM     26  C   UNL     1      -5.221   1.385   4.268  1.00  0.00     0.023 C 
BRANCH  26  27
ATOM     27  C   UNL     1      -5.720   0.338   5.260  1.00  0.00     0.116 C 
BRANCH  27  28
ATOM     28  N   UNL     1      -4.918   0.236   6.473  1.00  0.00    -0.352 N 
ATOM     29  C   UNL     1      -5.349   0.032   7.765  1.00  0.00     0.251 C 
ATOM     30  H   UNL     1      -3.945   0.323   6.354  1.00  0.00     0.163 HD
ATOM     31  O   UNL     1      -4.560   0.008   8.697  1.00  0.00    -0.269 OA
BRANCH  29  32
ATOM     32  C   UNL     1      -6.798  -0.117   8.006  1.00  0.00     0.039 A 
ATOM     33  C   UNL     1      -7.426   0.760   8.892  1.00  0.00     0.014 A 
ATOM     34  C   UNL     1      -7.537  -1.055   7.281  1.00  0.00     0.014 A 
ATOM     35  C   UNL     1      -8.818   0.754   8.987  1.00  0.00     0.010 A 
ATOM     36  C   UNL     1      -8.925  -1.010   7.325  1.00  0.00     0.010 A 
ATOM     37  C   UNL     1      -9.579  -0.098   8.169  1.00  0.00    -0.014 A 
BRANCH  37  38
ATOM     38  C   UNL     1     -11.061  -0.036   8.161  1.00  0.00     0.031 A 
ATOM     39  C   UNL     1     -11.866  -1.219   8.619  1.00  0.00     0.074 A 
ATOM     40  C   UNL     1     -11.682   1.053   7.667  1.00  0.00     0.049 A 
ATOM     41  N   UNL     1     -13.164  -1.384   8.618  1.00  0.00    -0.248 NA
ATOM     42  C   UNL     1     -11.110  -2.380   9.118  1.00  0.00     0.031 C 
ATOM     43  C   UNL     1     -11.015   2.249   7.146  1.00  0.00     0.029 A 
ATOM     44  N   UNL     1     -13.018   1.325   7.513  1.00  0.00    -0.354 N 
ATOM     45  C   UNL     1     -13.379  -2.668   9.099  1.00  0.00     0.074 A 
ATOM     46  C   UNL     1     -12.079  -3.258   9.332  1.00  0.00     0.031 C 
ATOM     47  C   UNL     1     -11.945   3.134   6.752  1.00  0.00     0.029 A 
ATOM     48  C   UNL     1     -13.269   2.556   6.957  1.00  0.00     0.049 A 
ATOM     49  H   UNL     1     -13.729   0.697   7.776  1.00  0.00     0.167 HD
ATOM     50  C   UNL     1     -14.553  -3.296   9.344  1.00  0.00     0.031 A 
ATOM     51  C   UNL     1     -14.435   3.150   6.642  1.00  0.00     0.031 A 
ATOM     52  C   UNL     1     -15.847  -2.709   9.121  1.00  0.00     0.049 A 
ATOM     53  C   UNL     1     -15.726   2.431   6.918  1.00  0.00     0.074 A 
ATOM     54  C   UNL     1     -17.094  -3.245   9.389  1.00  0.00     0.029 A 
ATOM     55  N   UNL     1     -16.058  -1.453   8.573  1.00  0.00    -0.354 N 
ATOM     56  N   UNL     1     -15.914   1.242   7.438  1.00  0.00    -0.248 NA
ATOM     57  C   UNL     1     -16.966   3.142   6.574  1.00  0.00     0.031 C 
ATOM     58  C   UNL     1     -18.063  -2.330   8.962  1.00  0.00     0.029 A 
ATOM     59  C   UNL     1     -17.417  -1.204   8.477  1.00  0.00     0.049 A 
ATOM     60  H   UNL     1     -15.348  -0.831   8.294  1.00  0.00     0.167 HD
ATOM     61  C   UNL     1     -17.291   1.073   7.508  1.00  0.00     0.074 A 
ATOM     62  C   UNL     1     -17.889   2.287   6.992  1.00  0.00     0.031 C 
ATOM     63  C   UNL     1     -17.996   0.009   7.960  1.00  0.00     0.031 A 
BRANCH  50  64
ATOM     64  C   UNL     1     -14.484  -4.697   9.882  1.00  0.00    -0.014 A 
ATOM     65  C   UNL     1     -14.041  -4.950  11.191  1.00  0.00     0.009 A 
ATOM     66  C   UNL     1     -14.886  -5.776   9.081  1.00  0.00     0.009 A 
ATOM     67  C   UNL     1     -13.966  -6.259  11.672  1.00  0.00     0.001 A 
ATOM     68  C   UNL     1     -14.837  -7.081   9.574  1.00  0.00     0.001 A 
ATOM     69  C   UNL     1     -14.367  -7.322  10.864  1.00  0.00     0.000 A 
ENDBRANCH  50  64
BRANCH  51  70
ATOM     70  C   UNL     1     -14.440   4.511   6.044  1.00  0.00    -0.014 A 
ATOM     71  C   UNL     1     -14.873   5.615   6.794  1.00  0.00     0.009 A 
ATOM     72  C   UNL     1     -14.018   4.712   4.721  1.00  0.00     0.009 A 
ATOM     73  C   UNL     1     -14.907   6.889   6.223  1.00  0.00     0.001 A 
ATOM     74  C   UNL     1     -14.028   5.991   4.161  1.00  0.00     0.001 A 
ATOM     75  C   UNL     1     -14.481   7.077   4.909  1.00  0.00     0.000 A 
ENDBRANCH  51  70
BRANCH  63  76
ATOM     76  C   UNL     1     -19.494   0.122   7.949  1.00  0.00    -0.014 A 
ATOM     77  C   UNL     1     -20.220   0.058   6.750  1.00  0.00     0.009 A 
ATOM     78  C   UNL     1     -20.189   0.252   9.161  1.00  0.00     0.009 A 
ATOM     79  C   UNL     1     -21.613   0.154   6.764  1.00  0.00     0.001 A 
ATOM     80  C   UNL     1     -21.582   0.321   9.175  1.00  0.00     0.001 A 
ATOM     81  C   UNL     1     -22.293   0.280   7.976  1.00  0.00     0.000 A 
ENDBRANCH  63  76
ENDBRANCH  37  38
ENDBRANCH  29  32
ENDBRANCH  27  28
ENDBRANCH  26  27
ENDBRANCH  25  26
ENDBRANCH   1  25
TORSDOF 17
