REMARK SMILES CN1C(=O)C[C@@H](C(=O)NCCCCNC(=O)c2ccc(-c3c4nc(c(-c5ccccc5)c5ccc([nH]5)c(-c5ccccc5)c5nc(c(-c6ccccc6)c6ccc3[nH]6)C=C5)C=C4)cc2)C12CCN(c1ccc(Cl)cn1)CC2
REMARK SMILES IDX 12 1 11 2 10 3 9 4 7 5 8 6 6 8 1 9 2 10 3 11 65 12 4 13 5 14
REMARK SMILES IDX 66 15 77 16 67 17 76 18 68 19 69 20 70 21 75 22 71 23 74 24
REMARK SMILES IDX 72 25 73 26 13 27 14 28 15 29 16 31 17 32 18 33 64 34 19 35
REMARK SMILES IDX 63 36 20 37 21 38 22 39 57 40 23 41 62 42 56 43 58 44 24 45
REMARK SMILES IDX 61 46 55 47 54 48 25 50 47 51 32 52 46 53 33 54 36 55 45 56
REMARK SMILES IDX 59 57 34 58 35 59 44 61 60 62 37 63 26 64 27 65 31 66 28 67
REMARK SMILES IDX 30 68 29 69 48 70 49 71 53 72 50 73 52 74 51 75 38 76 39 77
REMARK SMILES IDX 43 78 40 79 42 80 41 81
REMARK H PARENT 9 7 14 30 58 49 36 60
REMARK Flexibility Score: inf
ROOT
ATOM      1  C   UNL     1      -2.229   1.783   3.379  1.00  0.00     0.023 C 
ENDROOT
BRANCH   1   2
ATOM      2  C   UNL     1      -1.119   1.041   2.643  1.00  0.00     0.023 C 
BRANCH   2   3
ATOM      3  C   UNL     1      -0.886  -0.392   3.123  1.00  0.00     0.116 C 
BRANCH   3   4
ATOM      4  N   UNL     1      -1.984  -1.293   2.823  1.00  0.00    -0.356 N 
ATOM      5  C   UNL     1      -2.128  -2.338   1.970  1.00  0.00     0.226 C 
ATOM      6  O   UNL     1      -3.223  -2.913   2.006  1.00  0.00    -0.275 OA
ATOM      7  H   UNL     1      -2.796  -1.106   3.348  1.00  0.00     0.163 HD
BRANCH   5   8
ATOM      8  C   UNL     1      -1.080  -2.819   0.965  1.00  0.00     0.113 C 
ATOM      9  C   UNL     1       1.234  -0.136  -0.210  1.00  0.00     0.147 C 
ATOM     10  N   UNL     1       0.600  -1.338   0.299  1.00  0.00    -0.339 N 
ATOM     11  C   UNL     1       1.206  -2.160   1.238  1.00  0.00     0.223 C 
ATOM     12  C   UNL     1      -0.687  -1.863  -0.187  1.00  0.00     0.058 C 
ATOM     13  O   UNL     1       2.312  -2.014   1.730  1.00  0.00    -0.275 OA
ATOM     14  C   UNL     1       0.237  -3.248   1.616  1.00  0.00     0.116 C 
ATOM     15  C   UNL     1      -1.730  -0.760  -0.476  1.00  0.00     0.051 C 
ATOM     16  C   UNL     1      -0.407  -2.674  -1.497  1.00  0.00     0.051 C 
ATOM     17  C   UNL     1      -2.961  -1.291  -1.188  1.00  0.00     0.120 C 
ATOM     18  C   UNL     1      -1.672  -3.086  -2.267  1.00  0.00     0.120 C 
ATOM     19  N   UNL     1      -2.497  -1.903  -2.412  1.00  0.00    -0.356 N 
BRANCH  19  20
ATOM     20  C   UNL     1      -3.071  -1.565  -3.613  1.00  0.00     0.128 A 
ATOM     21  C   UNL     1      -3.215  -0.218  -3.961  1.00  0.00     0.048 A 
ATOM     22  N   UNL     1      -3.472  -2.544  -4.448  1.00  0.00    -0.238 NA
ATOM     23  C   UNL     1      -3.804   0.140  -5.172  1.00  0.00     0.026 A 
ATOM     24  C   UNL     1      -4.071  -2.177  -5.611  1.00  0.00     0.134 A 
ATOM     25  C   UNL     1      -4.255  -0.864  -6.010  1.00  0.00     0.059 A 
ATOM     26  Cl  UNL     1      -5.013  -0.482  -7.499  1.00  0.00    -0.083 Cl
ENDBRANCH  19  20
ENDBRANCH   5   8
ENDBRANCH   3   4
ENDBRANCH   2   3
ENDBRANCH   1   2
BRANCH   1  27
ATOM     27  C   UNL     1      -1.992   1.915   4.875  1.00  0.00     0.116 C 
BRANCH  27  28
ATOM     28  N   UNL     1      -0.687   2.485   5.190  1.00  0.00    -0.352 N 
ATOM     29  C   UNL     1      -0.372   3.454   6.107  1.00  0.00     0.251 C 
ATOM     30  H   UNL     1       0.070   2.125   4.674  1.00  0.00     0.163 HD
ATOM     31  O   UNL     1       0.754   3.938   6.149  1.00  0.00    -0.269 OA
BRANCH  29  32
ATOM     32  C   UNL     1      -1.422   3.924   7.024  1.00  0.00     0.039 A 
ATOM     33  C   UNL     1      -1.630   5.295   7.173  1.00  0.00     0.014 A 
ATOM     34  C   UNL     1      -2.237   2.998   7.681  1.00  0.00     0.014 A 
ATOM     35  C   UNL     1      -2.708   5.740   7.936  1.00  0.00     0.010 A 
ATOM     36  C   UNL     1      -3.362   3.440   8.358  1.00  0.00     0.010 A 
ATOM     37  C   UNL     1      -3.601   4.814   8.501  1.00  0.00    -0.014 A 
BRANCH  37  38
ATOM     38  C   UNL     1      -4.788   5.260   9.262  1.00  0.00     0.031 A 
ATOM     39  C   UNL     1      -4.909   4.922  10.720  1.00  0.00     0.074 A 
ATOM     40  C   UNL     1      -5.784   5.903   8.625  1.00  0.00     0.049 A 
ATOM     41  N   UNL     1      -5.888   5.180  11.549  1.00  0.00    -0.248 NA
ATOM     42  C   UNL     1      -3.798   4.163  11.318  1.00  0.00     0.031 C 
ATOM     43  C   UNL     1      -5.804   6.240   7.199  1.00  0.00     0.029 A 
ATOM     44  N   UNL     1      -6.974   6.389   9.099  1.00  0.00    -0.354 N 
ATOM     45  C   UNL     1      -5.520   4.596  12.754  1.00  0.00     0.074 A 
ATOM     46  C   UNL     1      -4.262   3.919  12.533  1.00  0.00     0.031 C 
ATOM     47  C   UNL     1      -6.929   6.919   6.925  1.00  0.00     0.029 A 
ATOM     48  C   UNL     1      -7.724   7.031   8.144  1.00  0.00     0.049 A 
ATOM     49  H   UNL     1      -7.264   6.288  10.034  1.00  0.00     0.167 HD
ATOM     50  C   UNL     1      -6.159   4.640  13.946  1.00  0.00     0.031 A 
ATOM     51  C   UNL     1      -8.915   7.648   8.245  1.00  0.00     0.031 A 
ATOM     52  C   UNL     1      -7.401   5.329  14.165  1.00  0.00     0.049 A 
ATOM     53  C   UNL     1      -9.604   7.690   9.578  1.00  0.00     0.074 A 
ATOM     54  C   UNL     1      -8.101   5.493  15.347  1.00  0.00     0.029 A 
ATOM     55  N   UNL     1      -8.128   5.971  13.174  1.00  0.00    -0.354 N 
ATOM     56  N   UNL     1      -9.212   7.194  10.727  1.00  0.00    -0.248 NA
ATOM     57  C   UNL     1     -10.896   8.387   9.629  1.00  0.00     0.031 C 
ATOM     58  C   UNL     1      -9.276   6.198  15.061  1.00  0.00     0.029 A 
ATOM     59  C   UNL     1      -9.281   6.514  13.711  1.00  0.00     0.049 A 
ATOM     60  H   UNL     1      -7.862   6.030  12.228  1.00  0.00     0.167 HD
ATOM     61  C   UNL     1     -10.196   7.539  11.643  1.00  0.00     0.074 A 
ATOM     62  C   UNL     1     -11.196   8.298  10.917  1.00  0.00     0.031 C 
ATOM     63  C   UNL     1     -10.266   7.257  12.967  1.00  0.00     0.031 A 
BRANCH  50  64
ATOM     64  C   UNL     1      -5.514   3.912  15.092  1.00  0.00    -0.014 A 
ATOM     65  C   UNL     1      -4.307   4.361  15.654  1.00  0.00     0.009 A 
ATOM     66  C   UNL     1      -6.111   2.752  15.608  1.00  0.00     0.009 A 
ATOM     67  C   UNL     1      -3.685   3.635  16.671  1.00  0.00     0.001 A 
ATOM     68  C   UNL     1      -5.503   2.046  16.648  1.00  0.00     0.001 A 
ATOM     69  C   UNL     1      -4.285   2.480  17.169  1.00  0.00     0.000 A 
ENDBRANCH  50  64
BRANCH  51  70
ATOM     70  C   UNL     1      -9.501   8.320   7.058  1.00  0.00    -0.014 A 
ATOM     71  C   UNL     1      -9.502   9.721   6.971  1.00  0.00     0.009 A 
ATOM     72  C   UNL     1     -10.041   7.572   6.000  1.00  0.00     0.009 A 
ATOM     73  C   UNL     1     -10.048  10.360   5.857  1.00  0.00     0.001 A 
ATOM     74  C   UNL     1     -10.565   8.215   4.876  1.00  0.00     0.001 A 
ATOM     75  C   UNL     1     -10.574   9.607   4.808  1.00  0.00     0.000 A 
ENDBRANCH  51  70
BRANCH  63  76
ATOM     76  C   UNL     1     -11.452   7.793  13.716  1.00  0.00    -0.014 A 
ATOM     77  C   UNL     1     -12.728   7.233  13.554  1.00  0.00     0.009 A 
ATOM     78  C   UNL     1     -11.281   8.853  14.619  1.00  0.00     0.009 A 
ATOM     79  C   UNL     1     -13.817   7.747  14.261  1.00  0.00     0.001 A 
ATOM     80  C   UNL     1     -12.366   9.347  15.344  1.00  0.00     0.001 A 
ATOM     81  C   UNL     1     -13.634   8.799  15.157  1.00  0.00     0.000 A 
ENDBRANCH  63  76
ENDBRANCH  37  38
ENDBRANCH  29  32
ENDBRANCH  27  28
ENDBRANCH   1  27
TORSDOF 12
