REMARK SMILES O=C(C[C@@H]([NH2+]Cc1ccccc1)C(=O)/N=c1/[nH]c(-c2ccccc2)cs1)NCCCCNC(=O)c1ccc(-c2c3nc(c(-c4ccccc4)c4ccc([nH]4)c(-c4ccccc4)c4nc(c(-c5ccccc5)c5ccc2[nH]5)C=C4)C=C3)cc1
REMARK SMILES IDX 28 1 27 2 1 3 2 4 3 6 4 7 5 8 6 11 7 12 8 13 12 14 9 15
REMARK SMILES IDX 11 16 10 17 13 18 14 19 15 20 16 21 17 22 26 23 18 24 25 26
REMARK SMILES IDX 19 27 20 28 24 29 21 30 23 31 22 32 29 33 30 34 31 35 32 36
REMARK SMILES IDX 33 37 34 39 35 40 36 41 82 42 37 43 81 44 38 45 39 46 40 47
REMARK SMILES IDX 75 48 41 49 80 50 74 51 76 52 42 53 79 54 73 55 72 56 43 58
REMARK SMILES IDX 65 59 50 60 64 61 51 62 54 63 63 64 77 65 52 66 53 67 62 69
REMARK SMILES IDX 78 70 55 71 44 72 45 73 49 74 46 75 48 76 47 77 66 78 67 79
REMARK SMILES IDX 71 80 68 81 70 82 69 83 56 84 57 85 61 86 58 87 60 88 59 89
REMARK H PARENT 27 5 5 9 5 10 17 25 32 38 76 57 54 68
REMARK Flexibility Score: inf
ROOT
ATOM      1  C   UNL     1       1.904   2.375   1.400  1.00  0.00     0.116 C 
ENDROOT
BRANCH   1   2
ATOM      2  N   UNL     1       2.582   1.304   0.711  1.00  0.00    -0.356 N 
ATOM      3  O   UNL     1       0.766   0.525  -0.468  1.00  0.00    -0.275 OA
ATOM      4  C   UNL     1       1.925   0.412  -0.105  1.00  0.00     0.226 C 
ATOM      5  H   UNL     1       3.555   1.207   0.829  1.00  0.00     0.163 HD
BRANCH   4   6
ATOM      6  C   UNL     1       2.782  -0.774  -0.443  1.00  0.00     0.175 C 
BRANCH   6   7
ATOM      7  C   UNL     1       3.711  -0.566  -1.633  1.00  0.00     0.284 C 
BRANCH   7   8
ATOM      8  N   UNL     1       4.757   0.469  -1.363  1.00  0.00    -0.332 N 
ATOM      9  H   UNL     1       5.364   0.133  -0.615  1.00  0.00     0.347 HD
ATOM     10  H   UNL     1       4.281   1.331  -1.098  1.00  0.00     0.347 HD
BRANCH   8  11
ATOM     11  C   UNL     1       5.584   0.757  -2.552  1.00  0.00     0.297 C 
BRANCH  11  12
ATOM     12  C   UNL     1       4.838   1.584  -3.575  1.00  0.00     0.006 A 
ATOM     13  C   UNL     1       4.838   2.985  -3.500  1.00  0.00     0.009 A 
ATOM     14  C   UNL     1       4.056   0.960  -4.559  1.00  0.00     0.009 A 
ATOM     15  C   UNL     1       4.045   3.739  -4.367  1.00  0.00     0.001 A 
ATOM     16  C   UNL     1       3.243   1.714  -5.404  1.00  0.00     0.001 A 
ATOM     17  C   UNL     1       3.234   3.102  -5.305  1.00  0.00     0.000 A 
ENDBRANCH  11  12
ENDBRANCH   8  11
ENDBRANCH   7   8
BRANCH   7  18
ATOM     18  C   UNL     1       4.315  -1.948  -2.013  1.00  0.00     0.307 C 
ATOM     19  O   UNL     1       3.875  -2.579  -2.971  1.00  0.00    -0.265 OA
BRANCH  18  20
ATOM     20  N   UNL     1       5.379  -2.395  -1.259  1.00  0.00    -0.180 NA
ATOM     21  C   UNL     1       5.144  -3.235  -0.308  1.00  0.00     0.190 A 
ATOM     22  N   UNL     1       6.084  -3.782   0.530  1.00  0.00    -0.330 N 
ATOM     23  S   UNL     1       3.554  -3.850   0.225  1.00  0.00    -0.105 S 
ATOM     24  C   UNL     1       5.608  -4.513   1.603  1.00  0.00     0.058 A 
ATOM     25  H   UNL     1       7.048  -3.661   0.374  1.00  0.00     0.169 HD
ATOM     26  C   UNL     1       4.264  -4.572   1.642  1.00  0.00     0.095 A 
BRANCH  24  27
ATOM     27  C   UNL     1       6.497  -5.200   2.553  1.00  0.00    -0.001 A 
ATOM     28  C   UNL     1       7.816  -4.783   2.784  1.00  0.00     0.010 A 
ATOM     29  C   UNL     1       6.054  -6.370   3.197  1.00  0.00     0.010 A 
ATOM     30  C   UNL     1       8.665  -5.528   3.610  1.00  0.00     0.001 A 
ATOM     31  C   UNL     1       6.897  -7.108   4.027  1.00  0.00     0.001 A 
ATOM     32  C   UNL     1       8.207  -6.691   4.225  1.00  0.00     0.000 A 
ENDBRANCH  24  27
ENDBRANCH  18  20
ENDBRANCH   7  18
ENDBRANCH   6   7
ENDBRANCH   4   6
ENDBRANCH   1   2
BRANCH   1  33
ATOM     33  C   UNL     1       2.305   2.399   2.874  1.00  0.00     0.023 C 
BRANCH  33  34
ATOM     34  C   UNL     1       3.806   2.585   3.127  1.00  0.00     0.023 C 
BRANCH  34  35
ATOM     35  C   UNL     1       4.431   3.789   2.433  1.00  0.00     0.116 C 
BRANCH  35  36
ATOM     36  N   UNL     1       3.839   5.043   2.863  1.00  0.00    -0.352 N 
ATOM     37  C   UNL     1       4.446   6.172   3.354  1.00  0.00     0.251 C 
ATOM     38  H   UNL     1       2.858   5.091   2.793  1.00  0.00     0.163 HD
ATOM     39  O   UNL     1       3.770   7.074   3.837  1.00  0.00    -0.269 OA
BRANCH  37  40
ATOM     40  C   UNL     1       5.920   6.291   3.327  1.00  0.00     0.039 A 
ATOM     41  C   UNL     1       6.576   6.777   4.461  1.00  0.00     0.014 A 
ATOM     42  C   UNL     1       6.654   5.930   2.193  1.00  0.00     0.014 A 
ATOM     43  C   UNL     1       7.970   6.842   4.480  1.00  0.00     0.010 A 
ATOM     44  C   UNL     1       8.046   5.923   2.242  1.00  0.00     0.010 A 
ATOM     45  C   UNL     1       8.719   6.379   3.386  1.00  0.00    -0.014 A 
BRANCH  45  46
ATOM     46  C   UNL     1      10.204   6.357   3.425  1.00  0.00     0.031 A 
ATOM     47  C   UNL     1      11.005   7.191   2.463  1.00  0.00     0.074 A 
ATOM     48  C   UNL     1      10.835   5.539   4.291  1.00  0.00     0.049 A 
ATOM     49  N   UNL     1      12.304   7.264   2.317  1.00  0.00    -0.248 NA
ATOM     50  C   UNL     1      10.248   8.038   1.528  1.00  0.00     0.031 C 
ATOM     51  C   UNL     1      10.177   4.654   5.256  1.00  0.00     0.029 A 
ATOM     52  N   UNL     1      12.174   5.316   4.497  1.00  0.00    -0.354 N 
ATOM     53  C   UNL     1      12.518   8.148   1.267  1.00  0.00     0.074 A 
ATOM     54  C   UNL     1      11.216   8.547   0.779  1.00  0.00     0.031 C 
ATOM     55  C   UNL     1      11.113   4.011   5.972  1.00  0.00     0.029 A 
ATOM     56  C   UNL     1      12.434   4.399   5.488  1.00  0.00     0.049 A 
ATOM     57  H   UNL     1      12.881   5.770   3.985  1.00  0.00     0.167 HD
ATOM     58  C   UNL     1      13.691   8.600   0.763  1.00  0.00     0.031 A 
ATOM     59  C   UNL     1      13.604   3.918   5.950  1.00  0.00     0.031 A 
ATOM     60  C   UNL     1      14.987   8.209   1.251  1.00  0.00     0.049 A 
ATOM     61  C   UNL     1      14.891   4.413   5.350  1.00  0.00     0.074 A 
ATOM     62  C   UNL     1      16.232   8.657   0.844  1.00  0.00     0.029 A 
ATOM     63  N   UNL     1      15.206   7.271   2.248  1.00  0.00    -0.354 N 
ATOM     64  N   UNL     1      15.075   5.303   4.406  1.00  0.00    -0.248 NA
ATOM     65  C   UNL     1      16.133   3.841   5.890  1.00  0.00     0.031 C 
ATOM     66  C   UNL     1      17.205   7.944   1.549  1.00  0.00     0.029 A 
ATOM     67  C   UNL     1      16.567   7.102   2.446  1.00  0.00     0.049 A 
ATOM     68  H   UNL     1      14.499   6.796   2.742  1.00  0.00     0.167 HD
ATOM     69  C   UNL     1      16.452   5.423   4.262  1.00  0.00     0.074 A 
ATOM     70  C   UNL     1      17.054   4.527   5.227  1.00  0.00     0.031 C 
ATOM     71  C   UNL     1      17.154   6.207   3.409  1.00  0.00     0.031 A 
BRANCH  58  72
ATOM     72  C   UNL     1      13.627   9.564  -0.391  1.00  0.00    -0.014 A 
ATOM     73  C   UNL     1      13.149  10.874  -0.225  1.00  0.00     0.009 A 
ATOM     74  C   UNL     1      14.094   9.169  -1.655  1.00  0.00     0.009 A 
ATOM     75  C   UNL     1      13.105  11.754  -1.309  1.00  0.00     0.001 A 
ATOM     76  C   UNL     1      14.079  10.061  -2.728  1.00  0.00     0.001 A 
ATOM     77  C   UNL     1      13.575  11.349  -2.557  1.00  0.00     0.000 A 
ENDBRANCH  58  72
BRANCH  59  78
ATOM     78  C   UNL     1      13.619   2.914   7.048  1.00  0.00    -0.014 A 
ATOM     79  C   UNL     1      14.117   3.253   8.315  1.00  0.00     0.009 A 
ATOM     80  C   UNL     1      13.154   1.608   6.830  1.00  0.00     0.009 A 
ATOM     81  C   UNL     1      14.180   2.297   9.331  1.00  0.00     0.001 A 
ATOM     82  C   UNL     1      13.187   0.662   7.858  1.00  0.00     0.001 A 
ATOM     83  C   UNL     1      13.711   1.004   9.103  1.00  0.00     0.000 A 
ENDBRANCH  59  78
BRANCH  71  84
ATOM     84  C   UNL     1      18.654   6.165   3.508  1.00  0.00    -0.014 A 
ATOM     85  C   UNL     1      19.386   5.041   3.094  1.00  0.00     0.009 A 
ATOM     86  C   UNL     1      19.348   7.287   3.989  1.00  0.00     0.009 A 
ATOM     87  C   UNL     1      20.779   5.029   3.194  1.00  0.00     0.001 A 
ATOM     88  C   UNL     1      20.742   7.285   4.056  1.00  0.00     0.001 A 
ATOM     89  C   UNL     1      21.455   6.152   3.669  1.00  0.00     0.000 A 
ENDBRANCH  71  84
ENDBRANCH  45  46
ENDBRANCH  37  40
ENDBRANCH  35  36
ENDBRANCH  34  35
ENDBRANCH  33  34
ENDBRANCH   1  33
TORSDOF 18
