REMARK SMILES COc1cccc([C@@H]2[NH2+][C@@](C)(C(=O)NCCCCNC(=O)c3ccc(-c4c5nc(c(-c6ccccc6)c6ccc([nH]6)c(-c6ccccc6)c6nc(c(-c7ccccc7)c7ccc4[nH]7)C=C6)C=C5)cc3)[C@@H]3C(=O)N(C)C(=O)[C@@H]32)c1O
REMARK SMILES IDX 16 1 15 2 14 3 12 4 13 5 10 7 8 8 9 9 77 10 70 13 75 14
REMARK SMILES IDX 11 15 71 16 73 17 76 18 72 19 74 20 7 21 3 22 4 23 78 24
REMARK SMILES IDX 5 25 6 26 2 27 1 28 79 29 17 31 18 32 19 33 20 34 21 36
REMARK SMILES IDX 22 37 23 38 69 39 24 40 68 41 25 42 26 43 27 44 62 45 28 46
REMARK SMILES IDX 67 47 61 48 63 49 29 50 66 51 60 52 59 53 30 55 52 56 37 57
REMARK SMILES IDX 51 58 38 59 41 60 50 61 64 62 39 63 40 64 49 66 65 67 42 68
REMARK SMILES IDX 31 69 32 70 36 71 33 72 35 73 34 74 53 75 54 76 58 77 55 78
REMARK SMILES IDX 57 79 56 80 43 81 44 82 48 83 45 84 47 85 46 86
REMARK H PARENT 14 6 9 11 9 12 79 30 19 35 63 54 41 65
REMARK Flexibility Score: inf
ROOT
ATOM      1  C   UNL     1       6.338  -6.611  -0.187  1.00  0.00     0.023 C 
ENDROOT
BRANCH   1   2
ATOM      2  C   UNL     1       5.913  -5.569  -1.216  1.00  0.00     0.116 C 
BRANCH   2   3
ATOM      3  N   UNL     1       4.970  -6.107  -2.183  1.00  0.00    -0.351 N 
ATOM      4  C   UNL     1       3.714  -5.681  -2.518  1.00  0.00     0.281 C 
ATOM      5  O   UNL     1       3.098  -6.356  -3.349  1.00  0.00    -0.268 OA
ATOM      6  H   UNL     1       5.285  -6.900  -2.674  1.00  0.00     0.163 HD
BRANCH   4   7
ATOM      7  C   UNL     1       3.115  -4.374  -1.905  1.00  0.00     0.185 C 
ATOM      8  C   UNL     1       1.780  -4.831   0.061  1.00  0.00     0.232 C 
ATOM      9  N   UNL     1       3.141  -4.518  -0.425  1.00  0.00    -0.326 N 
ATOM     10  C   UNL     1       0.889  -4.989  -1.179  1.00  0.00     0.161 C 
ATOM     11  H   UNL     1       3.777  -5.272  -0.167  1.00  0.00     0.347 HD
ATOM     12  H   UNL     1       3.462  -3.646  -0.003  1.00  0.00     0.347 HD
ATOM     13  C   UNL     1       1.635  -4.264  -2.290  1.00  0.00     0.169 C 
ATOM     14  C   UNL     1      -0.432  -4.273  -1.127  1.00  0.00     0.239 C 
ATOM     15  C   UNL     1       3.965  -3.203  -2.425  1.00  0.00     0.091 C 
ATOM     16  C   UNL     1       0.962  -2.912  -2.293  1.00  0.00     0.240 C 
ATOM     17  N   UNL     1      -0.280  -3.060  -1.742  1.00  0.00    -0.285 N 
ATOM     18  O   UNL     1      -1.435  -4.689  -0.574  1.00  0.00    -0.274 OA
ATOM     19  O   UNL     1       1.430  -1.862  -2.707  1.00  0.00    -0.274 OA
ATOM     20  C   UNL     1      -1.280  -2.020  -1.687  1.00  0.00     0.156 C 
BRANCH   8  21
ATOM     21  C   UNL     1       1.294  -3.850   1.128  1.00  0.00     0.056 A 
ATOM     22  C   UNL     1       0.854  -1.580   1.954  1.00  0.00     0.161 A 
ATOM     23  C   UNL     1       0.144  -2.127   3.025  1.00  0.00     0.050 A 
ATOM     24  C   UNL     1       1.468  -2.450   1.046  1.00  0.00     0.166 A 
ATOM     25  C   UNL     1       0.013  -3.508   3.168  1.00  0.00     0.005 A 
ATOM     26  C   UNL     1       0.566  -4.362   2.215  1.00  0.00     0.014 A 
BRANCH  22  27
ATOM     27  O   UNL     1       0.911  -0.213   1.974  1.00  0.00    -0.493 OA
ATOM     28  C   UNL     1       1.003   0.466   0.730  1.00  0.00     0.278 C 
ENDBRANCH  22  27
BRANCH  24  29
ATOM     29  O   UNL     1       2.350  -1.991   0.108  1.00  0.00    -0.504 OA
ATOM     30  H   UNL     1       2.500  -1.071   0.016  1.00  0.00     0.293 HD
ENDBRANCH  24  29
ENDBRANCH   8  21
ENDBRANCH   4   7
ENDBRANCH   2   3
ENDBRANCH   1   2
BRANCH   1  31
ATOM     31  C   UNL     1       7.103  -7.800  -0.766  1.00  0.00     0.023 C 
BRANCH  31  32
ATOM     32  C   UNL     1       8.302  -7.437  -1.637  1.00  0.00     0.116 C 
BRANCH  32  33
ATOM     33  N   UNL     1       9.311  -6.668  -0.923  1.00  0.00    -0.352 N 
ATOM     34  C   UNL     1      10.645  -6.941  -0.732  1.00  0.00     0.251 C 
ATOM     35  H   UNL     1       8.991  -5.829  -0.518  1.00  0.00     0.163 HD
ATOM     36  O   UNL     1      11.319  -6.246   0.020  1.00  0.00    -0.269 OA
BRANCH  34  37
ATOM     37  C   UNL     1      11.254  -8.106  -1.405  1.00  0.00     0.039 A 
ATOM     38  C   UNL     1      11.999  -9.008  -0.642  1.00  0.00     0.014 A 
ATOM     39  C   UNL     1      11.049  -8.334  -2.768  1.00  0.00     0.014 A 
ATOM     40  C   UNL     1      12.451 -10.194  -1.225  1.00  0.00     0.010 A 
ATOM     41  C   UNL     1      11.436  -9.549  -3.328  1.00  0.00     0.010 A 
ATOM     42  C   UNL     1      12.119 -10.501  -2.555  1.00  0.00    -0.014 A 
BRANCH  42  43
ATOM     43  C   UNL     1      12.411 -11.839  -3.130  1.00  0.00     0.031 A 
ATOM     44  C   UNL     1      13.339 -11.984  -4.303  1.00  0.00     0.074 A 
ATOM     45  C   UNL     1      11.766 -12.918  -2.643  1.00  0.00     0.049 A 
ATOM     46  N   UNL     1      13.644 -13.061  -4.982  1.00  0.00    -0.248 NA
ATOM     47  C   UNL     1      13.995 -10.760  -4.789  1.00  0.00     0.031 C 
ATOM     48  C   UNL     1      10.808 -12.906  -1.534  1.00  0.00     0.029 A 
ATOM     49  N   UNL     1      11.806 -14.236  -3.028  1.00  0.00    -0.354 N 
ATOM     50  C   UNL     1      14.514 -12.644  -5.981  1.00  0.00     0.074 A 
ATOM     51  C   UNL     1      14.658 -11.210  -5.845  1.00  0.00     0.031 C 
ATOM     52  C   UNL     1      10.368 -14.155  -1.317  1.00  0.00     0.029 A 
ATOM     53  C   UNL     1      10.969 -15.048  -2.301  1.00  0.00     0.049 A 
ATOM     54  H   UNL     1      12.381 -14.567  -3.755  1.00  0.00     0.167 HD
ATOM     55  C   UNL     1      15.144 -13.390  -6.918  1.00  0.00     0.031 A 
ATOM     56  C   UNL     1      10.694 -16.361  -2.425  1.00  0.00     0.031 A 
ATOM     57  C   UNL     1      15.001 -14.816  -7.052  1.00  0.00     0.049 A 
ATOM     58  C   UNL     1      11.379 -17.155  -3.502  1.00  0.00     0.074 A 
ATOM     59  C   UNL     1      15.652 -15.666  -7.930  1.00  0.00     0.029 A 
ATOM     60  N   UNL     1      14.141 -15.600  -6.300  1.00  0.00    -0.354 N 
ATOM     61  N   UNL     1      12.266 -16.760  -4.382  1.00  0.00    -0.248 NA
ATOM     62  C   UNL     1      11.026 -18.579  -3.600  1.00  0.00     0.031 C 
ATOM     63  C   UNL     1      15.136 -16.953  -7.755  1.00  0.00     0.029 A 
ATOM     64  C   UNL     1      14.212 -16.917  -6.724  1.00  0.00     0.049 A 
ATOM     65  H   UNL     1      13.566 -15.270  -5.573  1.00  0.00     0.167 HD
ATOM     66  C   UNL     1      12.590 -17.887  -5.125  1.00  0.00     0.074 A 
ATOM     67  C   UNL     1      11.826 -18.987  -4.575  1.00  0.00     0.031 C 
ATOM     68  C   UNL     1      13.440 -18.000  -6.174  1.00  0.00     0.031 A 
BRANCH  55  69
ATOM     69  C   UNL     1      16.043 -12.679  -7.892  1.00  0.00    -0.014 A 
ATOM     70  C   UNL     1      17.274 -12.139  -7.488  1.00  0.00     0.009 A 
ATOM     71  C   UNL     1      15.684 -12.611  -9.248  1.00  0.00     0.009 A 
ATOM     72  C   UNL     1      18.115 -11.523  -8.418  1.00  0.00     0.001 A 
ATOM     73  C   UNL     1      16.540 -12.021 -10.180  1.00  0.00     0.001 A 
ATOM     74  C   UNL     1      17.751 -11.472  -9.763  1.00  0.00     0.000 A 
ENDBRANCH  55  69
BRANCH  56  75
ATOM     75  C   UNL     1       9.705 -17.009  -1.522  1.00  0.00    -0.014 A 
ATOM     76  C   UNL     1      10.111 -17.972  -0.586  1.00  0.00     0.009 A 
ATOM     77  C   UNL     1       8.341 -16.686  -1.611  1.00  0.00     0.009 A 
ATOM     78  C   UNL     1       9.170 -18.622   0.216  1.00  0.00     0.001 A 
ATOM     79  C   UNL     1       7.407 -17.311  -0.783  1.00  0.00     0.001 A 
ATOM     80  C   UNL     1       7.820 -18.288   0.120  1.00  0.00     0.000 A 
ENDBRANCH  56  75
BRANCH  68  81
ATOM     81  C   UNL     1      13.600 -19.364  -6.786  1.00  0.00    -0.014 A 
ATOM     82  C   UNL     1      12.573 -19.944  -7.548  1.00  0.00     0.009 A 
ATOM     83  C   UNL     1      14.810 -20.059  -6.635  1.00  0.00     0.009 A 
ATOM     84  C   UNL     1      12.744 -21.207  -8.118  1.00  0.00     0.001 A 
ATOM     85  C   UNL     1      14.990 -21.307  -7.234  1.00  0.00     0.001 A 
ATOM     86  C   UNL     1      13.954 -21.884  -7.966  1.00  0.00     0.000 A 
ENDBRANCH  68  81
ENDBRANCH  42  43
ENDBRANCH  34  37
ENDBRANCH  32  33
ENDBRANCH  31  32
ENDBRANCH   1  31
TORSDOF 14
