REMARK SMILES Cc1cc(C[N@H+]2CC[C@](C)(C(=O)NCCCCNC(=O)c3ccc(-c4c5nc(c(-c6ccccc6)c6ccc([nH]6)c(-c6ccccc6)c6nc(c(-c7ccccc7)c7ccc4[nH]7)C=C6)C=C5)cc3)C2)c2ccccc2n1
REMARK SMILES IDX 15 1 14 2 13 3 11 4 12 5 9 7 6 8 7 9 69 10 8 12 10 13 5 14
REMARK SMILES IDX 4 15 1 16 2 17 3 18 76 19 75 20 70 21 74 22 71 23 73 24
REMARK SMILES IDX 72 25 16 26 17 27 18 28 19 29 20 31 21 32 22 33 68 34 23 35
REMARK SMILES IDX 67 36 24 37 25 38 26 39 61 40 27 41 66 42 60 43 62 44 28 45
REMARK SMILES IDX 65 46 59 47 58 48 29 50 51 51 36 52 50 53 37 54 40 55 49 56
REMARK SMILES IDX 63 57 38 58 39 59 48 61 64 62 41 63 30 64 31 65 35 66 32 67
REMARK SMILES IDX 34 68 33 69 52 70 53 71 57 72 54 73 56 74 55 75 42 76 43 77
REMARK SMILES IDX 47 78 44 79 46 80 45 81
REMARK H PARENT 13 6 6 11 18 30 62 49 40 60
REMARK Flexibility Score: inf
ROOT
ATOM      1  C   UNL     1       5.127   2.747   0.402  1.00  0.00     0.023 C 
ENDROOT
BRANCH   1   2
ATOM      2  C   UNL     1       4.690   1.989   1.655  1.00  0.00     0.116 C 
BRANCH   2   3
ATOM      3  N   UNL     1       4.422   2.857   2.792  1.00  0.00    -0.355 N 
ATOM      4  C   UNL     1       3.251   3.172   3.434  1.00  0.00     0.231 C 
ATOM      5  O   UNL     1       3.333   3.869   4.447  1.00  0.00    -0.274 OA
ATOM      6  H   UNL     1       5.221   3.295   3.167  1.00  0.00     0.163 HD
BRANCH   4   7
ATOM      7  C   UNL     1       1.907   2.657   2.913  1.00  0.00     0.100 C 
ATOM      8  N   UNL     1       0.304   3.414   1.262  1.00  0.00    -0.330 N 
ATOM      9  C   UNL     1      -0.412   3.164   2.505  1.00  0.00     0.263 C 
ATOM     10  C   UNL     1       1.718   3.139   1.472  1.00  0.00     0.279 C 
ATOM     11  H   UNL     1       0.184   4.408   1.066  1.00  0.00     0.348 HD
ATOM     12  C   UNL     1       0.679   3.311   3.572  1.00  0.00     0.084 C 
ATOM     13  C   UNL     1       1.802   1.133   3.131  1.00  0.00     0.028 C 
BRANCH   8  14
ATOM     14  C   UNL     1      -0.280   2.982  -0.007  1.00  0.00     0.299 C 
BRANCH  14  15
ATOM     15  C   UNL     1      -0.575   1.498  -0.150  1.00  0.00     0.017 A 
ATOM     16  C   UNL     1      -3.581  -0.776   0.254  1.00  0.00     0.067 C 
ATOM     17  C   UNL     1      -2.173  -0.282   0.115  1.00  0.00     0.038 A 
ATOM     18  C   UNL     1      -1.889   1.073   0.096  1.00  0.00     0.033 A 
ATOM     19  N   UNL     1      -1.211  -1.223   0.007  1.00  0.00    -0.253 NA
ATOM     20  C   UNL     1       0.045  -0.835  -0.260  1.00  0.00     0.071 A 
ATOM     21  C   UNL     1       0.406   0.515  -0.454  1.00  0.00     0.009 A 
ATOM     22  C   UNL     1       1.026  -1.814  -0.348  1.00  0.00     0.029 A 
ATOM     23  C   UNL     1       1.713   0.786  -0.931  1.00  0.00     0.011 A 
ATOM     24  C   UNL     1       2.344  -1.516  -0.700  1.00  0.00     0.002 A 
ATOM     25  C   UNL     1       2.678  -0.215  -1.035  1.00  0.00     0.001 A 
ENDBRANCH  14  15
ENDBRANCH   8  14
ENDBRANCH   4   7
ENDBRANCH   2   3
ENDBRANCH   1   2
BRANCH   1  26
ATOM     26  C   UNL     1       6.540   3.319   0.458  1.00  0.00     0.023 C 
BRANCH  26  27
ATOM     27  C   UNL     1       7.639   2.309   0.765  1.00  0.00     0.116 C 
BRANCH  27  28
ATOM     28  N   UNL     1       7.721   1.218  -0.195  1.00  0.00    -0.352 N 
ATOM     29  C   UNL     1       8.845   0.629  -0.734  1.00  0.00     0.251 C 
ATOM     30  H   UNL     1       6.860   0.854  -0.501  1.00  0.00     0.163 HD
ATOM     31  O   UNL     1       8.743  -0.218  -1.607  1.00  0.00    -0.269 OA
BRANCH  29  32
ATOM     32  C   UNL     1      10.180   1.067  -0.270  1.00  0.00     0.039 A 
ATOM     33  C   UNL     1      11.154   1.390  -1.219  1.00  0.00     0.014 A 
ATOM     34  C   UNL     1      10.450   1.206   1.093  1.00  0.00     0.014 A 
ATOM     35  C   UNL     1      12.373   1.928  -0.800  1.00  0.00     0.010 A 
ATOM     36  C   UNL     1      11.628   1.820   1.503  1.00  0.00     0.010 A 
ATOM     37  C   UNL     1      12.602   2.187   0.562  1.00  0.00    -0.014 A 
BRANCH  37  38
ATOM     38  C   UNL     1      13.852   2.837   1.028  1.00  0.00     0.031 A 
ATOM     39  C   UNL     1      14.792   2.099   1.940  1.00  0.00     0.074 A 
ATOM     40  C   UNL     1      14.109   4.117   0.692  1.00  0.00     0.049 A 
ATOM     41  N   UNL     1      15.900   2.514   2.498  1.00  0.00    -0.248 NA
ATOM     42  C   UNL     1      14.419   0.720   2.296  1.00  0.00     0.031 C 
ATOM     43  C   UNL     1      13.263   4.960  -0.155  1.00  0.00     0.029 A 
ATOM     44  N   UNL     1      15.160   4.933   1.028  1.00  0.00    -0.354 N 
ATOM     45  C   UNL     1      16.342   1.460   3.288  1.00  0.00     0.074 A 
ATOM     46  C   UNL     1      15.355   0.409   3.180  1.00  0.00     0.031 C 
ATOM     47  C   UNL     1      13.851   6.158  -0.307  1.00  0.00     0.029 A 
ATOM     48  C   UNL     1      15.088   6.183   0.465  1.00  0.00     0.049 A 
ATOM     49  H   UNL     1      15.896   4.648   1.618  1.00  0.00     0.167 HD
ATOM     50  C   UNL     1      17.477   1.364   4.021  1.00  0.00     0.031 A 
ATOM     51  C   UNL     1      15.928   7.231   0.557  1.00  0.00     0.031 A 
ATOM     52  C   UNL     1      18.465   2.403   4.121  1.00  0.00     0.049 A 
ATOM     53  C   UNL     1      17.170   7.110   1.394  1.00  0.00     0.074 A 
ATOM     54  C   UNL     1      19.680   2.379   4.784  1.00  0.00     0.029 A 
ATOM     55  N   UNL     1      18.349   3.658   3.543  1.00  0.00    -0.354 N 
ATOM     56  N   UNL     1      17.610   6.082   2.077  1.00  0.00    -0.248 NA
ATOM     57  C   UNL     1      18.035   8.297   1.464  1.00  0.00     0.031 C 
ATOM     58  C   UNL     1      20.275   3.638   4.651  1.00  0.00     0.029 A 
ATOM     59  C   UNL     1      19.457   4.427   3.857  1.00  0.00     0.049 A 
ATOM     60  H   UNL     1      17.591   3.958   2.991  1.00  0.00     0.167 HD
ATOM     61  C   UNL     1      18.819   6.484   2.630  1.00  0.00     0.074 A 
ATOM     62  C   UNL     1      19.045   7.848   2.196  1.00  0.00     0.031 C 
ATOM     63  C   UNL     1      19.668   5.784   3.421  1.00  0.00     0.031 A 
BRANCH  50  64
ATOM     64  C   UNL     1      17.690   0.086   4.786  1.00  0.00    -0.014 A 
ATOM     65  C   UNL     1      17.943  -1.127   4.125  1.00  0.00     0.009 A 
ATOM     66  C   UNL     1      17.633   0.095   6.188  1.00  0.00     0.009 A 
ATOM     67  C   UNL     1      18.080  -2.313   4.850  1.00  0.00     0.001 A 
ATOM     68  C   UNL     1      17.803  -1.086   6.912  1.00  0.00     0.001 A 
ATOM     69  C   UNL     1      18.012  -2.291   6.242  1.00  0.00     0.000 A 
ENDBRANCH  50  64
BRANCH  51  70
ATOM     70  C   UNL     1      15.646   8.477  -0.203  1.00  0.00    -0.014 A 
ATOM     71  C   UNL     1      16.424   8.808  -1.323  1.00  0.00     0.009 A 
ATOM     72  C   UNL     1      14.604   9.336   0.178  1.00  0.00     0.009 A 
ATOM     73  C   UNL     1      16.178   9.984  -2.034  1.00  0.00     0.001 A 
ATOM     74  C   UNL     1      14.344  10.498  -0.551  1.00  0.00     0.001 A 
ATOM     75  C   UNL     1      15.135  10.825  -1.651  1.00  0.00     0.000 A 
ENDBRANCH  51  70
BRANCH  63  76
ATOM     76  C   UNL     1      20.941   6.467   3.835  1.00  0.00    -0.014 A 
ATOM     77  C   UNL     1      20.942   7.501   4.783  1.00  0.00     0.009 A 
ATOM     78  C   UNL     1      22.164   6.040   3.292  1.00  0.00     0.009 A 
ATOM     79  C   UNL     1      22.139   8.117   5.154  1.00  0.00     0.001 A 
ATOM     80  C   UNL     1      23.361   6.637   3.687  1.00  0.00     0.001 A 
ATOM     81  C   UNL     1      23.347   7.681   4.610  1.00  0.00     0.000 A 
ENDBRANCH  63  76
ENDBRANCH  37  38
ENDBRANCH  29  32
ENDBRANCH  27  28
ENDBRANCH  26  27
ENDBRANCH   1  26
TORSDOF 13
