REMARK SMILES CC1(C)[C@H](C(=O)Nc2ccccc2C(N)=O)[C@@H]1C(=O)NCCCCNC(=O)c1ccc(-c2c3nc(c(-c4ccccc4)c4ccc([nH]4)c(-c4ccccc4)c4nc(c(-c5ccccc5)c5ccc2[nH]5)C=C4)C=C3)cc1
REMARK SMILES IDX 22 1 21 2 20 3 18 4 19 5 17 7 1 8 2 9 3 10 4 11 5 12 6 13
REMARK SMILES IDX 7 14 8 16 9 17 13 18 10 19 12 20 11 21 14 22 15 23 16 24
REMARK SMILES IDX 23 27 24 28 25 29 26 30 27 32 28 33 29 34 75 35 30 36 74 37
REMARK SMILES IDX 31 38 32 39 33 40 68 41 34 42 73 43 67 44 69 45 35 46 72 47
REMARK SMILES IDX 66 48 65 49 36 51 58 52 43 53 57 54 44 55 47 56 56 57 70 58
REMARK SMILES IDX 45 59 46 60 55 62 71 63 48 64 37 65 38 66 42 67 39 68 41 69
REMARK SMILES IDX 40 70 59 71 60 72 64 73 61 74 63 75 62 76 49 77 50 78 54 79
REMARK SMILES IDX 51 80 53 81 52 82
REMARK H PARENT 20 6 7 15 15 25 15 26 25 31 69 50 47 61
REMARK Flexibility Score: inf
ROOT
ATOM      1  C   UNL     1      -5.538   0.778   0.571  1.00  0.00     0.023 C 
ENDROOT
BRANCH   1   2
ATOM      2  C   UNL     1      -4.078   0.843   0.146  1.00  0.00     0.116 C 
BRANCH   2   3
ATOM      3  N   UNL     1      -3.209   1.163   1.252  1.00  0.00    -0.356 N 
ATOM      4  C   UNL     1      -2.034   0.569   1.605  1.00  0.00     0.224 C 
ATOM      5  O   UNL     1      -1.559   0.827   2.705  1.00  0.00    -0.275 OA
ATOM      6  H   UNL     1      -3.503   1.906   1.827  1.00  0.00     0.163 HD
BRANCH   4   7
ATOM      7  C   UNL     1      -1.381  -0.424   0.698  1.00  0.00     0.098 C 
ATOM      8  C   UNL     1       0.941  -1.606   0.333  1.00  0.00     0.013 C 
ATOM      9  C   UNL     1       0.135  -0.318   0.461  1.00  0.00    -0.011 C 
ATOM     10  C   UNL     1       0.869   0.691   1.299  1.00  0.00     0.013 C 
ATOM     11  C   UNL     1      -0.830  -0.122  -0.692  1.00  0.00     0.098 C 
BRANCH  11  12
ATOM     12  C   UNL     1      -1.475   0.917  -1.533  1.00  0.00     0.228 C 
ATOM     13  O   UNL     1      -2.307   0.506  -2.349  1.00  0.00    -0.274 OA
ATOM     14  N   UNL     1      -1.395   2.271  -1.407  1.00  0.00    -0.325 N 
ATOM     15  H   UNL     1      -2.083   2.760  -1.914  1.00  0.00     0.169 HD
BRANCH  14  16
ATOM     16  C   UNL     1      -0.527   3.093  -0.703  1.00  0.00     0.053 A 
ATOM     17  C   UNL     1      -1.154   4.074   0.079  1.00  0.00     0.027 A 
ATOM     18  C   UNL     1       0.872   3.009  -0.748  1.00  0.00     0.063 A 
ATOM     19  C   UNL     1      -0.407   4.868   0.941  1.00  0.00     0.002 A 
ATOM     20  C   UNL     1       1.619   3.830   0.114  1.00  0.00     0.016 A 
ATOM     21  C   UNL     1       0.977   4.725   0.979  1.00  0.00     0.001 A 
BRANCH  18  22
ATOM     22  C   UNL     1       1.558   2.145  -1.752  1.00  0.00     0.250 C 
ATOM     23  N   UNL     1       2.785   1.635  -1.428  1.00  0.00    -0.366 N 
ATOM     24  O   UNL     1       1.064   1.883  -2.841  1.00  0.00    -0.269 OA
ATOM     25  H   UNL     1       3.188   1.842  -0.554  1.00  0.00     0.159 HD
ATOM     26  H   UNL     1       3.265   1.061  -2.068  1.00  0.00     0.159 HD
ENDBRANCH  18  22
ENDBRANCH  14  16
ENDBRANCH  11  12
ENDBRANCH   4   7
ENDBRANCH   2   3
ENDBRANCH   1   2
BRANCH   1  27
ATOM     27  C   UNL     1      -6.099   2.083   1.138  1.00  0.00     0.023 C 
BRANCH  27  28
ATOM     28  C   UNL     1      -5.855   3.326   0.289  1.00  0.00     0.116 C 
BRANCH  28  29
ATOM     29  N   UNL     1      -6.398   3.210  -1.054  1.00  0.00    -0.352 N 
ATOM     30  C   UNL     1      -7.341   3.983  -1.685  1.00  0.00     0.251 C 
ATOM     31  H   UNL     1      -6.036   2.468  -1.591  1.00  0.00     0.163 HD
ATOM     32  O   UNL     1      -7.806   3.632  -2.764  1.00  0.00    -0.269 OA
BRANCH  30  33
ATOM     33  C   UNL     1      -7.813   5.234  -1.054  1.00  0.00     0.039 A 
ATOM     34  C   UNL     1      -9.180   5.522  -1.066  1.00  0.00     0.014 A 
ATOM     35  C   UNL     1      -6.913   6.126  -0.467  1.00  0.00     0.014 A 
ATOM     36  C   UNL     1      -9.646   6.685  -0.452  1.00  0.00     0.010 A 
ATOM     37  C   UNL     1      -7.388   7.232   0.229  1.00  0.00     0.010 A 
ATOM     38  C   UNL     1      -8.756   7.540   0.220  1.00  0.00    -0.014 A 
BRANCH  38  39
ATOM     39  C   UNL     1      -9.234   8.790   0.864  1.00  0.00     0.031 A 
ATOM     40  C   UNL     1      -8.746  10.125   0.363  1.00  0.00     0.074 A 
ATOM     41  C   UNL     1     -10.078   8.731   1.912  1.00  0.00     0.049 A 
ATOM     42  N   UNL     1      -9.034  11.326   0.796  1.00  0.00    -0.248 NA
ATOM     43  C   UNL     1      -7.786  10.107  -0.754  1.00  0.00     0.031 C 
ATOM     44  C   UNL     1     -10.595   7.503   2.519  1.00  0.00     0.029 A 
ATOM     45  N   UNL     1     -10.655   9.734   2.650  1.00  0.00    -0.354 N 
ATOM     46  C   UNL     1      -8.282  12.198   0.018  1.00  0.00     0.074 A 
ATOM     47  C   UNL     1      -7.474  11.388  -0.865  1.00  0.00     0.031 C 
ATOM     48  C   UNL     1     -11.443   7.826   3.509  1.00  0.00     0.029 A 
ATOM     49  C   UNL     1     -11.500   9.279   3.633  1.00  0.00     0.049 A 
ATOM     50  H   UNL     1     -10.480  10.690   2.490  1.00  0.00     0.167 HD
ATOM     51  C   UNL     1      -8.281  13.552   0.015  1.00  0.00     0.031 A 
ATOM     52  C   UNL     1     -12.240   9.957   4.531  1.00  0.00     0.031 A 
ATOM     53  C   UNL     1      -9.094  14.359   0.884  1.00  0.00     0.049 A 
ATOM     54  C   UNL     1     -12.215  11.461   4.514  1.00  0.00     0.074 A 
ATOM     55  C   UNL     1      -9.202  15.738   0.929  1.00  0.00     0.029 A 
ATOM     56  N   UNL     1      -9.939  13.858   1.862  1.00  0.00    -0.354 N 
ATOM     57  N   UNL     1     -11.548  12.271   3.728  1.00  0.00    -0.248 NA
ATOM     58  C   UNL     1     -13.067  12.144   5.498  1.00  0.00     0.031 C 
ATOM     59  C   UNL     1     -10.072  16.073   1.972  1.00  0.00     0.029 A 
ATOM     60  C   UNL     1     -10.559  14.901   2.528  1.00  0.00     0.049 A 
ATOM     61  H   UNL     1     -10.078  12.902   2.054  1.00  0.00     0.167 HD
ATOM     62  C   UNL     1     -11.931  13.556   4.094  1.00  0.00     0.074 A 
ATOM     63  C   UNL     1     -12.898  13.415   5.163  1.00  0.00     0.031 C 
ATOM     64  C   UNL     1     -11.524  14.745   3.586  1.00  0.00     0.031 A 
BRANCH  51  65
ATOM     65  C   UNL     1      -7.364  14.241  -0.959  1.00  0.00    -0.014 A 
ATOM     66  C   UNL     1      -7.586  14.174  -2.345  1.00  0.00     0.009 A 
ATOM     67  C   UNL     1      -6.274  14.987  -0.485  1.00  0.00     0.009 A 
ATOM     68  C   UNL     1      -6.711  14.800  -3.235  1.00  0.00     0.001 A 
ATOM     69  C   UNL     1      -5.421  15.642  -1.375  1.00  0.00     0.001 A 
ATOM     70  C   UNL     1      -5.633  15.538  -2.749  1.00  0.00     0.000 A 
ENDBRANCH  51  65
BRANCH  52  71
ATOM     71  C   UNL     1     -13.093   9.224   5.504  1.00  0.00    -0.014 A 
ATOM     72  C   UNL     1     -14.493   9.281   5.412  1.00  0.00     0.009 A 
ATOM     73  C   UNL     1     -12.514   8.478   6.543  1.00  0.00     0.009 A 
ATOM     74  C   UNL     1     -15.293   8.639   6.360  1.00  0.00     0.001 A 
ATOM     75  C   UNL     1     -13.317   7.809   7.469  1.00  0.00     0.001 A 
ATOM     76  C   UNL     1     -14.705   7.900   7.385  1.00  0.00     0.000 A 
ENDBRANCH  52  71
BRANCH  64  77
ATOM     77  C   UNL     1     -12.171  15.987   4.136  1.00  0.00    -0.014 A 
ATOM     78  C   UNL     1     -11.923  16.434   5.443  1.00  0.00     0.009 A 
ATOM     79  C   UNL     1     -13.025  16.739   3.312  1.00  0.00     0.009 A 
ATOM     80  C   UNL     1     -12.553  17.582   5.928  1.00  0.00     0.001 A 
ATOM     81  C   UNL     1     -13.625  17.905   3.788  1.00  0.00     0.001 A 
ATOM     82  C   UNL     1     -13.400  18.318   5.099  1.00  0.00     0.000 A 
ENDBRANCH  64  77
ENDBRANCH  38  39
ENDBRANCH  30  33
ENDBRANCH  28  29
ENDBRANCH  27  28
ENDBRANCH   1  27
TORSDOF 14
