REMARK SMILES O=C(NCCCCNC(=O)[C@H]1CSC2(CCCCC2)[NH2+]1)c1ccc(-c2c3nc(c(-c4ccccc4)c4ccc([nH]4)c(-c4ccccc4)c4nc(c(-c5ccccc5)c5ccc2[nH]5)C=C4)C=C3)cc1
REMARK SMILES IDX 4 1 3 2 1 3 2 4 21 6 22 7 68 8 23 9 67 10 24 11 25 12 26 13
REMARK SMILES IDX 61 14 27 15 66 16 60 17 62 18 28 19 65 20 59 21 58 22 29 24
REMARK SMILES IDX 51 25 36 26 50 27 37 28 40 29 49 30 63 31 38 32 39 33 48 35
REMARK SMILES IDX 64 36 41 37 30 38 31 39 35 40 32 41 34 42 33 43 52 44 53 45
REMARK SMILES IDX 57 46 54 47 56 48 55 49 42 50 43 51 47 52 44 53 46 54 45 55
REMARK SMILES IDX 5 56 6 57 7 58 8 59 9 60 10 62 11 63 12 64 20 65 13 66 14 67
REMARK SMILES IDX 15 70 19 71 16 72 18 73 17 74
REMARK H PARENT 3 5 62 23 40 34 8 61 20 68 20 69
REMARK Flexibility Score: inf
ROOT
ATOM      1  C   UNL     1       1.327   8.322  -5.564  1.00  0.00     0.116 C 
ENDROOT
BRANCH   1   2
ATOM      2  N   UNL     1       1.488   9.723  -5.199  1.00  0.00    -0.352 N 
ATOM      3  O   UNL     1       0.720  11.831  -4.819  1.00  0.00    -0.269 OA
ATOM      4  C   UNL     1       0.483  10.671  -5.100  1.00  0.00     0.251 C 
ATOM      5  H   UNL     1       2.403  10.026  -5.002  1.00  0.00     0.163 HD
BRANCH   4   6
ATOM      6  C   UNL     1      -0.899  10.233  -5.403  1.00  0.00     0.039 A 
ATOM      7  C   UNL     1      -1.427   9.123  -4.744  1.00  0.00     0.014 A 
ATOM      8  C   UNL     1      -1.595  10.839  -6.452  1.00  0.00     0.014 A 
ATOM      9  C   UNL     1      -2.556   8.504  -5.260  1.00  0.00     0.010 A 
ATOM     10  C   UNL     1      -2.789  10.267  -6.905  1.00  0.00     0.010 A 
ATOM     11  C   UNL     1      -3.252   9.066  -6.346  1.00  0.00    -0.014 A 
BRANCH  11  12
ATOM     12  C   UNL     1      -4.476   8.383  -6.837  1.00  0.00     0.031 A 
ATOM     13  C   UNL     1      -4.551   7.785  -8.217  1.00  0.00     0.074 A 
ATOM     14  C   UNL     1      -5.506   8.235  -5.982  1.00  0.00     0.049 A 
ATOM     15  N   UNL     1      -5.527   7.099  -8.760  1.00  0.00    -0.248 NA
ATOM     16  C   UNL     1      -3.393   7.979  -9.104  1.00  0.00     0.031 C 
ATOM     17  C   UNL     1      -5.551   8.771  -4.619  1.00  0.00     0.029 A 
ATOM     18  N   UNL     1      -6.690   7.557  -6.111  1.00  0.00    -0.354 N 
ATOM     19  C   UNL     1      -5.114   6.802 -10.054  1.00  0.00     0.074 A 
ATOM     20  C   UNL     1      -3.803   7.392 -10.222  1.00  0.00     0.031 C 
ATOM     21  C   UNL     1      -6.665   8.338  -4.013  1.00  0.00     0.029 A 
ATOM     22  C   UNL     1      -7.445   7.557  -4.964  1.00  0.00     0.049 A 
ATOM     23  H   UNL     1      -6.971   7.113  -6.944  1.00  0.00     0.167 HD
ATOM     24  C   UNL     1      -5.769   6.102 -11.012  1.00  0.00     0.031 A 
ATOM     25  C   UNL     1      -8.640   7.000  -4.703  1.00  0.00     0.031 A 
ATOM     26  C   UNL     1      -7.070   5.507 -10.843  1.00  0.00     0.049 A 
ATOM     27  C   UNL     1      -9.339   6.234  -5.783  1.00  0.00     0.074 A 
ATOM     28  C   UNL     1      -7.809   4.773 -11.756  1.00  0.00     0.029 A 
ATOM     29  N   UNL     1      -7.822   5.571  -9.681  1.00  0.00    -0.354 N 
ATOM     30  N   UNL     1      -8.931   5.969  -7.000  1.00  0.00    -0.248 NA
ATOM     31  C   UNL     1     -10.667   5.699  -5.456  1.00  0.00     0.031 C 
ATOM     32  C   UNL     1      -9.025   4.425 -11.158  1.00  0.00     0.029 A 
ATOM     33  C   UNL     1      -9.024   4.903  -9.859  1.00  0.00     0.049 A 
ATOM     34  H   UNL     1      -7.545   6.024  -8.852  1.00  0.00     0.167 HD
ATOM     35  C   UNL     1      -9.955   5.240  -7.587  1.00  0.00     0.074 A 
ATOM     36  C   UNL     1     -10.984   5.072  -6.580  1.00  0.00     0.031 C 
ATOM     37  C   UNL     1     -10.042   4.764  -8.852  1.00  0.00     0.031 A 
BRANCH  24  38
ATOM     38  C   UNL     1      -5.102   5.954 -12.352  1.00  0.00    -0.014 A 
ATOM     39  C   UNL     1      -4.042   5.054 -12.541  1.00  0.00     0.009 A 
ATOM     40  C   UNL     1      -5.592   6.667 -13.457  1.00  0.00     0.009 A 
ATOM     41  C   UNL     1      -3.475   4.885 -13.807  1.00  0.00     0.001 A 
ATOM     42  C   UNL     1      -5.038   6.482 -14.725  1.00  0.00     0.001 A 
ATOM     43  C   UNL     1      -3.977   5.594 -14.899  1.00  0.00     0.000 A 
ENDBRANCH  24  38
BRANCH  25  44
ATOM     44  C   UNL     1      -9.256   7.175  -3.364  1.00  0.00    -0.014 A 
ATOM     45  C   UNL     1      -9.366   6.093  -2.479  1.00  0.00     0.009 A 
ATOM     46  C   UNL     1      -9.720   8.437  -2.959  1.00  0.00     0.009 A 
ATOM     47  C   UNL     1      -9.945   6.269  -1.220  1.00  0.00     0.001 A 
ATOM     48  C   UNL     1     -10.269   8.616  -1.690  1.00  0.00     0.001 A 
ATOM     49  C   UNL     1     -10.389   7.531  -0.825  1.00  0.00     0.000 A 
ENDBRANCH  25  44
BRANCH  37  50
ATOM     50  C   UNL     1     -11.296   4.018  -9.202  1.00  0.00    -0.014 A 
ATOM     51  C   UNL     1     -12.505   4.701  -9.404  1.00  0.00     0.009 A 
ATOM     52  C   UNL     1     -11.268   2.622  -9.327  1.00  0.00     0.009 A 
ATOM     53  C   UNL     1     -13.675   3.993  -9.685  1.00  0.00     0.001 A 
ATOM     54  C   UNL     1     -12.435   1.919  -9.631  1.00  0.00     0.001 A 
ATOM     55  C   UNL     1     -13.638   2.604  -9.799  1.00  0.00     0.000 A 
ENDBRANCH  37  50
ENDBRANCH  11  12
ENDBRANCH   4   6
ENDBRANCH   1   2
BRANCH   1  56
ATOM     56  C   UNL     1       2.528   7.675  -6.244  1.00  0.00     0.023 C 
BRANCH  56  57
ATOM     57  C   UNL     1       3.812   7.653  -5.424  1.00  0.00     0.023 C 
BRANCH  57  58
ATOM     58  C   UNL     1       3.694   6.983  -4.056  1.00  0.00     0.116 C 
BRANCH  58  59
ATOM     59  N   UNL     1       4.326   5.691  -3.945  1.00  0.00    -0.351 N 
ATOM     60  C   UNL     1       5.456   5.314  -3.282  1.00  0.00     0.279 C 
ATOM     61  H   UNL     1       3.867   4.965  -4.425  1.00  0.00     0.163 HD
ATOM     62  O   UNL     1       5.579   4.098  -3.086  1.00  0.00    -0.268 OA
BRANCH  60  63
ATOM     63  C   UNL     1       6.591   6.280  -2.849  1.00  0.00     0.283 C 
ATOM     64  C   UNL     1       7.293   6.906  -4.040  1.00  0.00     0.151 C 
ATOM     65  N   UNL     1       6.235   7.268  -1.797  1.00  0.00    -0.322 N 
ATOM     66  S   UNL     1       6.728   8.611  -4.055  1.00  0.00    -0.089 SA
ATOM     67  C   UNL     1       6.411   8.657  -2.252  1.00  0.00     0.143 C 
ATOM     68  H   UNL     1       6.831   7.111  -0.984  1.00  0.00     0.348 HD
ATOM     69  H   UNL     1       5.250   7.137  -1.567  1.00  0.00     0.348 HD
ATOM     70  C   UNL     1       5.185   9.511  -1.842  1.00  0.00     0.081 C 
ATOM     71  C   UNL     1       7.642   9.319  -1.587  1.00  0.00     0.081 C 
ATOM     72  C   UNL     1       5.274  10.956  -2.315  1.00  0.00     0.007 C 
ATOM     73  C   UNL     1       7.798  10.806  -1.968  1.00  0.00     0.007 C 
ATOM     74  C   UNL     1       6.524  11.629  -1.766  1.00  0.00     0.001 C 
ENDBRANCH  60  63
ENDBRANCH  58  59
ENDBRANCH  57  58
ENDBRANCH  56  57
ENDBRANCH   1  56
TORSDOF 11
