REMARK SMILES CC[C@H](C(=O)NCCCCNC(=O)c1ccc(-c2c3nc(c(-c4ccccc4)c4ccc([nH]4)c(-c4ccccc4)c4nc(c(-c5ccccc5)c5ccc2[nH]5)C=C4)C=C3)cc1)N1C(=O)c2ccc([N+](=O)[O-])cc2C1=O
REMARK SMILES IDX 8 1 7 2 6 3 4 4 5 5 3 7 2 8 1 9 62 10 63 11 74 12 64 13
REMARK SMILES IDX 65 14 73 15 75 16 66 17 72 18 67 19 68 20 69 21 70 22 71 23
REMARK SMILES IDX 9 24 10 25 11 26 12 27 13 29 14 30 15 31 61 32 16 33 60 34
REMARK SMILES IDX 17 35 18 36 19 37 54 38 20 39 59 40 53 41 55 42 21 43 58 44
REMARK SMILES IDX 52 45 51 46 22 48 44 49 29 50 43 51 30 52 33 53 42 54 56 55
REMARK SMILES IDX 31 56 32 57 41 59 57 60 34 61 23 62 24 63 28 64 25 65 27 66
REMARK SMILES IDX 26 67 45 68 46 69 50 70 47 71 49 72 48 73 35 74 36 75 40 76
REMARK SMILES IDX 37 77 39 78 38 79
REMARK H PARENT 6 6 11 28 55 47 33 58
REMARK Flexibility Score: inf
ROOT
ATOM      1  C   UNL     1       3.819  -0.297  -0.220  1.00  0.00     0.023 C 
ENDROOT
BRANCH   1   2
ATOM      2  C   UNL     1       2.554   0.316   0.385  1.00  0.00     0.116 C 
BRANCH   2   3
ATOM      3  N   UNL     1       1.403  -0.543   0.182  1.00  0.00    -0.354 N 
ATOM      4  C   UNL     1       0.680  -1.268   1.084  1.00  0.00     0.243 C 
ATOM      5  O   UNL     1       0.078  -2.244   0.628  1.00  0.00    -0.273 OA
ATOM      6  H   UNL     1       1.095  -0.614  -0.750  1.00  0.00     0.163 HD
BRANCH   4   7
ATOM      7  C   UNL     1       0.705  -0.920   2.592  1.00  0.00     0.183 C 
BRANCH   7   8
ATOM      8  C   UNL     1       0.415   0.551   2.962  1.00  0.00     0.032 C 
ATOM      9  C   UNL     1      -1.046   0.962   3.061  1.00  0.00     0.006 C 
ENDBRANCH   7   8
BRANCH   7  10
ATOM     10  N   UNL     1      -0.097  -1.868   3.371  1.00  0.00    -0.262 N 
ATOM     11  C   UNL     1      -1.411  -2.173   3.126  1.00  0.00     0.262 C 
ATOM     12  C   UNL     1       0.307  -2.363   4.582  1.00  0.00     0.262 C 
ATOM     13  O   UNL     1      -2.176  -1.758   2.276  1.00  0.00    -0.269 OA
ATOM     14  C   UNL     1      -1.848  -3.049   4.206  1.00  0.00     0.053 A 
ATOM     15  C   UNL     1      -0.816  -3.131   5.121  1.00  0.00     0.060 A 
ATOM     16  O   UNL     1       1.350  -2.181   5.177  1.00  0.00    -0.269 OA
ATOM     17  C   UNL     1      -3.075  -3.651   4.413  1.00  0.00     0.022 A 
ATOM     18  C   UNL     1      -0.961  -3.786   6.330  1.00  0.00     0.100 A 
ATOM     19  C   UNL     1      -3.254  -4.338   5.618  1.00  0.00     0.086 A 
ATOM     20  C   UNL     1      -2.208  -4.388   6.574  1.00  0.00     0.270 A 
BRANCH  20  21
ATOM     21  N   UNL     1      -2.450  -5.050   7.864  1.00  0.00     0.062 N 
ATOM     22  O   UNL     1      -3.510  -5.676   7.998  1.00  0.00    -0.258 OA
ATOM     23  O   UNL     1      -1.583  -4.930   8.740  1.00  0.00    -0.258 OA
ENDBRANCH  20  21
ENDBRANCH   7  10
ENDBRANCH   4   7
ENDBRANCH   2   3
ENDBRANCH   1   2
BRANCH   1  24
ATOM     24  C   UNL     1       3.756  -0.597  -1.723  1.00  0.00     0.023 C 
BRANCH  24  25
ATOM     25  C   UNL     1       3.417   0.587  -2.624  1.00  0.00     0.116 C 
BRANCH  25  26
ATOM     26  N   UNL     1       4.405   1.649  -2.553  1.00  0.00    -0.352 N 
ATOM     27  C   UNL     1       5.055   2.320  -3.560  1.00  0.00     0.251 C 
ATOM     28  H   UNL     1       4.646   1.932  -1.641  1.00  0.00     0.163 HD
ATOM     29  O   UNL     1       5.965   3.096  -3.277  1.00  0.00    -0.269 OA
BRANCH  27  30
ATOM     30  C   UNL     1       4.697   2.102  -4.981  1.00  0.00     0.039 A 
ATOM     31  C   UNL     1       5.731   1.997  -5.918  1.00  0.00     0.014 A 
ATOM     32  C   UNL     1       3.368   2.033  -5.406  1.00  0.00     0.014 A 
ATOM     33  C   UNL     1       5.436   1.760  -7.262  1.00  0.00     0.010 A 
ATOM     34  C   UNL     1       3.075   1.737  -6.739  1.00  0.00     0.010 A 
ATOM     35  C   UNL     1       4.106   1.593  -7.680  1.00  0.00    -0.014 A 
BRANCH  35  36
ATOM     36  C   UNL     1       3.790   1.235  -9.087  1.00  0.00     0.031 A 
ATOM     37  C   UNL     1       3.050   2.191  -9.980  1.00  0.00     0.074 A 
ATOM     38  C   UNL     1       4.130   0.016  -9.550  1.00  0.00     0.049 A 
ATOM     39  N   UNL     1       2.680   2.035 -11.227  1.00  0.00    -0.248 NA
ATOM     40  C   UNL     1       2.656   3.480  -9.393  1.00  0.00     0.031 C 
ATOM     41  C   UNL     1       4.811  -1.025  -8.777  1.00  0.00     0.029 A 
ATOM     42  N   UNL     1       3.945  -0.554 -10.785  1.00  0.00    -0.354 N 
ATOM     43  C   UNL     1       2.001   3.196 -11.569  1.00  0.00     0.074 A 
ATOM     44  C   UNL     1       1.974   4.032 -10.387  1.00  0.00     0.031 C 
ATOM     45  C   UNL     1       5.011  -2.095  -9.563  1.00  0.00     0.029 A 
ATOM     46  C   UNL     1       4.445  -1.830 -10.882  1.00  0.00     0.049 A 
ATOM     47  H   UNL     1       3.497  -0.093 -11.531  1.00  0.00     0.167 HD
ATOM     48  C   UNL     1       1.460   3.545 -12.762  1.00  0.00     0.031 A 
ATOM     49  C   UNL     1       4.450  -2.693 -11.915  1.00  0.00     0.031 A 
ATOM     50  C   UNL     1       1.491   2.724 -13.944  1.00  0.00     0.049 A 
ATOM     51  C   UNL     1       3.845  -2.283 -13.227  1.00  0.00     0.074 A 
ATOM     52  C   UNL     1       1.026   3.023 -15.213  1.00  0.00     0.029 A 
ATOM     53  N   UNL     1       2.012   1.442 -14.001  1.00  0.00    -0.354 N 
ATOM     54  N   UNL     1       3.273  -1.150 -13.553  1.00  0.00    -0.248 NA
ATOM     55  C   UNL     1       3.899  -3.269 -14.316  1.00  0.00     0.031 C 
ATOM     56  C   UNL     1       1.226   1.903 -16.028  1.00  0.00     0.029 A 
ATOM     57  C   UNL     1       1.858   0.926 -15.277  1.00  0.00     0.049 A 
ATOM     58  H   UNL     1       2.429   0.967 -13.246  1.00  0.00     0.167 HD
ATOM     59  C   UNL     1       2.917  -1.278 -14.889  1.00  0.00     0.074 A 
ATOM     60  C   UNL     1       3.353  -2.592 -15.316  1.00  0.00     0.031 C 
ATOM     61  C   UNL     1       2.287  -0.385 -15.689  1.00  0.00     0.031 A 
BRANCH  48  62
ATOM     62  C   UNL     1       0.778   4.882 -12.846  1.00  0.00    -0.014 A 
ATOM     63  C   UNL     1       1.517   6.075 -12.841  1.00  0.00     0.009 A 
ATOM     64  C   UNL     1      -0.618   4.947 -12.972  1.00  0.00     0.009 A 
ATOM     65  C   UNL     1       0.868   7.309 -12.925  1.00  0.00     0.001 A 
ATOM     66  C   UNL     1      -1.262   6.181 -13.082  1.00  0.00     0.001 A 
ATOM     67  C   UNL     1      -0.520   7.361 -13.049  1.00  0.00     0.000 A 
ENDBRANCH  48  62
BRANCH  49  68
ATOM     68  C   UNL     1       5.073  -4.032 -11.756  1.00  0.00    -0.014 A 
ATOM     69  C   UNL     1       6.304  -4.318 -12.366  1.00  0.00     0.009 A 
ATOM     70  C   UNL     1       4.442  -5.027 -10.994  1.00  0.00     0.009 A 
ATOM     71  C   UNL     1       6.881  -5.582 -12.232  1.00  0.00     0.001 A 
ATOM     72  C   UNL     1       5.034  -6.282 -10.842  1.00  0.00     0.001 A 
ATOM     73  C   UNL     1       6.248  -6.561 -11.467  1.00  0.00     0.000 A 
ENDBRANCH  49  68
BRANCH  61  74
ATOM     74  C   UNL     1       2.051  -0.792 -17.115  1.00  0.00    -0.014 A 
ATOM     75  C   UNL     1       1.063  -1.732 -17.447  1.00  0.00     0.009 A 
ATOM     76  C   UNL     1       2.807  -0.207 -18.142  1.00  0.00     0.009 A 
ATOM     77  C   UNL     1       0.860  -2.101 -18.779  1.00  0.00     0.001 A 
ATOM     78  C   UNL     1       2.585  -0.559 -19.474  1.00  0.00     0.001 A 
ATOM     79  C   UNL     1       1.618  -1.512 -19.790  1.00  0.00     0.000 A 
ENDBRANCH  61  74
ENDBRANCH  35  36
ENDBRANCH  27  30
ENDBRANCH  25  26
ENDBRANCH  24  25
ENDBRANCH   1  24
TORSDOF 14
