REMARK SMILES COc1cc([C@@H]2CC(=O)Nc3c(C(=O)NCCCCNC(=O)c4ccc(-c5c6nc(c(-c7ccccc7)c7ccc([nH]7)c(-c7ccccc7)c7nc(c(-c8ccccc8)c8ccc5[nH]8)C=C7)C=C6)cc4)cn(-c4ccc(F)cc4)c32)c(OC)c2c1OCO2
REMARK SMILES IDX 17 1 16 2 15 3 13 4 14 5 12 7 6 8 7 9 80 10 8 11 11 12 72 13
REMARK SMILES IDX 9 14 10 15 71 16 5 18 3 19 4 20 85 21 84 22 86 23 81 24
REMARK SMILES IDX 88 25 87 26 2 27 1 28 82 29 83 30 73 31 74 32 79 33 75 34
REMARK SMILES IDX 78 35 76 36 77 37 18 38 19 39 20 40 21 41 22 43 23 44 24 45
REMARK SMILES IDX 70 46 25 47 69 48 26 49 27 50 28 51 63 52 29 53 68 54 62 55
REMARK SMILES IDX 64 56 30 57 67 58 61 59 60 60 31 62 53 63 38 64 52 65 39 66
REMARK SMILES IDX 42 67 51 68 65 69 40 70 41 71 50 73 66 74 43 75 32 76 33 77
REMARK SMILES IDX 37 78 34 79 36 80 35 81 54 82 55 83 59 84 56 85 58 86 57 87
REMARK SMILES IDX 44 88 45 89 49 90 46 91 48 92 47 93
REMARK H PARENT 15 6 10 17 20 42 64 61 42 72
REMARK Flexibility Score: inf
ROOT
ATOM      1  C   UNL     1       0.287  -1.820  11.223  1.00  0.00     0.023 C 
ENDROOT
BRANCH   1   2
ATOM      2  C   UNL     1       0.998  -2.922  10.421  1.00  0.00     0.116 C 
BRANCH   2   3
ATOM      3  N   UNL     1       0.090  -3.979  10.050  1.00  0.00    -0.352 N 
ATOM      4  C   UNL     1      -0.768  -4.169   8.998  1.00  0.00     0.254 C 
ATOM      5  O   UNL     1      -1.363  -5.253   9.025  1.00  0.00    -0.269 OA
ATOM      6  H   UNL     1       0.084  -4.726  10.691  1.00  0.00     0.163 HD
BRANCH   4   7
ATOM      7  C   UNL     1      -0.980  -3.237   7.880  1.00  0.00     0.081 A 
ATOM      8  C   UNL     1      -0.817  -0.344   5.516  1.00  0.00     0.082 C 
ATOM      9  C   UNL     1      -0.660   0.797   6.525  1.00  0.00     0.115 C 
ATOM     10  C   UNL     1      -1.045  -1.642   6.240  1.00  0.00     0.055 A 
ATOM     11  C   UNL     1       0.145   0.401   7.737  1.00  0.00     0.225 C 
ATOM     12  C   UNL     1      -0.649  -1.889   7.541  1.00  0.00     0.076 A 
ATOM     13  N   UNL     1      -1.754  -2.729   5.789  1.00  0.00    -0.317 N 
ATOM     14  O   UNL     1       0.826   1.210   8.368  1.00  0.00    -0.275 OA
ATOM     15  N   UNL     1      -0.015  -0.872   8.213  1.00  0.00    -0.324 N 
ATOM     16  C   UNL     1      -1.751  -3.665   6.793  1.00  0.00     0.107 A 
ATOM     17  H   UNL     1       0.352  -1.074   9.104  1.00  0.00     0.170 HD
BRANCH   8  18
ATOM     18  C   UNL     1       0.339  -0.347   4.512  1.00  0.00     0.012 A 
ATOM     19  C   UNL     1       1.004   0.223   2.213  1.00  0.00     0.165 A 
ATOM     20  C   UNL     1       0.067   0.233   3.245  1.00  0.00     0.059 A 
ATOM     21  C   UNL     1       2.249  -0.303   2.487  1.00  0.00     0.211 A 
ATOM     22  C   UNL     1       2.555  -0.829   3.729  1.00  0.00     0.211 A 
ATOM     23  O   UNL     1       3.308  -0.359   1.631  1.00  0.00    -0.449 OA
ATOM     24  C   UNL     1       1.629  -0.871   4.765  1.00  0.00     0.168 A 
ATOM     25  O   UNL     1       3.842  -1.287   3.770  1.00  0.00    -0.449 OA
ATOM     26  C   UNL     1       4.333  -0.893   2.481  1.00  0.00     0.468 C 
BRANCH  19  27
ATOM     27  O   UNL     1       0.595   0.781   1.039  1.00  0.00    -0.493 OA
ATOM     28  C   UNL     1       0.997   0.063  -0.123  1.00  0.00     0.278 C 
ENDBRANCH  19  27
BRANCH  24  29
ATOM     29  O   UNL     1       1.850  -1.388   6.005  1.00  0.00    -0.492 OA
ATOM     30  C   UNL     1       3.173  -1.726   6.394  1.00  0.00     0.278 C 
ENDBRANCH  24  29
ENDBRANCH   8  18
BRANCH  13  31
ATOM     31  C   UNL     1      -2.460  -2.841   4.569  1.00  0.00     0.046 A 
ATOM     32  C   UNL     1      -1.809  -2.585   3.358  1.00  0.00     0.029 A 
ATOM     33  C   UNL     1      -3.828  -3.134   4.592  1.00  0.00     0.029 A 
ATOM     34  C   UNL     1      -2.541  -2.529   2.174  1.00  0.00     0.041 A 
ATOM     35  C   UNL     1      -4.557  -3.073   3.402  1.00  0.00     0.041 A 
ATOM     36  C   UNL     1      -3.911  -2.754   2.210  1.00  0.00     0.123 A 
ATOM     37  F   UNL     1      -4.621  -2.661   1.078  1.00  0.00    -0.207 F 
ENDBRANCH  13  31
ENDBRANCH   4   7
ENDBRANCH   2   3
ENDBRANCH   1   2
BRANCH   1  38
ATOM     38  C   UNL     1       0.220  -2.029  12.739  1.00  0.00     0.023 C 
BRANCH  38  39
ATOM     39  C   UNL     1       1.548  -1.824  13.462  1.00  0.00     0.116 C 
BRANCH  39  40
ATOM     40  N   UNL     1       2.095  -0.465  13.317  1.00  0.00    -0.352 N 
ATOM     41  C   UNL     1       3.396  -0.024  13.534  1.00  0.00     0.251 C 
ATOM     42  H   UNL     1       1.453   0.224  13.027  1.00  0.00     0.163 HD
ATOM     43  O   UNL     1       3.649   1.139  13.790  1.00  0.00    -0.269 OA
BRANCH  41  44
ATOM     44  C   UNL     1       4.480  -1.011  13.393  1.00  0.00     0.039 A 
ATOM     45  C   UNL     1       5.598  -1.073  14.232  1.00  0.00     0.014 A 
ATOM     46  C   UNL     1       4.283  -1.952  12.395  1.00  0.00     0.014 A 
ATOM     47  C   UNL     1       6.493  -2.130  14.063  1.00  0.00     0.010 A 
ATOM     48  C   UNL     1       4.960  -3.126  12.465  1.00  0.00     0.010 A 
ATOM     49  C   UNL     1       6.155  -3.148  13.163  1.00  0.00    -0.014 A 
BRANCH  49  50
ATOM     50  C   UNL     1       6.970  -4.316  12.894  1.00  0.00     0.031 A 
ATOM     51  C   UNL     1       7.079  -5.264  14.024  1.00  0.00     0.074 A 
ATOM     52  C   UNL     1       7.293  -4.648  11.622  1.00  0.00     0.049 A 
ATOM     53  N   UNL     1       8.138  -5.537  14.704  1.00  0.00    -0.248 NA
ATOM     54  C   UNL     1       5.851  -5.874  14.559  1.00  0.00     0.031 C 
ATOM     55  C   UNL     1       6.928  -3.965  10.369  1.00  0.00     0.029 A 
ATOM     56  N   UNL     1       7.905  -5.769  11.167  1.00  0.00    -0.354 N 
ATOM     57  C   UNL     1       7.761  -6.502  15.631  1.00  0.00     0.074 A 
ATOM     58  C   UNL     1       6.321  -6.513  15.633  1.00  0.00     0.031 C 
ATOM     59  C   UNL     1       7.114  -4.802   9.322  1.00  0.00     0.029 A 
ATOM     60  C   UNL     1       7.754  -6.011   9.806  1.00  0.00     0.049 A 
ATOM     61  H   UNL     1       8.418  -6.368  11.757  1.00  0.00     0.167 HD
ATOM     62  C   UNL     1       8.666  -7.387  16.133  1.00  0.00     0.031 A 
ATOM     63  C   UNL     1       8.102  -7.143   9.142  1.00  0.00     0.031 A 
ATOM     64  C   UNL     1      10.011  -7.025  15.756  1.00  0.00     0.049 A 
ATOM     65  C   UNL     1       9.069  -7.868  10.005  1.00  0.00     0.074 A 
ATOM     66  C   UNL     1      10.816  -5.926  15.982  1.00  0.00     0.029 A 
ATOM     67  N   UNL     1      10.538  -7.667  14.656  1.00  0.00    -0.354 N 
ATOM     68  N   UNL     1      10.257  -7.406  10.276  1.00  0.00    -0.248 NA
ATOM     69  C   UNL     1       8.541  -8.827  10.966  1.00  0.00     0.031 C 
ATOM     70  C   UNL     1      11.467  -5.693  14.735  1.00  0.00     0.029 A 
ATOM     71  C   UNL     1      11.107  -6.713  13.851  1.00  0.00     0.049 A 
ATOM     72  H   UNL     1      10.511  -8.635  14.481  1.00  0.00     0.167 HD
ATOM     73  C   UNL     1      10.426  -7.642  11.634  1.00  0.00     0.074 A 
ATOM     74  C   UNL     1       9.383  -8.609  11.983  1.00  0.00     0.031 C 
ATOM     75  C   UNL     1      11.181  -6.805  12.408  1.00  0.00     0.031 A 
BRANCH  62  76
ATOM     76  C   UNL     1       8.336  -8.777  16.606  1.00  0.00    -0.014 A 
ATOM     77  C   UNL     1       9.371  -9.557  17.154  1.00  0.00     0.009 A 
ATOM     78  C   UNL     1       7.136  -9.444  16.300  1.00  0.00     0.009 A 
ATOM     79  C   UNL     1       9.239 -10.941  17.307  1.00  0.00     0.001 A 
ATOM     80  C   UNL     1       6.986 -10.820  16.490  1.00  0.00     0.001 A 
ATOM     81  C   UNL     1       8.049 -11.574  16.965  1.00  0.00     0.000 A 
ENDBRANCH  62  76
BRANCH  63  82
ATOM     82  C   UNL     1       7.471  -7.762   7.953  1.00  0.00    -0.014 A 
ATOM     83  C   UNL     1       8.133  -8.750   7.205  1.00  0.00     0.009 A 
ATOM     84  C   UNL     1       6.099  -7.571   7.702  1.00  0.00     0.009 A 
ATOM     85  C   UNL     1       7.439  -9.540   6.273  1.00  0.00     0.001 A 
ATOM     86  C   UNL     1       5.407  -8.358   6.773  1.00  0.00     0.001 A 
ATOM     87  C   UNL     1       6.074  -9.354   6.069  1.00  0.00     0.000 A 
ENDBRANCH  63  82
BRANCH  75  88
ATOM     88  C   UNL     1      11.970  -5.716  11.715  1.00  0.00    -0.014 A 
ATOM     89  C   UNL     1      11.370  -4.686  10.966  1.00  0.00     0.009 A 
ATOM     90  C   UNL     1      13.342  -5.622  11.981  1.00  0.00     0.009 A 
ATOM     91  C   UNL     1      12.126  -3.612  10.481  1.00  0.00     0.001 A 
ATOM     92  C   UNL     1      14.093  -4.540  11.516  1.00  0.00     0.001 A 
ATOM     93  C   UNL     1      13.487  -3.538  10.763  1.00  0.00     0.000 A 
ENDBRANCH  75  88
ENDBRANCH  49  50
ENDBRANCH  41  44
ENDBRANCH  39  40
ENDBRANCH  38  39
ENDBRANCH   1  38
TORSDOF 15
