REMARK SMILES O=C(NCCCCNC(=O)[C@@H]1CN(c2ncccn2)CCN1C(=O)C1CCOCC1)c1ccc(-c2c3nc(c(-c4ccccc4)c4ccc([nH]4)c(-c4ccccc4)c4nc(c(-c5ccccc5)c5ccc2[nH]5)C=C4)C=C3)cc1
REMARK SMILES IDX 5 1 4 2 3 3 1 4 2 5 31 7 32 8 78 9 33 10 77 11 34 12 35 13
REMARK SMILES IDX 36 14 71 15 37 16 76 17 70 18 72 19 38 20 75 21 69 22 68 23
REMARK SMILES IDX 39 25 61 26 46 27 60 28 47 29 50 30 59 31 73 32 48 33 49 34
REMARK SMILES IDX 58 36 74 37 51 38 40 39 41 40 45 41 42 42 44 43 43 44 62 45
REMARK SMILES IDX 63 46 67 47 64 48 66 49 65 50 52 51 53 52 57 53 54 54 56 55
REMARK SMILES IDX 55 56 6 57 7 58 8 59 9 60 10 62 11 63 12 64 22 65 13 66
REMARK SMILES IDX 21 67 20 68 23 69 24 70 25 71 26 72 30 73 27 74 29 75 28 76
REMARK SMILES IDX 14 77 15 78 19 79 16 80 18 81 17 82
REMARK H PARENT 3 6 72 24 50 35 8 61
REMARK Flexibility Score: inf
ROOT
ATOM      1  C   UNL     1       4.864   2.643  -0.387  1.00  0.00     0.023 C 
ENDROOT
BRANCH   1   2
ATOM      2  C   UNL     1       4.488   1.203  -0.058  1.00  0.00     0.116 C 
BRANCH   2   3
ATOM      3  N   UNL     1       3.061   0.999   0.133  1.00  0.00    -0.352 N 
ATOM      4  O   UNL     1       1.115  -0.147   0.029  1.00  0.00    -0.269 OA
ATOM      5  C   UNL     1       2.329  -0.140  -0.111  1.00  0.00     0.251 C 
ATOM      6  H   UNL     1       2.557   1.771   0.478  1.00  0.00     0.163 HD
BRANCH   5   7
ATOM      7  C   UNL     1       3.035  -1.347  -0.585  1.00  0.00     0.039 A 
ATOM      8  C   UNL     1       4.155  -1.826   0.097  1.00  0.00     0.014 A 
ATOM      9  C   UNL     1       2.578  -1.984  -1.742  1.00  0.00     0.014 A 
ATOM     10  C   UNL     1       4.886  -2.878  -0.439  1.00  0.00     0.010 A 
ATOM     11  C   UNL     1       3.276  -3.084  -2.243  1.00  0.00     0.010 A 
ATOM     12  C   UNL     1       4.444  -3.526  -1.604  1.00  0.00    -0.014 A 
BRANCH  12  13
ATOM     13  C   UNL     1       5.164  -4.731  -2.078  1.00  0.00     0.031 A 
ATOM     14  C   UNL     1       5.931  -4.729  -3.367  1.00  0.00     0.074 A 
ATOM     15  C   UNL     1       5.119  -5.836  -1.309  1.00  0.00     0.049 A 
ATOM     16  N   UNL     1       6.615  -5.702  -3.913  1.00  0.00    -0.248 NA
ATOM     17  C   UNL     1       5.930  -3.482  -4.149  1.00  0.00     0.031 C 
ATOM     18  C   UNL     1       4.392  -5.951  -0.041  1.00  0.00     0.029 A 
ATOM     19  N   UNL     1       5.705  -7.063  -1.469  1.00  0.00    -0.354 N 
ATOM     20  C   UNL     1       7.107  -5.197  -5.109  1.00  0.00     0.074 A 
ATOM     21  C   UNL     1       6.637  -3.832  -5.217  1.00  0.00     0.031 C 
ATOM     22  C   UNL     1       4.606  -7.167   0.479  1.00  0.00     0.029 A 
ATOM     23  C   UNL     1       5.434  -7.934  -0.443  1.00  0.00     0.049 A 
ATOM     24  H   UNL     1       6.264  -7.298  -2.244  1.00  0.00     0.167 HD
ATOM     25  C   UNL     1       7.880  -5.820  -6.031  1.00  0.00     0.031 A 
ATOM     26  C   UNL     1       5.794  -9.218  -0.270  1.00  0.00     0.031 A 
ATOM     27  C   UNL     1       8.353  -7.175  -5.911  1.00  0.00     0.049 A 
ATOM     28  C   UNL     1       6.633  -9.883  -1.318  1.00  0.00     0.074 A 
ATOM     29  C   UNL     1       9.183  -7.876  -6.769  1.00  0.00     0.029 A 
ATOM     30  N   UNL     1       8.031  -8.035  -4.873  1.00  0.00    -0.354 N 
ATOM     31  N   UNL     1       7.125  -9.376  -2.422  1.00  0.00    -0.248 NA
ATOM     32  C   UNL     1       6.960 -11.298  -1.101  1.00  0.00     0.031 C 
ATOM     33  C   UNL     1       9.326  -9.177  -6.273  1.00  0.00     0.029 A 
ATOM     34  C   UNL     1       8.620  -9.270  -5.085  1.00  0.00     0.049 A 
ATOM     35  H   UNL     1       7.468  -7.802  -4.100  1.00  0.00     0.167 HD
ATOM     36  C   UNL     1       7.822 -10.408  -3.031  1.00  0.00     0.074 A 
ATOM     37  C   UNL     1       7.713 -11.561  -2.159  1.00  0.00     0.031 C 
ATOM     38  C   UNL     1       8.485 -10.406  -4.212  1.00  0.00     0.031 A 
BRANCH  25  39
ATOM     39  C   UNL     1       8.251  -5.057  -7.270  1.00  0.00    -0.014 A 
ATOM     40  C   UNL     1       9.248  -4.070  -7.247  1.00  0.00     0.009 A 
ATOM     41  C   UNL     1       7.652  -5.391  -8.495  1.00  0.00     0.009 A 
ATOM     42  C   UNL     1       9.628  -3.423  -8.426  1.00  0.00     0.001 A 
ATOM     43  C   UNL     1       8.047  -4.756  -9.674  1.00  0.00     0.001 A 
ATOM     44  C   UNL     1       9.032  -3.771  -9.639  1.00  0.00     0.000 A 
ENDBRANCH  25  39
BRANCH  26  45
ATOM     45  C   UNL     1       5.330  -9.960   0.928  1.00  0.00    -0.014 A 
ATOM     46  C   UNL     1       6.230 -10.316   1.942  1.00  0.00     0.009 A 
ATOM     47  C   UNL     1       3.975 -10.301   1.067  1.00  0.00     0.009 A 
ATOM     48  C   UNL     1       5.784 -11.018   3.065  1.00  0.00     0.001 A 
ATOM     49  C   UNL     1       3.528 -10.977   2.203  1.00  0.00     0.001 A 
ATOM     50  C   UNL     1       4.434 -11.343   3.196  1.00  0.00     0.000 A 
ENDBRANCH  26  45
BRANCH  38  51
ATOM     51  C   UNL     1       9.141 -11.692  -4.617  1.00  0.00    -0.014 A 
ATOM     52  C   UNL     1       8.377 -12.768  -5.098  1.00  0.00     0.009 A 
ATOM     53  C   UNL     1      10.534 -11.826  -4.529  1.00  0.00     0.009 A 
ATOM     54  C   UNL     1       8.997 -13.966  -5.452  1.00  0.00     0.001 A 
ATOM     55  C   UNL     1      11.152 -13.018  -4.907  1.00  0.00     0.001 A 
ATOM     56  C   UNL     1      10.383 -14.089  -5.359  1.00  0.00     0.000 A 
ENDBRANCH  38  51
ENDBRANCH  12  13
ENDBRANCH   5   7
ENDBRANCH   2   3
ENDBRANCH   1   2
BRANCH   1  57
ATOM     57  C   UNL     1       4.354   3.702   0.594  1.00  0.00     0.023 C 
BRANCH  57  58
ATOM     58  C   UNL     1       4.644   3.397   2.058  1.00  0.00     0.116 C 
BRANCH  58  59
ATOM     59  N   UNL     1       6.045   3.539   2.420  1.00  0.00    -0.354 N 
ATOM     60  C   UNL     1       6.732   4.424   3.192  1.00  0.00     0.244 C 
ATOM     61  H   UNL     1       6.620   2.847   2.021  1.00  0.00     0.163 HD
ATOM     62  O   UNL     1       7.730   3.940   3.743  1.00  0.00    -0.273 OA
BRANCH  60  63
ATOM     63  C   UNL     1       6.405   5.935   3.410  1.00  0.00     0.193 C 
ATOM     64  C   UNL     1       4.902   6.010   3.735  1.00  0.00     0.155 C 
ATOM     65  N   UNL     1       6.816   7.068   2.488  1.00  0.00    -0.327 N 
ATOM     66  N   UNL     1       4.475   7.320   4.210  1.00  0.00    -0.336 N 
ATOM     67  C   UNL     1       6.231   8.380   2.891  1.00  0.00     0.142 C 
ATOM     68  C   UNL     1       4.740   8.392   3.263  1.00  0.00     0.141 C 
BRANCH  65  69
ATOM     69  C   UNL     1       8.076   7.249   1.902  1.00  0.00     0.226 C 
ATOM     70  O   UNL     1       8.585   8.379   1.844  1.00  0.00    -0.275 OA
BRANCH  69  71
ATOM     71  C   UNL     1       8.859   6.131   1.222  1.00  0.00     0.083 C 
ATOM     72  C   UNL     1       8.025   5.308   0.248  1.00  0.00     0.042 C 
ATOM     73  C   UNL     1       9.767   5.381   2.192  1.00  0.00     0.042 C 
ATOM     74  C   UNL     1       8.740   4.032  -0.146  1.00  0.00     0.161 C 
ATOM     75  C   UNL     1      10.146   3.976   1.739  1.00  0.00     0.161 C 
ATOM     76  O   UNL     1       9.102   3.313   1.026  1.00  0.00    -0.381 OA
ENDBRANCH  69  71
ENDBRANCH  65  69
BRANCH  66  77
ATOM     77  C   UNL     1       3.229   7.271   4.816  1.00  0.00     0.225 A 
ATOM     78  N   UNL     1       2.226   8.026   4.344  1.00  0.00    -0.221 NA
ATOM     79  N   UNL     1       3.068   6.386   5.816  1.00  0.00    -0.221 NA
ATOM     80  C   UNL     1       1.011   7.854   4.904  1.00  0.00     0.117 A 
ATOM     81  C   UNL     1       1.846   6.268   6.364  1.00  0.00     0.117 A 
ATOM     82  C   UNL     1       0.760   6.979   5.930  1.00  0.00     0.040 A 
ENDBRANCH  66  77
ENDBRANCH  60  63
ENDBRANCH  58  59
ENDBRANCH  57  58
ENDBRANCH   1  57
TORSDOF 14
