REMARK SMILES C[NH2+][C@]1(C(=O)NCCCCNC(=O)c2ccc(-c3c4nc(c(-c5ccccc5)c5ccc([nH]5)c(-c5ccccc5)c5nc(c(-c6ccccc6)c6ccc3[nH]6)C=C5)C=C4)cc2)CC[C@H](SC2CCCCC2)C1
REMARK SMILES IDX 8 1 7 2 6 3 4 4 5 5 3 7 62 8 72 9 63 10 64 11 2 12 1 13
REMARK SMILES IDX 65 16 66 17 67 18 71 19 68 20 70 21 69 22 9 23 10 24 11 25
REMARK SMILES IDX 12 26 13 28 14 29 15 30 61 31 16 32 60 33 17 34 18 35 19 36
REMARK SMILES IDX 54 37 20 38 59 39 53 40 55 41 21 42 58 43 52 44 51 45 22 47
REMARK SMILES IDX 44 48 29 49 43 50 30 51 33 52 42 53 56 54 31 55 32 56 41 58
REMARK SMILES IDX 57 59 34 60 23 61 24 62 28 63 25 64 27 65 26 66 45 67 46 68
REMARK SMILES IDX 50 69 47 70 49 71 48 72 35 73 36 74 40 75 37 76 39 77 38 78
REMARK H PARENT 6 6 2 14 2 15 11 27 55 46 33 57
REMARK Flexibility Score: inf
ROOT
ATOM      1  C   UNL     1       0.956   1.213  -2.710  1.00  0.00     0.023 C 
ENDROOT
BRANCH   1   2
ATOM      2  C   UNL     1       0.797  -0.312  -2.710  1.00  0.00     0.116 C 
BRANCH   2   3
ATOM      3  N   UNL     1       1.282  -0.904  -1.477  1.00  0.00    -0.351 N 
ATOM      4  C   UNL     1       0.671  -1.298  -0.320  1.00  0.00     0.281 C 
ATOM      5  O   UNL     1       1.462  -1.673   0.555  1.00  0.00    -0.268 OA
ATOM      6  H   UNL     1       2.255  -1.054  -1.474  1.00  0.00     0.163 HD
BRANCH   4   7
ATOM      7  C   UNL     1      -0.891  -1.318  -0.126  1.00  0.00     0.176 C 
ATOM      8  C   UNL     1      -1.523   0.040  -0.465  1.00  0.00     0.080 C 
ATOM      9  C   UNL     1      -1.609  -2.277  -1.096  1.00  0.00     0.093 C 
ATOM     10  C   UNL     1      -2.958  -0.244  -0.869  1.00  0.00     0.022 C 
ATOM     11  C   UNL     1      -3.020  -1.702  -1.329  1.00  0.00     0.054 C 
BRANCH   7  12
ATOM     12  N   UNL     1      -1.266  -1.557   1.300  1.00  0.00    -0.336 N 
ATOM     13  C   UNL     1      -0.968  -2.882   1.829  1.00  0.00     0.331 C 
ATOM     14  H   UNL     1      -0.768  -0.874   1.871  1.00  0.00     0.346 HD
ATOM     15  H   UNL     1      -2.282  -1.470   1.334  1.00  0.00     0.346 HD
ENDBRANCH   7  12
BRANCH  11  16
ATOM     16  S   UNL     1      -4.288  -2.654  -0.404  1.00  0.00    -0.155 SA
BRANCH  16  17
ATOM     17  C   UNL     1      -5.883  -2.049  -1.114  1.00  0.00     0.047 C 
ATOM     18  C   UNL     1      -6.130  -0.552  -0.903  1.00  0.00     0.014 C 
ATOM     19  C   UNL     1      -6.060  -2.449  -2.584  1.00  0.00     0.014 C 
ATOM     20  C   UNL     1      -7.496  -0.125  -1.433  1.00  0.00     0.001 C 
ATOM     21  C   UNL     1      -7.420  -1.994  -3.121  1.00  0.00     0.001 C 
ATOM     22  C   UNL     1      -7.648  -0.501  -2.903  1.00  0.00     0.000 C 
ENDBRANCH  16  17
ENDBRANCH  11  16
ENDBRANCH   4   7
ENDBRANCH   2   3
ENDBRANCH   1   2
BRANCH   1  23
ATOM     23  C   UNL     1       2.389   1.720  -2.847  1.00  0.00     0.023 C 
BRANCH  23  24
ATOM     24  C   UNL     1       3.107   1.285  -4.114  1.00  0.00     0.116 C 
BRANCH  24  25
ATOM     25  N   UNL     1       2.411   1.664  -5.334  1.00  0.00    -0.352 N 
ATOM     26  C   UNL     1       2.951   2.033  -6.544  1.00  0.00     0.251 C 
ATOM     27  H   UNL     1       1.427   1.655  -5.287  1.00  0.00     0.163 HD
ATOM     28  O   UNL     1       2.233   2.418  -7.456  1.00  0.00    -0.269 OA
BRANCH  26  29
ATOM     29  C   UNL     1       4.418   2.000  -6.710  1.00  0.00     0.039 A 
ATOM     30  C   UNL     1       5.062   3.132  -7.214  1.00  0.00     0.014 A 
ATOM     31  C   UNL     1       5.154   0.879  -6.319  1.00  0.00     0.014 A 
ATOM     32  C   UNL     1       6.456   3.166  -7.259  1.00  0.00     0.010 A 
ATOM     33  C   UNL     1       6.542   0.942  -6.296  1.00  0.00     0.010 A 
ATOM     34  C   UNL     1       7.206   2.086  -6.766  1.00  0.00    -0.014 A 
BRANCH  34  35
ATOM     35  C   UNL     1       8.687   2.131  -6.728  1.00  0.00     0.031 A 
ATOM     36  C   UNL     1       9.490   1.172  -7.559  1.00  0.00     0.074 A 
ATOM     37  C   UNL     1       9.306   2.985  -5.890  1.00  0.00     0.049 A 
ATOM     38  N   UNL     1      10.788   1.015  -7.614  1.00  0.00    -0.248 NA
ATOM     39  C   UNL     1       8.735   0.248  -8.422  1.00  0.00     0.031 C 
ATOM     40  C   UNL     1       8.638   3.931  -4.993  1.00  0.00     0.029 A 
ATOM     41  N   UNL     1      10.642   3.186  -5.649  1.00  0.00    -0.354 N 
ATOM     42  C   UNL     1      11.002  -0.036  -8.496  1.00  0.00     0.074 A 
ATOM     43  C   UNL     1       9.702  -0.509  -8.918  1.00  0.00     0.031 C 
ATOM     44  C   UNL     1       9.567   4.628  -4.319  1.00  0.00     0.029 A 
ATOM     45  C   UNL     1      10.891   4.155  -4.708  1.00  0.00     0.049 A 
ATOM     46  H   UNL     1      11.354   2.684  -6.108  1.00  0.00     0.167 HD
ATOM     47  C   UNL     1      12.177  -0.550  -8.931  1.00  0.00     0.031 A 
ATOM     48  C   UNL     1      12.057   4.609  -4.211  1.00  0.00     0.031 A 
ATOM     49  C   UNL     1      13.469  -0.068  -8.527  1.00  0.00     0.049 A 
ATOM     50  C   UNL     1      13.347   4.029  -4.718  1.00  0.00     0.074 A 
ATOM     51  C   UNL     1      14.717  -0.478  -8.963  1.00  0.00     0.029 A 
ATOM     52  N   UNL     1      13.679   0.931  -7.589  1.00  0.00    -0.354 N 
ATOM     53  N   UNL     1      13.534   3.086  -5.609  1.00  0.00    -0.248 NA
ATOM     54  C   UNL     1      14.587   4.586  -4.158  1.00  0.00     0.031 C 
ATOM     55  C   UNL     1      15.684   0.244  -8.257  1.00  0.00     0.029 A 
ATOM     56  C   UNL     1      15.037   1.137  -7.418  1.00  0.00     0.049 A 
ATOM     57  H   UNL     1      12.969   1.421  -7.116  1.00  0.00     0.167 HD
ATOM     58  C   UNL     1      14.911   2.954  -5.736  1.00  0.00     0.074 A 
ATOM     59  C   UNL     1      15.510   3.924  -4.842  1.00  0.00     0.031 C 
ATOM     60  C   UNL     1      15.616   2.105  -6.523  1.00  0.00     0.031 A 
BRANCH  47  61
ATOM     61  C   UNL     1      12.112  -1.701  -9.895  1.00  0.00    -0.014 A 
ATOM     62  C   UNL     1      11.685  -1.517 -11.220  1.00  0.00     0.009 A 
ATOM     63  C   UNL     1      12.510  -2.982  -9.481  1.00  0.00     0.009 A 
ATOM     64  C   UNL     1      11.625  -2.599 -12.100  1.00  0.00     0.001 A 
ATOM     65  C   UNL     1      12.476  -4.056 -10.372  1.00  0.00     0.001 A 
ATOM     66  C   UNL     1      12.024  -3.866 -11.677  1.00  0.00     0.000 A 
ENDBRANCH  47  61
BRANCH  48  67
ATOM     67  C   UNL     1      12.059   5.686  -3.188  1.00  0.00    -0.014 A 
ATOM     68  C   UNL     1      12.474   6.983  -3.524  1.00  0.00     0.009 A 
ATOM     69  C   UNL     1      11.645   5.424  -1.873  1.00  0.00     0.009 A 
ATOM     70  C   UNL     1      12.499   7.991  -2.557  1.00  0.00     0.001 A 
ATOM     71  C   UNL     1      11.645   6.440  -0.915  1.00  0.00     0.001 A 
ATOM     72  C   UNL     1      12.080   7.720  -1.255  1.00  0.00     0.000 A 
ENDBRANCH  48  67
BRANCH  60  73
ATOM     73  C   UNL     1      17.113   2.209  -6.475  1.00  0.00    -0.014 A 
ATOM     74  C   UNL     1      17.840   1.736  -5.373  1.00  0.00     0.009 A 
ATOM     75  C   UNL     1      17.806   2.749  -7.570  1.00  0.00     0.009 A 
ATOM     76  C   UNL     1      19.233   1.829  -5.356  1.00  0.00     0.001 A 
ATOM     77  C   UNL     1      19.200   2.816  -7.561  1.00  0.00     0.001 A 
ATOM     78  C   UNL     1      19.911   2.364  -6.451  1.00  0.00     0.000 A 
ENDBRANCH  60  73
ENDBRANCH  34  35
ENDBRANCH  26  29
ENDBRANCH  24  25
ENDBRANCH  23  24
ENDBRANCH   1  23
TORSDOF 14
