REMARK SMILES Cc1c(NC(=O)c2ccc(I)cc2)cccc1C(=O)NCCCCNC(=O)c1ccc(-c2c3nc(c(-c4ccccc4)c4ccc([nH]4)c(-c4ccccc4)c4nc(c(-c5ccccc5)c5ccc2[nH]5)C=C4)C=C3)cc1
REMARK SMILES IDX 22 1 21 2 20 3 18 4 19 5 17 7 1 8 2 9 3 10 14 11 16 12 15 13
REMARK SMILES IDX 4 14 5 15 6 17 7 18 8 19 13 20 9 21 12 22 10 23 11 24 23 25
REMARK SMILES IDX 24 26 25 27 26 28 27 30 28 31 29 32 75 33 30 34 74 35 31 36
REMARK SMILES IDX 32 37 33 38 68 39 34 40 73 41 67 42 69 43 35 44 72 45 66 46
REMARK SMILES IDX 65 47 36 49 58 50 43 51 57 52 44 53 47 54 56 55 70 56 45 57
REMARK SMILES IDX 46 58 55 60 71 61 48 62 37 63 38 64 42 65 39 66 41 67 40 68
REMARK SMILES IDX 59 69 60 70 64 71 61 72 63 73 62 74 49 75 50 76 54 77 51 78
REMARK SMILES IDX 53 79 52 80
REMARK H PARENT 20 6 4 16 25 29 69 48 47 59
REMARK Flexibility Score: inf
ROOT
ATOM      1  C   UNL     1       4.169   1.312  -1.200  1.00  0.00     0.023 C 
ENDROOT
BRANCH   1   2
ATOM      2  C   UNL     1       3.387   1.747   0.055  1.00  0.00     0.116 C 
BRANCH   2   3
ATOM      3  N   UNL     1       2.191   2.478  -0.319  1.00  0.00    -0.352 N 
ATOM      4  C   UNL     1       0.860   2.177  -0.441  1.00  0.00     0.251 C 
ATOM      5  O   UNL     1       0.152   3.102  -0.854  1.00  0.00    -0.269 OA
ATOM      6  H   UNL     1       2.382   3.418  -0.539  1.00  0.00     0.163 HD
BRANCH   4   7
ATOM      7  C   UNL     1       0.181   0.893  -0.055  1.00  0.00     0.044 A 
ATOM      8  C   UNL     1       1.858  -0.802  -0.989  1.00  0.00     0.047 C 
ATOM      9  C   UNL     1       0.642  -0.432  -0.193  1.00  0.00    -0.015 A 
ATOM     10  C   UNL     1      -0.174  -1.508   0.241  1.00  0.00     0.045 A 
ATOM     11  C   UNL     1      -1.492  -1.295   0.641  1.00  0.00     0.026 A 
ATOM     12  C   UNL     1      -1.153   1.074   0.376  1.00  0.00     0.014 A 
ATOM     13  C   UNL     1      -1.989  -0.001   0.687  1.00  0.00     0.003 A 
BRANCH  10  14
ATOM     14  N   UNL     1       0.393  -2.794   0.283  1.00  0.00    -0.322 N 
ATOM     15  C   UNL     1      -0.131  -4.016  -0.057  1.00  0.00     0.255 C 
ATOM     16  H   UNL     1       1.321  -2.822   0.612  1.00  0.00     0.170 HD
ATOM     17  O   UNL     1       0.417  -5.042   0.342  1.00  0.00    -0.269 OA
BRANCH  15  18
ATOM     18  C   UNL     1      -1.256  -4.125  -1.023  1.00  0.00     0.040 A 
ATOM     19  C   UNL     1      -2.095  -5.241  -0.932  1.00  0.00     0.015 A 
ATOM     20  C   UNL     1      -1.422  -3.221  -2.082  1.00  0.00     0.015 A 
ATOM     21  C   UNL     1      -3.125  -5.423  -1.858  1.00  0.00     0.015 A 
ATOM     22  C   UNL     1      -2.461  -3.394  -2.999  1.00  0.00     0.015 A 
ATOM     23  C   UNL     1      -3.312  -4.492  -2.880  1.00  0.00     0.013 A 
ATOM     24  I   UNL     1      -4.854  -4.752  -4.247  1.00  0.00    -0.044 I 
ENDBRANCH  15  18
ENDBRANCH  10  14
ENDBRANCH   4   7
ENDBRANCH   2   3
ENDBRANCH   1   2
BRANCH   1  25
ATOM     25  C   UNL     1       4.954   2.420  -1.897  1.00  0.00     0.023 C 
BRANCH  25  26
ATOM     26  C   UNL     1       6.314   2.652  -1.272  1.00  0.00     0.116 C 
BRANCH  26  27
ATOM     27  N   UNL     1       7.365   1.752  -1.743  1.00  0.00    -0.352 N 
ATOM     28  C   UNL     1       8.659   1.599  -1.274  1.00  0.00     0.251 C 
ATOM     29  H   UNL     1       7.118   1.173  -2.499  1.00  0.00     0.163 HD
ATOM     30  O   UNL     1       9.431   0.822  -1.833  1.00  0.00    -0.269 OA
BRANCH  28  31
ATOM     31  C   UNL     1       9.058   2.244   0.003  1.00  0.00     0.039 A 
ATOM     32  C   UNL     1       9.686   1.438   0.958  1.00  0.00     0.014 A 
ATOM     33  C   UNL     1       8.525   3.473   0.372  1.00  0.00     0.014 A 
ATOM     34  C   UNL     1       9.477   1.703   2.306  1.00  0.00     0.010 A 
ATOM     35  C   UNL     1       8.185   3.655   1.696  1.00  0.00     0.010 A 
ATOM     36  C   UNL     1       8.585   2.716   2.650  1.00  0.00    -0.014 A 
BRANCH  36  37
ATOM     37  C   UNL     1       7.901   2.764   3.938  1.00  0.00     0.031 A 
ATOM     38  C   UNL     1       8.187   3.868   4.884  1.00  0.00     0.074 A 
ATOM     39  C   UNL     1       6.943   1.847   4.226  1.00  0.00     0.049 A 
ATOM     40  N   UNL     1       8.001   3.802   6.160  1.00  0.00    -0.248 NA
ATOM     41  C   UNL     1       8.771   5.138   4.461  1.00  0.00     0.031 C 
ATOM     42  C   UNL     1       6.004   1.891   5.348  1.00  0.00     0.029 A 
ATOM     43  N   UNL     1       6.721   0.577   3.680  1.00  0.00    -0.354 N 
ATOM     44  C   UNL     1       8.106   5.083   6.657  1.00  0.00     0.074 A 
ATOM     45  C   UNL     1       8.705   5.847   5.590  1.00  0.00     0.031 C 
ATOM     46  C   UNL     1       5.578   0.642   5.600  1.00  0.00     0.029 A 
ATOM     47  C   UNL     1       6.359  -0.247   4.758  1.00  0.00     0.049 A 
ATOM     48  H   UNL     1       6.802   0.316   2.734  1.00  0.00     0.167 HD
ATOM     49  C   UNL     1       7.520   5.388   7.850  1.00  0.00     0.031 A 
ATOM     50  C   UNL     1       7.112  -1.290   5.221  1.00  0.00     0.031 A 
ATOM     51  C   UNL     1       7.007   4.190   8.520  1.00  0.00     0.049 A 
ATOM     52  C   UNL     1       7.494  -1.157   6.688  1.00  0.00     0.074 A 
ATOM     53  C   UNL     1       5.734   3.668   8.684  1.00  0.00     0.029 A 
ATOM     54  N   UNL     1       7.894   3.183   8.887  1.00  0.00    -0.354 N 
ATOM     55  N   UNL     1       7.405  -0.042   7.360  1.00  0.00    -0.248 NA
ATOM     56  C   UNL     1       8.065  -2.237   7.495  1.00  0.00     0.031 C 
ATOM     57  C   UNL     1       5.865   2.306   9.065  1.00  0.00     0.029 A 
ATOM     58  C   UNL     1       7.213   2.013   9.164  1.00  0.00     0.049 A 
ATOM     59  H   UNL     1       8.871   3.289   8.941  1.00  0.00     0.167 HD
ATOM     60  C   UNL     1       7.889  -0.220   8.628  1.00  0.00     0.074 A 
ATOM     61  C   UNL     1       8.280  -1.617   8.670  1.00  0.00     0.031 C 
ATOM     62  C   UNL     1       7.946   0.806   9.527  1.00  0.00     0.031 A 
BRANCH  49  63
ATOM     63  C   UNL     1       7.138   6.798   8.260  1.00  0.00    -0.014 A 
ATOM     64  C   UNL     1       6.117   6.992   9.210  1.00  0.00     0.009 A 
ATOM     65  C   UNL     1       7.668   7.973   7.700  1.00  0.00     0.009 A 
ATOM     66  C   UNL     1       5.593   8.262   9.500  1.00  0.00     0.001 A 
ATOM     67  C   UNL     1       7.135   9.244   7.962  1.00  0.00     0.001 A 
ATOM     68  C   UNL     1       6.085   9.387   8.853  1.00  0.00     0.000 A 
ENDBRANCH  49  63
BRANCH  50  69
ATOM     69  C   UNL     1       7.965  -1.952   4.198  1.00  0.00    -0.014 A 
ATOM     70  C   UNL     1       7.338  -2.686   3.174  1.00  0.00     0.009 A 
ATOM     71  C   UNL     1       9.308  -1.585   4.033  1.00  0.00     0.009 A 
ATOM     72  C   UNL     1       7.996  -2.937   1.966  1.00  0.00     0.001 A 
ATOM     73  C   UNL     1       9.967  -1.845   2.824  1.00  0.00     0.001 A 
ATOM     74  C   UNL     1       9.299  -2.485   1.780  1.00  0.00     0.000 A 
ENDBRANCH  50  69
BRANCH  62  75
ATOM     75  C   UNL     1       8.648   0.775  10.861  1.00  0.00    -0.014 A 
ATOM     76  C   UNL     1       9.737  -0.053  11.160  1.00  0.00     0.009 A 
ATOM     77  C   UNL     1       8.293   1.735  11.837  1.00  0.00     0.009 A 
ATOM     78  C   UNL     1      10.411   0.045  12.386  1.00  0.00     0.001 A 
ATOM     79  C   UNL     1       8.988   1.865  13.041  1.00  0.00     0.001 A 
ATOM     80  C   UNL     1      10.043   1.009  13.321  1.00  0.00     0.000 A 
ENDBRANCH  62  75
ENDBRANCH  36  37
ENDBRANCH  28  31
ENDBRANCH  26  27
ENDBRANCH  25  26
ENDBRANCH   1  25
TORSDOF 13
