REMARK SMILES CC(C)Cc1ccc([C@H](C)C(=O)NCCCCNC(=O)c2ccc(-c3c4nc(c(-c5ccccc5)c5ccc([nH]5)c(-c5ccccc5)c5nc(c(-c6ccccc6)c6ccc3[nH]6)C=C5)C=C4)cc2)cc1
REMARK SMILES IDX 15 1 14 2 13 3 11 4 12 5 9 7 10 8 8 9 5 10 6 11 70 12 7 13
REMARK SMILES IDX 69 14 4 15 2 16 1 17 3 18 16 19 17 20 18 21 19 22 20 24
REMARK SMILES IDX 21 25 22 26 68 27 23 28 67 29 24 30 25 31 26 32 61 33 27 34
REMARK SMILES IDX 66 35 60 36 62 37 28 38 65 39 59 40 58 41 29 43 51 44 36 45
REMARK SMILES IDX 50 46 37 47 40 48 49 49 63 50 38 51 39 52 48 54 64 55 41 56
REMARK SMILES IDX 30 57 31 58 35 59 32 60 34 61 33 62 52 63 53 64 57 65 54 66
REMARK SMILES IDX 56 67 55 68 42 69 43 70 47 71 44 72 46 73 45 74
REMARK H PARENT 13 6 18 23 62 42 40 53
REMARK Flexibility Score: inf
ROOT
ATOM      1  C   UNL     1      -3.433   4.539   2.249  1.00  0.00     0.023 C 
ENDROOT
BRANCH   1   2
ATOM      2  C   UNL     1      -3.011   4.014   3.617  1.00  0.00     0.116 C 
BRANCH   2   3
ATOM      3  N   UNL     1      -4.003   3.156   4.231  1.00  0.00    -0.356 N 
ATOM      4  C   UNL     1      -3.866   1.903   4.758  1.00  0.00     0.227 C 
ATOM      5  O   UNL     1      -4.844   1.434   5.350  1.00  0.00    -0.274 OA
ATOM      6  H   UNL     1      -4.912   3.532   4.275  1.00  0.00     0.163 HD
BRANCH   4   7
ATOM      7  C   UNL     1      -2.570   1.086   4.619  1.00  0.00     0.105 C 
ATOM      8  C   UNL     1      -2.239   0.777   3.156  1.00  0.00     0.023 C 
BRANCH   7   9
ATOM      9  C   UNL     1      -1.442   1.626   5.492  1.00  0.00    -0.036 A 
ATOM     10  C   UNL     1       0.510   2.695   7.248  1.00  0.00    -0.048 A 
ATOM     11  C   UNL     1       0.567   2.953   5.876  1.00  0.00     0.004 A 
ATOM     12  C   UNL     1      -0.500   1.857   7.730  1.00  0.00     0.004 A 
ATOM     13  C   UNL     1      -0.376   2.396   5.006  1.00  0.00     0.005 A 
ATOM     14  C   UNL     1      -1.475   1.350   6.869  1.00  0.00     0.005 A 
BRANCH  10  15
ATOM     15  C   UNL     1       1.507   3.323   8.192  1.00  0.00     0.038 C 
BRANCH  15  16
ATOM     16  C   UNL     1       1.009   4.630   8.846  1.00  0.00    -0.013 C 
ATOM     17  C   UNL     1      -0.145   4.397   9.826  1.00  0.00     0.008 C 
ATOM     18  C   UNL     1       2.166   5.311   9.583  1.00  0.00     0.008 C 
ENDBRANCH  15  16
ENDBRANCH  10  15
ENDBRANCH   7   9
ENDBRANCH   4   7
ENDBRANCH   2   3
ENDBRANCH   1   2
BRANCH   1  19
ATOM     19  C   UNL     1      -4.560   5.565   2.266  1.00  0.00     0.023 C 
BRANCH  19  20
ATOM     20  C   UNL     1      -4.339   6.761   3.183  1.00  0.00     0.116 C 
BRANCH  20  21
ATOM     21  N   UNL     1      -3.116   7.498   2.896  1.00  0.00    -0.352 N 
ATOM     22  C   UNL     1      -2.935   8.847   2.681  1.00  0.00     0.251 C 
ATOM     23  H   UNL     1      -2.298   6.952   2.848  1.00  0.00     0.163 HD
ATOM     24  O   UNL     1      -1.843   9.281   2.349  1.00  0.00    -0.269 OA
BRANCH  22  25
ATOM     25  C   UNL     1      -4.088   9.762   2.816  1.00  0.00     0.039 A 
ATOM     26  C   UNL     1      -4.337  10.689   1.800  1.00  0.00     0.014 A 
ATOM     27  C   UNL     1      -4.944   9.674   3.915  1.00  0.00     0.014 A 
ATOM     28  C   UNL     1      -5.498  11.464   1.844  1.00  0.00     0.010 A 
ATOM     29  C   UNL     1      -6.142  10.380   3.912  1.00  0.00     0.010 A 
ATOM     30  C   UNL     1      -6.432  11.280   2.876  1.00  0.00    -0.014 A 
BRANCH  30  31
ATOM     31  C   UNL     1      -7.727  12.005   2.885  1.00  0.00     0.031 A 
ATOM     32  C   UNL     1      -8.059  12.944   4.011  1.00  0.00     0.074 A 
ATOM     33  C   UNL     1      -8.643  11.750   1.931  1.00  0.00     0.049 A 
ATOM     34  N   UNL     1      -9.164  13.611   4.231  1.00  0.00    -0.248 NA
ATOM     35  C   UNL     1      -7.026  13.132   5.042  1.00  0.00     0.031 C 
ATOM     36  C   UNL     1      -8.471  10.814   0.817  1.00  0.00     0.029 A 
ATOM     37  N   UNL     1      -9.909  12.249   1.753  1.00  0.00    -0.354 N 
ATOM     38  C   UNL     1      -8.968  14.273   5.437  1.00  0.00     0.074 A 
ATOM     39  C   UNL     1      -7.662  13.885   5.925  1.00  0.00     0.031 C 
ATOM     40  C   UNL     1      -9.580  10.825   0.060  1.00  0.00     0.029 A 
ATOM     41  C   UNL     1     -10.552  11.737   0.653  1.00  0.00     0.049 A 
ATOM     42  H   UNL     1     -10.317  12.911   2.357  1.00  0.00     0.167 HD
ATOM     43  C   UNL     1      -9.790  15.140   6.073  1.00  0.00     0.031 A 
ATOM     44  C   UNL     1     -11.789  11.970   0.176  1.00  0.00     0.031 A 
ATOM     45  C   UNL     1     -11.083  15.536   5.582  1.00  0.00     0.049 A 
ATOM     46  C   UNL     1     -12.682  12.946   0.887  1.00  0.00     0.074 A 
ATOM     47  C   UNL     1     -11.959  16.467   6.111  1.00  0.00     0.029 A 
ATOM     48  N   UNL     1     -11.688  15.015   4.448  1.00  0.00    -0.354 N 
ATOM     49  N   UNL     1     -12.449  13.631   1.980  1.00  0.00    -0.248 NA
ATOM     50  C   UNL     1     -14.002  13.191   0.291  1.00  0.00     0.031 C 
ATOM     51  C   UNL     1     -13.117  16.472   5.325  1.00  0.00     0.029 A 
ATOM     52  C   UNL     1     -12.938  15.585   4.276  1.00  0.00     0.049 A 
ATOM     53  H   UNL     1     -11.287  14.340   3.853  1.00  0.00     0.167 HD
ATOM     54  C   UNL     1     -13.583  14.404   2.192  1.00  0.00     0.074 A 
ATOM     55  C   UNL     1     -14.496  14.113   1.105  1.00  0.00     0.031 C 
ATOM     56  C   UNL     1     -13.842  15.277   3.196  1.00  0.00     0.031 A 
BRANCH  43  57
ATOM     57  C   UNL     1      -9.309  15.704   7.381  1.00  0.00    -0.014 A 
ATOM     58  C   UNL     1      -8.225  16.595   7.439  1.00  0.00     0.009 A 
ATOM     59  C   UNL     1      -9.947  15.337   8.576  1.00  0.00     0.009 A 
ATOM     60  C   UNL     1      -7.755  17.062   8.668  1.00  0.00     0.001 A 
ATOM     61  C   UNL     1      -9.497  15.831   9.801  1.00  0.00     0.001 A 
ATOM     62  C   UNL     1      -8.393  16.681   9.848  1.00  0.00     0.000 A 
ENDBRANCH  43  57
BRANCH  44  63
ATOM     63  C   UNL     1     -12.241  11.278  -1.058  1.00  0.00    -0.014 A 
ATOM     64  C   UNL     1     -12.338  11.978  -2.271  1.00  0.00     0.009 A 
ATOM     65  C   UNL     1     -12.545   9.908  -1.039  1.00  0.00     0.009 A 
ATOM     66  C   UNL     1     -12.743  11.322  -3.435  1.00  0.00     0.001 A 
ATOM     67  C   UNL     1     -12.926   9.250  -2.210  1.00  0.00     0.001 A 
ATOM     68  C   UNL     1     -13.030   9.959  -3.406  1.00  0.00     0.000 A 
ENDBRANCH  44  63
BRANCH  56  69
ATOM     69  C   UNL     1     -15.159  15.999   3.155  1.00  0.00    -0.014 A 
ATOM     70  C   UNL     1     -16.362  15.339   3.450  1.00  0.00     0.009 A 
ATOM     71  C   UNL     1     -15.190  17.372   2.861  1.00  0.00     0.009 A 
ATOM     72  C   UNL     1     -17.573  16.033   3.421  1.00  0.00     0.001 A 
ATOM     73  C   UNL     1     -16.398  18.069   2.860  1.00  0.00     0.001 A 
ATOM     74  C   UNL     1     -17.590  17.398   3.131  1.00  0.00     0.000 A 
ENDBRANCH  56  69
ENDBRANCH  30  31
ENDBRANCH  22  25
ENDBRANCH  20  21
ENDBRANCH  19  20
ENDBRANCH   1  19
TORSDOF 14
