REMARK SMILES O=C(CCc1ccccc1)Nc1ccccc1Oc1ccsc1C(=O)NCCCCNC(=O)c1ccc(-c2c3nc(c(-c4ccccc4)c4ccc([nH]4)c(-c4ccccc4)c4nc(c(-c5ccccc5)c5ccc2[nH]5)C=C4)C=C3)cc1
REMARK SMILES IDX 24 1 25 2 26 3 23 5 19 6 20 7 21 8 22 9 18 10 17 11 12 12
REMARK SMILES IDX 13 13 14 14 16 15 15 16 11 17 1 18 2 19 3 21 4 22 5 23 6 24
REMARK SMILES IDX 10 25 7 26 9 27 8 28 27 29 28 30 29 31 30 32 31 33 32 34
REMARK SMILES IDX 33 36 34 37 35 38 81 39 36 40 80 41 37 42 38 43 39 44 74 45
REMARK SMILES IDX 40 46 79 47 73 48 75 49 41 50 78 51 72 52 71 53 42 55 64 56
REMARK SMILES IDX 49 57 63 58 50 59 53 60 62 61 76 62 51 63 52 64 61 66 77 67
REMARK SMILES IDX 54 68 43 69 44 70 48 71 45 72 47 73 46 74 65 75 66 76 70 77
REMARK SMILES IDX 67 78 69 79 68 80 55 81 56 82 60 83 57 84 59 85 58 86
REMARK H PARENT 26 4 11 20 31 35 75 54 53 65
REMARK Flexibility Score: inf
ROOT
ATOM      1  C   UNL     1      -0.511   0.248   1.718  1.00  0.00     0.265 C 
ATOM      2  O   UNL     1      -0.707  -0.816   2.318  1.00  0.00    -0.268 OA
ATOM      3  N   UNL     1      -1.587   0.680   0.973  1.00  0.00    -0.351 N 
ATOM      4  H   UNL     1      -2.320   0.025   0.912  1.00  0.00     0.163 HD
ENDROOT
BRANCH   1   5
ATOM      5  C   UNL     1       0.747   0.988   1.828  1.00  0.00     0.135 A 
ATOM      6  C   UNL     1       1.455   1.788   0.943  1.00  0.00     0.151 A 
ATOM      7  C   UNL     1       2.717   2.215   1.446  1.00  0.00     0.059 A 
ATOM      8  C   UNL     1       2.966   1.703   2.699  1.00  0.00     0.069 A 
ATOM      9  S   UNL     1       1.671   0.750   3.271  1.00  0.00    -0.135 S 
BRANCH   6  10
ATOM     10  O   UNL     1       0.927   2.077  -0.261  1.00  0.00    -0.453 OA
BRANCH  10  11
ATOM     11  C   UNL     1       1.619   2.399  -1.396  1.00  0.00     0.151 A 
ATOM     12  C   UNL     1       2.433   1.515  -2.114  1.00  0.00     0.084 A 
ATOM     13  C   UNL     1       2.923   1.920  -3.365  1.00  0.00     0.030 A 
ATOM     14  C   UNL     1       2.539   3.140  -3.929  1.00  0.00     0.002 A 
ATOM     15  C   UNL     1       1.283   3.648  -1.945  1.00  0.00     0.049 A 
ATOM     16  C   UNL     1       1.723   4.010  -3.215  1.00  0.00     0.004 A 
BRANCH  12  17
ATOM     17  N   UNL     1       2.850   0.243  -1.674  1.00  0.00    -0.323 N 
ATOM     18  O   UNL     1       0.925  -0.699  -0.855  1.00  0.00    -0.275 OA
ATOM     19  C   UNL     1       2.153  -0.633  -0.880  1.00  0.00     0.224 C 
ATOM     20  H   UNL     1       3.743  -0.050  -1.970  1.00  0.00     0.170 HD
BRANCH  19  21
ATOM     21  C   UNL     1       2.995  -1.492   0.059  1.00  0.00     0.105 C 
BRANCH  21  22
ATOM     22  C   UNL     1       4.248  -2.159  -0.508  1.00  0.00     0.045 C 
BRANCH  22  23
ATOM     23  C   UNL     1       5.389  -1.261  -0.938  1.00  0.00    -0.048 A 
ATOM     24  C   UNL     1       6.209  -1.678  -1.997  1.00  0.00     0.004 A 
ATOM     25  C   UNL     1       5.647  -0.016  -0.344  1.00  0.00     0.004 A 
ATOM     26  C   UNL     1       7.206  -0.841  -2.499  1.00  0.00     0.000 A 
ATOM     27  C   UNL     1       6.629   0.831  -0.863  1.00  0.00     0.000 A 
ATOM     28  C   UNL     1       7.402   0.421  -1.946  1.00  0.00     0.000 A 
ENDBRANCH  22  23
ENDBRANCH  21  22
ENDBRANCH  19  21
ENDBRANCH  12  17
ENDBRANCH  10  11
ENDBRANCH   6  10
ENDBRANCH   1   5
BRANCH   3  29
ATOM     29  C   UNL     1      -1.843   1.914   0.262  1.00  0.00     0.116 C 
BRANCH  29  30
ATOM     30  C   UNL     1      -1.673   1.750  -1.253  1.00  0.00     0.023 C 
BRANCH  30  31
ATOM     31  C   UNL     1      -2.944   1.531  -2.062  1.00  0.00     0.023 C 
BRANCH  31  32
ATOM     32  C   UNL     1      -3.961   2.657  -1.956  1.00  0.00     0.116 C 
BRANCH  32  33
ATOM     33  N   UNL     1      -3.437   3.985  -2.250  1.00  0.00    -0.352 N 
ATOM     34  C   UNL     1      -4.147   5.106  -2.626  1.00  0.00     0.251 C 
ATOM     35  H   UNL     1      -2.462   4.095  -2.172  1.00  0.00     0.163 HD
ATOM     36  O   UNL     1      -3.584   6.154  -2.898  1.00  0.00    -0.269 OA
BRANCH  34  37
ATOM     37  C   UNL     1      -5.613   4.982  -2.755  1.00  0.00     0.039 A 
ATOM     38  C   UNL     1      -6.209   5.307  -3.975  1.00  0.00     0.014 A 
ATOM     39  C   UNL     1      -6.365   4.432  -1.716  1.00  0.00     0.014 A 
ATOM     40  C   UNL     1      -7.551   4.989  -4.185  1.00  0.00     0.010 A 
ATOM     41  C   UNL     1      -7.673   4.035  -1.957  1.00  0.00     0.010 A 
ATOM     42  C   UNL     1      -8.275   4.304  -3.196  1.00  0.00    -0.014 A 
BRANCH  42  43
ATOM     43  C   UNL     1      -9.664   3.846  -3.432  1.00  0.00     0.031 A 
ATOM     44  C   UNL     1     -10.785   4.392  -2.596  1.00  0.00     0.074 A 
ATOM     45  C   UNL     1      -9.903   2.878  -4.337  1.00  0.00     0.049 A 
ATOM     46  N   UNL     1     -12.053   4.069  -2.601  1.00  0.00    -0.248 NA
ATOM     47  C   UNL     1     -10.426   5.413  -1.598  1.00  0.00     0.031 C 
ATOM     48  C   UNL     1      -8.894   2.228  -5.176  1.00  0.00     0.029 A 
ATOM     49  N   UNL     1     -11.078   2.268  -4.698  1.00  0.00    -0.354 N 
ATOM     50  C   UNL     1     -12.634   4.823  -1.591  1.00  0.00     0.074 A 
ATOM     51  C   UNL     1     -11.575   5.580  -0.961  1.00  0.00     0.031 C 
ATOM     52  C   UNL     1      -9.499   1.343  -5.984  1.00  0.00     0.029 A 
ATOM     53  C   UNL     1     -10.928   1.334  -5.694  1.00  0.00     0.049 A 
ATOM     54  H   UNL     1     -11.945   2.479  -4.283  1.00  0.00     0.167 HD
ATOM     55  C   UNL     1     -13.937   4.897  -1.231  1.00  0.00     0.031 A 
ATOM     56  C   UNL     1     -11.844   0.562  -6.308  1.00  0.00     0.031 A 
ATOM     57  C   UNL     1     -14.993   4.163  -1.871  1.00  0.00     0.049 A 
ATOM     58  C   UNL     1     -13.285   0.664  -5.897  1.00  0.00     0.074 A 
ATOM     59  C   UNL     1     -16.355   4.222  -1.633  1.00  0.00     0.029 A 
ATOM     60  N   UNL     1     -14.802   3.231  -2.880  1.00  0.00    -0.354 N 
ATOM     61  N   UNL     1     -13.832   1.433  -4.988  1.00  0.00    -0.248 NA
ATOM     62  C   UNL     1     -14.234  -0.206  -6.605  1.00  0.00     0.031 C 
ATOM     63  C   UNL     1     -16.984   3.296  -2.473  1.00  0.00     0.029 A 
ATOM     64  C   UNL     1     -16.018   2.692  -3.262  1.00  0.00     0.049 A 
ATOM     65  H   UNL     1     -13.930   2.988  -3.267  1.00  0.00     0.167 HD
ATOM     66  C   UNL     1     -15.192   1.161  -5.030  1.00  0.00     0.074 A 
ATOM     67  C   UNL     1     -15.387   0.161  -6.061  1.00  0.00     0.031 C 
ATOM     68  C   UNL     1     -16.191   1.694  -4.286  1.00  0.00     0.031 A 
BRANCH  55  69
ATOM     69  C   UNL     1     -14.274   5.805  -0.083  1.00  0.00    -0.014 A 
ATOM     70  C   UNL     1     -14.184   7.202  -0.209  1.00  0.00     0.009 A 
ATOM     71  C   UNL     1     -14.667   5.258   1.147  1.00  0.00     0.009 A 
ATOM     72  C   UNL     1     -14.431   8.028   0.889  1.00  0.00     0.001 A 
ATOM     73  C   UNL     1     -14.942   6.089   2.235  1.00  0.00     0.001 A 
ATOM     74  C   UNL     1     -14.810   7.471   2.109  1.00  0.00     0.000 A 
ENDBRANCH  55  69
BRANCH  56  75
ATOM     75  C   UNL     1     -11.430  -0.338  -7.413  1.00  0.00    -0.014 A 
ATOM     76  C   UNL     1     -11.729   0.002  -8.742  1.00  0.00     0.009 A 
ATOM     77  C   UNL     1     -10.724  -1.522  -7.155  1.00  0.00     0.009 A 
ATOM     78  C   UNL     1     -11.342  -0.836  -9.790  1.00  0.00     0.001 A 
ATOM     79  C   UNL     1     -10.320  -2.347  -8.208  1.00  0.00     0.001 A 
ATOM     80  C   UNL     1     -10.634  -2.006  -9.523  1.00  0.00     0.000 A 
ENDBRANCH  56  75
BRANCH  68  81
ATOM     81  C   UNL     1     -17.586   1.228  -4.582  1.00  0.00    -0.014 A 
ATOM     82  C   UNL     1     -18.031  -0.038  -4.170  1.00  0.00     0.009 A 
ATOM     83  C   UNL     1     -18.478   2.083  -5.246  1.00  0.00     0.009 A 
ATOM     84  C   UNL     1     -19.337  -0.447  -4.444  1.00  0.00     0.001 A 
ATOM     85  C   UNL     1     -19.790   1.680  -5.497  1.00  0.00     0.001 A 
ATOM     86  C   UNL     1     -20.216   0.413  -5.103  1.00  0.00     0.000 A 
ENDBRANCH  68  81
ENDBRANCH  42  43
ENDBRANCH  34  37
ENDBRANCH  32  33
ENDBRANCH  31  32
ENDBRANCH  30  31
ENDBRANCH  29  30
ENDBRANCH   3  29
TORSDOF 17
