REMARK SMILES CCc1cc(/C=C/C(=O)NCCCCNC(=O)c2ccc(-c3c4nc(c(-c5ccccc5)c5ccc([nH]5)c(-c5ccccc5)c5nc(c(-c6ccccc6)c6ccc3[nH]6)C=C5)C=C4)cc2)cc(C(=O)c2ccccc2)c1
REMARK SMILES IDX 12 1 11 2 10 3 8 4 9 5 7 7 6 8 5 9 3 10 4 11 76 12 67 13
REMARK SMILES IDX 66 14 2 15 1 16 68 17 69 18 70 19 71 20 75 21 72 22 74 23
REMARK SMILES IDX 73 24 13 25 14 26 15 27 16 28 17 30 18 31 19 32 65 33 20 34
REMARK SMILES IDX 64 35 21 36 22 37 23 38 58 39 24 40 63 41 57 42 59 43 25 44
REMARK SMILES IDX 62 45 56 46 55 47 26 49 48 50 33 51 47 52 34 53 37 54 46 55
REMARK SMILES IDX 60 56 35 57 36 58 45 60 61 61 38 62 27 63 28 64 32 65 29 66
REMARK SMILES IDX 31 67 30 68 49 69 50 70 54 71 51 72 53 73 52 74 39 75 40 76
REMARK SMILES IDX 44 77 41 78 43 79 42 80
REMARK H PARENT 10 6 15 29 59 48 37 59
REMARK Flexibility Score: inf
ROOT
ATOM      1  C   UNL     1       0.389   1.398   9.279  1.00  0.00     0.023 C 
ENDROOT
BRANCH   1   2
ATOM      2  C   UNL     1       1.733   0.726   8.989  1.00  0.00     0.116 C 
BRANCH   2   3
ATOM      3  N   UNL     1       1.588  -0.713   8.876  1.00  0.00    -0.353 N 
ATOM      4  C   UNL     1       1.572  -1.516   7.779  1.00  0.00     0.243 C 
ATOM      5  O   UNL     1       1.540  -2.736   7.927  1.00  0.00    -0.270 OA
ATOM      6  H   UNL     1       1.483  -1.185   9.733  1.00  0.00     0.163 HD
BRANCH   4   7
ATOM      7  C   UNL     1       1.664  -0.963   6.406  1.00  0.00     0.072 C 
ATOM      8  C   UNL     1       0.999   0.116   5.968  1.00  0.00     0.014 C 
BRANCH   8   9
ATOM      9  C   UNL     1       1.036   0.618   4.590  1.00  0.00    -0.024 A 
ATOM     10  C   UNL     1       0.863   0.255   2.178  1.00  0.00    -0.047 A 
ATOM     11  C   UNL     1       0.922  -0.242   3.490  1.00  0.00     0.011 A 
ATOM     12  C   UNL     1       0.903   1.642   1.986  1.00  0.00     0.016 A 
ATOM     13  C   UNL     1       0.985   2.519   3.078  1.00  0.00     0.023 A 
ATOM     14  C   UNL     1       1.065   2.000   4.375  1.00  0.00     0.020 A 
BRANCH  10  15
ATOM     15  C   UNL     1       0.644  -0.718   1.042  1.00  0.00     0.032 C 
ATOM     16  C   UNL     1       1.182  -0.293  -0.318  1.00  0.00     0.009 C 
ENDBRANCH  10  15
BRANCH  13  17
ATOM     17  C   UNL     1       0.991   4.000   2.903  1.00  0.00     0.193 C 
ATOM     18  O   UNL     1       1.405   4.728   3.801  1.00  0.00    -0.289 OA
BRANCH  17  19
ATOM     19  C   UNL     1       0.525   4.618   1.641  1.00  0.00     0.022 A 
ATOM     20  C   UNL     1       1.359   5.536   0.998  1.00  0.00     0.012 A 
ATOM     21  C   UNL     1      -0.719   4.285   1.090  1.00  0.00     0.012 A 
ATOM     22  C   UNL     1       0.975   6.077  -0.229  1.00  0.00     0.001 A 
ATOM     23  C   UNL     1      -1.097   4.828  -0.137  1.00  0.00     0.001 A 
ATOM     24  C   UNL     1      -0.247   5.715  -0.800  1.00  0.00     0.000 A 
ENDBRANCH  17  19
ENDBRANCH  13  17
ENDBRANCH   8   9
ENDBRANCH   4   7
ENDBRANCH   2   3
ENDBRANCH   1   2
BRANCH   1  25
ATOM     25  C   UNL     1      -0.089   1.276  10.727  1.00  0.00     0.023 C 
BRANCH  25  26
ATOM     26  C   UNL     1       0.837   1.893  11.768  1.00  0.00     0.116 C 
BRANCH  26  27
ATOM     27  N   UNL     1       1.120   3.300  11.535  1.00  0.00    -0.352 N 
ATOM     28  C   UNL     1       1.424   4.271  12.461  1.00  0.00     0.251 C 
ATOM     29  H   UNL     1       1.090   3.595  10.596  1.00  0.00     0.163 HD
ATOM     30  O   UNL     1       1.548   5.439  12.126  1.00  0.00    -0.269 OA
BRANCH  28  31
ATOM     31  C   UNL     1       1.548   3.887  13.882  1.00  0.00     0.039 A 
ATOM     32  C   UNL     1       0.812   4.595  14.834  1.00  0.00     0.014 A 
ATOM     33  C   UNL     1       2.349   2.807  14.261  1.00  0.00     0.014 A 
ATOM     34  C   UNL     1       0.824   4.173  16.164  1.00  0.00     0.010 A 
ATOM     35  C   UNL     1       2.307   2.348  15.573  1.00  0.00     0.010 A 
ATOM     36  C   UNL     1       1.542   3.024  16.535  1.00  0.00    -0.014 A 
BRANCH  36  37
ATOM     37  C   UNL     1       1.498   2.509  17.924  1.00  0.00     0.031 A 
ATOM     38  C   UNL     1       2.743   2.499  18.765  1.00  0.00     0.074 A 
ATOM     39  C   UNL     1       0.352   1.986  18.403  1.00  0.00     0.049 A 
ATOM     40  N   UNL     1       2.916   2.037  19.977  1.00  0.00    -0.248 NA
ATOM     41  C   UNL     1       3.960   3.057  18.153  1.00  0.00     0.031 C 
ATOM     42  C   UNL     1      -0.912   1.895  17.670  1.00  0.00     0.029 A 
ATOM     43  N   UNL     1       0.071   1.424  19.623  1.00  0.00    -0.354 N 
ATOM     44  C   UNL     1       4.260   2.232  20.264  1.00  0.00     0.074 A 
ATOM     45  C   UNL     1       4.867   2.808  19.085  1.00  0.00     0.031 C 
ATOM     46  C   UNL     1      -1.841   1.337  18.464  1.00  0.00     0.029 A 
ATOM     47  C   UNL     1      -1.230   0.999  19.746  1.00  0.00     0.049 A 
ATOM     48  H   UNL     1       0.737   1.334  20.342  1.00  0.00     0.167 HD
ATOM     49  C   UNL     1       4.927   1.971  21.414  1.00  0.00     0.031 A 
ATOM     50  C   UNL     1      -1.859   0.402  20.775  1.00  0.00     0.031 A 
ATOM     51  C   UNL     1       4.321   1.412  22.591  1.00  0.00     0.049 A 
ATOM     52  C   UNL     1      -1.097   0.125  22.040  1.00  0.00     0.074 A 
ATOM     53  C   UNL     1       4.898   1.167  23.825  1.00  0.00     0.029 A 
ATOM     54  N   UNL     1       2.997   1.011  22.681  1.00  0.00    -0.354 N 
ATOM     55  N   UNL     1       0.158   0.379  22.321  1.00  0.00    -0.248 NA
ATOM     56  C   UNL     1      -1.844  -0.510  23.135  1.00  0.00     0.031 C 
ATOM     57  C   UNL     1       3.933   0.577  24.648  1.00  0.00     0.029 A 
ATOM     58  C   UNL     1       2.743   0.501  23.942  1.00  0.00     0.049 A 
ATOM     59  H   UNL     1       2.336   1.078  21.954  1.00  0.00     0.167 HD
ATOM     60  C   UNL     1       0.344  -0.039  23.632  1.00  0.00     0.074 A 
ATOM     61  C   UNL     1      -0.930  -0.550  24.095  1.00  0.00     0.031 C 
ATOM     62  C   UNL     1       1.469  -0.002  24.386  1.00  0.00     0.031 A 
BRANCH  49  63
ATOM     63  C   UNL     1       6.395   2.290  21.445  1.00  0.00    -0.014 A 
ATOM     64  C   UNL     1       6.850   3.618  21.459  1.00  0.00     0.009 A 
ATOM     65  C   UNL     1       7.335   1.249  21.488  1.00  0.00     0.009 A 
ATOM     66  C   UNL     1       8.218   3.897  21.475  1.00  0.00     0.001 A 
ATOM     67  C   UNL     1       8.702   1.531  21.532  1.00  0.00     0.001 A 
ATOM     68  C   UNL     1       9.142   2.854  21.515  1.00  0.00     0.000 A 
ENDBRANCH  49  63
BRANCH  50  69
ATOM     69  C   UNL     1      -3.297   0.046  20.663  1.00  0.00    -0.014 A 
ATOM     70  C   UNL     1      -4.264   0.769  21.379  1.00  0.00     0.009 A 
ATOM     71  C   UNL     1      -3.710  -1.017  19.846  1.00  0.00     0.009 A 
ATOM     72  C   UNL     1      -5.613   0.417  21.299  1.00  0.00     0.001 A 
ATOM     73  C   UNL     1      -5.063  -1.350  19.748  1.00  0.00     0.001 A 
ATOM     74  C   UNL     1      -6.012  -0.639  20.481  1.00  0.00     0.000 A 
ENDBRANCH  50  69
BRANCH  62  75
ATOM     75  C   UNL     1       1.364  -0.496  25.800  1.00  0.00    -0.014 A 
ATOM     76  C   UNL     1       1.259  -1.865  26.087  1.00  0.00     0.009 A 
ATOM     77  C   UNL     1       1.412   0.422  26.860  1.00  0.00     0.009 A 
ATOM     78  C   UNL     1       1.174  -2.303  27.410  1.00  0.00     0.001 A 
ATOM     79  C   UNL     1       1.354  -0.021  28.182  1.00  0.00     0.001 A 
ATOM     80  C   UNL     1       1.227  -1.382  28.455  1.00  0.00     0.000 A 
ENDBRANCH  62  75
ENDBRANCH  36  37
ENDBRANCH  28  31
ENDBRANCH  26  27
ENDBRANCH  25  26
ENDBRANCH   1  25
TORSDOF 15
