REMARK SMILES COc1ccc2c(c1OC)C(=O)O[C@@H]2Nc1nonc1C(=O)NCCCCNC(=O)c1ccc(-c2c3nc(c(-c4ccccc4)c4ccc([nH]4)c(-c4ccccc4)c4nc(c(-c5ccccc5)c5ccc2[nH]5)C=C4)C=C3)cc1
REMARK SMILES IDX 25 1 24 2 23 3 21 4 22 5 20 7 16 8 17 9 18 10 19 11 15 12
REMARK SMILES IDX 14 14 3 15 4 16 8 17 5 18 7 19 6 20 11 21 12 22 13 23 2 24
REMARK SMILES IDX 1 25 9 26 10 27 26 28 27 29 28 30 29 31 30 33 31 34 32 35
REMARK SMILES IDX 78 36 33 37 77 38 34 39 35 40 36 41 71 42 37 43 76 44 70 45
REMARK SMILES IDX 72 46 38 47 75 48 69 49 68 50 39 52 61 53 46 54 60 55 47 56
REMARK SMILES IDX 50 57 59 58 73 59 48 60 49 61 58 63 74 64 51 65 40 66 41 67
REMARK SMILES IDX 45 68 42 69 44 70 43 71 62 72 63 73 67 74 64 75 66 76 65 77
REMARK SMILES IDX 52 78 53 79 57 80 54 81 56 82 55 83
REMARK H PARENT 23 6 15 13 28 32 72 51 50 62
REMARK Flexibility Score: inf
ROOT
ATOM      1  C   UNL     1      -0.691   5.240   0.840  1.00  0.00     0.023 C 
ENDROOT
BRANCH   1   2
ATOM      2  C   UNL     1      -0.157   5.956  -0.411  1.00  0.00     0.116 C 
BRANCH   2   3
ATOM      3  N   UNL     1      -1.080   6.186  -1.514  1.00  0.00    -0.350 N 
ATOM      4  C   UNL     1      -0.955   7.119  -2.542  1.00  0.00     0.277 C 
ATOM      5  O   UNL     1      -1.788   7.079  -3.451  1.00  0.00    -0.267 OA
ATOM      6  H   UNL     1      -1.883   5.617  -1.536  1.00  0.00     0.163 HD
BRANCH   4   7
ATOM      7  C   UNL     1       0.120   8.111  -2.539  1.00  0.00     0.216 A 
ATOM      8  C   UNL     1       1.517   7.997  -2.326  1.00  0.00     0.207 A 
ATOM      9  N   UNL     1       2.062   9.209  -2.283  1.00  0.00    -0.031 NA
ATOM     10  O   UNL     1       1.036  10.082  -2.596  1.00  0.00    -0.242 OA
ATOM     11  N   UNL     1      -0.158   9.403  -2.778  1.00  0.00    -0.042 NA
BRANCH   8  12
ATOM     12  N   UNL     1       2.237   6.876  -2.106  1.00  0.00    -0.326 N 
ATOM     13  H   UNL     1       2.478   6.626  -1.185  1.00  0.00     0.166 HD
BRANCH  12  14
ATOM     14  C   UNL     1       2.657   6.041  -3.207  1.00  0.00     0.307 C 
ATOM     15  C   UNL     1       0.843   2.299  -2.695  1.00  0.00     0.161 A 
ATOM     16  C   UNL     1       0.096   3.253  -3.382  1.00  0.00     0.051 A 
ATOM     17  C   UNL     1       2.226   2.519  -2.349  1.00  0.00     0.175 A 
ATOM     18  C   UNL     1       0.657   4.482  -3.662  1.00  0.00     0.014 A 
ATOM     19  C   UNL     1       2.728   3.785  -2.588  1.00  0.00     0.114 A 
ATOM     20  C   UNL     1       1.940   4.749  -3.202  1.00  0.00     0.032 A 
ATOM     21  C   UNL     1       4.008   4.444  -2.267  1.00  0.00     0.344 C 
ATOM     22  O   UNL     1       4.922   4.087  -1.564  1.00  0.00    -0.246 OA
ATOM     23  O   UNL     1       3.990   5.654  -2.899  1.00  0.00    -0.434 OA
BRANCH  15  24
ATOM     24  O   UNL     1       0.170   1.145  -2.384  1.00  0.00    -0.493 OA
ATOM     25  C   UNL     1      -0.982   1.239  -1.518  1.00  0.00     0.278 C 
ENDBRANCH  15  24
BRANCH  17  26
ATOM     26  O   UNL     1       2.881   1.494  -1.751  1.00  0.00    -0.492 OA
ATOM     27  C   UNL     1       4.245   1.515  -1.345  1.00  0.00     0.278 C 
ENDBRANCH  17  26
ENDBRANCH  12  14
ENDBRANCH   8  12
ENDBRANCH   4   7
ENDBRANCH   2   3
ENDBRANCH   1   2
BRANCH   1  28
ATOM     28  C   UNL     1      -0.502   3.696   1.052  1.00  0.00     0.023 C 
BRANCH  28  29
ATOM     29  C   UNL     1       0.798   3.010   0.550  1.00  0.00     0.116 C 
BRANCH  29  30
ATOM     30  N   UNL     1       1.226   1.720   1.213  1.00  0.00    -0.352 N 
ATOM     31  C   UNL     1       1.840   0.525   0.749  1.00  0.00     0.251 C 
ATOM     32  H   UNL     1       1.038   1.705   2.179  1.00  0.00     0.163 HD
ATOM     33  O   UNL     1       2.937   0.243   1.244  1.00  0.00    -0.269 OA
BRANCH  31  34
ATOM     34  C   UNL     1       1.156  -0.603  -0.013  1.00  0.00     0.039 A 
ATOM     35  C   UNL     1       0.428  -1.574   0.672  1.00  0.00     0.014 A 
ATOM     36  C   UNL     1       1.352  -0.896  -1.365  1.00  0.00     0.014 A 
ATOM     37  C   UNL     1      -0.288  -2.593  -0.021  1.00  0.00     0.010 A 
ATOM     38  C   UNL     1       0.491  -1.760  -2.079  1.00  0.00     0.010 A 
ATOM     39  C   UNL     1      -0.381  -2.623  -1.426  1.00  0.00    -0.014 A 
BRANCH  39  40
ATOM     40  C   UNL     1      -1.345  -3.512  -2.186  1.00  0.00     0.031 A 
ATOM     41  C   UNL     1      -0.902  -4.365  -3.370  1.00  0.00     0.074 A 
ATOM     42  C   UNL     1      -2.666  -3.528  -1.878  1.00  0.00     0.049 A 
ATOM     43  N   UNL     1      -1.609  -5.199  -4.104  1.00  0.00    -0.248 NA
ATOM     44  C   UNL     1       0.497  -4.253  -3.808  1.00  0.00     0.031 C 
ATOM     45  C   UNL     1      -3.314  -2.708  -0.852  1.00  0.00     0.029 A 
ATOM     46  N   UNL     1      -3.712  -4.272  -2.394  1.00  0.00    -0.354 N 
ATOM     47  C   UNL     1      -0.741  -5.694  -5.075  1.00  0.00     0.074 A 
ATOM     48  C   UNL     1       0.511  -4.995  -4.903  1.00  0.00     0.031 C 
ATOM     49  C   UNL     1      -4.613  -3.042  -0.763  1.00  0.00     0.029 A 
ATOM     50  C   UNL     1      -4.918  -4.072  -1.752  1.00  0.00     0.049 A 
ATOM     51  H   UNL     1      -3.606  -4.889  -3.154  1.00  0.00     0.167 HD
ATOM     52  C   UNL     1      -0.923  -6.676  -5.995  1.00  0.00     0.031 A 
ATOM     53  C   UNL     1      -6.128  -4.652  -1.917  1.00  0.00     0.031 A 
ATOM     54  C   UNL     1      -2.144  -7.408  -6.190  1.00  0.00     0.049 A 
ATOM     55  C   UNL     1      -6.318  -5.732  -2.956  1.00  0.00     0.074 A 
ATOM     56  C   UNL     1      -2.392  -8.454  -7.065  1.00  0.00     0.029 A 
ATOM     57  N   UNL     1      -3.321  -7.173  -5.503  1.00  0.00    -0.354 N 
ATOM     58  N   UNL     1      -5.442  -6.255  -3.778  1.00  0.00    -0.248 NA
ATOM     59  C   UNL     1      -7.667  -6.315  -3.078  1.00  0.00     0.031 C 
ATOM     60  C   UNL     1      -3.737  -8.815  -6.944  1.00  0.00     0.029 A 
ATOM     61  C   UNL     1      -4.304  -8.041  -5.946  1.00  0.00     0.049 A 
ATOM     62  H   UNL     1      -3.442  -6.490  -4.803  1.00  0.00     0.167 HD
ATOM     63  C   UNL     1      -6.118  -7.254  -4.472  1.00  0.00     0.074 A 
ATOM     64  C   UNL     1      -7.475  -7.272  -3.976  1.00  0.00     0.031 C 
ATOM     65  C   UNL     1      -5.648  -8.085  -5.433  1.00  0.00     0.031 A 
BRANCH  52  66
ATOM     66  C   UNL     1       0.260  -7.034  -6.860  1.00  0.00    -0.014 A 
ATOM     67  C   UNL     1       1.398  -7.648  -6.308  1.00  0.00     0.009 A 
ATOM     68  C   UNL     1       0.236  -6.769  -8.237  1.00  0.00     0.009 A 
ATOM     69  C   UNL     1       2.510  -7.927  -7.104  1.00  0.00     0.001 A 
ATOM     70  C   UNL     1       1.337  -7.084  -9.038  1.00  0.00     0.001 A 
ATOM     71  C   UNL     1       2.478  -7.646  -8.468  1.00  0.00     0.000 A 
ENDBRANCH  52  66
BRANCH  53  72
ATOM     72  C   UNL     1      -7.288  -4.264  -1.056  1.00  0.00    -0.014 A 
ATOM     73  C   UNL     1      -7.843  -5.181  -0.145  1.00  0.00     0.009 A 
ATOM     74  C   UNL     1      -7.899  -3.008  -1.195  1.00  0.00     0.009 A 
ATOM     75  C   UNL     1      -9.005  -4.867   0.569  1.00  0.00     0.001 A 
ATOM     76  C   UNL     1      -9.040  -2.683  -0.454  1.00  0.00     0.001 A 
ATOM     77  C   UNL     1      -9.601  -3.617   0.415  1.00  0.00     0.000 A 
ENDBRANCH  53  72
BRANCH  65  78
ATOM     78  C   UNL     1      -6.567  -9.144  -5.980  1.00  0.00    -0.014 A 
ATOM     79  C   UNL     1      -7.632  -8.829  -6.836  1.00  0.00     0.009 A 
ATOM     80  C   UNL     1      -6.294 -10.495  -5.707  1.00  0.00     0.009 A 
ATOM     81  C   UNL     1      -8.414  -9.844  -7.394  1.00  0.00     0.001 A 
ATOM     82  C   UNL     1      -7.058 -11.508  -6.289  1.00  0.00     0.001 A 
ATOM     83  C   UNL     1      -8.120 -11.182  -7.129  1.00  0.00     0.000 A 
ENDBRANCH  65  78
ENDBRANCH  39  40
ENDBRANCH  31  34
ENDBRANCH  29  30
ENDBRANCH  28  29
ENDBRANCH   1  28
TORSDOF 15
