REMARK SMILES CCCN(CC)S(=O)(=O)c1ccc(C(=O)NCCCCNC(=O)c2ccc(-c3c4nc(c(-c5ccccc5)c5ccc([nH]5)c(-c5ccccc5)c5nc(c(-c6ccccc6)c6ccc3[nH]6)C=C5)C=C4)cc2)o1
REMARK SMILES IDX 17 1 16 2 14 3 15 4 13 6 10 7 11 8 72 9 12 10 7 11 8 12 9 13
REMARK SMILES IDX 4 14 3 15 2 16 1 17 5 18 6 19 18 20 19 21 20 22 21 23 22 24
REMARK SMILES IDX 23 26 24 27 25 28 71 29 26 30 70 31 27 32 28 33 29 34 64 35
REMARK SMILES IDX 30 36 69 37 63 38 65 39 31 40 68 41 62 42 61 43 32 45 54 46
REMARK SMILES IDX 39 47 53 48 40 49 43 50 52 51 66 52 41 53 42 54 51 56 67 57
REMARK SMILES IDX 44 58 33 59 34 60 38 61 35 62 37 63 36 64 55 65 56 66 60 67
REMARK SMILES IDX 57 68 59 69 58 70 45 71 46 72 50 73 47 74 49 75 48 76
REMARK H PARENT 16 5 21 25 65 44 43 55
REMARK Flexibility Score: inf
ROOT
ATOM      1  C   UNL     1      -1.399   0.790   8.654  1.00  0.00     0.116 C 
ENDROOT
BRANCH   1   2
ATOM      2  N   UNL     1      -0.633   1.797   7.956  1.00  0.00    -0.349 N 
ATOM      3  C   UNL     1       0.034   1.753   6.752  1.00  0.00     0.287 C 
ATOM      4  O   UNL     1       0.576   2.809   6.415  1.00  0.00    -0.266 OA
ATOM      5  H   UNL     1      -0.580   2.664   8.421  1.00  0.00     0.163 HD
BRANCH   3   6
ATOM      6  C   UNL     1       0.080   0.546   5.938  1.00  0.00     0.193 A 
ATOM      7  C   UNL     1       0.562  -0.517   4.006  1.00  0.00     0.234 A 
ATOM      8  C   UNL     1      -0.041  -1.429   4.858  1.00  0.00     0.065 A 
ATOM      9  O   UNL     1       0.631   0.682   4.690  1.00  0.00    -0.438 OA
ATOM     10  C   UNL     1      -0.301  -0.772   6.087  1.00  0.00     0.058 A 
BRANCH   7  11
ATOM     11  S   UNL     1       1.171  -0.603   2.316  1.00  0.00     0.276 S 
ATOM     12  O   UNL     1       2.594  -0.389   2.415  1.00  0.00    -0.204 OA
ATOM     13  O   UNL     1       0.317   0.342   1.617  1.00  0.00    -0.204 OA
BRANCH  11  14
ATOM     14  N   UNL     1       0.918  -2.152   1.610  1.00  0.00    -0.195 NA
BRANCH  14  15
ATOM     15  C   UNL     1       1.302  -2.222   0.154  1.00  0.00     0.102 C 
BRANCH  15  16
ATOM     16  C   UNL     1       0.335  -1.473  -0.763  1.00  0.00     0.013 C 
ATOM     17  C   UNL     1       0.877  -0.132  -1.252  1.00  0.00     0.005 C 
ENDBRANCH  15  16
ENDBRANCH  14  15
BRANCH  14  18
ATOM     18  C   UNL     1       1.406  -3.357   2.345  1.00  0.00     0.099 C 
ATOM     19  C   UNL     1       2.892  -3.370   2.643  1.00  0.00     0.022 C 
ENDBRANCH  14  18
ENDBRANCH  11  14
ENDBRANCH   7  11
ENDBRANCH   3   6
ENDBRANCH   1   2
BRANCH   1  20
ATOM     20  C   UNL     1      -0.500  -0.104   9.509  1.00  0.00     0.023 C 
BRANCH  20  21
ATOM     21  C   UNL     1      -0.157   0.474  10.889  1.00  0.00     0.023 C 
BRANCH  21  22
ATOM     22  C   UNL     1      -1.351   0.658  11.825  1.00  0.00     0.116 C 
BRANCH  22  23
ATOM     23  N   UNL     1      -2.106  -0.566  12.033  1.00  0.00    -0.352 N 
ATOM     24  C   UNL     1      -3.034  -0.854  13.002  1.00  0.00     0.251 C 
ATOM     25  H   UNL     1      -1.926  -1.290  11.390  1.00  0.00     0.163 HD
ATOM     26  O   UNL     1      -3.498  -1.987  13.085  1.00  0.00    -0.269 OA
BRANCH  24  27
ATOM     27  C   UNL     1      -3.431   0.177  13.983  1.00  0.00     0.039 A 
ATOM     28  C   UNL     1      -3.443  -0.175  15.336  1.00  0.00     0.014 A 
ATOM     29  C   UNL     1      -3.800   1.466  13.589  1.00  0.00     0.014 A 
ATOM     30  C   UNL     1      -3.764   0.781  16.299  1.00  0.00     0.010 A 
ATOM     31  C   UNL     1      -4.077   2.434  14.554  1.00  0.00     0.010 A 
ATOM     32  C   UNL     1      -4.056   2.099  15.916  1.00  0.00    -0.014 A 
BRANCH  32  33
ATOM     33  C   UNL     1      -4.317   3.136  16.941  1.00  0.00     0.031 A 
ATOM     34  C   UNL     1      -5.697   3.693  17.133  1.00  0.00     0.074 A 
ATOM     35  C   UNL     1      -3.292   3.603  17.677  1.00  0.00     0.049 A 
ATOM     36  N   UNL     1      -6.109   4.586  17.997  1.00  0.00    -0.248 NA
ATOM     37  C   UNL     1      -6.744   3.200  16.226  1.00  0.00     0.031 C 
ATOM     38  C   UNL     1      -1.894   3.184  17.547  1.00  0.00     0.029 A 
ATOM     39  N   UNL     1      -3.270   4.533  18.684  1.00  0.00    -0.354 N 
ATOM     40  C   UNL     1      -7.457   4.776  17.726  1.00  0.00     0.074 A 
ATOM     41  C   UNL     1      -7.788   3.926  16.602  1.00  0.00     0.031 C 
ATOM     42  C   UNL     1      -1.155   3.835  18.460  1.00  0.00     0.029 A 
ATOM     43  C   UNL     1      -2.024   4.721  19.229  1.00  0.00     0.049 A 
ATOM     44  H   UNL     1      -4.070   5.019  18.987  1.00  0.00     0.167 HD
ATOM     45  C   UNL     1      -8.344   5.578  18.363  1.00  0.00     0.031 A 
ATOM     46  C   UNL     1      -1.628   5.505  20.247  1.00  0.00     0.031 A 
ATOM     47  C   UNL     1      -8.027   6.410  19.491  1.00  0.00     0.049 A 
ATOM     48  C   UNL     1      -2.643   6.331  20.982  1.00  0.00     0.074 A 
ATOM     49  C   UNL     1      -8.870   7.220  20.233  1.00  0.00     0.029 A 
ATOM     50  N   UNL     1      -6.764   6.531  20.047  1.00  0.00    -0.354 N 
ATOM     51  N   UNL     1      -3.927   6.450  20.755  1.00  0.00    -0.248 NA
ATOM     52  C   UNL     1      -2.153   7.112  22.126  1.00  0.00     0.031 C 
ATOM     53  C   UNL     1      -8.111   7.845  21.230  1.00  0.00     0.029 A 
ATOM     54  C   UNL     1      -6.802   7.403  21.121  1.00  0.00     0.049 A 
ATOM     55  H   UNL     1      -5.958   6.066  19.725  1.00  0.00     0.167 HD
ATOM     56  C   UNL     1      -4.405   7.302  21.740  1.00  0.00     0.074 A 
ATOM     57  C   UNL     1      -3.275   7.663  22.571  1.00  0.00     0.031 C 
ATOM     58  C   UNL     1      -5.670   7.745  21.939  1.00  0.00     0.031 A 
BRANCH  45  59
ATOM     59  C   UNL     1      -9.749   5.590  17.839  1.00  0.00    -0.014 A 
ATOM     60  C   UNL     1     -10.626   4.527  18.107  1.00  0.00     0.009 A 
ATOM     61  C   UNL     1     -10.205   6.679  17.082  1.00  0.00     0.009 A 
ATOM     62  C   UNL     1     -11.926   4.542  17.599  1.00  0.00     0.001 A 
ATOM     63  C   UNL     1     -11.512   6.699  16.591  1.00  0.00     0.001 A 
ATOM     64  C   UNL     1     -12.368   5.627  16.843  1.00  0.00     0.000 A 
ENDBRANCH  45  59
BRANCH  46  65
ATOM     65  C   UNL     1      -0.208   5.502  20.669  1.00  0.00    -0.014 A 
ATOM     66  C   UNL     1       0.191   4.765  21.794  1.00  0.00     0.009 A 
ATOM     67  C   UNL     1       0.753   6.223  19.946  1.00  0.00     0.009 A 
ATOM     68  C   UNL     1       1.526   4.765  22.200  1.00  0.00     0.001 A 
ATOM     69  C   UNL     1       2.091   6.208  20.346  1.00  0.00     0.001 A 
ATOM     70  C   UNL     1       2.475   5.484  21.474  1.00  0.00     0.000 A 
ENDBRANCH  46  65
BRANCH  58  71
ATOM     71  C   UNL     1      -5.895   8.643  23.117  1.00  0.00    -0.014 A 
ATOM     72  C   UNL     1      -5.548  10.002  23.065  1.00  0.00     0.009 A 
ATOM     73  C   UNL     1      -6.479   8.128  24.284  1.00  0.00     0.009 A 
ATOM     74  C   UNL     1      -5.757  10.822  24.174  1.00  0.00     0.001 A 
ATOM     75  C   UNL     1      -6.700   8.955  25.385  1.00  0.00     0.001 A 
ATOM     76  C   UNL     1      -6.334  10.299  25.332  1.00  0.00     0.000 A 
ENDBRANCH  58  71
ENDBRANCH  32  33
ENDBRANCH  24  27
ENDBRANCH  22  23
ENDBRANCH  21  22
ENDBRANCH  20  21
ENDBRANCH   1  20
TORSDOF 16
