REMARK SMILES C[NH2+][C@@]1(C(=O)NCCCCNC(=O)c2ccc(-c3c4nc(c(-c5ccccc5)c5ccc([nH]5)c(-c5ccccc5)c5nc(c(-c6ccccc6)c6ccc3[nH]6)C=C5)C=C4)cc2)CCC[C@@H](Oc2cc(F)cc(F)c2)C1
REMARK SMILES IDX 8 1 7 2 6 3 4 4 5 5 3 7 62 8 75 9 63 10 65 11 64 12 2 13
REMARK SMILES IDX 1 14 66 17 67 18 68 19 74 20 69 21 72 22 70 23 71 24 73 25
REMARK SMILES IDX 9 26 10 27 11 28 12 29 13 31 14 32 15 33 61 34 16 35 60 36
REMARK SMILES IDX 17 37 18 38 19 39 54 40 20 41 59 42 53 43 55 44 21 45 58 46
REMARK SMILES IDX 52 47 51 48 22 50 44 51 29 52 43 53 30 54 33 55 42 56 56 57
REMARK SMILES IDX 31 58 32 59 41 61 57 62 34 63 23 64 24 65 28 66 25 67 27 68
REMARK SMILES IDX 26 69 45 70 46 71 50 72 47 73 49 74 48 75 35 76 36 77 40 78
REMARK SMILES IDX 37 79 39 80 38 81
REMARK H PARENT 6 6 2 15 2 16 11 30 55 49 33 60
REMARK Flexibility Score: inf
ROOT
ATOM      1  C   UNL     1      -4.789   1.104   0.023  1.00  0.00     0.023 C 
ENDROOT
BRANCH   1   2
ATOM      2  C   UNL     1      -4.130  -0.276   0.032  1.00  0.00     0.116 C 
BRANCH   2   3
ATOM      3  N   UNL     1      -2.840  -0.300  -0.616  1.00  0.00    -0.351 N 
ATOM      4  C   UNL     1      -1.585  -0.582  -0.186  1.00  0.00     0.281 C 
ATOM      5  O   UNL     1      -0.858  -1.016  -1.095  1.00  0.00    -0.268 OA
ATOM      6  H   UNL     1      -2.880  -0.060  -1.570  1.00  0.00     0.163 HD
BRANCH   4   7
ATOM      7  C   UNL     1      -1.014  -0.414   1.295  1.00  0.00     0.178 C 
ATOM      8  C   UNL     1      -1.411  -1.591   2.226  1.00  0.00     0.079 C 
ATOM      9  C   UNL     1      -1.261   0.959   1.955  1.00  0.00     0.124 C 
ATOM     10  C   UNL     1      -2.648  -1.432   3.106  1.00  0.00     0.011 C 
ATOM     11  C   UNL     1      -2.570   1.083   2.727  1.00  0.00     0.180 C 
ATOM     12  C   UNL     1      -2.795  -0.048   3.731  1.00  0.00     0.046 C 
BRANCH   7  13
ATOM     13  N   UNL     1       0.493  -0.580   1.201  1.00  0.00    -0.336 N 
ATOM     14  C   UNL     1       1.205   0.351   0.327  1.00  0.00     0.331 C 
ATOM     15  H   UNL     1       0.874  -0.473   2.141  1.00  0.00     0.346 HD
ATOM     16  H   UNL     1       0.635  -1.500   0.784  1.00  0.00     0.346 HD
ENDBRANCH   7  13
BRANCH  11  17
ATOM     17  O   UNL     1      -2.772   2.433   3.184  1.00  0.00    -0.490 OA
BRANCH  17  18
ATOM     18  C   UNL     1      -2.484   2.691   4.487  1.00  0.00     0.125 A 
ATOM     19  C   UNL     1      -3.540   2.807   5.389  1.00  0.00     0.085 A 
ATOM     20  C   UNL     1      -1.179   2.960   4.886  1.00  0.00     0.085 A 
ATOM     21  C   UNL     1      -3.269   3.144   6.710  1.00  0.00     0.129 A 
ATOM     22  C   UNL     1      -0.936   3.298   6.212  1.00  0.00     0.129 A 
ATOM     23  F   UNL     1      -4.280   3.244   7.583  1.00  0.00    -0.207 F 
ATOM     24  C   UNL     1      -1.970   3.387   7.135  1.00  0.00     0.078 A 
ATOM     25  F   UNL     1       0.319   3.556   6.604  1.00  0.00    -0.207 F 
ENDBRANCH  17  18
ENDBRANCH  11  17
ENDBRANCH   4   7
ENDBRANCH   2   3
ENDBRANCH   1   2
BRANCH   1  26
ATOM     26  C   UNL     1      -5.754   1.362  -1.127  1.00  0.00     0.023 C 
BRANCH  26  27
ATOM     27  C   UNL     1      -6.884   0.351  -1.270  1.00  0.00     0.116 C 
BRANCH  27  28
ATOM     28  N   UNL     1      -7.660   0.120  -0.058  1.00  0.00    -0.352 N 
ATOM     29  C   UNL     1      -8.967  -0.312   0.018  1.00  0.00     0.251 C 
ATOM     30  H   UNL     1      -7.203   0.290   0.797  1.00  0.00     0.163 HD
ATOM     31  O   UNL     1      -9.540  -0.437   1.093  1.00  0.00    -0.269 OA
BRANCH  29  32
ATOM     32  C   UNL     1      -9.678  -0.565  -1.250  1.00  0.00     0.039 A 
ATOM     33  C   UNL     1     -10.806   0.199  -1.554  1.00  0.00     0.014 A 
ATOM     34  C   UNL     1      -9.124  -1.436  -2.190  1.00  0.00     0.014 A 
ATOM     35  C   UNL     1     -11.327   0.157  -2.847  1.00  0.00     0.010 A 
ATOM     36  C   UNL     1      -9.593  -1.411  -3.496  1.00  0.00     0.010 A 
ATOM     37  C   UNL     1     -10.692  -0.608  -3.839  1.00  0.00    -0.014 A 
BRANCH  37  38
ATOM     38  C   UNL     1     -11.154  -0.583  -5.248  1.00  0.00     0.031 A 
ATOM     39  C   UNL     1     -11.669  -1.842  -5.885  1.00  0.00     0.074 A 
ATOM     40  C   UNL     1     -11.032   0.544  -5.976  1.00  0.00     0.049 A 
ATOM     41  N   UNL     1     -12.039  -2.050  -7.122  1.00  0.00    -0.248 NA
ATOM     42  C   UNL     1     -11.744  -3.035  -5.025  1.00  0.00     0.031 C 
ATOM     43  C   UNL     1     -10.495   1.819  -5.492  1.00  0.00     0.029 A 
ATOM     44  N   UNL     1     -11.348   0.796  -7.288  1.00  0.00    -0.354 N 
ATOM     45  C   UNL     1     -12.361  -3.399  -7.194  1.00  0.00     0.074 A 
ATOM     46  C   UNL     1     -12.095  -3.971  -5.893  1.00  0.00     0.031 C 
ATOM     47  C   UNL     1     -10.550   2.724  -6.483  1.00  0.00     0.029 A 
ATOM     48  C   UNL     1     -11.093   2.088  -7.679  1.00  0.00     0.049 A 
ATOM     49  H   UNL     1     -11.722   0.115  -7.892  1.00  0.00     0.167 HD
ATOM     50  C   UNL     1     -12.857  -4.097  -8.242  1.00  0.00     0.031 A 
ATOM     51  C   UNL     1     -11.279   2.692  -8.867  1.00  0.00     0.031 A 
ATOM     52  C   UNL     1     -13.154  -3.523  -9.525  1.00  0.00     0.049 A 
ATOM     53  C   UNL     1     -11.856   1.903 -10.009  1.00  0.00     0.074 A 
ATOM     54  C   UNL     1     -13.722  -4.130 -10.631  1.00  0.00     0.029 A 
ATOM     55  N   UNL     1     -12.911  -2.203  -9.870  1.00  0.00    -0.354 N 
ATOM     56  N   UNL     1     -12.218   0.643 -10.041  1.00  0.00    -0.248 NA
ATOM     57  C   UNL     1     -12.062   2.623 -11.273  1.00  0.00     0.031 C 
ATOM     58  C   UNL     1     -13.794  -3.182 -11.658  1.00  0.00     0.029 A 
ATOM     59  C   UNL     1     -13.308  -1.977 -11.176  1.00  0.00     0.049 A 
ATOM     60  H   UNL     1     -12.516  -1.526  -9.274  1.00  0.00     0.167 HD
ATOM     61  C   UNL     1     -12.718   0.427 -11.319  1.00  0.00     0.074 A 
ATOM     62  C   UNL     1     -12.625   1.688 -12.026  1.00  0.00     0.031 C 
ATOM     63  C   UNL     1     -13.211  -0.714 -11.858  1.00  0.00     0.031 A 
BRANCH  50  64
ATOM     64  C   UNL     1     -13.113  -5.561  -8.030  1.00  0.00    -0.014 A 
ATOM     65  C   UNL     1     -14.164  -6.002  -7.210  1.00  0.00     0.009 A 
ATOM     66  C   UNL     1     -12.298  -6.512  -8.663  1.00  0.00     0.009 A 
ATOM     67  C   UNL     1     -14.369  -7.366  -6.995  1.00  0.00     0.001 A 
ATOM     68  C   UNL     1     -12.523  -7.876  -8.468  1.00  0.00     0.001 A 
ATOM     69  C   UNL     1     -13.550  -8.302  -7.627  1.00  0.00     0.000 A 
ENDBRANCH  50  64
BRANCH  51  70
ATOM     70  C   UNL     1     -10.949   4.131  -9.035  1.00  0.00    -0.014 A 
ATOM     71  C   UNL     1     -11.974   5.084  -9.135  1.00  0.00     0.009 A 
ATOM     72  C   UNL     1      -9.614   4.559  -9.105  1.00  0.00     0.009 A 
ATOM     73  C   UNL     1     -11.671   6.433  -9.327  1.00  0.00     0.001 A 
ATOM     74  C   UNL     1      -9.314   5.912  -9.273  1.00  0.00     0.001 A 
ATOM     75  C   UNL     1     -10.342   6.847  -9.393  1.00  0.00     0.000 A 
ENDBRANCH  51  70
BRANCH  63  76
ATOM     76  C   UNL     1     -13.719  -0.641 -13.268  1.00  0.00    -0.014 A 
ATOM     77  C   UNL     1     -12.835  -0.577 -14.356  1.00  0.00     0.009 A 
ATOM     78  C   UNL     1     -15.101  -0.685 -13.511  1.00  0.00     0.009 A 
ATOM     79  C   UNL     1     -13.328  -0.531 -15.661  1.00  0.00     0.001 A 
ATOM     80  C   UNL     1     -15.589  -0.663 -14.817  1.00  0.00     0.001 A 
ATOM     81  C   UNL     1     -14.703  -0.579 -15.890  1.00  0.00     0.000 A 
ENDBRANCH  63  76
ENDBRANCH  37  38
ENDBRANCH  29  32
ENDBRANCH  27  28
ENDBRANCH  26  27
ENDBRANCH   1  26
TORSDOF 14
