REMARK SMILES C[C@](C(=O)NCCCCNC(=O)c1ccc(-c2c3nc(c(-c4ccccc4)c4ccc([nH]4)c(-c4ccccc4)c4nc(c(-c5ccccc5)c5ccc2[nH]5)C=C4)C=C3)cc1)(c1cc(F)cc(F)c1)[NH+]1CCCC1
REMARK SMILES IDX 8 1 7 2 6 3 5 4 3 5 4 6 2 8 1 9 61 10 62 11 68 12 63 13
REMARK SMILES IDX 66 14 64 15 65 16 67 17 69 18 70 19 73 20 71 22 72 23 9 24
REMARK SMILES IDX 10 25 11 26 12 28 13 29 14 30 60 31 15 32 59 33 16 34 17 35
REMARK SMILES IDX 18 36 53 37 19 38 58 39 52 40 54 41 20 42 57 43 51 44 50 45
REMARK SMILES IDX 21 47 43 48 28 49 42 50 29 51 32 52 41 53 55 54 30 55 31 56
REMARK SMILES IDX 40 58 56 59 33 60 22 61 23 62 27 63 24 64 26 65 25 66 44 67
REMARK SMILES IDX 45 68 49 69 46 70 48 71 47 72 34 73 35 74 39 75 36 76 38 77
REMARK SMILES IDX 37 78
REMARK H PARENT 5 7 69 21 10 27 54 46 32 57
REMARK Flexibility Score: inf
ROOT
ATOM      1  C   UNL     1      -2.240  -1.291   3.012  1.00  0.00     0.023 C 
ENDROOT
BRANCH   1   2
ATOM      2  C   UNL     1      -2.141  -0.504   1.710  1.00  0.00     0.023 C 
BRANCH   2   3
ATOM      3  C   UNL     1      -0.807   0.220   1.549  1.00  0.00     0.116 C 
BRANCH   3   4
ATOM      4  N   UNL     1       0.182  -0.646   0.935  1.00  0.00    -0.350 N 
ATOM      5  C   UNL     1       0.792  -0.524  -0.288  1.00  0.00     0.286 C 
ATOM      6  O   UNL     1       1.635  -1.382  -0.571  1.00  0.00    -0.267 OA
ATOM      7  H   UNL     1       0.452  -1.427   1.470  1.00  0.00     0.163 HD
BRANCH   5   8
ATOM      8  C   UNL     1       0.444   0.684  -1.268  1.00  0.00     0.200 C 
ATOM      9  C   UNL     1       1.200   0.441  -2.596  1.00  0.00     0.096 C 
BRANCH   8  10
ATOM     10  C   UNL     1      -1.085   0.631  -1.580  1.00  0.00     0.028 A 
ATOM     11  C   UNL     1      -1.926   1.756  -1.463  1.00  0.00     0.050 A 
ATOM     12  C   UNL     1      -1.704  -0.598  -1.892  1.00  0.00     0.050 A 
ATOM     13  C   UNL     1      -3.310   1.640  -1.595  1.00  0.00     0.126 A 
ATOM     14  C   UNL     1      -3.094  -0.692  -2.002  1.00  0.00     0.126 A 
ATOM     15  F   UNL     1      -4.075   2.727  -1.431  1.00  0.00    -0.207 F 
ATOM     16  C   UNL     1      -3.907   0.418  -1.847  1.00  0.00     0.078 A 
ATOM     17  F   UNL     1      -3.654  -1.891  -2.211  1.00  0.00    -0.207 F 
ENDBRANCH   8  10
BRANCH   8  18
ATOM     18  N   UNL     1       0.841   1.971  -0.610  1.00  0.00    -0.319 N 
ATOM     19  C   UNL     1       1.988   1.935   0.305  1.00  0.00     0.263 C 
ATOM     20  C   UNL     1       1.150   3.112  -1.480  1.00  0.00     0.263 C 
ATOM     21  H   UNL     1      -0.041   2.099  -0.114  1.00  0.00     0.349 HD
ATOM     22  C   UNL     1       2.033   3.388   0.751  1.00  0.00     0.067 C 
ATOM     23  C   UNL     1       1.591   4.174  -0.477  1.00  0.00     0.067 C 
ENDBRANCH   8  18
ENDBRANCH   5   8
ENDBRANCH   3   4
ENDBRANCH   2   3
ENDBRANCH   1   2
BRANCH   1  24
ATOM     24  C   UNL     1      -2.239  -0.423   4.265  1.00  0.00     0.116 C 
BRANCH  24  25
ATOM     25  N   UNL     1      -3.378   0.483   4.336  1.00  0.00    -0.352 N 
ATOM     26  C   UNL     1      -4.166   0.767   5.428  1.00  0.00     0.251 C 
ATOM     27  H   UNL     1      -3.612   0.950   3.501  1.00  0.00     0.163 HD
ATOM     28  O   UNL     1      -5.160   1.471   5.334  1.00  0.00    -0.269 OA
BRANCH  26  29
ATOM     29  C   UNL     1      -3.799   0.155   6.718  1.00  0.00     0.039 A 
ATOM     30  C   UNL     1      -4.713  -0.690   7.348  1.00  0.00     0.014 A 
ATOM     31  C   UNL     1      -2.505   0.319   7.219  1.00  0.00     0.014 A 
ATOM     32  C   UNL     1      -4.296  -1.452   8.440  1.00  0.00     0.010 A 
ATOM     33  C   UNL     1      -2.074  -0.490   8.262  1.00  0.00     0.010 A 
ATOM     34  C   UNL     1      -2.960  -1.396   8.868  1.00  0.00    -0.014 A 
BRANCH  34  35
ATOM     35  C   UNL     1      -2.444  -2.307   9.919  1.00  0.00     0.031 A 
ATOM     36  C   UNL     1      -1.925  -1.742  11.209  1.00  0.00     0.074 A 
ATOM     37  C   UNL     1      -2.337  -3.626   9.661  1.00  0.00     0.049 A 
ATOM     38  N   UNL     1      -1.314  -2.356  12.190  1.00  0.00    -0.248 NA
ATOM     39  C   UNL     1      -2.085  -0.293  11.412  1.00  0.00     0.031 C 
ATOM     40  C   UNL     1      -2.757  -4.289   8.423  1.00  0.00     0.029 A 
ATOM     41  N   UNL     1      -1.816  -4.644  10.420  1.00  0.00    -0.354 N 
ATOM     42  C   UNL     1      -0.990  -1.367  13.108  1.00  0.00     0.074 A 
ATOM     43  C   UNL     1      -1.444  -0.108  12.557  1.00  0.00     0.031 C 
ATOM     44  C   UNL     1      -2.482  -5.601   8.511  1.00  0.00     0.029 A 
ATOM     45  C   UNL     1      -1.831  -5.865   9.789  1.00  0.00     0.049 A 
ATOM     46  H   UNL     1      -1.465  -4.513  11.330  1.00  0.00     0.167 HD
ATOM     47  C   UNL     1      -0.379  -1.498  14.308  1.00  0.00     0.031 A 
ATOM     48  C   UNL     1      -1.353  -7.060  10.185  1.00  0.00     0.031 A 
ATOM     49  C   UNL     1       0.039  -2.752  14.869  1.00  0.00     0.049 A 
ATOM     50  C   UNL     1      -0.681  -7.174  11.525  1.00  0.00     0.074 A 
ATOM     51  C   UNL     1       0.571  -2.998  16.123  1.00  0.00     0.029 A 
ATOM     52  N   UNL     1      -0.021  -3.970  14.211  1.00  0.00    -0.354 N 
ATOM     53  N   UNL     1      -0.471  -6.244  12.424  1.00  0.00    -0.248 NA
ATOM     54  C   UNL     1      -0.180  -8.504  11.905  1.00  0.00     0.031 C 
ATOM     55  C   UNL     1       0.881  -4.359  16.205  1.00  0.00     0.029 A 
ATOM     56  C   UNL     1       0.500  -4.965  15.019  1.00  0.00     0.049 A 
ATOM     57  H   UNL     1      -0.380  -4.106  13.305  1.00  0.00     0.167 HD
ATOM     58  C   UNL     1       0.170  -6.877  13.480  1.00  0.00     0.074 A 
ATOM     59  C   UNL     1       0.296  -8.274  13.120  1.00  0.00     0.031 C 
ATOM     60  C   UNL     1       0.618  -6.348  14.643  1.00  0.00     0.031 A 
BRANCH  47  61
ATOM     61  C   UNL     1      -0.119  -0.250  15.100  1.00  0.00    -0.014 A 
ATOM     62  C   UNL     1      -1.162   0.432  15.745  1.00  0.00     0.009 A 
ATOM     63  C   UNL     1       1.197   0.212  15.253  1.00  0.00     0.009 A 
ATOM     64  C   UNL     1      -0.892   1.568  16.512  1.00  0.00     0.001 A 
ATOM     65  C   UNL     1       1.466   1.334  16.040  1.00  0.00     0.001 A 
ATOM     66  C   UNL     1       0.421   2.013  16.664  1.00  0.00     0.000 A 
ENDBRANCH  47  61
BRANCH  48  67
ATOM     67  C   UNL     1      -1.469  -8.247   9.298  1.00  0.00    -0.014 A 
ATOM     68  C   UNL     1      -2.341  -9.298   9.623  1.00  0.00     0.009 A 
ATOM     69  C   UNL     1      -0.686  -8.348   8.138  1.00  0.00     0.009 A 
ATOM     70  C   UNL     1      -2.402 -10.439   8.820  1.00  0.00     0.001 A 
ATOM     71  C   UNL     1      -0.770  -9.479   7.322  1.00  0.00     0.001 A 
ATOM     72  C   UNL     1      -1.619 -10.528   7.670  1.00  0.00     0.000 A 
ENDBRANCH  48  67
BRANCH  60  73
ATOM     73  C   UNL     1       1.271  -7.285  15.617  1.00  0.00    -0.014 A 
ATOM     74  C   UNL     1       2.572  -7.762  15.398  1.00  0.00     0.009 A 
ATOM     75  C   UNL     1       0.598  -7.649  16.794  1.00  0.00     0.009 A 
ATOM     76  C   UNL     1       3.178  -8.606  16.329  1.00  0.00     0.001 A 
ATOM     77  C   UNL     1       1.216  -8.472  17.735  1.00  0.00     0.001 A 
ATOM     78  C   UNL     1       2.503  -8.955  17.499  1.00  0.00     0.000 A 
ENDBRANCH  60  73
ENDBRANCH  34  35
ENDBRANCH  26  29
ENDBRANCH  24  25
ENDBRANCH   1  24
TORSDOF 13
