REMARK SMILES CSc1nc(N)cc(Nc2cccc(C(=O)NCCCCNC(=O)c3ccc(-c4c5nc(c(-c6ccccc6)c6ccc([nH]6)c(-c6ccccc6)c6nc(c(-c7ccccc7)c7ccc4[nH]7)C=C6)C=C5)cc3)c2)n1
REMARK SMILES IDX 19 1 18 2 17 3 15 4 16 5 14 7 10 8 11 9 73 10 12 11 13 12
REMARK SMILES IDX 9 13 8 15 3 16 4 17 74 18 5 19 7 20 2 21 1 22 6 23 20 26
REMARK SMILES IDX 21 27 22 28 23 29 24 31 25 32 26 33 72 34 27 35 71 36 28 37
REMARK SMILES IDX 29 38 30 39 65 40 31 41 70 42 64 43 66 44 32 45 69 46 63 47
REMARK SMILES IDX 62 48 33 50 55 51 40 52 54 53 41 54 44 55 53 56 67 57 42 58
REMARK SMILES IDX 43 59 52 61 68 62 45 63 34 64 35 65 39 66 36 67 38 68 37 69
REMARK SMILES IDX 56 70 57 71 61 72 58 73 60 74 59 75 46 76 47 77 51 78 48 79
REMARK SMILES IDX 50 80 49 81
REMARK H PARENT 17 6 9 14 6 24 6 25 22 30 66 49 44 60
REMARK Flexibility Score: inf
ROOT
ATOM      1  C   UNL     1      -1.560  -0.139   7.466  1.00  0.00     0.023 C 
ENDROOT
BRANCH   1   2
ATOM      2  C   UNL     1      -0.401   0.334   6.598  1.00  0.00     0.116 C 
BRANCH   2   3
ATOM      3  N   UNL     1       0.163   1.619   6.990  1.00  0.00    -0.352 N 
ATOM      4  C   UNL     1       1.477   2.011   7.147  1.00  0.00     0.251 C 
ATOM      5  O   UNL     1       1.716   3.159   7.518  1.00  0.00    -0.269 OA
ATOM      6  H   UNL     1      -0.502   2.321   7.174  1.00  0.00     0.163 HD
BRANCH   4   7
ATOM      7  C   UNL     1       2.603   1.061   6.944  1.00  0.00     0.041 A 
ATOM      8  C   UNL     1       3.484  -0.968   5.915  1.00  0.00     0.040 A 
ATOM      9  C   UNL     1       4.561  -0.917   6.810  1.00  0.00     0.026 A 
ATOM     10  C   UNL     1       2.568   0.088   5.945  1.00  0.00     0.040 A 
ATOM     11  C   UNL     1       4.694   0.141   7.717  1.00  0.00     0.003 A 
ATOM     12  C   UNL     1       3.704   1.120   7.800  1.00  0.00     0.014 A 
BRANCH   8  13
ATOM     13  N   UNL     1       3.302  -2.096   5.092  1.00  0.00    -0.340 N 
ATOM     14  H   UNL     1       3.901  -2.853   5.282  1.00  0.00     0.168 HD
BRANCH  13  15
ATOM     15  C   UNL     1       2.390  -2.304   4.037  1.00  0.00     0.137 A 
ATOM     16  C   UNL     1       0.960  -1.497   2.439  1.00  0.00     0.191 A 
ATOM     17  N   UNL     1       0.516  -2.707   2.088  1.00  0.00    -0.206 NA
ATOM     18  N   UNL     1       1.881  -1.255   3.377  1.00  0.00    -0.205 NA
ATOM     19  C   UNL     1       1.037  -3.741   2.750  1.00  0.00     0.130 A 
ATOM     20  C   UNL     1       1.971  -3.589   3.753  1.00  0.00     0.093 A 
BRANCH  16  21
ATOM     21  S   UNL     1       0.245  -0.083   1.648  1.00  0.00    -0.090 SA
ATOM     22  C   UNL     1       1.079  -0.249   0.058  1.00  0.00     0.094 C 
ENDBRANCH  16  21
BRANCH  19  23
ATOM     23  N   UNL     1       0.528  -4.986   2.437  1.00  0.00    -0.383 N 
ATOM     24  H   UNL     1      -0.138  -5.079   1.718  1.00  0.00     0.158 HD
ATOM     25  H   UNL     1       0.832  -5.781   2.932  1.00  0.00     0.158 HD
ENDBRANCH  19  23
ENDBRANCH  13  15
ENDBRANCH   8  13
ENDBRANCH   4   7
ENDBRANCH   2   3
ENDBRANCH   1   2
BRANCH   1  26
ATOM     26  C   UNL     1      -2.813   0.725   7.453  1.00  0.00     0.023 C 
BRANCH  26  27
ATOM     27  C   UNL     1      -3.369   1.077   6.078  1.00  0.00     0.116 C 
BRANCH  27  28
ATOM     28  N   UNL     1      -3.697  -0.081   5.257  1.00  0.00    -0.352 N 
ATOM     29  C   UNL     1      -4.871  -0.405   4.614  1.00  0.00     0.251 C 
ATOM     30  H   UNL     1      -2.967  -0.732   5.145  1.00  0.00     0.163 HD
ATOM     31  O   UNL     1      -4.981  -1.477   4.032  1.00  0.00    -0.269 OA
BRANCH  29  32
ATOM     32  C   UNL     1      -6.025   0.520   4.667  1.00  0.00     0.039 A 
ATOM     33  C   UNL     1      -7.288   0.001   4.967  1.00  0.00     0.014 A 
ATOM     34  C   UNL     1      -5.866   1.891   4.452  1.00  0.00     0.014 A 
ATOM     35  C   UNL     1      -8.367   0.867   5.153  1.00  0.00     0.010 A 
ATOM     36  C   UNL     1      -6.921   2.759   4.720  1.00  0.00     0.010 A 
ATOM     37  C   UNL     1      -8.180   2.257   5.085  1.00  0.00    -0.014 A 
BRANCH  37  38
ATOM     38  C   UNL     1      -9.277   3.201   5.418  1.00  0.00     0.031 A 
ATOM     39  C   UNL     1      -9.808   4.148   4.377  1.00  0.00     0.074 A 
ATOM     40  C   UNL     1      -9.744   3.261   6.681  1.00  0.00     0.049 A 
ATOM     41  N   UNL     1     -10.714   5.085   4.500  1.00  0.00    -0.248 NA
ATOM     42  C   UNL     1      -9.226   4.048   3.029  1.00  0.00     0.031 C 
ATOM     43  C   UNL     1      -9.282   2.433   7.798  1.00  0.00     0.029 A 
ATOM     44  N   UNL     1     -10.709   4.062   7.240  1.00  0.00    -0.354 N 
ATOM     45  C   UNL     1     -10.793   5.699   3.257  1.00  0.00     0.074 A 
ATOM     46  C   UNL     1      -9.813   5.059   2.406  1.00  0.00     0.031 C 
ATOM     47  C   UNL     1      -9.985   2.748   8.899  1.00  0.00     0.029 A 
ATOM     48  C   UNL     1     -10.916   3.824   8.578  1.00  0.00     0.049 A 
ATOM     49  H   UNL     1     -11.206   4.742   6.731  1.00  0.00     0.167 HD
ATOM     50  C   UNL     1     -11.619   6.693   2.851  1.00  0.00     0.031 A 
ATOM     51  C   UNL     1     -11.758   4.409   9.450  1.00  0.00     0.031 A 
ATOM     52  C   UNL     1     -12.607   7.319   3.688  1.00  0.00     0.049 A 
ATOM     53  C   UNL     1     -12.663   5.510   8.975  1.00  0.00     0.074 A 
ATOM     54  C   UNL     1     -13.536   8.286   3.348  1.00  0.00     0.029 A 
ATOM     55  N   UNL     1     -12.793   7.039   5.033  1.00  0.00    -0.354 N 
ATOM     56  N   UNL     1     -12.777   6.026   7.776  1.00  0.00    -0.248 NA
ATOM     57  C   UNL     1     -13.563   6.103   9.975  1.00  0.00     0.031 C 
ATOM     58  C   UNL     1     -14.255   8.625   4.499  1.00  0.00     0.029 A 
ATOM     59  C   UNL     1     -13.806   7.833   5.543  1.00  0.00     0.049 A 
ATOM     60  H   UNL     1     -12.280   6.376   5.548  1.00  0.00     0.167 HD
ATOM     61  C   UNL     1     -13.778   6.984   7.870  1.00  0.00     0.074 A 
ATOM     62  C   UNL     1     -14.249   6.967   9.240  1.00  0.00     0.031 C 
ATOM     63  C   UNL     1     -14.264   7.804   6.907  1.00  0.00     0.031 A 
BRANCH  50  64
ATOM     64  C   UNL     1     -11.482   7.167   1.432  1.00  0.00    -0.014 A 
ATOM     65  C   UNL     1     -11.895   6.367   0.355  1.00  0.00     0.009 A 
ATOM     66  C   UNL     1     -10.965   8.445   1.169  1.00  0.00     0.009 A 
ATOM     67  C   UNL     1     -11.756   6.821  -0.958  1.00  0.00     0.001 A 
ATOM     68  C   UNL     1     -10.854   8.908  -0.143  1.00  0.00     0.001 A 
ATOM     69  C   UNL     1     -11.240   8.092  -1.206  1.00  0.00     0.000 A 
ENDBRANCH  50  64
BRANCH  51  70
ATOM     70  C   UNL     1     -11.805   3.951  10.863  1.00  0.00    -0.014 A 
ATOM     71  C   UNL     1     -12.913   3.231  11.337  1.00  0.00     0.009 A 
ATOM     72  C   UNL     1     -10.755   4.241  11.747  1.00  0.00     0.009 A 
ATOM     73  C   UNL     1     -12.979   2.834  12.675  1.00  0.00     0.001 A 
ATOM     74  C   UNL     1     -10.812   3.819  13.077  1.00  0.00     0.001 A 
ATOM     75  C   UNL     1     -11.928   3.124  13.542  1.00  0.00     0.000 A 
ENDBRANCH  51  70
BRANCH  63  76
ATOM     76  C   UNL     1     -15.386   8.725   7.293  1.00  0.00    -0.014 A 
ATOM     77  C   UNL     1     -15.157   9.853   8.096  1.00  0.00     0.009 A 
ATOM     78  C   UNL     1     -16.682   8.479   6.816  1.00  0.00     0.009 A 
ATOM     79  C   UNL     1     -16.214  10.700   8.439  1.00  0.00     0.001 A 
ATOM     80  C   UNL     1     -17.730   9.342   7.137  1.00  0.00     0.001 A 
ATOM     81  C   UNL     1     -17.497  10.446   7.956  1.00  0.00     0.000 A 
ENDBRANCH  63  76
ENDBRANCH  37  38
ENDBRANCH  29  32
ENDBRANCH  27  28
ENDBRANCH  26  27
ENDBRANCH   1  26
TORSDOF 15
