REMARK SMILES Cc1nc2ccc(Cl)cc2cc1C(=O)N1CCC(C(=O)NCCCCNC(=O)c2ccc(-c3c4nc(c(-c5ccccc5)c5ccc([nH]5)c(-c5ccccc5)c5nc(c(-c6ccccc6)c6ccc3[nH]6)C=C5)C=C4)cc2)CC1
REMARK SMILES IDX 24 1 23 2 22 3 21 4 19 5 20 6 18 8 13 9 14 10 15 11 16 12
REMARK SMILES IDX 78 13 17 14 77 15 12 16 1 17 2 18 3 19 4 20 11 21 5 22 10 23
REMARK SMILES IDX 6 24 9 25 7 26 8 27 25 28 26 29 27 30 28 32 29 33 30 34
REMARK SMILES IDX 76 35 31 36 75 37 32 38 33 39 34 40 69 41 35 42 74 43 68 44
REMARK SMILES IDX 70 45 36 46 73 47 67 48 66 49 37 51 59 52 44 53 58 54 45 55
REMARK SMILES IDX 48 56 57 57 71 58 46 59 47 60 56 62 72 63 49 64 38 65 39 66
REMARK SMILES IDX 43 67 40 68 42 69 41 70 60 71 61 72 65 73 62 74 64 75 63 76
REMARK SMILES IDX 50 77 51 78 55 79 52 80 54 81 53 82
REMARK H PARENT 21 7 26 31 70 50 48 61
REMARK Flexibility Score: inf
ROOT
ATOM      1  C   UNL     1      -7.692  -8.346   0.899  1.00  0.00     0.023 C 
ENDROOT
BRANCH   1   2
ATOM      2  C   UNL     1      -6.824  -7.151   0.523  1.00  0.00     0.023 C 
BRANCH   2   3
ATOM      3  C   UNL     1      -5.718  -6.838   1.528  1.00  0.00     0.116 C 
BRANCH   3   4
ATOM      4  N   UNL     1      -4.707  -7.883   1.561  1.00  0.00    -0.356 N 
ATOM      5  C   UNL     1      -3.399  -7.859   1.185  1.00  0.00     0.223 C 
ATOM      6  O   UNL     1      -2.746  -8.900   1.286  1.00  0.00    -0.275 OA
ATOM      7  H   UNL     1      -5.019  -8.747   1.913  1.00  0.00     0.163 HD
BRANCH   5   8
ATOM      8  C   UNL     1      -2.749  -6.586   0.667  1.00  0.00     0.082 C 
ATOM      9  C   UNL     1      -3.509  -2.509  -0.250  1.00  0.00     0.255 C 
ATOM     10  O   UNL     1      -4.562  -2.326  -0.853  1.00  0.00    -0.269 OA
ATOM     11  N   UNL     1      -3.042  -3.794   0.043  1.00  0.00    -0.339 N 
ATOM     12  C   UNL     1      -3.009  -4.736  -1.060  1.00  0.00     0.120 C 
ATOM     13  C   UNL     1      -2.278  -4.152   1.237  1.00  0.00     0.120 C 
ATOM     14  C   UNL     1      -3.390  -6.141  -0.652  1.00  0.00     0.035 C 
ATOM     15  C   UNL     1      -2.680  -5.518   1.771  1.00  0.00     0.035 C 
BRANCH   9  16
ATOM     16  C   UNL     1      -2.585  -1.362  -0.019  1.00  0.00     0.061 A 
ATOM     17  C   UNL     1      -4.438   0.389   0.200  1.00  0.00     0.067 C 
ATOM     18  C   UNL     1      -3.001  -0.040   0.144  1.00  0.00     0.051 A 
ATOM     19  N   UNL     1      -2.109   0.997   0.198  1.00  0.00    -0.252 NA
ATOM     20  C   UNL     1      -0.789   0.750   0.097  1.00  0.00     0.071 A 
ATOM     21  C   UNL     1      -1.211  -1.593  -0.147  1.00  0.00     0.026 A 
ATOM     22  C   UNL     1       0.133   1.790   0.123  1.00  0.00     0.030 A 
ATOM     23  C   UNL     1      -0.292  -0.553  -0.056  1.00  0.00     0.002 A 
ATOM     24  C   UNL     1       1.512   1.554   0.036  1.00  0.00     0.023 A 
ATOM     25  C   UNL     1       1.086  -0.806  -0.135  1.00  0.00     0.030 A 
ATOM     26  C   UNL     1       1.983   0.252  -0.079  1.00  0.00     0.041 A 
ATOM     27  Cl  UNL     1       3.671  -0.059  -0.153  1.00  0.00    -0.084 Cl
ENDBRANCH   9  16
ENDBRANCH   5   8
ENDBRANCH   3   4
ENDBRANCH   2   3
ENDBRANCH   1   2
BRANCH   1  28
ATOM     28  C   UNL     1      -8.301  -8.272   2.290  1.00  0.00     0.116 C 
BRANCH  28  29
ATOM     29  N   UNL     1      -9.110  -7.079   2.494  1.00  0.00    -0.352 N 
ATOM     30  C   UNL     1     -10.347  -6.975   3.078  1.00  0.00     0.251 C 
ATOM     31  H   UNL     1      -8.718  -6.236   2.170  1.00  0.00     0.163 HD
ATOM     32  O   UNL     1     -10.963  -5.915   3.052  1.00  0.00    -0.269 OA
BRANCH  30  33
ATOM     33  C   UNL     1     -10.942  -8.164   3.718  1.00  0.00     0.039 A 
ATOM     34  C   UNL     1     -12.275  -8.481   3.449  1.00  0.00     0.014 A 
ATOM     35  C   UNL     1     -10.175  -8.977   4.557  1.00  0.00     0.014 A 
ATOM     36  C   UNL     1     -12.826  -9.641   3.993  1.00  0.00     0.010 A 
ATOM     37  C   UNL     1     -10.695 -10.180   5.014  1.00  0.00     0.010 A 
ATOM     38  C   UNL     1     -12.034 -10.511   4.760  1.00  0.00    -0.014 A 
BRANCH  38  39
ATOM     39  C   UNL     1     -12.602 -11.746   5.351  1.00  0.00     0.031 A 
ATOM     40  C   UNL     1     -12.655 -11.903   6.847  1.00  0.00     0.074 A 
ATOM     41  C   UNL     1     -13.023 -12.743   4.552  1.00  0.00     0.049 A 
ATOM     42  N   UNL     1     -13.089 -12.913   7.558  1.00  0.00    -0.248 NA
ATOM     43  C   UNL     1     -12.118 -10.792   7.649  1.00  0.00     0.031 C 
ATOM     44  C   UNL     1     -12.979 -12.735   3.089  1.00  0.00     0.029 A 
ATOM     45  N   UNL     1     -13.571 -13.962   4.863  1.00  0.00    -0.354 N 
ATOM     46  C   UNL     1     -12.857 -12.565   8.883  1.00  0.00     0.074 A 
ATOM     47  C   UNL     1     -12.182 -11.287   8.874  1.00  0.00     0.031 C 
ATOM     48  C   UNL     1     -13.510 -13.880   2.629  1.00  0.00     0.029 A 
ATOM     49  C   UNL     1     -13.897 -14.714   3.762  1.00  0.00     0.049 A 
ATOM     50  H   UNL     1     -13.717 -14.267   5.787  1.00  0.00     0.167 HD
ATOM     51  C   UNL     1     -13.200 -13.232  10.010  1.00  0.00     0.031 A 
ATOM     52  C   UNL     1     -14.448 -15.939   3.675  1.00  0.00     0.031 A 
ATOM     53  C   UNL     1     -13.875 -14.502  10.017  1.00  0.00     0.049 A 
ATOM     54  C   UNL     1     -14.824 -16.665   4.936  1.00  0.00     0.074 A 
ATOM     55  C   UNL     1     -14.314 -15.241  11.101  1.00  0.00     0.029 A 
ATOM     56  N   UNL     1     -14.204 -15.225   8.880  1.00  0.00    -0.354 N 
ATOM     57  N   UNL     1     -14.667 -16.293   6.184  1.00  0.00    -0.248 NA
ATOM     58  C   UNL     1     -15.477 -17.971   4.775  1.00  0.00     0.031 C 
ATOM     59  C   UNL     1     -14.858 -16.437  10.621  1.00  0.00     0.029 A 
ATOM     60  C   UNL     1     -14.822 -16.411   9.236  1.00  0.00     0.049 A 
ATOM     61  H   UNL     1     -14.024 -14.936   7.955  1.00  0.00     0.167 HD
ATOM     62  C   UNL     1     -15.230 -17.301   6.955  1.00  0.00     0.074 A 
ATOM     63  C   UNL     1     -15.744 -18.294   6.032  1.00  0.00     0.031 C 
ATOM     64  C   UNL     1     -15.322 -17.393   8.306  1.00  0.00     0.031 A 
BRANCH  51  65
ATOM     65  C   UNL     1     -12.827 -12.595  11.322  1.00  0.00    -0.014 A 
ATOM     66  C   UNL     1     -13.412 -11.389  11.743  1.00  0.00     0.009 A 
ATOM     67  C   UNL     1     -11.864 -13.201  12.143  1.00  0.00     0.009 A 
ATOM     68  C   UNL     1     -12.998 -10.774  12.927  1.00  0.00     0.001 A 
ATOM     69  C   UNL     1     -11.480 -12.604  13.346  1.00  0.00     0.001 A 
ATOM     70  C   UNL     1     -12.034 -11.383  13.728  1.00  0.00     0.000 A 
ENDBRANCH  51  65
BRANCH  52  71
ATOM     71  C   UNL     1     -14.710 -16.535   2.339  1.00  0.00    -0.014 A 
ATOM     72  C   UNL     1     -16.021 -16.656   1.855  1.00  0.00     0.009 A 
ATOM     73  C   UNL     1     -13.646 -16.965   1.530  1.00  0.00     0.009 A 
ATOM     74  C   UNL     1     -16.263 -17.215   0.598  1.00  0.00     0.001 A 
ATOM     75  C   UNL     1     -13.889 -17.496   0.262  1.00  0.00     0.001 A 
ATOM     76  C   UNL     1     -15.197 -17.628  -0.200  1.00  0.00     0.000 A 
ENDBRANCH  52  71
BRANCH  64  77
ATOM     77  C   UNL     1     -16.047 -18.587   8.866  1.00  0.00    -0.014 A 
ATOM     78  C   UNL     1     -15.507 -19.880   8.792  1.00  0.00     0.009 A 
ATOM     79  C   UNL     1     -17.284 -18.403   9.505  1.00  0.00     0.009 A 
ATOM     80  C   UNL     1     -16.212 -20.969   9.309  1.00  0.00     0.001 A 
ATOM     81  C   UNL     1     -17.969 -19.488  10.051  1.00  0.00     0.001 A 
ATOM     82  C   UNL     1     -17.439 -20.772   9.941  1.00  0.00     0.000 A 
ENDBRANCH  64  77
ENDBRANCH  38  39
ENDBRANCH  30  33
ENDBRANCH  28  29
ENDBRANCH   1  28
TORSDOF 12
