REMARK SMILES C[C@@H](C(=O)NCCCCNC(=O)c1ccc(-c2c3nc(c(-c4ccccc4)c4ccc([nH]4)c(-c4ccccc4)c4nc(c(-c5ccccc5)c5ccc2[nH]5)C=C4)C=C3)cc1)c1ccccc1-c1ccn(C(F)F)c(=O)c1
REMARK SMILES IDX 7 1 6 2 5 3 3 4 4 5 2 7 1 8 61 9 62 10 66 11 63 12 65 13
REMARK SMILES IDX 64 14 67 15 68 16 76 17 69 18 74 19 70 20 75 21 71 22 72 23
REMARK SMILES IDX 73 24 8 25 9 26 10 27 11 28 12 30 13 31 14 32 60 33 15 34
REMARK SMILES IDX 59 35 16 36 17 37 18 38 53 39 19 40 58 41 52 42 54 43 20 44
REMARK SMILES IDX 57 45 51 46 50 47 21 49 43 50 28 51 42 52 29 53 32 54 41 55
REMARK SMILES IDX 55 56 30 57 31 58 40 60 56 61 33 62 22 63 23 64 27 65 24 66
REMARK SMILES IDX 26 67 25 68 44 69 45 70 49 71 46 72 48 73 47 74 34 75 35 76
REMARK SMILES IDX 39 77 36 78 38 79 37 80
REMARK H PARENT 5 6 10 29 54 48 32 59
REMARK Flexibility Score: inf
ROOT
ATOM      1  C   UNL     1       4.280   0.061   1.118  1.00  0.00     0.023 C 
ENDROOT
BRANCH   1   2
ATOM      2  C   UNL     1       3.470  -1.228   1.261  1.00  0.00     0.116 C 
BRANCH   2   3
ATOM      3  N   UNL     1       2.422  -1.070   2.246  1.00  0.00    -0.356 N 
ATOM      4  C   UNL     1       1.087  -0.850   2.079  1.00  0.00     0.227 C 
ATOM      5  O   UNL     1       0.439  -0.627   3.104  1.00  0.00    -0.274 OA
ATOM      6  H   UNL     1       2.719  -1.131   3.183  1.00  0.00     0.163 HD
BRANCH   4   7
ATOM      7  C   UNL     1       0.451  -0.935   0.679  1.00  0.00     0.106 C 
ATOM      8  C   UNL     1       0.840   0.259  -0.200  1.00  0.00     0.023 C 
BRANCH   7   9
ATOM      9  C   UNL     1      -1.070  -1.110   0.785  1.00  0.00    -0.028 A 
ATOM     10  C   UNL     1      -1.893   0.026   0.928  1.00  0.00     0.005 A 
ATOM     11  C   UNL     1      -1.679  -2.388   0.805  1.00  0.00    -0.014 A 
ATOM     12  C   UNL     1      -3.276  -0.090   1.056  1.00  0.00     0.000 A 
ATOM     13  C   UNL     1      -3.075  -2.488   0.949  1.00  0.00     0.009 A 
ATOM     14  C   UNL     1      -3.868  -1.346   1.066  1.00  0.00     0.001 A 
BRANCH  11  15
ATOM     15  C   UNL     1      -0.902  -3.640   0.671  1.00  0.00    -0.011 A 
ATOM     16  C   UNL     1       0.016  -4.119   1.687  1.00  0.00     0.027 A 
ATOM     17  C   UNL     1      -1.029  -4.335  -0.473  1.00  0.00     0.080 A 
ATOM     18  C   UNL     1       0.790  -5.186   1.454  1.00  0.00     0.095 A 
ATOM     19  C   UNL     1      -0.209  -5.551  -0.728  1.00  0.00     0.255 A 
ATOM     20  N   UNL     1       0.702  -5.883   0.263  1.00  0.00    -0.258 N 
ATOM     21  O   UNL     1      -0.367  -6.154  -1.784  1.00  0.00    -0.269 OA
BRANCH  20  22
ATOM     22  C   UNL     1       1.570  -7.001  -0.001  1.00  0.00     0.451 C 
ATOM     23  F   UNL     1       0.863  -8.139  -0.200  1.00  0.00    -0.185 F 
ATOM     24  F   UNL     1       2.325  -6.775  -1.104  1.00  0.00    -0.185 F 
ENDBRANCH  20  22
ENDBRANCH  11  15
ENDBRANCH   7   9
ENDBRANCH   4   7
ENDBRANCH   2   3
ENDBRANCH   1   2
BRANCH   1  25
ATOM     25  C   UNL     1       5.065   0.463   2.371  1.00  0.00     0.023 C 
BRANCH  25  26
ATOM     26  C   UNL     1       6.044  -0.585   2.887  1.00  0.00     0.116 C 
BRANCH  26  27
ATOM     27  N   UNL     1       7.045  -0.955   1.900  1.00  0.00    -0.352 N 
ATOM     28  C   UNL     1       8.400  -1.108   2.057  1.00  0.00     0.251 C 
ATOM     29  H   UNL     1       6.703  -1.119   0.991  1.00  0.00     0.163 HD
ATOM     30  O   UNL     1       9.117  -1.284   1.075  1.00  0.00    -0.269 OA
BRANCH  28  31
ATOM     31  C   UNL     1       8.999  -1.030   3.405  1.00  0.00     0.039 A 
ATOM     32  C   UNL     1      10.156  -0.269   3.584  1.00  0.00     0.014 A 
ATOM     33  C   UNL     1       8.420  -1.696   4.489  1.00  0.00     0.014 A 
ATOM     34  C   UNL     1      10.696  -0.123   4.863  1.00  0.00     0.010 A 
ATOM     35  C   UNL     1       8.914  -1.487   5.773  1.00  0.00     0.010 A 
ATOM     36  C   UNL     1      10.059  -0.701   5.973  1.00  0.00    -0.014 A 
BRANCH  36  37
ATOM     37  C   UNL     1      10.574  -0.489   7.350  1.00  0.00     0.031 A 
ATOM     38  C   UNL     1      11.070  -1.653   8.163  1.00  0.00     0.074 A 
ATOM     39  C   UNL     1      10.544   0.745   7.890  1.00  0.00     0.049 A 
ATOM     40  N   UNL     1      11.515  -1.670   9.394  1.00  0.00    -0.248 NA
ATOM     41  C   UNL     1      11.038  -2.977   7.519  1.00  0.00     0.031 C 
ATOM     42  C   UNL     1      10.049   1.951   7.222  1.00  0.00     0.029 A 
ATOM     43  N   UNL     1      10.934   1.188   9.129  1.00  0.00    -0.354 N 
ATOM     44  C   UNL     1      11.800  -3.000   9.675  1.00  0.00     0.074 A 
ATOM     45  C   UNL     1      11.429  -3.768   8.507  1.00  0.00     0.031 C 
ATOM     46  C   UNL     1      10.194   3.001   8.047  1.00  0.00     0.029 A 
ATOM     47  C   UNL     1      10.749   2.537   9.315  1.00  0.00     0.049 A 
ATOM     48  H   UNL     1      11.310   0.596   9.819  1.00  0.00     0.167 HD
ATOM     49  C   UNL     1      12.342  -3.534  10.796  1.00  0.00     0.031 A 
ATOM     50  C   UNL     1      10.991   3.314  10.387  1.00  0.00     0.031 A 
ATOM     51  C   UNL     1      12.717  -2.769  11.956  1.00  0.00     0.049 A 
ATOM     52  C   UNL     1      11.576   2.694  11.626  1.00  0.00     0.074 A 
ATOM     53  C   UNL     1      13.325  -3.211  13.118  1.00  0.00     0.029 A 
ATOM     54  N   UNL     1      12.516  -1.406  12.102  1.00  0.00    -0.354 N 
ATOM     55  N   UNL     1      11.908   1.446  11.848  1.00  0.00    -0.248 NA
ATOM     56  C   UNL     1      11.831   3.596  12.758  1.00  0.00     0.031 C 
ATOM     57  C   UNL     1      13.437  -2.126  13.992  1.00  0.00     0.029 A 
ATOM     58  C   UNL     1      12.961  -0.995  13.348  1.00  0.00     0.049 A 
ATOM     59  H   UNL     1      12.116  -0.817  11.422  1.00  0.00     0.167 HD
ATOM     60  C   UNL     1      12.438   1.417  13.132  1.00  0.00     0.074 A 
ATOM     61  C   UNL     1      12.400   2.776  13.630  1.00  0.00     0.031 C 
ATOM     62  C   UNL     1      12.915   0.360  13.833  1.00  0.00     0.031 A 
BRANCH  49  63
ATOM     63  C   UNL     1      12.552  -5.023  10.824  1.00  0.00    -0.014 A 
ATOM     64  C   UNL     1      13.519  -5.640  10.014  1.00  0.00     0.009 A 
ATOM     65  C   UNL     1      11.799  -5.817  11.704  1.00  0.00     0.009 A 
ATOM     66  C   UNL     1      13.701  -7.024  10.057  1.00  0.00     0.001 A 
ATOM     67  C   UNL     1      12.005  -7.196  11.768  1.00  0.00     0.001 A 
ATOM     68  C   UNL     1      12.948  -7.800  10.938  1.00  0.00     0.000 A 
ENDBRANCH  49  63
BRANCH  50  69
ATOM     69  C   UNL     1      10.692   4.770  10.336  1.00  0.00    -0.014 A 
ATOM     70  C   UNL     1      11.731   5.713  10.336  1.00  0.00     0.009 A 
ATOM     71  C   UNL     1       9.365   5.225  10.297  1.00  0.00     0.009 A 
ATOM     72  C   UNL     1      11.447   7.081  10.329  1.00  0.00     0.001 A 
ATOM     73  C   UNL     1       9.084   6.592  10.257  1.00  0.00     0.001 A 
ATOM     74  C   UNL     1      10.124   7.519  10.284  1.00  0.00     0.000 A 
ENDBRANCH  50  69
BRANCH  62  75
ATOM     75  C   UNL     1      13.471   0.637  15.203  1.00  0.00    -0.014 A 
ATOM     76  C   UNL     1      12.637   0.987  16.276  1.00  0.00     0.009 A 
ATOM     77  C   UNL     1      14.851   0.508  15.429  1.00  0.00     0.009 A 
ATOM     78  C   UNL     1      13.180   1.239  17.538  1.00  0.00     0.001 A 
ATOM     79  C   UNL     1      15.386   0.727  16.699  1.00  0.00     0.001 A 
ATOM     80  C   UNL     1      14.551   1.103  17.750  1.00  0.00     0.000 A 
ENDBRANCH  62  75
ENDBRANCH  36  37
ENDBRANCH  28  31
ENDBRANCH  26  27
ENDBRANCH  25  26
ENDBRANCH   1  25
TORSDOF 14
