REMARK SMILES C[C@@H]1CCC[C@@H](C)C1[N@H+]1CCO[C@H](CC(=O)NCCCCNC(=O)c2ccc(-c3c4nc(c(-c5ccccc5)c5ccc([nH]5)c(-c5ccccc5)c5nc(c(-c6ccccc6)c6ccc3[nH]6)C=C5)C=C4)cc2)C1
REMARK SMILES IDX 19 1 18 2 17 3 15 4 16 5 14 7 13 8 9 9 10 10 73 11 11 13
REMARK SMILES IDX 12 14 8 15 1 16 2 17 3 18 4 19 6 20 5 21 7 22 20 23 21 24
REMARK SMILES IDX 22 25 23 26 24 28 25 29 26 30 72 31 27 32 71 33 28 34 29 35
REMARK SMILES IDX 30 36 65 37 31 38 70 39 64 40 66 41 32 42 69 43 63 44 62 45
REMARK SMILES IDX 33 47 55 48 40 49 54 50 41 51 44 52 53 53 67 54 42 55 43 56
REMARK SMILES IDX 52 58 68 59 45 60 34 61 35 62 39 63 36 64 38 65 37 66 56 67
REMARK SMILES IDX 57 68 61 69 58 70 60 71 59 72 46 73 47 74 51 75 48 76 50 77
REMARK SMILES IDX 49 78
REMARK H PARENT 17 6 9 12 22 27 66 46 44 57
REMARK Flexibility Score: inf
ROOT
ATOM      1  C   UNL     1       0.694   2.044  -3.002  1.00  0.00     0.023 C 
ENDROOT
BRANCH   1   2
ATOM      2  C   UNL     1      -0.825   2.045  -3.199  1.00  0.00     0.116 C 
BRANCH   2   3
ATOM      3  N   UNL     1      -1.209   1.680  -4.551  1.00  0.00    -0.356 N 
ATOM      4  C   UNL     1      -1.945   0.635  -5.019  1.00  0.00     0.222 C 
ATOM      5  O   UNL     1      -2.102   0.544  -6.237  1.00  0.00    -0.275 OA
ATOM      6  H   UNL     1      -0.881   2.294  -5.247  1.00  0.00     0.163 HD
BRANCH   4   7
ATOM      7  C   UNL     1      -2.584  -0.352  -4.072  1.00  0.00     0.138 C 
BRANCH   7   8
ATOM      8  C   UNL     1      -1.657  -1.342  -3.364  1.00  0.00     0.182 C 
ATOM      9  N   UNL     1       0.649  -2.274  -3.009  1.00  0.00    -0.328 N 
ATOM     10  C   UNL     1       0.019  -3.588  -2.893  1.00  0.00     0.291 C 
ATOM     11  C   UNL     1      -0.200  -1.415  -3.859  1.00  0.00     0.295 C 
ATOM     12  H   UNL     1       1.542  -2.493  -3.450  1.00  0.00     0.348 HD
ATOM     13  C   UNL     1      -1.507  -3.596  -2.656  1.00  0.00     0.222 C 
ATOM     14  O   UNL     1      -2.224  -2.665  -3.481  1.00  0.00    -0.366 OA
BRANCH   9  15
ATOM     15  C   UNL     1       1.400  -1.623  -1.910  1.00  0.00     0.189 C 
ATOM     16  C   UNL     1       1.349   0.069   0.047  1.00  0.00     0.014 C 
ATOM     17  C   UNL     1       0.603  -1.073  -0.685  1.00  0.00     0.045 C 
ATOM     18  C   UNL     1       0.247  -2.181   0.312  1.00  0.00     0.009 C 
ATOM     19  C   UNL     1       1.465  -2.951   0.803  1.00  0.00     0.001 C 
ATOM     20  C   UNL     1       2.648  -2.414  -1.389  1.00  0.00     0.045 C 
ATOM     21  C   UNL     1       2.335  -3.483  -0.333  1.00  0.00     0.009 C 
ATOM     22  C   UNL     1       3.529  -2.959  -2.514  1.00  0.00     0.014 C 
ENDBRANCH   9  15
ENDBRANCH   7   8
ENDBRANCH   4   7
ENDBRANCH   2   3
ENDBRANCH   1   2
BRANCH   1  23
ATOM     23  C   UNL     1       1.495   2.924  -3.952  1.00  0.00     0.023 C 
BRANCH  23  24
ATOM     24  C   UNL     1       1.281   4.404  -3.711  1.00  0.00     0.116 C 
BRANCH  24  25
ATOM     25  N   UNL     1       1.737   4.818  -2.386  1.00  0.00    -0.352 N 
ATOM     26  C   UNL     1       2.588   5.837  -2.042  1.00  0.00     0.251 C 
ATOM     27  H   UNL     1       1.383   4.290  -1.634  1.00  0.00     0.163 HD
ATOM     28  O   UNL     1       3.003   5.945  -0.901  1.00  0.00    -0.269 OA
BRANCH  26  29
ATOM     29  C   UNL     1       3.013   6.790  -3.088  1.00  0.00     0.039 A 
ATOM     30  C   UNL     1       4.363   7.133  -3.192  1.00  0.00     0.014 A 
ATOM     31  C   UNL     1       2.077   7.299  -3.991  1.00  0.00     0.014 A 
ATOM     32  C   UNL     1       4.784   7.935  -4.252  1.00  0.00     0.010 A 
ATOM     33  C   UNL     1       2.512   8.009  -5.097  1.00  0.00     0.010 A 
ATOM     34  C   UNL     1       3.868   8.346  -5.232  1.00  0.00    -0.014 A 
BRANCH  34  35
ATOM     35  C   UNL     1       4.274   9.165  -6.398  1.00  0.00     0.031 A 
ATOM     36  C   UNL     1       3.673  10.531  -6.580  1.00  0.00     0.074 A 
ATOM     37  C   UNL     1       5.090   8.648  -7.335  1.00  0.00     0.049 A 
ATOM     38  N   UNL     1       3.760  11.344  -7.600  1.00  0.00    -0.248 NA
ATOM     39  C   UNL     1       2.826  11.031  -5.482  1.00  0.00     0.031 C 
ATOM     40  C   UNL     1       5.707   7.321  -7.293  1.00  0.00     0.029 A 
ATOM     41  N   UNL     1       5.526   9.180  -8.522  1.00  0.00    -0.354 N 
ATOM     42  C   UNL     1       2.950  12.427  -7.285  1.00  0.00     0.074 A 
ATOM     43  C   UNL     1       2.343  12.148  -6.003  1.00  0.00     0.031 C 
ATOM     44  C   UNL     1       6.460   7.152  -8.393  1.00  0.00     0.029 A 
ATOM     45  C   UNL     1       6.341   8.336  -9.236  1.00  0.00     0.049 A 
ATOM     46  H   UNL     1       5.278  10.081  -8.833  1.00  0.00     0.167 HD
ATOM     47  C   UNL     1       2.743  13.563  -7.990  1.00  0.00     0.031 A 
ATOM     48  C   UNL     1       6.918   8.498 -10.442  1.00  0.00     0.031 A 
ATOM     49  C   UNL     1       3.375  13.854  -9.247  1.00  0.00     0.049 A 
ATOM     50  C   UNL     1       6.686   9.775 -11.200  1.00  0.00     0.074 A 
ATOM     51  C   UNL     1       3.284  15.002 -10.012  1.00  0.00     0.029 A 
ATOM     52  N   UNL     1       4.225  12.988  -9.917  1.00  0.00    -0.354 N 
ATOM     53  N   UNL     1       5.957  10.812 -10.867  1.00  0.00    -0.248 NA
ATOM     54  C   UNL     1       7.365   9.906 -12.496  1.00  0.00     0.031 C 
ATOM     55  C   UNL     1       4.053  14.817 -11.166  1.00  0.00     0.029 A 
ATOM     56  C   UNL     1       4.659  13.573 -11.093  1.00  0.00     0.049 A 
ATOM     57  H   UNL     1       4.483  12.091  -9.602  1.00  0.00     0.167 HD
ATOM     58  C   UNL     1       6.114  11.731 -11.896  1.00  0.00     0.074 A 
ATOM     59  C   UNL     1       7.015  11.132 -12.859  1.00  0.00     0.031 C 
ATOM     60  C   UNL     1       5.564  12.962 -12.031  1.00  0.00     0.031 A 
BRANCH  47  61
ATOM     61  C   UNL     1       1.790  14.569  -7.410  1.00  0.00    -0.014 A 
ATOM     62  C   UNL     1       2.120  15.306  -6.260  1.00  0.00     0.009 A 
ATOM     63  C   UNL     1       0.551  14.794  -8.028  1.00  0.00     0.009 A 
ATOM     64  C   UNL     1       1.211  16.215  -5.718  1.00  0.00     0.001 A 
ATOM     65  C   UNL     1      -0.344  15.726  -7.501  1.00  0.00     0.001 A 
ATOM     66  C   UNL     1      -0.018  16.427  -6.340  1.00  0.00     0.000 A 
ENDBRANCH  47  61
BRANCH  48  67
ATOM     67  C   UNL     1       7.788   7.431 -11.000  1.00  0.00    -0.014 A 
ATOM     68  C   UNL     1       9.178   7.614 -11.063  1.00  0.00     0.009 A 
ATOM     69  C   UNL     1       7.239   6.231 -11.476  1.00  0.00     0.009 A 
ATOM     70  C   UNL     1       9.998   6.628 -11.615  1.00  0.00     0.001 A 
ATOM     71  C   UNL     1       8.064   5.236 -12.004  1.00  0.00     0.001 A 
ATOM     72  C   UNL     1       9.441   5.439 -12.082  1.00  0.00     0.000 A 
ENDBRANCH  48  67
BRANCH  60  73
ATOM     73  C   UNL     1       5.960  13.763 -13.237  1.00  0.00    -0.014 A 
ATOM     74  C   UNL     1       5.459  13.457 -14.512  1.00  0.00     0.009 A 
ATOM     75  C   UNL     1       6.806  14.872 -13.083  1.00  0.00     0.009 A 
ATOM     76  C   UNL     1       5.822  14.234 -15.614  1.00  0.00     0.001 A 
ATOM     77  C   UNL     1       7.145  15.661 -14.181  1.00  0.00     0.001 A 
ATOM     78  C   UNL     1       6.659  15.337 -15.447  1.00  0.00     0.000 A 
ENDBRANCH  60  73
ENDBRANCH  34  35
ENDBRANCH  26  29
ENDBRANCH  24  25
ENDBRANCH  23  24
ENDBRANCH   1  23
TORSDOF 13
