REMARK SMILES COc1cccc(-c2c(C(=O)NCCCCNC(=O)c3ccc(-c4c5nc(c(-c6ccccc6)c6ccc([nH]6)c(-c6ccccc6)c6nc(c(-c7ccccc7)c7ccc4[nH]7)C=C6)C=C5)cc3)nnn2Cc2ccc(OC(F)(F)F)cc2)c1
REMARK SMILES IDX 13 1 12 2 10 3 11 4 9 6 8 7 70 8 68 9 69 10 7 11 3 12 4 13
REMARK SMILES IDX 83 14 5 15 6 16 2 17 1 18 71 19 72 20 73 21 82 22 74 23
REMARK SMILES IDX 81 24 75 25 76 26 77 27 78 28 79 29 80 30 14 31 15 32 16 33
REMARK SMILES IDX 17 34 18 35 19 37 20 38 21 39 67 40 22 41 66 42 23 43 24 44
REMARK SMILES IDX 25 45 60 46 26 47 65 48 59 49 61 50 27 51 64 52 58 53 57 54
REMARK SMILES IDX 28 56 50 57 35 58 49 59 36 60 39 61 48 62 62 63 37 64 38 65
REMARK SMILES IDX 47 67 63 68 40 69 29 70 30 71 34 72 31 73 33 74 32 75 51 76
REMARK SMILES IDX 52 77 56 78 53 79 55 80 54 81 41 82 42 83 46 84 43 85 45 86
REMARK SMILES IDX 44 87
REMARK H PARENT 12 5 17 36 61 55 39 66
REMARK Flexibility Score: inf
ROOT
ATOM      1  C   UNL     1       1.684  -5.352   0.212  1.00  0.00     0.116 C 
ENDROOT
BRANCH   1   2
ATOM      2  N   UNL     1       2.832  -6.205   0.112  1.00  0.00    -0.351 N 
ATOM      3  C   UNL     1       4.094  -6.087   0.661  1.00  0.00     0.274 C 
ATOM      4  O   UNL     1       4.818  -7.070   0.459  1.00  0.00    -0.267 OA
ATOM      5  H   UNL     1       2.699  -7.009  -0.441  1.00  0.00     0.163 HD
BRANCH   3   6
ATOM      6  C   UNL     1       4.623  -4.910   1.385  1.00  0.00     0.178 A 
ATOM      7  C   UNL     1       4.103  -3.801   2.072  1.00  0.00     0.102 A 
ATOM      8  N   UNL     1       5.231  -3.106   2.468  1.00  0.00    -0.239 N 
ATOM      9  N   UNL     1       6.007  -4.807   1.421  1.00  0.00    -0.124 NA
ATOM     10  N   UNL     1       6.353  -3.689   2.024  1.00  0.00    -0.066 NA
BRANCH   7  11
ATOM     11  C   UNL     1       2.763  -3.289   2.356  1.00  0.00     0.006 A 
ATOM     12  C   UNL     1       0.986  -1.721   1.776  1.00  0.00     0.119 A 
ATOM     13  C   UNL     1       0.119  -2.430   2.609  1.00  0.00     0.046 A 
ATOM     14  C   UNL     1       2.304  -2.154   1.650  1.00  0.00     0.056 A 
ATOM     15  C   UNL     1       0.564  -3.548   3.322  1.00  0.00     0.005 A 
ATOM     16  C   UNL     1       1.890  -3.971   3.210  1.00  0.00     0.011 A 
BRANCH  12  17
ATOM     17  O   UNL     1       0.433  -0.636   1.157  1.00  0.00    -0.497 OA
ATOM     18  C   UNL     1       1.125  -0.084   0.042  1.00  0.00     0.278 C 
ENDBRANCH  12  17
ENDBRANCH   7  11
BRANCH   8  19
ATOM     19  C   UNL     1       5.330  -1.829   3.162  1.00  0.00     0.182 C 
BRANCH  19  20
ATOM     20  C   UNL     1       5.848  -1.974   4.570  1.00  0.00    -0.026 A 
ATOM     21  C   UNL     1       5.025  -1.719   5.673  1.00  0.00     0.009 A 
ATOM     22  C   UNL     1       7.181  -2.340   4.796  1.00  0.00     0.009 A 
ATOM     23  C   UNL     1       5.536  -1.825   6.970  1.00  0.00     0.047 A 
ATOM     24  C   UNL     1       7.685  -2.459   6.092  1.00  0.00     0.047 A 
ATOM     25  C   UNL     1       6.866  -2.197   7.188  1.00  0.00     0.129 A 
BRANCH  25  26
ATOM     26  O   UNL     1       7.236  -2.259   8.501  1.00  0.00    -0.406 OA
BRANCH  26  27
ATOM     27  C   UNL     1       8.552  -2.705   8.786  1.00  0.00     0.573 C 
ATOM     28  F   UNL     1       8.752  -3.959   8.326  1.00  0.00    -0.132 F 
ATOM     29  F   UNL     1       9.476  -1.876   8.254  1.00  0.00    -0.132 F 
ATOM     30  F   UNL     1       8.725  -2.717  10.126  1.00  0.00    -0.132 F 
ENDBRANCH  26  27
ENDBRANCH  25  26
ENDBRANCH  19  20
ENDBRANCH   8  19
ENDBRANCH   3   6
ENDBRANCH   1   2
BRANCH   1  31
ATOM     31  C   UNL     1       1.074  -4.844  -1.084  1.00  0.00     0.023 C 
BRANCH  31  32
ATOM     32  C   UNL     1       0.072  -5.758  -1.777  1.00  0.00     0.023 C 
BRANCH  32  33
ATOM     33  C   UNL     1      -1.092  -6.212  -0.906  1.00  0.00     0.116 C 
BRANCH  33  34
ATOM     34  N   UNL     1      -1.942  -5.125  -0.423  1.00  0.00    -0.352 N 
ATOM     35  C   UNL     1      -3.096  -5.257   0.336  1.00  0.00     0.251 C 
ATOM     36  H   UNL     1      -1.668  -4.209  -0.658  1.00  0.00     0.163 HD
ATOM     37  O   UNL     1      -3.939  -4.384   0.394  1.00  0.00    -0.269 OA
BRANCH  35  38
ATOM     38  C   UNL     1      -3.247  -6.498   1.119  1.00  0.00     0.039 A 
ATOM     39  C   UNL     1      -4.418  -7.258   1.090  1.00  0.00     0.014 A 
ATOM     40  C   UNL     1      -2.129  -6.913   1.840  1.00  0.00     0.014 A 
ATOM     41  C   UNL     1      -4.425  -8.493   1.736  1.00  0.00     0.010 A 
ATOM     42  C   UNL     1      -2.092  -8.181   2.355  1.00  0.00     0.010 A 
ATOM     43  C   UNL     1      -3.249  -8.953   2.351  1.00  0.00    -0.014 A 
BRANCH  43  44
ATOM     44  C   UNL     1      -3.142 -10.313   2.865  1.00  0.00     0.031 A 
ATOM     45  C   UNL     1      -3.349 -11.366   1.834  1.00  0.00     0.074 A 
ATOM     46  C   UNL     1      -2.630 -10.585   4.086  1.00  0.00     0.049 A 
ATOM     47  N   UNL     1      -4.335 -12.194   1.744  1.00  0.00    -0.248 NA
ATOM     48  C   UNL     1      -2.432 -11.407   0.679  1.00  0.00     0.031 C 
ATOM     49  C   UNL     1      -2.072  -9.641   5.063  1.00  0.00     0.029 A 
ATOM     50  N   UNL     1      -2.374 -11.789   4.665  1.00  0.00    -0.354 N 
ATOM     51  C   UNL     1      -4.043 -13.016   0.659  1.00  0.00     0.074 A 
ATOM     52  C   UNL     1      -2.995 -12.354  -0.074  1.00  0.00     0.031 C 
ATOM     53  C   UNL     1      -1.333 -10.313   5.975  1.00  0.00     0.029 A 
ATOM     54  C   UNL     1      -1.502 -11.737   5.750  1.00  0.00     0.049 A 
ATOM     55  H   UNL     1      -2.773 -12.629   4.344  1.00  0.00     0.167 HD
ATOM     56  C   UNL     1      -4.471 -14.310   0.627  1.00  0.00     0.031 A 
ATOM     57  C   UNL     1      -0.938 -12.789   6.397  1.00  0.00     0.031 A 
ATOM     58  C   UNL     1      -5.484 -14.551   1.628  1.00  0.00     0.049 A 
ATOM     59  C   UNL     1      -1.740 -13.988   6.064  1.00  0.00     0.074 A 
ATOM     60  C   UNL     1      -6.722 -14.013   1.915  1.00  0.00     0.029 A 
ATOM     61  N   UNL     1      -5.075 -15.191   2.774  1.00  0.00    -0.354 N 
ATOM     62  N   UNL     1      -2.969 -14.155   6.458  1.00  0.00    -0.248 NA
ATOM     63  C   UNL     1      -1.341 -14.771   4.906  1.00  0.00     0.031 C 
ATOM     64  C   UNL     1      -6.764 -13.937   3.340  1.00  0.00     0.029 A 
ATOM     65  C   UNL     1      -5.598 -14.516   3.843  1.00  0.00     0.049 A 
ATOM     66  H   UNL     1      -4.507 -15.994   2.818  1.00  0.00     0.167 HD
ATOM     67  C   UNL     1      -3.620 -14.676   5.349  1.00  0.00     0.074 A 
ATOM     68  C   UNL     1      -2.548 -15.130   4.461  1.00  0.00     0.031 C 
ATOM     69  C   UNL     1      -4.943 -14.417   5.128  1.00  0.00     0.031 A 
BRANCH  56  70
ATOM     70  C   UNL     1      -3.655 -15.448   0.050  1.00  0.00    -0.014 A 
ATOM     71  C   UNL     1      -4.185 -16.751   0.122  1.00  0.00     0.009 A 
ATOM     72  C   UNL     1      -2.290 -15.344  -0.276  1.00  0.00     0.009 A 
ATOM     73  C   UNL     1      -3.369 -17.881  -0.015  1.00  0.00     0.001 A 
ATOM     74  C   UNL     1      -1.481 -16.470  -0.457  1.00  0.00     0.001 A 
ATOM     75  C   UNL     1      -2.014 -17.739  -0.292  1.00  0.00     0.000 A 
ENDBRANCH  56  70
BRANCH  57  76
ATOM     76  C   UNL     1       0.379 -12.901   7.064  1.00  0.00    -0.014 A 
ATOM     77  C   UNL     1       0.651 -13.961   7.946  1.00  0.00     0.009 A 
ATOM     78  C   UNL     1       1.468 -12.135   6.611  1.00  0.00     0.009 A 
ATOM     79  C   UNL     1       1.967 -14.272   8.320  1.00  0.00     0.001 A 
ATOM     80  C   UNL     1       2.782 -12.445   6.986  1.00  0.00     0.001 A 
ATOM     81  C   UNL     1       3.033 -13.524   7.827  1.00  0.00     0.000 A 
ENDBRANCH  57  76
BRANCH  69  82
ATOM     82  C   UNL     1      -5.733 -13.763   6.237  1.00  0.00    -0.014 A 
ATOM     83  C   UNL     1      -5.439 -12.490   6.758  1.00  0.00     0.009 A 
ATOM     84  C   UNL     1      -6.906 -14.400   6.665  1.00  0.00     0.009 A 
ATOM     85  C   UNL     1      -6.281 -11.891   7.703  1.00  0.00     0.001 A 
ATOM     86  C   UNL     1      -7.757 -13.794   7.590  1.00  0.00     0.001 A 
ATOM     87  C   UNL     1      -7.441 -12.543   8.114  1.00  0.00     0.000 A 
ENDBRANCH  69  82
ENDBRANCH  43  44
ENDBRANCH  35  38
ENDBRANCH  33  34
ENDBRANCH  32  33
ENDBRANCH  31  32
ENDBRANCH   1  31
TORSDOF 17
