REMARK SMILES O=C(NCCCCNC(=O)c1nnn(-c2cccc(C(F)(F)F)c2)c1[C@@H]1COc2ccccc2O1)c1ccc(-c2c3nc(c(-c4ccccc4)c4ccc([nH]4)c(-c4ccccc4)c4nc(c(-c5ccccc5)c5ccc2[nH]5)C=C4)C=C3)cc1
REMARK SMILES IDX 5 1 4 2 3 3 1 4 2 5 36 7 37 8 83 9 38 10 82 11 39 12 40 13
REMARK SMILES IDX 41 14 76 15 42 16 81 17 75 18 77 19 43 20 80 21 74 22 73 23
REMARK SMILES IDX 44 25 66 26 51 27 65 28 52 29 55 30 64 31 78 32 53 33 54 34
REMARK SMILES IDX 63 36 79 37 56 38 45 39 46 40 50 41 47 42 49 43 48 44 67 45
REMARK SMILES IDX 68 46 72 47 69 48 71 49 70 50 57 51 58 52 62 53 59 54 61 55
REMARK SMILES IDX 60 56 6 57 7 58 8 59 9 60 10 62 11 63 12 64 25 65 13 66
REMARK SMILES IDX 14 67 26 68 27 69 35 70 28 71 34 72 29 73 33 74 30 75 32 76
REMARK SMILES IDX 31 77 15 78 16 79 24 80 17 81 19 82 18 83 20 84 21 85 22 86
REMARK SMILES IDX 23 87
REMARK H PARENT 3 6 77 24 55 35 8 61
REMARK Flexibility Score: inf
ROOT
ATOM      1  C   UNL     1       5.347   1.057  -1.703  1.00  0.00     0.023 C 
ENDROOT
BRANCH   1   2
ATOM      2  C   UNL     1       4.822   0.867  -0.276  1.00  0.00     0.116 C 
BRANCH   2   3
ATOM      3  N   UNL     1       3.396   1.079  -0.103  1.00  0.00    -0.352 N 
ATOM      4  O   UNL     1       1.255   0.755   0.331  1.00  0.00    -0.269 OA
ATOM      5  C   UNL     1       2.291   0.269  -0.131  1.00  0.00     0.251 C 
ATOM      6  H   UNL     1       3.171   2.021   0.075  1.00  0.00     0.163 HD
BRANCH   5   7
ATOM      7  C   UNL     1       2.231  -1.100  -0.716  1.00  0.00     0.039 A 
ATOM      8  C   UNL     1       3.306  -1.786  -1.279  1.00  0.00     0.014 A 
ATOM      9  C   UNL     1       0.959  -1.708  -0.755  1.00  0.00     0.014 A 
ATOM     10  C   UNL     1       3.108  -2.999  -1.933  1.00  0.00     0.010 A 
ATOM     11  C   UNL     1       0.757  -2.930  -1.393  1.00  0.00     0.010 A 
ATOM     12  C   UNL     1       1.830  -3.559  -2.015  1.00  0.00    -0.014 A 
BRANCH  12  13
ATOM     13  C   UNL     1       1.701  -4.857  -2.673  1.00  0.00     0.031 A 
ATOM     14  C   UNL     1       2.418  -5.988  -2.015  1.00  0.00     0.074 A 
ATOM     15  C   UNL     1       0.902  -5.093  -3.731  1.00  0.00     0.049 A 
ATOM     16  N   UNL     1       3.338  -6.754  -2.508  1.00  0.00    -0.248 NA
ATOM     17  C   UNL     1       2.107  -6.257  -0.603  1.00  0.00     0.031 C 
ATOM     18  C   UNL     1      -0.103  -4.206  -4.323  1.00  0.00     0.029 A 
ATOM     19  N   UNL     1       0.753  -6.249  -4.440  1.00  0.00    -0.354 N 
ATOM     20  C   UNL     1       3.627  -7.698  -1.523  1.00  0.00     0.074 A 
ATOM     21  C   UNL     1       2.912  -7.287  -0.341  1.00  0.00     0.031 C 
ATOM     22  C   UNL     1      -0.906  -4.929  -5.137  1.00  0.00     0.029 A 
ATOM     23  C   UNL     1      -0.386  -6.284  -5.230  1.00  0.00     0.049 A 
ATOM     24  H   UNL     1       1.397  -6.993  -4.395  1.00  0.00     0.167 HD
ATOM     25  C   UNL     1       4.300  -8.852  -1.787  1.00  0.00     0.031 A 
ATOM     26  C   UNL     1      -0.902  -7.365  -5.861  1.00  0.00     0.031 A 
ATOM     27  C   UNL     1       5.010  -8.802  -3.033  1.00  0.00     0.049 A 
ATOM     28  C   UNL     1       0.162  -8.386  -5.973  1.00  0.00     0.074 A 
ATOM     29  C   UNL     1       6.038  -8.038  -3.546  1.00  0.00     0.029 A 
ATOM     30  N   UNL     1       4.457  -9.454  -4.107  1.00  0.00    -0.354 N 
ATOM     31  N   UNL     1       1.208  -8.262  -6.737  1.00  0.00    -0.248 NA
ATOM     32  C   UNL     1       0.264  -9.398  -4.934  1.00  0.00     0.031 C 
ATOM     33  C   UNL     1       5.731  -7.893  -4.930  1.00  0.00     0.029 A 
ATOM     34  C   UNL     1       4.557  -8.607  -5.178  1.00  0.00     0.049 A 
ATOM     35  H   UNL     1       4.065 -10.357  -4.107  1.00  0.00     0.167 HD
ATOM     36  C   UNL     1       2.237  -8.862  -6.029  1.00  0.00     0.074 A 
ATOM     37  C   UNL     1       1.576  -9.642  -4.987  1.00  0.00     0.031 C 
ATOM     38  C   UNL     1       3.531  -8.452  -6.182  1.00  0.00     0.031 A 
BRANCH  25  39
ATOM     39  C   UNL     1       4.027 -10.161  -1.087  1.00  0.00    -0.014 A 
ATOM     40  C   UNL     1       4.824 -11.280  -1.398  1.00  0.00     0.009 A 
ATOM     41  C   UNL     1       2.845 -10.409  -0.365  1.00  0.00     0.009 A 
ATOM     42  C   UNL     1       4.418 -12.580  -1.072  1.00  0.00     0.001 A 
ATOM     43  C   UNL     1       2.458 -11.702   0.000  1.00  0.00     0.001 A 
ATOM     44  C   UNL     1       3.230 -12.790  -0.380  1.00  0.00     0.000 A 
ENDBRANCH  25  39
BRANCH  26  45
ATOM     45  C   UNL     1      -2.322  -7.679  -6.125  1.00  0.00    -0.014 A 
ATOM     46  C   UNL     1      -2.686  -8.632  -7.088  1.00  0.00     0.009 A 
ATOM     47  C   UNL     1      -3.317  -7.231  -5.236  1.00  0.00     0.009 A 
ATOM     48  C   UNL     1      -3.991  -9.140  -7.138  1.00  0.00     0.001 A 
ATOM     49  C   UNL     1      -4.620  -7.735  -5.288  1.00  0.00     0.001 A 
ATOM     50  C   UNL     1      -4.953  -8.700  -6.231  1.00  0.00     0.000 A 
ENDBRANCH  26  45
BRANCH  38  51
ATOM     51  C   UNL     1       3.848  -7.510  -7.316  1.00  0.00    -0.014 A 
ATOM     52  C   UNL     1       3.287  -6.225  -7.411  1.00  0.00     0.009 A 
ATOM     53  C   UNL     1       4.870  -7.861  -8.210  1.00  0.00     0.009 A 
ATOM     54  C   UNL     1       3.721  -5.326  -8.390  1.00  0.00     0.001 A 
ATOM     55  C   UNL     1       5.319  -6.956  -9.173  1.00  0.00     0.001 A 
ATOM     56  C   UNL     1       4.742  -5.690  -9.266  1.00  0.00     0.000 A 
ENDBRANCH  38  51
ENDBRANCH  12  13
ENDBRANCH   5   7
ENDBRANCH   2   3
ENDBRANCH   1   2
BRANCH   1  57
ATOM     57  C   UNL     1       5.011   2.380  -2.381  1.00  0.00     0.023 C 
BRANCH  57  58
ATOM     58  C   UNL     1       5.397   3.660  -1.653  1.00  0.00     0.116 C 
BRANCH  58  59
ATOM     59  N   UNL     1       6.749   4.125  -1.799  1.00  0.00    -0.351 N 
ATOM     60  C   UNL     1       7.324   5.381  -1.859  1.00  0.00     0.273 C 
ATOM     61  H   UNL     1       7.405   3.394  -1.872  1.00  0.00     0.163 HD
ATOM     62  O   UNL     1       8.553   5.338  -2.000  1.00  0.00    -0.267 OA
BRANCH  60  63
ATOM     63  C   UNL     1       6.644   6.701  -1.786  1.00  0.00     0.178 A 
ATOM     64  N   UNL     1       7.412   7.800  -2.153  1.00  0.00    -0.124 NA
ATOM     65  C   UNL     1       5.364   7.186  -1.483  1.00  0.00     0.122 A 
ATOM     66  N   UNL     1       6.675   8.895  -2.117  1.00  0.00    -0.061 NA
ATOM     67  N   UNL     1       5.483   8.567  -1.602  1.00  0.00    -0.213 N 
BRANCH  65  68
ATOM     68  C   UNL     1       4.044   6.502  -1.329  1.00  0.00     0.262 C 
ATOM     69  C   UNL     1       3.442   6.219  -2.724  1.00  0.00     0.281 C 
ATOM     70  O   UNL     1       3.155   7.149  -0.412  1.00  0.00    -0.477 OA
ATOM     71  O   UNL     1       2.707   7.333  -3.223  1.00  0.00    -0.485 OA
ATOM     72  C   UNL     1       1.922   7.429  -0.944  1.00  0.00     0.162 A 
ATOM     73  C   UNL     1       1.717   7.593  -2.317  1.00  0.00     0.161 A 
ATOM     74  C   UNL     1       0.866   7.620  -0.062  1.00  0.00     0.050 A 
ATOM     75  C   UNL     1       0.495   8.029  -2.811  1.00  0.00     0.050 A 
ATOM     76  C   UNL     1      -0.383   7.999  -0.558  1.00  0.00     0.004 A 
ATOM     77  C   UNL     1      -0.562   8.226  -1.926  1.00  0.00     0.004 A 
ENDBRANCH  65  68
BRANCH  67  78
ATOM     78  C   UNL     1       4.559   9.570  -1.256  1.00  0.00     0.067 A 
ATOM     79  C   UNL     1       3.866  10.247  -2.262  1.00  0.00     0.028 A 
ATOM     80  C   UNL     1       4.246   9.762   0.095  1.00  0.00     0.041 A 
ATOM     81  C   UNL     1       2.776  11.044  -1.910  1.00  0.00     0.003 A 
ATOM     82  C   UNL     1       3.167  10.583   0.451  1.00  0.00     0.058 A 
ATOM     83  C   UNL     1       2.419  11.198  -0.566  1.00  0.00     0.013 A 
BRANCH  82  84
ATOM     84  C   UNL     1       2.763  10.736   1.896  1.00  0.00     0.416 C 
ATOM     85  F   UNL     1       2.523  12.031   2.242  1.00  0.00    -0.166 F 
ATOM     86  F   UNL     1       1.624  10.051   2.196  1.00  0.00    -0.166 F 
ATOM     87  F   UNL     1       3.706  10.286   2.772  1.00  0.00    -0.166 F 
ENDBRANCH  82  84
ENDBRANCH  67  78
ENDBRANCH  60  63
ENDBRANCH  58  59
ENDBRANCH  57  58
ENDBRANCH   1  57
TORSDOF 14
