REMARK SMILES O=C(NCCCCNC(=O)c1ccccc1Sc1ccc(S(=O)(=O)N2CCCC2)cc1[N+](=O)[O-])c1ccc(-c2c3nc(c(-c4ccccc4)c4ccc([nH]4)c(-c4ccccc4)c4nc(c(-c5ccccc5)c5ccc2[nH]5)C=C4)C=C3)cc1
REMARK SMILES IDX 6 1 5 2 4 3 3 4 1 5 2 6 35 8 36 9 82 10 37 11 81 12 38 13
REMARK SMILES IDX 39 14 40 15 75 16 41 17 80 18 74 19 76 20 42 21 79 22 73 23
REMARK SMILES IDX 72 24 43 26 65 27 50 28 64 29 51 30 54 31 63 32 77 33 52 34
REMARK SMILES IDX 53 35 62 37 78 38 55 39 44 40 45 41 49 42 46 43 48 44 47 45
REMARK SMILES IDX 66 46 67 47 71 48 68 49 70 50 69 51 56 52 57 53 61 54 58 55
REMARK SMILES IDX 60 56 59 57 7 58 8 59 9 60 10 62 11 63 12 64 16 65 13 66
REMARK SMILES IDX 15 67 14 68 17 69 18 70 19 71 31 72 20 73 30 74 21 75 32 76
REMARK SMILES IDX 33 77 34 78 22 79 23 80 24 81 25 82 26 83 29 84 27 85 28 86
REMARK H PARENT 3 7 76 25 54 36 8 61
REMARK Flexibility Score: inf
ROOT
ATOM      1  C   UNL     1       3.802   3.977   1.172  1.00  0.00     0.023 C 
ENDROOT
BRANCH   1   2
ATOM      2  C   UNL     1       4.237   2.980   0.087  1.00  0.00     0.023 C 
BRANCH   2   3
ATOM      3  C   UNL     1       3.917   1.516   0.360  1.00  0.00     0.116 C 
BRANCH   3   4
ATOM      4  N   UNL     1       2.514   1.179   0.214  1.00  0.00    -0.352 N 
ATOM      5  O   UNL     1       0.713   0.040  -0.522  1.00  0.00    -0.269 OA
ATOM      6  C   UNL     1       1.935   0.153  -0.496  1.00  0.00     0.251 C 
ATOM      7  H   UNL     1       1.887   1.769   0.692  1.00  0.00     0.163 HD
BRANCH   6   8
ATOM      8  C   UNL     1       2.769  -0.803  -1.260  1.00  0.00     0.039 A 
ATOM      9  C   UNL     1       3.801  -1.518  -0.651  1.00  0.00     0.014 A 
ATOM     10  C   UNL     1       2.475  -1.026  -2.606  1.00  0.00     0.014 A 
ATOM     11  C   UNL     1       4.603  -2.378  -1.407  1.00  0.00     0.010 A 
ATOM     12  C   UNL     1       3.236  -1.937  -3.348  1.00  0.00     0.010 A 
ATOM     13  C   UNL     1       4.317  -2.615  -2.760  1.00  0.00    -0.014 A 
BRANCH  13  14
ATOM     14  C   UNL     1       5.074  -3.635  -3.539  1.00  0.00     0.031 A 
ATOM     15  C   UNL     1       5.878  -3.252  -4.753  1.00  0.00     0.074 A 
ATOM     16  C   UNL     1       4.974  -4.934  -3.193  1.00  0.00     0.049 A 
ATOM     17  N   UNL     1       6.462  -4.029  -5.633  1.00  0.00    -0.248 NA
ATOM     18  C   UNL     1       6.039  -1.815  -5.024  1.00  0.00     0.031 C 
ATOM     19  C   UNL     1       4.228  -5.450  -2.043  1.00  0.00     0.029 A 
ATOM     20  N   UNL     1       5.483  -6.063  -3.790  1.00  0.00    -0.354 N 
ATOM     21  C   UNL     1       7.029  -3.180  -6.577  1.00  0.00     0.074 A 
ATOM     22  C   UNL     1       6.714  -1.828  -6.167  1.00  0.00     0.031 C 
ATOM     23  C   UNL     1       4.327  -6.788  -2.018  1.00  0.00     0.029 A 
ATOM     24  C   UNL     1       5.083  -7.230  -3.184  1.00  0.00     0.049 A 
ATOM     25  H   UNL     1       6.076  -6.038  -4.575  1.00  0.00     0.167 HD
ATOM     26  C   UNL     1       7.743  -3.502  -7.683  1.00  0.00     0.031 A 
ATOM     27  C   UNL     1       5.254  -8.516  -3.545  1.00  0.00     0.031 A 
ATOM     28  C   UNL     1       8.081  -4.846  -8.079  1.00  0.00     0.049 A 
ATOM     29  C   UNL     1       6.002  -8.839  -4.806  1.00  0.00     0.074 A 
ATOM     30  C   UNL     1       8.872  -5.254  -9.140  1.00  0.00     0.029 A 
ATOM     31  N   UNL     1       7.641  -5.994  -7.444  1.00  0.00    -0.354 N 
ATOM     32  N   UNL     1       6.580  -8.024  -5.654  1.00  0.00    -0.248 NA
ATOM     33  C   UNL     1       6.111 -10.261  -5.166  1.00  0.00     0.031 C 
ATOM     34  C   UNL     1       8.857  -6.652  -9.186  1.00  0.00     0.029 A 
ATOM     35  C   UNL     1       8.103  -7.112  -8.120  1.00  0.00     0.049 A 
ATOM     36  H   UNL     1       7.084  -6.014  -6.632  1.00  0.00     0.167 HD
ATOM     37  C   UNL     1       7.129  -8.834  -6.639  1.00  0.00     0.074 A 
ATOM     38  C   UNL     1       6.840 -10.204  -6.271  1.00  0.00     0.031 C 
ATOM     39  C   UNL     1       7.805  -8.471  -7.755  1.00  0.00     0.031 A 
BRANCH  26  40
ATOM     40  C   UNL     1       8.200  -2.389  -8.584  1.00  0.00    -0.014 A 
ATOM     41  C   UNL     1       9.279  -1.562  -8.237  1.00  0.00     0.009 A 
ATOM     42  C   UNL     1       7.614  -2.245  -9.853  1.00  0.00     0.009 A 
ATOM     43  C   UNL     1       9.754  -0.606  -9.140  1.00  0.00     0.001 A 
ATOM     44  C   UNL     1       8.104  -1.304 -10.760  1.00  0.00     0.001 A 
ATOM     45  C   UNL     1       9.172  -0.484 -10.402  1.00  0.00     0.000 A 
ENDBRANCH  26  40
BRANCH  27  46
ATOM     46  C   UNL     1       4.645  -9.603  -2.734  1.00  0.00    -0.014 A 
ATOM     47  C   UNL     1       5.449 -10.496  -2.011  1.00  0.00     0.009 A 
ATOM     48  C   UNL     1       3.250  -9.763  -2.700  1.00  0.00     0.009 A 
ATOM     49  C   UNL     1       4.869 -11.544  -1.294  1.00  0.00     0.001 A 
ATOM     50  C   UNL     1       2.672 -10.792  -1.955  1.00  0.00     0.001 A 
ATOM     51  C   UNL     1       3.482 -11.688  -1.262  1.00  0.00     0.000 A 
ENDBRANCH  27  46
BRANCH  39  52
ATOM     52  C   UNL     1       8.291  -9.572  -8.652  1.00  0.00    -0.014 A 
ATOM     53  C   UNL     1       7.397 -10.289  -9.463  1.00  0.00     0.009 A 
ATOM     54  C   UNL     1       9.660  -9.873  -8.715  1.00  0.00     0.009 A 
ATOM     55  C   UNL     1       7.864 -11.306 -10.299  1.00  0.00     0.001 A 
ATOM     56  C   UNL     1      10.126 -10.872  -9.571  1.00  0.00     0.001 A 
ATOM     57  C   UNL     1       9.227 -11.592 -10.356  1.00  0.00     0.000 A 
ENDBRANCH  39  52
ENDBRANCH  13  14
ENDBRANCH   6   8
ENDBRANCH   3   4
ENDBRANCH   2   3
ENDBRANCH   1   2
BRANCH   1  58
ATOM     58  C   UNL     1       4.346   3.740   2.586  1.00  0.00     0.116 C 
BRANCH  58  59
ATOM     59  N   UNL     1       5.793   3.672   2.637  1.00  0.00    -0.352 N 
ATOM     60  C   UNL     1       6.630   3.929   3.689  1.00  0.00     0.252 C 
ATOM     61  H   UNL     1       6.235   3.405   1.799  1.00  0.00     0.163 HD
ATOM     62  O   UNL     1       7.846   3.849   3.526  1.00  0.00    -0.269 OA
BRANCH  60  63
ATOM     63  C   UNL     1       6.120   4.355   5.007  1.00  0.00     0.053 A 
ATOM     64  C   UNL     1       6.553   5.647   5.374  1.00  0.00     0.015 A 
ATOM     65  C   UNL     1       5.369   3.579   5.911  1.00  0.00     0.025 A 
ATOM     66  C   UNL     1       6.183   6.213   6.590  1.00  0.00     0.001 A 
ATOM     67  C   UNL     1       4.971   4.198   7.116  1.00  0.00     0.016 A 
ATOM     68  C   UNL     1       5.368   5.496   7.452  1.00  0.00     0.001 A 
BRANCH  65  69
ATOM     69  S   UNL     1       4.843   1.861   5.829  1.00  0.00    -0.082 SA
BRANCH  69  70
ATOM     70  C   UNL     1       5.951   0.998   4.739  1.00  0.00     0.090 A 
ATOM     71  C   UNL     1       5.294   0.222   3.768  1.00  0.00     0.024 A 
ATOM     72  C   UNL     1       7.343   1.105   4.646  1.00  0.00     0.284 A 
ATOM     73  C   UNL     1       5.963  -0.224   2.629  1.00  0.00     0.023 A 
ATOM     74  C   UNL     1       7.983   0.780   3.436  1.00  0.00     0.108 A 
ATOM     75  C   UNL     1       7.276   0.173   2.406  1.00  0.00     0.089 A 
BRANCH  72  76
ATOM     76  N   UNL     1       8.190   1.556   5.764  1.00  0.00     0.063 N 
ATOM     77  O   UNL     1       9.401   1.700   5.540  1.00  0.00    -0.258 OA
ATOM     78  O   UNL     1       7.680   1.667   6.885  1.00  0.00    -0.258 OA
ENDBRANCH  72  76
BRANCH  75  79
ATOM     79  S   UNL     1       7.916   0.007   0.750  1.00  0.00     0.243 S 
ATOM     80  O   UNL     1       7.331  -1.197   0.216  1.00  0.00    -0.207 OA
ATOM     81  O   UNL     1       7.678   1.296   0.120  1.00  0.00    -0.207 OA
BRANCH  79  82
ATOM     82  N   UNL     1       9.564  -0.245   0.880  1.00  0.00    -0.198 NA
ATOM     83  C   UNL     1      10.068  -1.481   1.492  1.00  0.00     0.102 C 
ATOM     84  C   UNL     1      10.486   0.866   1.171  1.00  0.00     0.102 C 
ATOM     85  C   UNL     1      10.845  -0.998   2.701  1.00  0.00     0.018 C 
ATOM     86  C   UNL     1      11.410   0.349   2.274  1.00  0.00     0.018 C 
ENDBRANCH  79  82
ENDBRANCH  75  79
ENDBRANCH  69  70
ENDBRANCH  65  69
ENDBRANCH  60  63
ENDBRANCH  58  59
ENDBRANCH   1  58
TORSDOF 16
