REMARK SMILES CC[C@H](C)[NH2+]CCc1ccc(C(=O)NCCCCNC(=O)c2ccc(-c3c4nc(c(-c5ccccc5)c5ccc([nH]5)c(-c5ccccc5)c5nc(c(-c6ccccc6)c6ccc3[nH]6)C=C5)C=C4)cc2)cc1
REMARK SMILES IDX 15 1 14 2 12 3 13 4 11 6 8 7 9 8 71 9 10 10 70 11 7 12 6 13
REMARK SMILES IDX 5 14 3 17 4 18 2 19 1 20 16 21 17 22 18 23 19 24 20 25 21 27
REMARK SMILES IDX 22 28 23 29 69 30 24 31 68 32 25 33 26 34 27 35 62 36 28 37
REMARK SMILES IDX 67 38 61 39 63 40 29 41 66 42 60 43 59 44 30 46 52 47 37 48
REMARK SMILES IDX 51 49 38 50 41 51 50 52 64 53 39 54 40 55 49 57 65 58 42 59
REMARK SMILES IDX 31 60 32 61 36 62 33 63 35 64 34 65 53 66 54 67 58 68 55 69
REMARK SMILES IDX 57 70 56 71 43 72 44 73 48 74 45 75 47 76 46 77
REMARK H PARENT 14 5 5 15 5 16 19 26 63 45 41 56
REMARK Flexibility Score: inf
ROOT
ATOM      1  C   UNL     1      -5.643  -0.701  -5.168  1.00  0.00     0.116 C 
ENDROOT
BRANCH   1   2
ATOM      2  N   UNL     1      -5.940   0.672  -4.817  1.00  0.00    -0.352 N 
ATOM      3  C   UNL     1      -5.160   1.792  -4.677  1.00  0.00     0.251 C 
ATOM      4  O   UNL     1      -5.743   2.835  -4.374  1.00  0.00    -0.269 OA
ATOM      5  H   UNL     1      -6.895   0.835  -4.644  1.00  0.00     0.163 HD
BRANCH   3   6
ATOM      6  C   UNL     1      -3.682   1.825  -4.887  1.00  0.00     0.039 A 
ATOM      7  C   UNL     1      -0.878   2.110  -5.164  1.00  0.00    -0.042 A 
ATOM      8  C   UNL     1      -1.709   3.231  -5.217  1.00  0.00     0.005 A 
ATOM      9  C   UNL     1      -1.463   0.849  -5.027  1.00  0.00     0.005 A 
ATOM     10  C   UNL     1      -3.096   3.086  -5.088  1.00  0.00     0.014 A 
ATOM     11  C   UNL     1      -2.841   0.715  -4.837  1.00  0.00     0.014 A 
BRANCH   7  12
ATOM     12  C   UNL     1       0.626   2.241  -5.136  1.00  0.00     0.097 C 
BRANCH  12  13
ATOM     13  C   UNL     1       1.172   2.962  -3.885  1.00  0.00     0.265 C 
BRANCH  13  14
ATOM     14  N   UNL     1       0.586   2.612  -2.588  1.00  0.00    -0.344 N 
ATOM     15  H   UNL     1       0.657   3.431  -1.985  1.00  0.00     0.346 HD
ATOM     16  H   UNL     1      -0.369   2.318  -2.796  1.00  0.00     0.346 HD
BRANCH  14  17
ATOM     17  C   UNL     1       1.189   1.484  -1.878  1.00  0.00     0.178 C 
ATOM     18  C   UNL     1       0.971   1.736  -0.382  1.00  0.00     0.075 C 
BRANCH  17  19
ATOM     19  C   UNL     1       0.645   0.099  -2.279  1.00  0.00     0.061 C 
ATOM     20  C   UNL     1      -0.804  -0.179  -1.891  1.00  0.00     0.010 C 
ENDBRANCH  17  19
ENDBRANCH  14  17
ENDBRANCH  13  14
ENDBRANCH  12  13
ENDBRANCH   7  12
ENDBRANCH   3   6
ENDBRANCH   1   2
BRANCH   1  21
ATOM     21  C   UNL     1      -5.518  -1.564  -3.909  1.00  0.00     0.023 C 
BRANCH  21  22
ATOM     22  C   UNL     1      -6.865  -2.012  -3.329  1.00  0.00     0.023 C 
BRANCH  22  23
ATOM     23  C   UNL     1      -7.686  -2.915  -4.246  1.00  0.00     0.116 C 
BRANCH  23  24
ATOM     24  N   UNL     1      -6.992  -4.137  -4.622  1.00  0.00    -0.352 N 
ATOM     25  C   UNL     1      -7.537  -5.343  -4.994  1.00  0.00     0.251 C 
ATOM     26  H   UNL     1      -6.009  -4.095  -4.608  1.00  0.00     0.163 HD
ATOM     27  O   UNL     1      -6.825  -6.319  -5.184  1.00  0.00    -0.269 OA
BRANCH  25  28
ATOM     28  C   UNL     1      -9.005  -5.457  -5.113  1.00  0.00     0.039 A 
ATOM     29  C   UNL     1      -9.654  -6.488  -4.429  1.00  0.00     0.014 A 
ATOM     30  C   UNL     1      -9.735  -4.531  -5.861  1.00  0.00     0.014 A 
ATOM     31  C   UNL     1     -11.048  -6.550  -4.442  1.00  0.00     0.010 A 
ATOM     32  C   UNL     1     -11.125  -4.557  -5.820  1.00  0.00     0.010 A 
ATOM     33  C   UNL     1     -11.794  -5.564  -5.108  1.00  0.00    -0.014 A 
BRANCH  33  34
ATOM     34  C   UNL     1     -13.276  -5.564  -5.064  1.00  0.00     0.031 A 
ATOM     35  C   UNL     1     -14.069  -5.787  -6.321  1.00  0.00     0.074 A 
ATOM     36  C   UNL     1     -13.907  -5.297  -3.904  1.00  0.00     0.049 A 
ATOM     37  N   UNL     1     -15.367  -5.769  -6.491  1.00  0.00    -0.248 NA
ATOM     38  C   UNL     1     -13.303  -6.039  -7.552  1.00  0.00     0.031 C 
ATOM     39  C   UNL     1     -13.250  -5.021  -2.624  1.00  0.00     0.029 A 
ATOM     40  N   UNL     1     -15.245  -5.207  -3.617  1.00  0.00    -0.354 N 
ATOM     41  C   UNL     1     -15.570  -5.987  -7.848  1.00  0.00     0.074 A 
ATOM     42  C   UNL     1     -14.265  -6.090  -8.462  1.00  0.00     0.031 C 
ATOM     43  C   UNL     1     -14.188  -4.820  -1.684  1.00  0.00     0.029 A 
ATOM     44  C   UNL     1     -15.507  -4.915  -2.300  1.00  0.00     0.049 A 
ATOM     45  H   UNL     1     -15.951  -5.338  -4.290  1.00  0.00     0.167 HD
ATOM     46  C   UNL     1     -16.740  -6.108  -8.519  1.00  0.00     0.031 A 
ATOM     47  C   UNL     1     -16.679  -4.741  -1.661  1.00  0.00     0.031 A 
ATOM     48  C   UNL     1     -18.038  -6.021  -7.907  1.00  0.00     0.049 A 
ATOM     49  C   UNL     1     -17.962  -4.877  -2.431  1.00  0.00     0.074 A 
ATOM     50  C   UNL     1     -19.280  -6.193  -8.491  1.00  0.00     0.029 A 
ATOM     51  N   UNL     1     -18.260  -5.736  -6.569  1.00  0.00    -0.354 N 
ATOM     52  N   UNL     1     -18.139  -5.155  -3.700  1.00  0.00    -0.248 NA
ATOM     53  C   UNL     1     -19.209  -4.686  -1.676  1.00  0.00     0.031 C 
ATOM     54  C   UNL     1     -20.257  -5.968  -7.516  1.00  0.00     0.029 A 
ATOM     55  C   UNL     1     -19.620  -5.705  -6.313  1.00  0.00     0.049 A 
ATOM     56  H   UNL     1     -17.555  -5.579  -5.899  1.00  0.00     0.167 HD
ATOM     57  C   UNL     1     -19.514  -5.200  -3.889  1.00  0.00     0.074 A 
ATOM     58  C   UNL     1     -20.124  -4.934  -2.602  1.00  0.00     0.031 C 
ATOM     59  C   UNL     1     -20.209  -5.441  -5.027  1.00  0.00     0.031 A 
BRANCH  46  60
ATOM     60  C   UNL     1     -16.663  -6.344 -10.001  1.00  0.00    -0.014 A 
ATOM     61  C   UNL     1     -16.222  -7.572 -10.520  1.00  0.00     0.009 A 
ATOM     62  C   UNL     1     -17.067  -5.336 -10.891  1.00  0.00     0.009 A 
ATOM     63  C   UNL     1     -16.153  -7.772 -11.900  1.00  0.00     0.001 A 
ATOM     64  C   UNL     1     -17.023  -5.549 -12.270  1.00  0.00     0.001 A 
ATOM     65  C   UNL     1     -16.557  -6.763 -12.773  1.00  0.00     0.000 A 
ENDBRANCH  46  60
BRANCH  47  66
ATOM     66  C   UNL     1     -16.698  -4.439  -0.207  1.00  0.00    -0.014 A 
ATOM     67  C   UNL     1     -17.131  -5.408   0.712  1.00  0.00     0.009 A 
ATOM     68  C   UNL     1     -16.293  -3.183   0.270  1.00  0.00     0.009 A 
ATOM     69  C   UNL     1     -17.184  -5.115   2.076  1.00  0.00     0.001 A 
ATOM     70  C   UNL     1     -16.322  -2.902   1.638  1.00  0.00     0.001 A 
ATOM     71  C   UNL     1     -16.777  -3.864   2.538  1.00  0.00     0.000 A 
ENDBRANCH  47  66
BRANCH  59  72
ATOM     72  C   UNL     1     -21.707  -5.464  -4.923  1.00  0.00    -0.014 A 
ATOM     73  C   UNL     1     -22.445  -4.281  -4.761  1.00  0.00     0.009 A 
ATOM     74  C   UNL     1     -22.391  -6.685  -5.029  1.00  0.00     0.009 A 
ATOM     75  C   UNL     1     -23.837  -4.325  -4.676  1.00  0.00     0.001 A 
ATOM     76  C   UNL     1     -23.785  -6.723  -4.971  1.00  0.00     0.001 A 
ATOM     77  C   UNL     1     -24.506  -5.544  -4.786  1.00  0.00     0.000 A 
ENDBRANCH  59  72
ENDBRANCH  33  34
ENDBRANCH  25  28
ENDBRANCH  23  24
ENDBRANCH  22  23
ENDBRANCH  21  22
ENDBRANCH   1  21
TORSDOF 16
