REMARK SMILES CC[C@@](O)(C(=O)NCCCCNC(=O)c1ccc(-c2c3nc(c(-c4ccccc4)c4ccc([nH]4)c(-c4ccccc4)c4nc(c(-c5ccccc5)c5ccc2[nH]5)C=C4)C=C3)cc1)[C@H]1CCc2ccc(OC)cc21
REMARK SMILES IDX 9 1 8 2 7 3 5 4 6 5 3 7 2 8 1 9 4 10 63 12 64 13 73 14 65 15
REMARK SMILES IDX 66 16 72 17 67 18 69 19 68 20 70 21 71 22 10 23 11 24 12 25
REMARK SMILES IDX 13 26 14 28 15 29 16 30 62 31 17 32 61 33 18 34 19 35 20 36
REMARK SMILES IDX 55 37 21 38 60 39 54 40 56 41 22 42 59 43 53 44 52 45 23 47
REMARK SMILES IDX 45 48 30 49 44 50 31 51 34 52 43 53 57 54 32 55 33 56 42 58
REMARK SMILES IDX 58 59 35 60 24 61 25 62 29 63 26 64 28 65 27 66 46 67 47 68
REMARK SMILES IDX 51 69 48 70 50 71 49 72 36 73 37 74 41 75 38 76 40 77 39 78
REMARK H PARENT 7 6 4 11 12 27 56 46 34 57
REMARK Flexibility Score: inf
ROOT
ATOM      1  C   UNL     1      -2.688   2.405   1.601  1.00  0.00     0.023 C 
ENDROOT
BRANCH   1   2
ATOM      2  C   UNL     1      -1.889   3.422   0.778  1.00  0.00     0.116 C 
BRANCH   2   3
ATOM      3  N   UNL     1      -0.661   3.733   1.471  1.00  0.00    -0.354 N 
ATOM      4  C   UNL     1       0.527   3.059   1.486  1.00  0.00     0.252 C 
ATOM      5  O   UNL     1       1.310   3.396   2.382  1.00  0.00    -0.272 OA
ATOM      6  H   UNL     1      -0.684   4.554   2.014  1.00  0.00     0.163 HD
BRANCH   4   7
ATOM      7  C   UNL     1       0.900   1.973   0.409  1.00  0.00     0.149 C 
BRANCH   7   8
ATOM      8  C   UNL     1      -0.115   0.795   0.350  1.00  0.00     0.043 C 
ATOM      9  C   UNL     1       0.133  -0.321  -0.659  1.00  0.00     0.007 C 
ENDBRANCH   7   8
BRANCH   7  10
ATOM     10  O   UNL     1       0.822   2.694  -0.840  1.00  0.00    -0.379 OA
ATOM     11  H   UNL     1      -0.099   2.946  -1.011  1.00  0.00     0.212 HD
ENDBRANCH   7  10
BRANCH   7  12
ATOM     12  C   UNL     1       2.391   1.552   0.709  1.00  0.00     0.061 C 
ATOM     13  C   UNL     1       2.512   0.521   1.872  1.00  0.00     0.017 C 
ATOM     14  C   UNL     1       3.137   0.857  -0.401  1.00  0.00    -0.035 A 
ATOM     15  C   UNL     1       3.597  -0.497   1.509  1.00  0.00     0.036 C 
ATOM     16  C   UNL     1       3.688  -0.351   0.027  1.00  0.00    -0.044 A 
ATOM     17  C   UNL     1       3.347   1.309  -1.697  1.00  0.00     0.050 A 
ATOM     18  C   UNL     1       4.284  -1.215  -0.875  1.00  0.00     0.008 A 
ATOM     19  C   UNL     1       3.976   0.465  -2.610  1.00  0.00     0.119 A 
ATOM     20  C   UNL     1       4.386  -0.815  -2.210  1.00  0.00     0.047 A 
BRANCH  19  21
ATOM     21  O   UNL     1       4.205   0.779  -3.923  1.00  0.00    -0.497 OA
ATOM     22  C   UNL     1       4.418   2.165  -4.181  1.00  0.00     0.278 C 
ENDBRANCH  19  21
ENDBRANCH   7  12
ENDBRANCH   4   7
ENDBRANCH   2   3
ENDBRANCH   1   2
BRANCH   1  23
ATOM     23  C   UNL     1      -3.520   3.026   2.721  1.00  0.00     0.023 C 
BRANCH  23  24
ATOM     24  C   UNL     1      -4.635   3.936   2.232  1.00  0.00     0.116 C 
BRANCH  24  25
ATOM     25  N   UNL     1      -5.530   3.284   1.290  1.00  0.00    -0.352 N 
ATOM     26  C   UNL     1      -6.862   3.517   1.069  1.00  0.00     0.251 C 
ATOM     27  H   UNL     1      -5.124   2.578   0.736  1.00  0.00     0.163 HD
ATOM     28  O   UNL     1      -7.501   2.791   0.315  1.00  0.00    -0.269 OA
BRANCH  26  29
ATOM     29  C   UNL     1      -7.530   4.620   1.784  1.00  0.00     0.039 A 
ATOM     30  C   UNL     1      -8.762   4.368   2.388  1.00  0.00     0.014 A 
ATOM     31  C   UNL     1      -6.936   5.882   1.883  1.00  0.00     0.014 A 
ATOM     32  C   UNL     1      -9.373   5.369   3.140  1.00  0.00     0.010 A 
ATOM     33  C   UNL     1      -7.505   6.851   2.702  1.00  0.00     0.010 A 
ATOM     34  C   UNL     1      -8.732   6.605   3.332  1.00  0.00    -0.014 A 
BRANCH  34  35
ATOM     35  C   UNL     1      -9.345   7.635   4.202  1.00  0.00     0.031 A 
ATOM     36  C   UNL     1      -9.804   8.946   3.628  1.00  0.00     0.074 A 
ATOM     37  C   UNL     1      -9.472   7.387   5.520  1.00  0.00     0.049 A 
ATOM     38  N   UNL     1     -10.413   9.937   4.228  1.00  0.00    -0.248 NA
ATOM     39  C   UNL     1      -9.527   9.187   2.202  1.00  0.00     0.031 C 
ATOM     40  C   UNL     1      -9.004   6.178   6.204  1.00  0.00     0.029 A 
ATOM     41  N   UNL     1     -10.046   8.132   6.517  1.00  0.00    -0.354 N 
ATOM     42  C   UNL     1     -10.595  10.911   3.256  1.00  0.00     0.074 A 
ATOM     43  C   UNL     1      -9.974  10.424   2.045  1.00  0.00     0.031 C 
ATOM     44  C   UNL     1      -9.349   6.246   7.499  1.00  0.00     0.029 A 
ATOM     45  C   UNL     1     -10.032   7.511   7.743  1.00  0.00     0.049 A 
ATOM     46  H   UNL     1     -10.430   9.026   6.370  1.00  0.00     0.167 HD
ATOM     47  C   UNL     1     -11.248  12.094   3.353  1.00  0.00     0.031 A 
ATOM     48  C   UNL     1     -10.524   7.913   8.928  1.00  0.00     0.031 A 
ATOM     49  C   UNL     1     -11.861  12.579   4.561  1.00  0.00     0.049 A 
ATOM     50  C   UNL     1     -11.246   9.229   9.008  1.00  0.00     0.074 A 
ATOM     51  C   UNL     1     -12.577  13.748   4.756  1.00  0.00     0.029 A 
ATOM     52  N   UNL     1     -11.829  11.921   5.780  1.00  0.00    -0.354 N 
ATOM     53  N   UNL     1     -11.478  10.103   8.059  1.00  0.00    -0.248 NA
ATOM     54  C   UNL     1     -11.793   9.601  10.319  1.00  0.00     0.031 C 
ATOM     55  C   UNL     1     -12.937  13.819   6.106  1.00  0.00     0.029 A 
ATOM     56  C   UNL     1     -12.496  12.667   6.737  1.00  0.00     0.049 A 
ATOM     57  H   UNL     1     -11.396  11.052   5.942  1.00  0.00     0.167 HD
ATOM     58  C   UNL     1     -12.213  11.120   8.654  1.00  0.00     0.074 A 
ATOM     59  C   UNL     1     -12.416  10.735  10.036  1.00  0.00     0.031 C 
ATOM     60  C   UNL     1     -12.674  12.274   8.111  1.00  0.00     0.031 A 
BRANCH  47  61
ATOM     61  C   UNL     1     -11.338  12.938   2.112  1.00  0.00    -0.014 A 
ATOM     62  C   UNL     1     -12.138  12.543   1.026  1.00  0.00     0.009 A 
ATOM     63  C   UNL     1     -10.652  14.159   2.039  1.00  0.00     0.009 A 
ATOM     64  C   UNL     1     -12.223  13.338  -0.118  1.00  0.00     0.001 A 
ATOM     65  C   UNL     1     -10.762  14.967   0.906  1.00  0.00     0.001 A 
ATOM     66  C   UNL     1     -11.540  14.553  -0.175  1.00  0.00     0.000 A 
ENDBRANCH  47  61
BRANCH  48  67
ATOM     67  C   UNL     1     -10.367   7.056  10.133  1.00  0.00    -0.014 A 
ATOM     68  C   UNL     1     -11.479   6.434  10.722  1.00  0.00     0.009 A 
ATOM     69  C   UNL     1      -9.102   6.869  10.710  1.00  0.00     0.009 A 
ATOM     70  C   UNL     1     -11.332   5.675  11.885  1.00  0.00     0.001 A 
ATOM     71  C   UNL     1      -8.953   6.082  11.854  1.00  0.00     0.001 A 
ATOM     72  C   UNL     1     -10.070   5.496  12.447  1.00  0.00     0.000 A 
ENDBRANCH  48  67
BRANCH  60  73
ATOM     73  C   UNL     1     -13.455  13.184   9.017  1.00  0.00    -0.014 A 
ATOM     74  C   UNL     1     -12.831  13.881  10.063  1.00  0.00     0.009 A 
ATOM     75  C   UNL     1     -14.834  13.348   8.817  1.00  0.00     0.009 A 
ATOM     76  C   UNL     1     -13.582  14.684  10.923  1.00  0.00     0.001 A 
ATOM     77  C   UNL     1     -15.576  14.179   9.658  1.00  0.00     0.001 A 
ATOM     78  C   UNL     1     -14.953  14.834  10.718  1.00  0.00     0.000 A 
ENDBRANCH  60  73
ENDBRANCH  34  35
ENDBRANCH  26  29
ENDBRANCH  24  25
ENDBRANCH  23  24
ENDBRANCH   1  23
TORSDOF 15
