REMARK SMILES C[C@@]1(C(=O)c2ccccc2N)[C@H](C(=O)NCCCCNC(=O)c2ccc(-c3c4nc(c(-c5ccccc5)c5ccc([nH]5)c(-c5ccccc5)c5nc(c(-c6ccccc6)c6ccc3[nH]6)C=C5)C=C4)cc2)[C@@H]1C(=O)N1CCOCC1
REMARK SMILES IDX 17 1 16 2 15 3 13 4 14 5 12 7 1 8 2 9 71 10 3 11 4 12 5 13
REMARK SMILES IDX 6 14 10 15 7 16 9 17 8 18 11 19 72 22 73 23 74 24 75 25
REMARK SMILES IDX 79 26 76 27 78 28 77 29 18 30 19 31 20 32 21 33 22 35 23 36
REMARK SMILES IDX 24 37 70 38 25 39 69 40 26 41 27 42 28 43 63 44 29 45 68 46
REMARK SMILES IDX 62 47 64 48 30 49 67 50 61 51 60 52 31 54 53 55 38 56 52 57
REMARK SMILES IDX 39 58 42 59 51 60 65 61 40 62 41 63 50 65 66 66 43 67 32 68
REMARK SMILES IDX 33 69 37 70 34 71 36 72 35 73 54 74 55 75 59 76 56 77 58 78
REMARK SMILES IDX 57 79 44 80 45 81 49 82 46 83 48 84 47 85
REMARK H PARENT 15 6 11 20 11 21 20 34 64 53 42 64
REMARK Flexibility Score: inf
ROOT
ATOM      1  C   UNL     1      -3.862  -0.705   0.854  1.00  0.00     0.023 C 
ENDROOT
BRANCH   1   2
ATOM      2  C   UNL     1      -2.851  -1.775   0.485  1.00  0.00     0.116 C 
BRANCH   2   3
ATOM      3  N   UNL     1      -2.515  -1.837  -0.909  1.00  0.00    -0.356 N 
ATOM      4  C   UNL     1      -1.333  -2.153  -1.515  1.00  0.00     0.224 C 
ATOM      5  O   UNL     1      -1.429  -2.588  -2.666  1.00  0.00    -0.275 OA
ATOM      6  H   UNL     1      -3.251  -1.618  -1.524  1.00  0.00     0.163 HD
BRANCH   4   7
ATOM      7  C   UNL     1       0.055  -1.993  -0.994  1.00  0.00     0.106 C 
ATOM      8  C   UNL     1       2.090  -0.864  -0.052  1.00  0.00     0.022 C 
ATOM      9  C   UNL     1       0.768  -1.579   0.280  1.00  0.00     0.056 C 
ATOM     10  C   UNL     1       0.660  -3.060  -0.088  1.00  0.00     0.106 C 
BRANCH   9  11
ATOM     11  C   UNL     1       0.109  -0.949   1.468  1.00  0.00     0.172 C 
ATOM     12  O   UNL     1      -0.333   0.191   1.328  1.00  0.00    -0.293 OA
BRANCH  11  13
ATOM     13  C   UNL     1       0.003  -1.605   2.810  1.00  0.00     0.041 A 
ATOM     14  C   UNL     1      -1.135  -1.231   3.560  1.00  0.00     0.014 A 
ATOM     15  C   UNL     1       0.857  -2.606   3.307  1.00  0.00     0.042 A 
ATOM     16  C   UNL     1      -1.520  -1.942   4.693  1.00  0.00     0.001 A 
ATOM     17  C   UNL     1       0.421  -3.344   4.423  1.00  0.00     0.026 A 
ATOM     18  C   UNL     1      -0.757  -3.024   5.105  1.00  0.00     0.002 A 
BRANCH  15  19
ATOM     19  N   UNL     1       2.049  -3.004   2.700  1.00  0.00    -0.398 N 
ATOM     20  H   UNL     1       2.390  -2.515   1.917  1.00  0.00     0.156 HD
ATOM     21  H   UNL     1       2.550  -3.773   3.056  1.00  0.00     0.156 HD
ENDBRANCH  15  19
ENDBRANCH  11  13
ENDBRANCH   9  11
BRANCH  10  22
ATOM     22  C   UNL     1      -0.296  -4.079   0.446  1.00  0.00     0.227 C 
ATOM     23  O   UNL     1      -1.093  -3.792   1.326  1.00  0.00    -0.275 OA
ATOM     24  N   UNL     1      -0.353  -5.306  -0.195  1.00  0.00    -0.338 N 
ATOM     25  C   UNL     1       0.744  -5.984  -0.886  1.00  0.00     0.148 C 
ATOM     26  C   UNL     1      -1.563  -6.118  -0.056  1.00  0.00     0.148 C 
ATOM     27  C   UNL     1       0.269  -6.629  -2.190  1.00  0.00     0.181 C 
ATOM     28  C   UNL     1      -1.958  -6.706  -1.414  1.00  0.00     0.181 C 
ATOM     29  O   UNL     1      -0.876  -7.469  -1.972  1.00  0.00    -0.378 OA
ENDBRANCH  10  22
ENDBRANCH   4   7
ENDBRANCH   2   3
ENDBRANCH   1   2
BRANCH   1  30
ATOM     30  C   UNL     1      -5.291  -1.006   0.420  1.00  0.00     0.023 C 
BRANCH  30  31
ATOM     31  C   UNL     1      -5.792  -2.412   0.741  1.00  0.00     0.116 C 
BRANCH  31  32
ATOM     32  N   UNL     1      -5.643  -2.790   2.142  1.00  0.00    -0.352 N 
ATOM     33  C   UNL     1      -6.586  -3.263   3.023  1.00  0.00     0.251 C 
ATOM     34  H   UNL     1      -4.735  -2.693   2.510  1.00  0.00     0.163 HD
ATOM     35  O   UNL     1      -6.310  -3.453   4.202  1.00  0.00    -0.269 OA
BRANCH  33  36
ATOM     36  C   UNL     1      -7.961  -3.498   2.540  1.00  0.00     0.039 A 
ATOM     37  C   UNL     1      -9.027  -2.914   3.226  1.00  0.00     0.014 A 
ATOM     38  C   UNL     1      -8.183  -4.230   1.371  1.00  0.00     0.014 A 
ATOM     39  C   UNL     1     -10.310  -2.977   2.681  1.00  0.00     0.010 A 
ATOM     40  C   UNL     1      -9.444  -4.220   0.788  1.00  0.00     0.010 A 
ATOM     41  C   UNL     1     -10.517  -3.583   1.431  1.00  0.00    -0.014 A 
BRANCH  41  42
ATOM     42  C   UNL     1     -11.841  -3.547   0.764  1.00  0.00     0.031 A 
ATOM     43  C   UNL     1     -12.574  -4.826   0.475  1.00  0.00     0.074 A 
ATOM     44  C   UNL     1     -12.343  -2.371   0.338  1.00  0.00     0.049 A 
ATOM     45  N   UNL     1     -13.692  -5.007  -0.181  1.00  0.00    -0.248 NA
ATOM     46  C   UNL     1     -11.953  -6.069   0.961  1.00  0.00     0.031 C 
ATOM     47  C   UNL     1     -11.708  -1.061   0.509  1.00  0.00     0.029 A 
ATOM     48  N   UNL     1     -13.504  -2.090  -0.337  1.00  0.00    -0.354 N 
ATOM     49  C   UNL     1     -13.889  -6.381  -0.213  1.00  0.00     0.074 A 
ATOM     50  C   UNL     1     -12.759  -6.989   0.453  1.00  0.00     0.031 C 
ATOM     51  C   UNL     1     -12.503  -0.115  -0.017  1.00  0.00     0.029 A 
ATOM     52  C   UNL     1     -13.681  -0.752  -0.596  1.00  0.00     0.049 A 
ATOM     53  H   UNL     1     -14.150  -2.781  -0.609  1.00  0.00     0.167 HD
ATOM     54  C   UNL     1     -14.928  -7.075  -0.735  1.00  0.00     0.031 A 
ATOM     55  C   UNL     1     -14.679  -0.111  -1.232  1.00  0.00     0.031 A 
ATOM     56  C   UNL     1     -16.069  -6.473  -1.368  1.00  0.00     0.049 A 
ATOM     57  C   UNL     1     -15.829  -0.902  -1.784  1.00  0.00     0.074 A 
ATOM     58  C   UNL     1     -17.205  -7.089  -1.863  1.00  0.00     0.029 A 
ATOM     59  N   UNL     1     -16.220  -5.113  -1.587  1.00  0.00    -0.354 N 
ATOM     60  N   UNL     1     -16.031  -2.197  -1.752  1.00  0.00    -0.248 NA
ATOM     61  C   UNL     1     -16.894  -0.141  -2.453  1.00  0.00     0.031 C 
ATOM     62  C   UNL     1     -18.030  -6.103  -2.413  1.00  0.00     0.029 A 
ATOM     63  C   UNL     1     -17.425  -4.871  -2.224  1.00  0.00     0.049 A 
ATOM     64  H   UNL     1     -15.568  -4.422  -1.329  1.00  0.00     0.167 HD
ATOM     65  C   UNL     1     -17.255  -2.403  -2.373  1.00  0.00     0.074 A 
ATOM     66  C   UNL     1     -17.756  -1.101  -2.761  1.00  0.00     0.031 C 
ATOM     67  C   UNL     1     -17.908  -3.569  -2.599  1.00  0.00     0.031 A 
BRANCH  54  68
ATOM     68  C   UNL     1     -14.871  -8.572  -0.638  1.00  0.00    -0.014 A 
ATOM     69  C   UNL     1     -15.056  -9.227   0.590  1.00  0.00     0.009 A 
ATOM     70  C   UNL     1     -14.652  -9.338  -1.793  1.00  0.00     0.009 A 
ATOM     71  C   UNL     1     -14.987 -10.619   0.665  1.00  0.00     0.001 A 
ATOM     72  C   UNL     1     -14.610 -10.732  -1.719  1.00  0.00     0.001 A 
ATOM     73  C   UNL     1     -14.768 -11.370  -0.489  1.00  0.00     0.000 A 
ENDBRANCH  54  68
BRANCH  55  74
ATOM     74  C   UNL     1     -14.652   1.369  -1.357  1.00  0.00    -0.014 A 
ATOM     75  C   UNL     1     -15.512   2.158  -0.578  1.00  0.00     0.009 A 
ATOM     76  C   UNL     1     -13.778   1.998  -2.256  1.00  0.00     0.009 A 
ATOM     77  C   UNL     1     -15.513   3.547  -0.712  1.00  0.00     0.001 A 
ATOM     78  C   UNL     1     -13.765   3.390  -2.371  1.00  0.00     0.001 A 
ATOM     79  C   UNL     1     -14.638   4.162  -1.606  1.00  0.00     0.000 A 
ENDBRANCH  55  74
BRANCH  67  80
ATOM     80  C   UNL     1     -19.248  -3.483  -3.267  1.00  0.00    -0.014 A 
ATOM     81  C   UNL     1     -19.359  -3.230  -4.643  1.00  0.00     0.009 A 
ATOM     82  C   UNL     1     -20.413  -3.701  -2.515  1.00  0.00     0.009 A 
ATOM     83  C   UNL     1     -20.616  -3.169  -5.247  1.00  0.00     0.001 A 
ATOM     84  C   UNL     1     -21.666  -3.662  -3.127  1.00  0.00     0.001 A 
ATOM     85  C   UNL     1     -21.767  -3.389  -4.491  1.00  0.00     0.000 A 
ENDBRANCH  67  80
ENDBRANCH  41  42
ENDBRANCH  33  36
ENDBRANCH  31  32
ENDBRANCH  30  31
ENDBRANCH   1  30
TORSDOF 15
