REMARK SMILES C[C@H](CO)CSc1cc(Cl)ccc1C(=O)NCCCCNC(=O)c1ccc(-c2c3nc(c(-c4ccccc4)c4ccc([nH]4)c(-c4ccccc4)c4nc(c(-c5ccccc5)c5ccc2[nH]5)C=C4)C=C3)cc1
REMARK SMILES IDX 17 1 16 2 14 3 15 4 13 6 7 7 8 8 9 9 12 10 10 11 11 12 6 13
REMARK SMILES IDX 5 14 2 15 1 16 3 17 4 18 18 20 19 21 20 22 21 23 22 24 23 26
REMARK SMILES IDX 24 27 25 28 71 29 26 30 70 31 27 32 28 33 29 34 64 35 30 36
REMARK SMILES IDX 69 37 63 38 65 39 31 40 68 41 62 42 61 43 32 45 54 46 39 47
REMARK SMILES IDX 53 48 40 49 43 50 52 51 66 52 41 53 42 54 51 56 67 57 44 58
REMARK SMILES IDX 33 59 34 60 38 61 35 62 37 63 36 64 55 65 56 66 60 67 57 68
REMARK SMILES IDX 59 69 58 70 45 71 46 72 50 73 47 74 49 75 48 76
REMARK H PARENT 16 5 4 19 21 25 65 44 43 55
REMARK Flexibility Score: inf
ROOT
ATOM      1  C   UNL     1      -2.905  -1.059   0.567  1.00  0.00     0.116 C 
ENDROOT
BRANCH   1   2
ATOM      2  N   UNL     1      -2.481   0.268   0.155  1.00  0.00    -0.352 N 
ATOM      3  C   UNL     1      -1.870   0.729  -0.982  1.00  0.00     0.252 C 
ATOM      4  O   UNL     1      -1.745   1.947  -1.118  1.00  0.00    -0.269 OA
ATOM      5  H   UNL     1      -2.669   0.970   0.819  1.00  0.00     0.163 HD
BRANCH   3   6
ATOM      6  C   UNL     1      -1.375  -0.151  -2.071  1.00  0.00     0.053 A 
ATOM      7  C   UNL     1      -0.492  -1.237  -1.933  1.00  0.00     0.021 A 
ATOM      8  C   UNL     1      -0.175  -2.007  -3.070  1.00  0.00     0.036 A 
ATOM      9  C   UNL     1      -0.566  -1.599  -4.341  1.00  0.00     0.042 A 
ATOM     10  C   UNL     1      -1.724   0.270  -3.371  1.00  0.00     0.016 A 
ATOM     11  Cl  UNL     1      -0.066  -2.501  -5.716  1.00  0.00    -0.084 Cl
ATOM     12  C   UNL     1      -1.299  -0.433  -4.500  1.00  0.00     0.021 A 
BRANCH   7  13
ATOM     13  S   UNL     1       0.502  -1.692  -0.518  1.00  0.00    -0.125 SA
BRANCH  13  14
ATOM     14  C   UNL     1       0.786  -0.083   0.304  1.00  0.00     0.080 C 
BRANCH  14  15
ATOM     15  C   UNL     1       2.228   0.039   0.798  1.00  0.00     0.022 C 
ATOM     16  C   UNL     1       2.245   0.867   2.087  1.00  0.00     0.011 C 
BRANCH  15  17
ATOM     17  C   UNL     1       3.107   0.669  -0.290  1.00  0.00     0.160 C 
BRANCH  17  18
ATOM     18  O   UNL     1       2.821   2.051  -0.470  1.00  0.00    -0.396 OA
ATOM     19  H   UNL     1       1.898   2.157  -0.748  1.00  0.00     0.210 HD
ENDBRANCH  17  18
ENDBRANCH  15  17
ENDBRANCH  14  15
ENDBRANCH  13  14
ENDBRANCH   7  13
ENDBRANCH   3   6
ENDBRANCH   1   2
BRANCH   1  20
ATOM     20  C   UNL     1      -2.119  -1.613   1.759  1.00  0.00     0.023 C 
BRANCH  20  21
ATOM     21  C   UNL     1      -2.048  -0.717   2.997  1.00  0.00     0.023 C 
BRANCH  21  22
ATOM     22  C   UNL     1      -3.292  -0.786   3.860  1.00  0.00     0.116 C 
BRANCH  22  23
ATOM     23  N   UNL     1      -3.533  -2.139   4.345  1.00  0.00    -0.352 N 
ATOM     24  C   UNL     1      -3.837  -2.578   5.600  1.00  0.00     0.251 C 
ATOM     25  H   UNL     1      -3.466  -2.845   3.661  1.00  0.00     0.163 HD
ATOM     26  O   UNL     1      -3.787  -3.783   5.858  1.00  0.00    -0.269 OA
BRANCH  24  27
ATOM     27  C   UNL     1      -4.225  -1.616   6.643  1.00  0.00     0.039 A 
ATOM     28  C   UNL     1      -3.829  -1.851   7.961  1.00  0.00     0.014 A 
ATOM     29  C   UNL     1      -5.008  -0.502   6.325  1.00  0.00     0.014 A 
ATOM     30  C   UNL     1      -4.211  -0.958   8.957  1.00  0.00     0.010 A 
ATOM     31  C   UNL     1      -5.289   0.445   7.295  1.00  0.00     0.010 A 
ATOM     32  C   UNL     1      -4.935   0.199   8.624  1.00  0.00    -0.014 A 
BRANCH  32  33
ATOM     33  C   UNL     1      -5.388   1.132   9.675  1.00  0.00     0.031 A 
ATOM     34  C   UNL     1      -6.860   1.310   9.925  1.00  0.00     0.074 A 
ATOM     35  C   UNL     1      -4.471   1.825  10.371  1.00  0.00     0.049 A 
ATOM     36  N   UNL     1      -7.459   2.046  10.825  1.00  0.00    -0.248 NA
ATOM     37  C   UNL     1      -7.785   0.599   9.024  1.00  0.00     0.031 C 
ATOM     38  C   UNL     1      -3.023   1.776  10.149  1.00  0.00     0.029 A 
ATOM     39  N   UNL     1      -4.618   2.691  11.420  1.00  0.00    -0.354 N 
ATOM     40  C   UNL     1      -8.819   1.901  10.581  1.00  0.00     0.074 A 
ATOM     41  C   UNL     1      -8.960   1.067   9.411  1.00  0.00     0.031 C 
ATOM     42  C   UNL     1      -2.412   2.530  11.075  1.00  0.00     0.029 A 
ATOM     43  C   UNL     1      -3.424   3.131  11.935  1.00  0.00     0.049 A 
ATOM     44  H   UNL     1      -5.494   2.972  11.770  1.00  0.00     0.167 HD
ATOM     45  C   UNL     1      -9.861   2.393  11.292  1.00  0.00     0.031 A 
ATOM     46  C   UNL     1      -3.182   3.909  13.004  1.00  0.00     0.031 A 
ATOM     47  C   UNL     1      -9.701   3.196  12.473  1.00  0.00     0.049 A 
ATOM     48  C   UNL     1      -4.350   4.388  13.817  1.00  0.00     0.074 A 
ATOM     49  C   UNL     1     -10.674   3.704  13.313  1.00  0.00     0.029 A 
ATOM     50  N   UNL     1      -8.475   3.596  12.983  1.00  0.00    -0.354 N 
ATOM     51  N   UNL     1      -5.632   4.181  13.622  1.00  0.00    -0.248 NA
ATOM     52  C   UNL     1      -4.038   5.183  15.010  1.00  0.00     0.031 C 
ATOM     53  C   UNL     1     -10.034   4.444  14.315  1.00  0.00     0.029 A 
ATOM     54  C   UNL     1      -8.664   4.354  14.124  1.00  0.00     0.049 A 
ATOM     55  H   UNL     1      -7.600   3.373  12.591  1.00  0.00     0.167 HD
ATOM     56  C   UNL     1      -6.280   4.805  14.678  1.00  0.00     0.074 A 
ATOM     57  C   UNL     1      -5.245   5.370  15.524  1.00  0.00     0.031 C 
ATOM     58  C   UNL     1      -7.608   4.910  14.931  1.00  0.00     0.031 A 
BRANCH  45  59
ATOM     59  C   UNL     1     -11.246   2.067  10.804  1.00  0.00    -0.014 A 
ATOM     60  C   UNL     1     -11.750   0.756  10.863  1.00  0.00     0.009 A 
ATOM     61  C   UNL     1     -12.060   3.080  10.276  1.00  0.00     0.009 A 
ATOM     62  C   UNL     1     -13.020   0.460  10.363  1.00  0.00     0.001 A 
ATOM     63  C   UNL     1     -13.342   2.787   9.805  1.00  0.00     0.001 A 
ATOM     64  C   UNL     1     -13.816   1.476   9.838  1.00  0.00     0.000 A 
ENDBRANCH  45  59
BRANCH  46  65
ATOM     65  C   UNL     1      -1.783   4.218  13.397  1.00  0.00    -0.014 A 
ATOM     66  C   UNL     1      -1.221   3.635  14.543  1.00  0.00     0.009 A 
ATOM     67  C   UNL     1      -0.994   5.079  12.618  1.00  0.00     0.009 A 
ATOM     68  C   UNL     1       0.092   3.929  14.916  1.00  0.00     0.001 A 
ATOM     69  C   UNL     1       0.328   5.348  12.978  1.00  0.00     0.001 A 
ATOM     70  C   UNL     1       0.867   4.781  14.132  1.00  0.00     0.000 A 
ENDBRANCH  46  65
BRANCH  58  71
ATOM     71  C   UNL     1      -7.997   5.649  16.177  1.00  0.00    -0.014 A 
ATOM     72  C   UNL     1      -7.858   7.043  16.266  1.00  0.00     0.009 A 
ATOM     73  C   UNL     1      -8.518   4.941  17.270  1.00  0.00     0.009 A 
ATOM     74  C   UNL     1      -8.190   7.708  17.446  1.00  0.00     0.001 A 
ATOM     75  C   UNL     1      -8.879   5.613  18.437  1.00  0.00     0.001 A 
ATOM     76  C   UNL     1      -8.702   6.993  18.529  1.00  0.00     0.000 A 
ENDBRANCH  58  71
ENDBRANCH  32  33
ENDBRANCH  24  27
ENDBRANCH  22  23
ENDBRANCH  21  22
ENDBRANCH  20  21
ENDBRANCH   1  20
TORSDOF 16
