REMARK SMILES COc1ccc([C@H]2CC(c3ccc(S(C)(=O)=O)cc3)=NN2c2ccc(C(=O)NCCCCNC(=O)c3ccc(-c4c5nc(c(-c6ccccc6)c6ccc([nH]6)c(-c6ccccc6)c6nc(c(-c7ccccc7)c7ccc4[nH]7)C=C6)C=C5)cc3)cc2)cc1
REMARK SMILES IDX 30 1 29 2 28 3 26 4 27 5 25 7 22 8 23 9 85 10 24 11 84 12
REMARK SMILES IDX 21 13 7 14 8 15 9 16 20 17 6 18 3 19 4 20 87 21 5 22 86 23
REMARK SMILES IDX 2 24 1 25 10 26 11 27 19 28 12 29 18 30 13 31 14 32 15 33
REMARK SMILES IDX 16 34 17 35 31 36 32 37 33 38 34 39 35 41 36 42 37 43 83 44
REMARK SMILES IDX 38 45 82 46 39 47 40 48 41 49 76 50 42 51 81 52 75 53 77 54
REMARK SMILES IDX 43 55 80 56 74 57 73 58 44 60 66 61 51 62 65 63 52 64 55 65
REMARK SMILES IDX 64 66 78 67 53 68 54 69 63 71 79 72 56 73 45 74 46 75 50 76
REMARK SMILES IDX 47 77 49 78 48 79 67 80 68 81 72 82 69 83 71 84 70 85 57 86
REMARK SMILES IDX 58 87 62 88 59 89 61 90 60 91
REMARK H PARENT 28 6 33 40 77 59 55 70
REMARK Flexibility Score: inf
ROOT
ATOM      1  C   UNL     1      -0.048 -11.638   1.899  1.00  0.00     0.023 C 
ENDROOT
BRANCH   1   2
ATOM      2  C   UNL     1       0.192 -10.303   2.608  1.00  0.00     0.116 C 
BRANCH   2   3
ATOM      3  N   UNL     1       1.558 -10.221   3.082  1.00  0.00    -0.352 N 
ATOM      4  C   UNL     1       2.688  -9.659   2.544  1.00  0.00     0.251 C 
ATOM      5  O   UNL     1       3.725  -9.751   3.202  1.00  0.00    -0.269 OA
ATOM      6  H   UNL     1       1.703 -10.650   3.956  1.00  0.00     0.163 HD
BRANCH   4   7
ATOM      7  C   UNL     1       2.709  -8.914   1.251  1.00  0.00     0.039 A 
ATOM      8  C   UNL     1       2.886  -7.356  -1.113  1.00  0.00     0.060 A 
ATOM      9  C   UNL     1       3.826  -7.216  -0.087  1.00  0.00     0.029 A 
ATOM     10  C   UNL     1       1.891  -8.323  -0.963  1.00  0.00     0.029 A 
ATOM     11  C   UNL     1       3.729  -7.967   1.088  1.00  0.00     0.016 A 
ATOM     12  C   UNL     1       1.826  -9.118   0.188  1.00  0.00     0.016 A 
BRANCH   8  13
ATOM     13  N   UNL     1       2.986  -6.575  -2.252  1.00  0.00    -0.257 N 
ATOM     14  C   UNL     1       1.887  -5.802  -2.827  1.00  0.00     0.144 C 
ATOM     15  C   UNL     1       2.435  -5.402  -4.204  1.00  0.00     0.091 C 
ATOM     16  C   UNL     1       3.740  -6.144  -4.187  1.00  0.00     0.071 C 
ATOM     17  N   UNL     1       4.024  -6.788  -3.101  1.00  0.00    -0.176 NA
BRANCH  14  18
ATOM     18  C   UNL     1       1.545  -4.595  -1.969  1.00  0.00    -0.023 A 
ATOM     19  C   UNL     1       0.888  -2.334  -0.423  1.00  0.00     0.118 A 
ATOM     20  C   UNL     1      -0.091  -3.269  -0.755  1.00  0.00     0.047 A 
ATOM     21  C   UNL     1       2.206  -2.546  -0.820  1.00  0.00     0.047 A 
ATOM     22  C   UNL     1       0.229  -4.386  -1.532  1.00  0.00     0.010 A 
ATOM     23  C   UNL     1       2.531  -3.669  -1.587  1.00  0.00     0.010 A 
BRANCH  19  24
ATOM     24  O   UNL     1       0.472  -1.276   0.338  1.00  0.00    -0.497 OA
ATOM     25  C   UNL     1       1.079  -0.034  -0.008  1.00  0.00     0.278 C 
ENDBRANCH  19  24
ENDBRANCH  14  18
BRANCH  16  26
ATOM     26  C   UNL     1       4.613  -6.160  -5.360  1.00  0.00    -0.002 A 
ATOM     27  C   UNL     1       4.871  -7.383  -5.986  1.00  0.00     0.011 A 
ATOM     28  C   UNL     1       5.202  -4.977  -5.809  1.00  0.00     0.011 A 
ATOM     29  C   UNL     1       5.723  -7.424  -7.088  1.00  0.00     0.021 A 
ATOM     30  C   UNL     1       6.075  -5.020  -6.897  1.00  0.00     0.021 A 
ATOM     31  C   UNL     1       6.334  -6.244  -7.525  1.00  0.00     0.067 A 
BRANCH  31  32
ATOM     32  S   UNL     1       7.448  -6.313  -8.909  1.00  0.00     0.175 S 
ATOM     33  C   UNL     1       8.766  -7.361  -8.350  1.00  0.00     0.163 C 
ATOM     34  O   UNL     1       6.742  -6.989  -9.979  1.00  0.00    -0.224 OA
ATOM     35  O   UNL     1       7.996  -4.982  -9.097  1.00  0.00    -0.224 OA
ENDBRANCH  31  32
ENDBRANCH  16  26
ENDBRANCH   8  13
ENDBRANCH   4   7
ENDBRANCH   2   3
ENDBRANCH   1   2
BRANCH   1  36
ATOM     36  C   UNL     1      -0.217 -12.829   2.847  1.00  0.00     0.023 C 
BRANCH  36  37
ATOM     37  C   UNL     1      -1.431 -12.748   3.767  1.00  0.00     0.116 C 
BRANCH  37  38
ATOM     38  N   UNL     1      -2.687 -12.615   3.046  1.00  0.00    -0.352 N 
ATOM     39  C   UNL     1      -3.934 -13.059   3.411  1.00  0.00     0.251 C 
ATOM     40  H   UNL     1      -2.637 -12.144   2.183  1.00  0.00     0.163 HD
ATOM     41  O   UNL     1      -4.880 -12.957   2.638  1.00  0.00    -0.269 OA
BRANCH  39  42
ATOM     42  C   UNL     1      -4.118 -13.702   4.728  1.00  0.00     0.039 A 
ATOM     43  C   UNL     1      -4.789 -14.925   4.785  1.00  0.00     0.014 A 
ATOM     44  C   UNL     1      -3.612 -13.116   5.891  1.00  0.00     0.014 A 
ATOM     45  C   UNL     1      -4.898 -15.593   6.005  1.00  0.00     0.010 A 
ATOM     46  C   UNL     1      -3.665 -13.812   7.093  1.00  0.00     0.010 A 
ATOM     47  C   UNL     1      -4.308 -15.057   7.161  1.00  0.00    -0.014 A 
BRANCH  47  48
ATOM     48  C   UNL     1      -4.354 -15.790   8.449  1.00  0.00     0.031 A 
ATOM     49  C   UNL     1      -5.131 -15.236   9.608  1.00  0.00     0.074 A 
ATOM     50  C   UNL     1      -3.652 -16.931   8.587  1.00  0.00     0.049 A 
ATOM     51  N   UNL     1      -5.271 -15.724  10.815  1.00  0.00    -0.248 NA
ATOM     52  C   UNL     1      -5.824 -13.956   9.391  1.00  0.00     0.031 C 
ATOM     53  C   UNL     1      -2.826 -17.551   7.548  1.00  0.00     0.029 A 
ATOM     54  N   UNL     1      -3.525 -17.773   9.661  1.00  0.00    -0.354 N 
ATOM     55  C   UNL     1      -6.057 -14.808  11.502  1.00  0.00     0.074 A 
ATOM     56  C   UNL     1      -6.319 -13.711  10.595  1.00  0.00     0.031 C 
ATOM     57  C   UNL     1      -2.308 -18.695   8.025  1.00  0.00     0.029 A 
ATOM     58  C   UNL     1      -2.738 -18.870   9.409  1.00  0.00     0.049 A 
ATOM     59  H   UNL     1      -3.957 -17.608  10.531  1.00  0.00     0.167 HD
ATOM     60  C   UNL     1      -6.537 -14.880  12.766  1.00  0.00     0.031 A 
ATOM     61  C   UNL     1      -2.404 -19.904  10.203  1.00  0.00     0.031 A 
ATOM     62  C   UNL     1      -6.280 -15.971  13.668  1.00  0.00     0.049 A 
ATOM     63  C   UNL     1      -2.936 -19.954  11.606  1.00  0.00     0.074 A 
ATOM     64  C   UNL     1      -6.758 -16.160  14.953  1.00  0.00     0.029 A 
ATOM     65  N   UNL     1      -5.471 -17.058  13.378  1.00  0.00    -0.354 N 
ATOM     66  N   UNL     1      -3.728 -19.110  12.221  1.00  0.00    -0.248 NA
ATOM     67  C   UNL     1      -2.534 -21.110  12.421  1.00  0.00     0.031 C 
ATOM     68  C   UNL     1      -6.205 -17.343  15.455  1.00  0.00     0.029 A 
ATOM     69  C   UNL     1      -5.421 -17.914  14.466  1.00  0.00     0.049 A 
ATOM     70  H   UNL     1      -5.003 -17.202  12.524  1.00  0.00     0.167 HD
ATOM     71  C   UNL     1      -3.940 -19.644  13.485  1.00  0.00     0.074 A 
ATOM     72  C   UNL     1      -3.206 -20.892  13.543  1.00  0.00     0.031 C 
ATOM     73  C   UNL     1      -4.678 -19.146  14.508  1.00  0.00     0.031 A 
BRANCH  60  74
ATOM     74  C   UNL     1      -7.386 -13.735  13.241  1.00  0.00    -0.014 A 
ATOM     75  C   UNL     1      -8.679 -13.533  12.732  1.00  0.00     0.009 A 
ATOM     76  C   UNL     1      -6.892 -12.851  14.212  1.00  0.00     0.009 A 
ATOM     77  C   UNL     1      -9.444 -12.444  13.155  1.00  0.00     0.001 A 
ATOM     78  C   UNL     1      -7.670 -11.779  14.654  1.00  0.00     0.001 A 
ATOM     79  C   UNL     1      -8.940 -11.570  14.117  1.00  0.00     0.000 A 
ENDBRANCH  60  74
BRANCH  61  80
ATOM     80  C   UNL     1      -1.551 -20.999   9.677  1.00  0.00    -0.014 A 
ATOM     81  C   UNL     1      -2.109 -22.256   9.396  1.00  0.00     0.009 A 
ATOM     82  C   UNL     1      -0.180 -20.799   9.457  1.00  0.00     0.009 A 
ATOM     83  C   UNL     1      -1.306 -23.297   8.927  1.00  0.00     0.001 A 
ATOM     84  C   UNL     1       0.616 -21.836   8.964  1.00  0.00     0.001 A 
ATOM     85  C   UNL     1       0.054 -23.086   8.708  1.00  0.00     0.000 A 
ENDBRANCH  61  80
BRANCH  73  86
ATOM     86  C   UNL     1      -4.745 -19.970  15.761  1.00  0.00    -0.014 A 
ATOM     87  C   UNL     1      -3.647 -20.064  16.630  1.00  0.00     0.009 A 
ATOM     88  C   UNL     1      -5.931 -20.646  16.087  1.00  0.00     0.009 A 
ATOM     89  C   UNL     1      -3.724 -20.849  17.782  1.00  0.00     0.001 A 
ATOM     90  C   UNL     1      -6.014 -21.408  17.253  1.00  0.00     0.001 A 
ATOM     91  C   UNL     1      -4.908 -21.517  18.093  1.00  0.00     0.000 A 
ENDBRANCH  73  86
ENDBRANCH  47  48
ENDBRANCH  39  42
ENDBRANCH  37  38
ENDBRANCH  36  37
ENDBRANCH   1  36
TORSDOF 16
