REMARK SMILES Cc1nc(C(=O)NCCCCNC(=O)c2ccc(-c3c4nc(c(-c5ccccc5)c5ccc([nH]5)c(-c5ccccc5)c5nc(c(-c6ccccc6)c6ccc3[nH]6)C=C5)C=C4)cc2)nn1-c1cccc(C(F)(F)F)c1
REMARK SMILES IDX 9 1 8 2 7 3 5 4 6 5 4 7 1 8 2 9 3 10 64 11 63 12 65 13 66 14
REMARK SMILES IDX 74 15 67 16 69 17 68 18 70 19 71 20 72 21 73 22 10 23 11 24
REMARK SMILES IDX 12 25 13 26 14 28 15 29 16 30 62 31 17 32 61 33 18 34 19 35
REMARK SMILES IDX 20 36 55 37 21 38 60 39 54 40 56 41 22 42 59 43 53 44 52 45
REMARK SMILES IDX 23 47 45 48 30 49 44 50 31 51 34 52 43 53 57 54 32 55 33 56
REMARK SMILES IDX 42 58 58 59 35 60 24 61 25 62 29 63 26 64 28 65 27 66 46 67
REMARK SMILES IDX 47 68 51 69 48 70 50 71 49 72 36 73 37 74 41 75 38 76 40 77
REMARK SMILES IDX 39 78
REMARK H PARENT 7 6 12 27 56 46 34 57
REMARK Flexibility Score: inf
ROOT
ATOM      1  C   UNL     1       0.126  -0.713  -7.307  1.00  0.00     0.023 C 
ENDROOT
BRANCH   1   2
ATOM      2  C   UNL     1      -0.851  -1.162  -6.215  1.00  0.00     0.116 C 
BRANCH   2   3
ATOM      3  N   UNL     1      -0.512  -2.456  -5.642  1.00  0.00    -0.349 N 
ATOM      4  C   UNL     1      -0.131  -2.803  -4.354  1.00  0.00     0.290 C 
ATOM      5  O   UNL     1       0.175  -3.983  -4.165  1.00  0.00    -0.266 OA
ATOM      6  H   UNL     1      -0.563  -3.211  -6.273  1.00  0.00     0.163 HD
BRANCH   4   7
ATOM      7  C   UNL     1      -0.062  -1.785  -3.281  1.00  0.00     0.239 A 
ATOM      8  C   UNL     1       1.220  -0.380  -0.247  1.00  0.00     0.090 C 
ATOM      9  C   UNL     1       0.654  -0.733  -1.571  1.00  0.00     0.130 A 
ATOM     10  N   UNL     1       0.780  -1.892  -2.188  1.00  0.00    -0.207 NA
ATOM     11  N   UNL     1      -0.172   0.079  -2.321  1.00  0.00    -0.217 N 
ATOM     12  N   UNL     1      -0.813  -0.670  -3.244  1.00  0.00    -0.140 NA
BRANCH  11  13
ATOM     13  C   UNL     1      -0.301   1.488  -2.360  1.00  0.00     0.067 A 
ATOM     14  C   UNL     1      -1.500   2.047  -2.822  1.00  0.00     0.028 A 
ATOM     15  C   UNL     1       0.795   2.313  -2.074  1.00  0.00     0.041 A 
ATOM     16  C   UNL     1      -1.619   3.429  -2.954  1.00  0.00     0.003 A 
ATOM     17  C   UNL     1       0.697   3.703  -2.262  1.00  0.00     0.058 A 
ATOM     18  C   UNL     1      -0.526   4.252  -2.680  1.00  0.00     0.013 A 
BRANCH  17  19
ATOM     19  C   UNL     1       1.892   4.606  -2.065  1.00  0.00     0.416 C 
ATOM     20  F   UNL     1       2.165   5.354  -3.170  1.00  0.00    -0.166 F 
ATOM     21  F   UNL     1       1.717   5.488  -1.045  1.00  0.00    -0.166 F 
ATOM     22  F   UNL     1       3.040   3.927  -1.783  1.00  0.00    -0.166 F 
ENDBRANCH  17  19
ENDBRANCH  11  13
ENDBRANCH   4   7
ENDBRANCH   2   3
ENDBRANCH   1   2
BRANCH   1  23
ATOM     23  C   UNL     1       0.078  -1.492  -8.627  1.00  0.00     0.023 C 
BRANCH  23  24
ATOM     24  C   UNL     1      -1.259  -1.439  -9.356  1.00  0.00     0.116 C 
BRANCH  24  25
ATOM     25  N   UNL     1      -1.631  -0.098  -9.806  1.00  0.00    -0.352 N 
ATOM     26  C   UNL     1      -2.794   0.276 -10.461  1.00  0.00     0.251 C 
ATOM     27  H   UNL     1      -0.983   0.620  -9.622  1.00  0.00     0.163 HD
ATOM     28  O   UNL     1      -2.858   1.301 -11.115  1.00  0.00    -0.269 OA
BRANCH  26  29
ATOM     29  C   UNL     1      -3.970  -0.606 -10.338  1.00  0.00     0.039 A 
ATOM     30  C   UNL     1      -4.729  -0.972 -11.452  1.00  0.00     0.014 A 
ATOM     31  C   UNL     1      -4.258  -1.114  -9.075  1.00  0.00     0.014 A 
ATOM     32  C   UNL     1      -5.720  -1.942 -11.298  1.00  0.00     0.010 A 
ATOM     33  C   UNL     1      -5.134  -2.164  -8.952  1.00  0.00     0.010 A 
ATOM     34  C   UNL     1      -5.896  -2.560 -10.049  1.00  0.00    -0.014 A 
BRANCH  34  35
ATOM     35  C   UNL     1      -6.747  -3.743  -9.913  1.00  0.00     0.031 A 
ATOM     36  C   UNL     1      -6.404  -4.846 -10.853  1.00  0.00     0.074 A 
ATOM     37  C   UNL     1      -7.591  -3.932  -8.873  1.00  0.00     0.049 A 
ATOM     38  N   UNL     1      -7.128  -5.315 -11.814  1.00  0.00    -0.248 NA
ATOM     39  C   UNL     1      -5.042  -5.410 -10.808  1.00  0.00     0.031 C 
ATOM     40  C   UNL     1      -7.770  -3.053  -7.707  1.00  0.00     0.029 A 
ATOM     41  N   UNL     1      -8.371  -5.006  -8.555  1.00  0.00    -0.354 N 
ATOM     42  C   UNL     1      -6.411  -6.387 -12.342  1.00  0.00     0.074 A 
ATOM     43  C   UNL     1      -5.072  -6.273 -11.827  1.00  0.00     0.031 C 
ATOM     44  C   UNL     1      -8.379  -3.734  -6.713  1.00  0.00     0.029 A 
ATOM     45  C   UNL     1      -8.807  -5.018  -7.232  1.00  0.00     0.049 A 
ATOM     46  H   UNL     1      -8.604  -5.710  -9.202  1.00  0.00     0.167 HD
ATOM     47  C   UNL     1      -7.060  -7.452 -12.890  1.00  0.00     0.031 A 
ATOM     48  C   UNL     1      -9.479  -6.005  -6.592  1.00  0.00     0.031 A 
ATOM     49  C   UNL     1      -8.454  -7.155 -13.099  1.00  0.00     0.049 A 
ATOM     50  C   UNL     1     -10.118  -6.847  -7.619  1.00  0.00     0.074 A 
ATOM     51  C   UNL     1      -9.207  -6.402 -13.970  1.00  0.00     0.029 A 
ATOM     52  N   UNL     1      -9.230  -7.419 -12.002  1.00  0.00    -0.354 N 
ATOM     53  N   UNL     1     -11.079  -6.421  -8.387  1.00  0.00    -0.248 NA
ATOM     54  C   UNL     1      -9.469  -8.078  -8.049  1.00  0.00     0.031 C 
ATOM     55  C   UNL     1     -10.395  -6.054 -13.257  1.00  0.00     0.029 A 
ATOM     56  C   UNL     1     -10.358  -6.649 -11.997  1.00  0.00     0.049 A 
ATOM     57  H   UNL     1      -9.004  -8.079 -11.307  1.00  0.00     0.167 HD
ATOM     58  C   UNL     1     -10.844  -7.048  -9.594  1.00  0.00     0.074 A 
ATOM     59  C   UNL     1      -9.986  -8.182  -9.277  1.00  0.00     0.031 C 
ATOM     60  C   UNL     1     -11.089  -6.404 -10.772  1.00  0.00     0.031 A 
BRANCH  47  61
ATOM     61  C   UNL     1      -6.618  -8.893 -12.712  1.00  0.00    -0.014 A 
ATOM     62  C   UNL     1      -7.403  -9.909 -13.294  1.00  0.00     0.009 A 
ATOM     63  C   UNL     1      -5.677  -9.305 -11.750  1.00  0.00     0.009 A 
ATOM     64  C   UNL     1      -7.298 -11.245 -12.883  1.00  0.00     0.001 A 
ATOM     65  C   UNL     1      -5.546 -10.643 -11.361  1.00  0.00     0.001 A 
ATOM     66  C   UNL     1      -6.375 -11.610 -11.909  1.00  0.00     0.000 A 
ENDBRANCH  47  61
BRANCH  48  67
ATOM     67  C   UNL     1      -9.500  -6.372  -5.162  1.00  0.00    -0.014 A 
ATOM     68  C   UNL     1     -10.583  -7.078  -4.614  1.00  0.00     0.009 A 
ATOM     69  C   UNL     1      -8.322  -6.279  -4.401  1.00  0.00     0.009 A 
ATOM     70  C   UNL     1     -10.473  -7.711  -3.369  1.00  0.00     0.001 A 
ATOM     71  C   UNL     1      -8.212  -6.914  -3.158  1.00  0.00     0.001 A 
ATOM     72  C   UNL     1      -9.281  -7.644  -2.650  1.00  0.00     0.000 A 
ENDBRANCH  48  67
BRANCH  60  73
ATOM     73  C   UNL     1     -12.047  -5.247 -10.746  1.00  0.00    -0.014 A 
ATOM     74  C   UNL     1     -11.810  -4.048 -10.055  1.00  0.00     0.009 A 
ATOM     75  C   UNL     1     -13.209  -5.356 -11.523  1.00  0.00     0.009 A 
ATOM     76  C   UNL     1     -12.731  -2.997 -10.122  1.00  0.00     0.001 A 
ATOM     77  C   UNL     1     -14.116  -4.300 -11.607  1.00  0.00     0.001 A 
ATOM     78  C   UNL     1     -13.881  -3.123 -10.901  1.00  0.00     0.000 A 
ENDBRANCH  60  73
ENDBRANCH  34  35
ENDBRANCH  26  29
ENDBRANCH  24  25
ENDBRANCH  23  24
ENDBRANCH   1  23
TORSDOF 13
