REMARK SMILES CS(=O)(=O)c1ccc(-n2nc(C(F)(F)F)cc2-c2ccc(CC(=O)NCCCCNC(=O)c3ccc(-c4c5nc(c(-c6ccccc6)c6ccc([nH]6)c(-c6ccccc6)c6nc(c(-c7ccccc7)c7ccc4[nH]7)C=C6)C=C5)cc3)cc2)cc1
REMARK SMILES IDX 26 1 25 2 23 3 24 4 22 6 21 7 18 8 19 9 82 10 20 11 81 12
REMARK SMILES IDX 17 13 9 14 10 15 11 16 16 17 8 18 5 19 6 20 84 21 7 22 83 23
REMARK SMILES IDX 2 24 1 25 3 26 4 27 12 28 13 29 14 30 15 31 27 32 28 33
REMARK SMILES IDX 29 34 30 35 31 36 32 38 33 39 34 40 80 41 35 42 79 43 36 44
REMARK SMILES IDX 37 45 38 46 73 47 39 48 78 49 72 50 74 51 40 52 77 53 71 54
REMARK SMILES IDX 70 55 41 57 63 58 48 59 62 60 49 61 52 62 61 63 75 64 50 65
REMARK SMILES IDX 51 66 60 68 76 69 53 70 42 71 43 72 47 73 44 74 46 75 45 76
REMARK SMILES IDX 64 77 65 78 69 79 66 80 68 81 67 82 54 83 55 84 59 85 56 86
REMARK SMILES IDX 58 87 57 88
REMARK H PARENT 25 5 30 37 74 56 52 67
REMARK Flexibility Score: inf
ROOT
ATOM      1  C   UNL     1       2.960  -5.168  -0.565  1.00  0.00     0.116 C 
ENDROOT
BRANCH   1   2
ATOM      2  N   UNL     1       4.156  -4.400  -0.855  1.00  0.00    -0.356 N 
ATOM      3  C   UNL     1       5.367  -4.424  -0.224  1.00  0.00     0.224 C 
ATOM      4  O   UNL     1       6.215  -3.597  -0.566  1.00  0.00    -0.275 OA
ATOM      5  H   UNL     1       4.085  -3.774  -1.612  1.00  0.00     0.163 HD
BRANCH   3   6
ATOM      6  C   UNL     1       5.662  -5.474   0.836  1.00  0.00     0.135 C 
BRANCH   6   7
ATOM      7  C   UNL     1       4.881  -5.287   2.114  1.00  0.00    -0.039 A 
ATOM      8  C   UNL     1       3.280  -4.872   4.392  1.00  0.00     0.000 A 
ATOM      9  C   UNL     1       4.199  -3.898   3.978  1.00  0.00     0.010 A 
ATOM     10  C   UNL     1       3.214  -6.081   3.696  1.00  0.00     0.010 A 
ATOM     11  C   UNL     1       4.991  -4.101   2.847  1.00  0.00     0.005 A 
ATOM     12  C   UNL     1       4.017  -6.292   2.574  1.00  0.00     0.005 A 
BRANCH   8  13
ATOM     13  C   UNL     1       2.430  -4.644   5.559  1.00  0.00     0.075 A 
ATOM     14  N   UNL     1       1.691  -3.494   5.806  1.00  0.00    -0.233 N 
ATOM     15  N   UNL     1       1.238  -3.446   7.083  1.00  0.00    -0.163 NA
ATOM     16  C   UNL     1       1.474  -4.678   7.578  1.00  0.00     0.167 A 
ATOM     17  C   UNL     1       2.245  -5.443   6.669  1.00  0.00     0.064 A 
BRANCH  14  18
ATOM     18  C   UNL     1       1.321  -2.481   4.885  1.00  0.00     0.065 A 
ATOM     19  C   UNL     1       0.607  -0.489   3.067  1.00  0.00     0.067 A 
ATOM     20  C   UNL     1       0.387  -1.831   2.755  1.00  0.00     0.022 A 
ATOM     21  C   UNL     1       1.121  -0.137   4.317  1.00  0.00     0.022 A 
ATOM     22  C   UNL     1       0.801  -2.834   3.635  1.00  0.00     0.030 A 
ATOM     23  C   UNL     1       1.433  -1.134   5.249  1.00  0.00     0.030 A 
BRANCH  19  24
ATOM     24  S   UNL     1       0.186   0.782   1.891  1.00  0.00     0.175 S 
ATOM     25  C   UNL     1       0.932   0.310   0.352  1.00  0.00     0.163 C 
ATOM     26  O   UNL     1       0.855   1.998   2.317  1.00  0.00    -0.224 OA
ATOM     27  O   UNL     1      -1.250   0.731   1.720  1.00  0.00    -0.224 OA
ENDBRANCH  19  24
ENDBRANCH  14  18
BRANCH  16  28
ATOM     28  C   UNL     1       0.983  -5.139   8.924  1.00  0.00     0.435 C 
ATOM     29  F   UNL     1       1.279  -4.272   9.926  1.00  0.00    -0.164 F 
ATOM     30  F   UNL     1      -0.364  -5.328   8.939  1.00  0.00    -0.164 F 
ATOM     31  F   UNL     1       1.536  -6.335   9.274  1.00  0.00    -0.164 F 
ENDBRANCH  16  28
ENDBRANCH   8  13
ENDBRANCH   6   7
ENDBRANCH   3   6
ENDBRANCH   1   2
BRANCH   1  32
ATOM     32  C   UNL     1       1.955  -4.357   0.255  1.00  0.00     0.023 C 
BRANCH  32  33
ATOM     33  C   UNL     1       1.360  -3.154  -0.480  1.00  0.00     0.023 C 
BRANCH  33  34
ATOM     34  C   UNL     1       0.482  -3.494  -1.663  1.00  0.00     0.116 C 
BRANCH  34  35
ATOM     35  N   UNL     1      -0.743  -4.209  -1.292  1.00  0.00    -0.352 N 
ATOM     36  C   UNL     1      -1.773  -4.603  -2.139  1.00  0.00     0.251 C 
ATOM     37  H   UNL     1      -0.847  -4.436  -0.340  1.00  0.00     0.163 HD
ATOM     38  O   UNL     1      -2.880  -4.879  -1.721  1.00  0.00    -0.269 OA
BRANCH  36  39
ATOM     39  C   UNL     1      -1.459  -4.694  -3.575  1.00  0.00     0.039 A 
ATOM     40  C   UNL     1      -2.301  -4.196  -4.572  1.00  0.00     0.014 A 
ATOM     41  C   UNL     1      -0.212  -5.222  -3.885  1.00  0.00     0.014 A 
ATOM     42  C   UNL     1      -1.826  -4.164  -5.883  1.00  0.00     0.010 A 
ATOM     43  C   UNL     1       0.335  -4.955  -5.104  1.00  0.00     0.010 A 
ATOM     44  C   UNL     1      -0.494  -4.531  -6.131  1.00  0.00    -0.014 A 
BRANCH  44  45
ATOM     45  C   UNL     1       0.117  -4.429  -7.447  1.00  0.00     0.031 A 
ATOM     46  C   UNL     1       0.106  -3.066  -8.041  1.00  0.00     0.074 A 
ATOM     47  C   UNL     1       0.864  -5.439  -7.952  1.00  0.00     0.049 A 
ATOM     48  N   UNL     1      -0.473  -2.687  -9.129  1.00  0.00    -0.248 NA
ATOM     49  C   UNL     1       0.715  -1.962  -7.276  1.00  0.00     0.031 C 
ATOM     50  C   UNL     1       1.238  -6.715  -7.317  1.00  0.00     0.029 A 
ATOM     51  N   UNL     1       1.573  -5.478  -9.107  1.00  0.00    -0.354 N 
ATOM     52  C   UNL     1      -0.161  -1.340  -9.290  1.00  0.00     0.074 A 
ATOM     53  C   UNL     1       0.434  -0.912  -8.050  1.00  0.00     0.031 C 
ATOM     54  C   UNL     1       2.287  -7.261  -7.971  1.00  0.00     0.029 A 
ATOM     55  C   UNL     1       2.530  -6.485  -9.170  1.00  0.00     0.049 A 
ATOM     56  H   UNL     1       1.423  -4.842  -9.843  1.00  0.00     0.167 HD
ATOM     57  C   UNL     1      -0.216  -0.738 -10.511  1.00  0.00     0.031 A 
ATOM     58  C   UNL     1       3.470  -6.650 -10.134  1.00  0.00     0.031 A 
ATOM     59  C   UNL     1      -0.933  -1.546 -11.463  1.00  0.00     0.049 A 
ATOM     60  C   UNL     1       3.022  -5.869 -11.310  1.00  0.00     0.074 A 
ATOM     61  C   UNL     1      -2.230  -2.011 -11.554  1.00  0.00     0.029 A 
ATOM     62  N   UNL     1      -0.185  -2.348 -12.293  1.00  0.00    -0.354 N 
ATOM     63  N   UNL     1       1.954  -6.163 -11.994  1.00  0.00    -0.248 NA
ATOM     64  C   UNL     1       3.480  -4.494 -11.421  1.00  0.00     0.031 C 
ATOM     65  C   UNL     1      -2.101  -3.353 -12.021  1.00  0.00     0.029 A 
ATOM     66  C   UNL     1      -0.750  -3.598 -12.278  1.00  0.00     0.049 A 
ATOM     67  H   UNL     1       0.611  -2.075 -12.805  1.00  0.00     0.167 HD
ATOM     68  C   UNL     1       1.354  -4.939 -12.254  1.00  0.00     0.074 A 
ATOM     69  C   UNL     1       2.385  -3.943 -11.956  1.00  0.00     0.031 C 
ATOM     70  C   UNL     1       0.000  -4.830 -12.399  1.00  0.00     0.031 A 
BRANCH  57  71
ATOM     71  C   UNL     1       0.694   0.382 -10.944  1.00  0.00    -0.014 A 
ATOM     72  C   UNL     1       0.505   0.957 -12.214  1.00  0.00     0.009 A 
ATOM     73  C   UNL     1       1.888   0.710 -10.274  1.00  0.00     0.009 A 
ATOM     74  C   UNL     1       1.489   1.759 -12.806  1.00  0.00     0.001 A 
ATOM     75  C   UNL     1       2.855   1.542 -10.845  1.00  0.00     0.001 A 
ATOM     76  C   UNL     1       2.667   2.044 -12.123  1.00  0.00     0.000 A 
ENDBRANCH  57  71
BRANCH  58  77
ATOM     77  C   UNL     1       4.846  -7.179 -10.017  1.00  0.00    -0.014 A 
ATOM     78  C   UNL     1       5.549  -7.618 -11.150  1.00  0.00     0.009 A 
ATOM     79  C   UNL     1       5.577  -6.984  -8.830  1.00  0.00     0.009 A 
ATOM     80  C   UNL     1       6.937  -7.812 -11.108  1.00  0.00     0.001 A 
ATOM     81  C   UNL     1       6.963  -7.176  -8.788  1.00  0.00     0.001 A 
ATOM     82  C   UNL     1       7.646  -7.575  -9.932  1.00  0.00     0.000 A 
ENDBRANCH  58  77
BRANCH  70  83
ATOM     83  C   UNL     1      -0.811  -6.106 -12.455  1.00  0.00    -0.014 A 
ATOM     84  C   UNL     1      -0.881  -7.029 -11.394  1.00  0.00     0.009 A 
ATOM     85  C   UNL     1      -1.661  -6.299 -13.553  1.00  0.00     0.009 A 
ATOM     86  C   UNL     1      -1.758  -8.120 -11.445  1.00  0.00     0.001 A 
ATOM     87  C   UNL     1      -2.550  -7.375 -13.595  1.00  0.00     0.001 A 
ATOM     88  C   UNL     1      -2.595  -8.289 -12.544  1.00  0.00     0.000 A 
ENDBRANCH  70  83
ENDBRANCH  44  45
ENDBRANCH  36  39
ENDBRANCH  34  35
ENDBRANCH  33  34
ENDBRANCH  32  33
ENDBRANCH   1  32
TORSDOF 16
