REMARK SMILES Cc1ccccc1-c1c(Cl)ccc2c1C=C(C(=O)NCCCCNC(=O)c1ccc(-c3c4nc(c(-c5ccccc5)c5ccc([nH]5)c(-c5ccccc5)c5nc(c(-c6ccccc6)c6ccc3[nH]6)C=C5)C=C4)cc1)[C@@H](C(F)(F)F)O2
REMARK SMILES IDX 22 1 21 2 20 3 19 4 17 5 18 6 16 8 8 9 9 10 14 11 10 12
REMARK SMILES IDX 11 13 13 14 15 15 12 16 80 17 75 18 7 19 1 20 2 21 3 22 4 23
REMARK SMILES IDX 6 24 5 25 76 26 77 27 78 28 79 29 23 30 24 31 25 32 26 34
REMARK SMILES IDX 27 35 28 36 74 37 29 38 73 39 30 40 31 41 32 42 67 43 33 44
REMARK SMILES IDX 72 45 66 46 68 47 34 48 71 49 65 50 64 51 35 53 57 54 42 55
REMARK SMILES IDX 56 56 43 57 46 58 55 59 69 60 44 61 45 62 54 64 70 65 47 66
REMARK SMILES IDX 36 67 37 68 41 69 38 70 40 71 39 72 58 73 59 74 63 75 60 76
REMARK SMILES IDX 62 77 61 78 48 79 49 80 53 81 50 82 52 83 51 84
REMARK H PARENT 19 7 24 33 68 52 46 63
REMARK Flexibility Score: inf
ROOT
ATOM      1  C   UNL     1       7.362  -1.588  -2.741  1.00  0.00     0.023 C 
ENDROOT
BRANCH   1   2
ATOM      2  C   UNL     1       5.890  -1.391  -3.120  1.00  0.00     0.023 C 
BRANCH   2   3
ATOM      3  C   UNL     1       5.048  -0.570  -2.137  1.00  0.00     0.116 C 
BRANCH   3   4
ATOM      4  N   UNL     1       5.593   0.753  -1.911  1.00  0.00    -0.352 N 
ATOM      5  C   UNL     1       5.102   1.995  -2.143  1.00  0.00     0.251 C 
ATOM      6  O   UNL     1       5.859   2.943  -1.934  1.00  0.00    -0.270 OA
ATOM      7  H   UNL     1       6.493   0.749  -1.511  1.00  0.00     0.163 HD
BRANCH   5   8
ATOM      8  C   UNL     1       3.704   2.228  -2.656  1.00  0.00     0.067 C 
ATOM      9  C   UNL     1       1.196   2.422   0.104  1.00  0.00     0.012 A 
ATOM     10  C   UNL     1       0.895   3.401   1.086  1.00  0.00     0.049 A 
ATOM     11  C   UNL     1       2.106   2.786  -0.922  1.00  0.00     0.027 A 
ATOM     12  Cl  UNL     1      -0.098   3.048   2.465  1.00  0.00    -0.084 Cl
ATOM     13  C   UNL     1       1.396   4.704   1.000  1.00  0.00     0.025 A 
ATOM     14  C   UNL     1       2.531   4.125  -1.037  1.00  0.00     0.128 A 
ATOM     15  C   UNL     1       2.737   1.802  -1.821  1.00  0.00     0.026 C 
ATOM     16  C   UNL     1       2.185   5.074  -0.081  1.00  0.00     0.049 A 
ATOM     17  O   UNL     1       3.313   4.593  -2.064  1.00  0.00    -0.475 OA
ATOM     18  C   UNL     1       3.569   3.664  -3.143  1.00  0.00     0.314 C 
BRANCH   9  19
ATOM     19  C   UNL     1       0.472   1.123   0.095  1.00  0.00    -0.013 A 
ATOM     20  C   UNL     1       2.511  -0.319   0.678  1.00  0.00     0.045 C 
ATOM     21  C   UNL     1       1.055  -0.132   0.362  1.00  0.00    -0.043 A 
ATOM     22  C   UNL     1       0.260  -1.295   0.296  1.00  0.00     0.004 A 
ATOM     23  C   UNL     1      -1.101  -1.227   0.004  1.00  0.00     0.000 A 
ATOM     24  C   UNL     1      -0.908   1.159  -0.208  1.00  0.00     0.009 A 
ATOM     25  C   UNL     1      -1.689   0.004  -0.242  1.00  0.00     0.001 A 
ENDBRANCH   9  19
BRANCH  18  26
ATOM     26  C   UNL     1       2.513   3.773  -4.256  1.00  0.00     0.429 C 
ATOM     27  F   UNL     1       2.484   5.016  -4.794  1.00  0.00    -0.167 F 
ATOM     28  F   UNL     1       2.790   2.915  -5.272  1.00  0.00    -0.167 F 
ATOM     29  F   UNL     1       1.260   3.490  -3.831  1.00  0.00    -0.167 F 
ENDBRANCH  18  26
ENDBRANCH   5   8
ENDBRANCH   3   4
ENDBRANCH   2   3
ENDBRANCH   1   2
BRANCH   1  30
ATOM     30  C   UNL     1       7.612  -2.375  -1.460  1.00  0.00     0.116 C 
BRANCH  30  31
ATOM     31  N   UNL     1       7.582  -3.821  -1.611  1.00  0.00    -0.352 N 
ATOM     32  C   UNL     1       7.718  -4.828  -0.663  1.00  0.00     0.251 C 
ATOM     33  H   UNL     1       7.442  -4.138  -2.533  1.00  0.00     0.163 HD
ATOM     34  O   UNL     1       7.746  -5.989  -1.026  1.00  0.00    -0.269 OA
BRANCH  32  35
ATOM     35  C   UNL     1       7.678  -4.512   0.794  1.00  0.00     0.039 A 
ATOM     36  C   UNL     1       7.015  -5.416   1.638  1.00  0.00     0.014 A 
ATOM     37  C   UNL     1       8.093  -3.286   1.300  1.00  0.00     0.014 A 
ATOM     38  C   UNL     1       6.529  -4.981   2.870  1.00  0.00     0.010 A 
ATOM     39  C   UNL     1       7.525  -2.815   2.464  1.00  0.00     0.010 A 
ATOM     40  C   UNL     1       6.675  -3.638   3.204  1.00  0.00    -0.014 A 
BRANCH  40  41
ATOM     41  C   UNL     1       5.856  -2.956   4.197  1.00  0.00     0.031 A 
ATOM     42  C   UNL     1       6.451  -2.482   5.467  1.00  0.00     0.074 A 
ATOM     43  C   UNL     1       4.589  -2.612   3.864  1.00  0.00     0.049 A 
ATOM     44  N   UNL     1       5.771  -2.179   6.521  1.00  0.00    -0.248 NA
ATOM     45  C   UNL     1       7.893  -2.348   5.664  1.00  0.00     0.031 C 
ATOM     46  C   UNL     1       3.729  -1.653   4.556  1.00  0.00     0.029 A 
ATOM     47  N   UNL     1       3.732  -3.151   2.902  1.00  0.00    -0.354 N 
ATOM     48  C   UNL     1       6.612  -1.494   7.368  1.00  0.00     0.074 A 
ATOM     49  C   UNL     1       7.938  -1.745   6.855  1.00  0.00     0.031 C 
ATOM     50  C   UNL     1       2.451  -1.913   4.235  1.00  0.00     0.029 A 
ATOM     51  C   UNL     1       2.457  -3.156   3.483  1.00  0.00     0.049 A 
ATOM     52  H   UNL     1       3.974  -3.463   2.000  1.00  0.00     0.167 HD
ATOM     53  C   UNL     1       6.079  -0.650   8.299  1.00  0.00     0.031 A 
ATOM     54  C   UNL     1       1.772  -4.281   3.853  1.00  0.00     0.031 A 
ATOM     55  C   UNL     1       4.617  -0.748   8.342  1.00  0.00     0.049 A 
ATOM     56  C   UNL     1       1.384  -4.285   5.325  1.00  0.00     0.074 A 
ATOM     57  C   UNL     1       3.599   0.069   7.875  1.00  0.00     0.029 A 
ATOM     58  N   UNL     1       4.022  -1.960   8.677  1.00  0.00    -0.354 N 
ATOM     59  N   UNL     1       1.965  -3.542   6.226  1.00  0.00    -0.248 NA
ATOM     60  C   UNL     1       0.359  -5.151   5.907  1.00  0.00     0.031 C 
ATOM     61  C   UNL     1       2.400  -0.690   7.855  1.00  0.00     0.029 A 
ATOM     62  C   UNL     1       2.682  -1.956   8.340  1.00  0.00     0.049 A 
ATOM     63  H   UNL     1       4.491  -2.718   9.095  1.00  0.00     0.167 HD
ATOM     64  C   UNL     1       1.421  -3.786   7.457  1.00  0.00     0.074 A 
ATOM     65  C   UNL     1       0.416  -4.804   7.207  1.00  0.00     0.031 C 
ATOM     66  C   UNL     1       1.856  -3.135   8.576  1.00  0.00     0.031 A 
BRANCH  53  67
ATOM     67  C   UNL     1       6.851   0.483   8.950  1.00  0.00    -0.014 A 
ATOM     68  C   UNL     1       6.151   1.583   9.485  1.00  0.00     0.009 A 
ATOM     69  C   UNL     1       8.252   0.577   9.004  1.00  0.00     0.009 A 
ATOM     70  C   UNL     1       6.806   2.733   9.951  1.00  0.00     0.001 A 
ATOM     71  C   UNL     1       8.915   1.732   9.444  1.00  0.00     0.001 A 
ATOM     72  C   UNL     1       8.190   2.818   9.906  1.00  0.00     0.000 A 
ENDBRANCH  53  67
BRANCH  54  73
ATOM     73  C   UNL     1       2.127  -5.506   3.086  1.00  0.00    -0.014 A 
ATOM     74  C   UNL     1       1.810  -5.556   1.715  1.00  0.00     0.009 A 
ATOM     75  C   UNL     1       3.058  -6.423   3.594  1.00  0.00     0.009 A 
ATOM     76  C   UNL     1       2.503  -6.410   0.853  1.00  0.00     0.001 A 
ATOM     77  C   UNL     1       3.737  -7.290   2.728  1.00  0.00     0.001 A 
ATOM     78  C   UNL     1       3.489  -7.254   1.356  1.00  0.00     0.000 A 
ENDBRANCH  54  73
BRANCH  66  79
ATOM     79  C   UNL     1       1.510  -3.487  10.002  1.00  0.00    -0.014 A 
ATOM     80  C   UNL     1       1.061  -4.746  10.419  1.00  0.00     0.009 A 
ATOM     81  C   UNL     1       1.781  -2.544  11.021  1.00  0.00     0.009 A 
ATOM     82  C   UNL     1       0.853  -5.034  11.776  1.00  0.00     0.001 A 
ATOM     83  C   UNL     1       1.620  -2.841  12.377  1.00  0.00     0.001 A 
ATOM     84  C   UNL     1       1.142  -4.087  12.754  1.00  0.00     0.000 A 
ENDBRANCH  66  79
ENDBRANCH  40  41
ENDBRANCH  32  35
ENDBRANCH  30  31
ENDBRANCH   1  30
TORSDOF 13
