REMARK SMILES C[C@@](O)(CNC(=O)c1ccc(Br)cc1N)CC(=O)NCCCCNC(=O)c1ccc(-c2c3nc(c(-c4ccccc4)c4ccc([nH]4)c(-c4ccccc4)c4nc(c(-c5ccccc5)c5ccc2[nH]5)C=C4)C=C3)cc1
REMARK SMILES IDX 20 1 19 2 17 3 18 4 16 6 2 7 1 8 3 9 4 11 5 12 6 13 7 15
REMARK SMILES IDX 8 16 9 17 14 18 10 19 13 20 11 21 12 22 15 23 21 26 22 27
REMARK SMILES IDX 23 28 24 29 25 30 26 32 27 33 28 34 74 35 29 36 73 37 30 38
REMARK SMILES IDX 31 39 32 40 67 41 33 42 72 43 66 44 68 45 34 46 71 47 65 48
REMARK SMILES IDX 64 49 35 51 57 52 42 53 56 54 43 55 46 56 55 57 69 58 44 59
REMARK SMILES IDX 45 60 54 62 70 63 47 64 36 65 37 66 41 67 38 68 40 69 39 70
REMARK SMILES IDX 58 71 59 72 63 73 60 74 62 75 61 76 48 77 49 78 53 79 50 80
REMARK SMILES IDX 52 81 51 82
REMARK H PARENT 19 5 3 10 5 14 15 24 15 25 24 31 68 50 46 61
REMARK Flexibility Score: inf
ROOT
ATOM      1  C   UNL     1      -1.610   0.503   2.667  1.00  0.00     0.116 C 
ENDROOT
BRANCH   1   2
ATOM      2  N   UNL     1      -0.799  -0.604   3.208  1.00  0.00    -0.356 N 
ATOM      3  C   UNL     1       0.439  -1.135   3.012  1.00  0.00     0.222 C 
ATOM      4  O   UNL     1       0.801  -2.081   3.718  1.00  0.00    -0.275 OA
ATOM      5  H   UNL     1      -1.290  -1.097   3.904  1.00  0.00     0.163 HD
BRANCH   3   6
ATOM      6  C   UNL     1       1.388  -0.578   2.014  1.00  0.00     0.136 C 
BRANCH   6   7
ATOM      7  C   UNL     1       0.769  -0.384   0.654  1.00  0.00     0.088 C 
ATOM      8  C   UNL     1       1.843  -0.502  -0.450  1.00  0.00     0.044 C 
BRANCH   7   9
ATOM      9  O   UNL     1       0.408   1.028   0.558  1.00  0.00    -0.388 OA
ATOM     10  H   UNL     1       0.003   1.200  -0.307  1.00  0.00     0.211 HD
ENDBRANCH   7   9
BRANCH   7  11
ATOM     11  C   UNL     1      -0.524  -1.230   0.318  1.00  0.00     0.151 C 
BRANCH  11  12
ATOM     12  N   UNL     1      -1.112  -2.472   1.024  1.00  0.00    -0.349 N 
ATOM     13  C   UNL     1      -1.975  -3.059   1.978  1.00  0.00     0.253 C 
ATOM     14  H   UNL     1      -0.660  -3.235   0.597  1.00  0.00     0.163 HD
ATOM     15  O   UNL     1      -2.294  -4.215   1.633  1.00  0.00    -0.269 OA
BRANCH  13  16
ATOM     16  C   UNL     1      -2.562  -2.682   3.368  1.00  0.00     0.062 A 
ATOM     17  C   UNL     1      -3.419  -1.613   3.701  1.00  0.00     0.017 A 
ATOM     18  C   UNL     1      -2.364  -3.573   4.448  1.00  0.00     0.045 A 
ATOM     19  C   UNL     1      -3.786  -1.238   5.007  1.00  0.00     0.016 A 
ATOM     20  C   UNL     1      -2.685  -3.190   5.779  1.00  0.00     0.042 A 
ATOM     21  C   UNL     1      -3.357  -2.007   6.058  1.00  0.00     0.020 A 
ATOM     22  Br  UNL     1      -3.713  -1.466   7.829  1.00  0.00    -0.051 Br
BRANCH  18  23
ATOM     23  N   UNL     1      -1.754  -4.817   4.273  1.00  0.00    -0.398 N 
ATOM     24  H   UNL     1      -1.513  -5.125   3.369  1.00  0.00     0.156 HD
ATOM     25  H   UNL     1      -1.565  -5.386   5.053  1.00  0.00     0.156 HD
ENDBRANCH  18  23
ENDBRANCH  13  16
ENDBRANCH  11  12
ENDBRANCH   7  11
ENDBRANCH   6   7
ENDBRANCH   3   6
ENDBRANCH   1   2
BRANCH   1  26
ATOM     26  C   UNL     1      -2.877   0.491   1.613  1.00  0.00     0.023 C 
BRANCH  26  27
ATOM     27  C   UNL     1      -3.680  -0.535   0.638  1.00  0.00     0.023 C 
BRANCH  27  28
ATOM     28  C   UNL     1      -4.768  -1.627   0.933  1.00  0.00     0.116 C 
BRANCH  28  29
ATOM     29  N   UNL     1      -5.947  -1.216   1.674  1.00  0.00    -0.352 N 
ATOM     30  C   UNL     1      -7.105  -1.933   1.904  1.00  0.00     0.251 C 
ATOM     31  H   UNL     1      -5.917  -0.311   2.061  1.00  0.00     0.163 HD
ATOM     32  O   UNL     1      -8.021  -1.415   2.551  1.00  0.00    -0.269 OA
BRANCH  30  33
ATOM     33  C   UNL     1      -7.317  -3.286   1.326  1.00  0.00     0.039 A 
ATOM     34  C   UNL     1      -6.519  -4.382   1.664  1.00  0.00     0.014 A 
ATOM     35  C   UNL     1      -8.403  -3.472   0.460  1.00  0.00     0.014 A 
ATOM     36  C   UNL     1      -6.734  -5.626   1.044  1.00  0.00     0.010 A 
ATOM     37  C   UNL     1      -8.630  -4.720  -0.139  1.00  0.00     0.010 A 
ATOM     38  C   UNL     1      -7.769  -5.801   0.109  1.00  0.00    -0.014 A 
BRANCH  38  39
ATOM     39  C   UNL     1      -7.927  -7.073  -0.662  1.00  0.00     0.031 A 
ATOM     40  C   UNL     1      -7.677  -7.084  -2.152  1.00  0.00     0.074 A 
ATOM     41  C   UNL     1      -8.300  -8.218  -0.053  1.00  0.00     0.049 A 
ATOM     42  N   UNL     1      -7.845  -8.055  -3.016  1.00  0.00    -0.248 NA
ATOM     43  C   UNL     1      -7.173  -5.837  -2.753  1.00  0.00     0.031 C 
ATOM     44  C   UNL     1      -8.549  -8.366   1.379  1.00  0.00     0.029 A 
ATOM     45  N   UNL     1      -8.541  -9.474  -0.564  1.00  0.00    -0.354 N 
ATOM     46  C   UNL     1      -7.482  -7.535  -4.254  1.00  0.00     0.074 A 
ATOM     47  C   UNL     1      -7.114  -6.153  -4.040  1.00  0.00     0.031 C 
ATOM     48  C   UNL     1      -8.898  -9.638   1.634  1.00  0.00     0.029 A 
ATOM     49  C   UNL     1      -8.958 -10.385   0.379  1.00  0.00     0.049 A 
ATOM     50  H   UNL     1      -8.427  -9.700  -1.516  1.00  0.00     0.167 HD
ATOM     51  C   UNL     1      -7.445  -8.156  -5.457  1.00  0.00     0.031 A 
ATOM     52  C   UNL     1      -9.372 -11.665   0.255  1.00  0.00     0.031 A 
ATOM     53  C   UNL     1      -7.787  -9.538  -5.668  1.00  0.00     0.049 A 
ATOM     54  C   UNL     1      -9.388 -12.313  -1.106  1.00  0.00     0.074 A 
ATOM     55  C   UNL     1      -7.740 -10.255  -6.852  1.00  0.00     0.029 A 
ATOM     56  N   UNL     1      -8.231 -10.408  -4.688  1.00  0.00    -0.354 N 
ATOM     57  N   UNL     1      -9.012 -11.814  -2.258  1.00  0.00    -0.248 NA
ATOM     58  C   UNL     1      -9.880 -13.698  -1.188  1.00  0.00     0.031 C 
ATOM     59  C   UNL     1      -8.229 -11.537  -6.604  1.00  0.00     0.029 A 
ATOM     60  C   UNL     1      -8.499 -11.645  -5.250  1.00  0.00     0.049 A 
ATOM     61  H   UNL     1      -8.339 -10.182  -3.736  1.00  0.00     0.167 HD
ATOM     62  C   UNL     1      -9.204 -12.825  -3.193  1.00  0.00     0.074 A 
ATOM     63  C   UNL     1      -9.708 -13.975  -2.475  1.00  0.00     0.031 C 
ATOM     64  C   UNL     1      -8.986 -12.793  -4.530  1.00  0.00     0.031 A 
BRANCH  51  65
ATOM     65  C   UNL     1      -7.013  -7.374  -6.669  1.00  0.00    -0.014 A 
ATOM     66  C   UNL     1      -7.934  -7.127  -7.701  1.00  0.00     0.009 A 
ATOM     67  C   UNL     1      -5.664  -7.043  -6.871  1.00  0.00     0.009 A 
ATOM     68  C   UNL     1      -7.509  -6.602  -8.923  1.00  0.00     0.001 A 
ATOM     69  C   UNL     1      -5.247  -6.491  -8.085  1.00  0.00     0.001 A 
ATOM     70  C   UNL     1      -6.166  -6.286  -9.115  1.00  0.00     0.000 A 
ENDBRANCH  51  65
BRANCH  52  71
ATOM     71  C   UNL     1      -9.834 -12.409   1.462  1.00  0.00    -0.014 A 
ATOM     72  C   UNL     1     -10.983 -11.993   2.158  1.00  0.00     0.009 A 
ATOM     73  C   UNL     1      -9.122 -13.517   1.946  1.00  0.00     0.009 A 
ATOM     74  C   UNL     1     -11.387 -12.643   3.326  1.00  0.00     0.001 A 
ATOM     75  C   UNL     1      -9.552 -14.191   3.094  1.00  0.00     0.001 A 
ATOM     76  C   UNL     1     -10.675 -13.746   3.790  1.00  0.00     0.000 A 
ENDBRANCH  52  71
BRANCH  64  77
ATOM     77  C   UNL     1      -9.270 -14.029  -5.339  1.00  0.00    -0.014 A 
ATOM     78  C   UNL     1      -8.211 -14.709  -5.966  1.00  0.00     0.009 A 
ATOM     79  C   UNL     1     -10.587 -14.422  -5.617  1.00  0.00     0.009 A 
ATOM     80  C   UNL     1      -8.467 -15.730  -6.883  1.00  0.00     0.001 A 
ATOM     81  C   UNL     1     -10.839 -15.466  -6.510  1.00  0.00     0.001 A 
ATOM     82  C   UNL     1      -9.780 -16.108  -7.154  1.00  0.00     0.000 A 
ENDBRANCH  64  77
ENDBRANCH  38  39
ENDBRANCH  30  33
ENDBRANCH  28  29
ENDBRANCH  27  28
ENDBRANCH  26  27
ENDBRANCH   1  26
TORSDOF 17
