REMARK SMILES CCc1ccsc1CNC(=O)N1[C@H]2CC[C@@H]1[C@H](C(=O)NCCCCNC(=O)c1ccc(-c3c4nc(c(-c5ccccc5)c5ccc([nH]5)c(-c5ccccc5)c5nc(c(-c6ccccc6)c6ccc3[nH]6)C=C5)C=C4)cc1)C2
REMARK SMILES IDX 21 1 20 2 18 3 19 4 17 6 12 7 13 8 16 9 14 10 76 11 15 12
REMARK SMILES IDX 10 13 9 14 11 16 8 17 7 18 3 19 4 20 5 21 6 22 2 23 1 24
REMARK SMILES IDX 22 25 23 26 24 27 25 28 26 29 27 31 28 32 29 33 75 34 30 35
REMARK SMILES IDX 74 36 31 37 32 38 33 39 68 40 34 41 73 42 67 43 69 44 35 45
REMARK SMILES IDX 72 46 66 47 65 48 36 50 58 51 43 52 57 53 44 54 47 55 56 56
REMARK SMILES IDX 70 57 45 58 46 59 55 61 71 62 48 63 37 64 38 65 42 66 39 67
REMARK SMILES IDX 41 68 40 69 59 70 60 71 64 72 61 73 63 74 62 75 49 76 50 77
REMARK SMILES IDX 54 78 51 79 53 80 52 81
REMARK H PARENT 20 5 9 15 25 30 69 49 47 60
REMARK Flexibility Score: inf
ROOT
ATOM      1  C   UNL     1      -1.825   8.409  -6.172  1.00  0.00     0.116 C 
ENDROOT
BRANCH   1   2
ATOM      2  N   UNL     1      -1.231   7.447  -7.069  1.00  0.00    -0.356 N 
ATOM      3  C   UNL     1      -0.402   6.396  -6.878  1.00  0.00     0.225 C 
ATOM      4  O   UNL     1       0.018   5.859  -7.911  1.00  0.00    -0.275 OA
ATOM      5  H   UNL     1      -1.479   7.584  -8.012  1.00  0.00     0.163 HD
BRANCH   3   6
ATOM      6  C   UNL     1       0.056   5.858  -5.533  1.00  0.00     0.103 C 
ATOM      7  N   UNL     1       1.345   5.791  -3.666  1.00  0.00    -0.318 N 
ATOM      8  C   UNL     1       0.074   6.282  -3.170  1.00  0.00     0.088 C 
ATOM      9  C   UNL     1       1.366   6.438  -4.966  1.00  0.00     0.099 C 
ATOM     10  C   UNL     1       0.310   7.799  -3.287  1.00  0.00     0.027 C 
ATOM     11  C   UNL     1      -0.866   5.796  -4.291  1.00  0.00     0.040 C 
ATOM     12  C   UNL     1       1.226   7.899  -4.526  1.00  0.00     0.028 C 
BRANCH   7  13
ATOM     13  C   UNL     1       2.446   5.415  -2.974  1.00  0.00     0.318 C 
ATOM     14  N   UNL     1       2.295   4.527  -1.963  1.00  0.00    -0.333 N 
ATOM     15  H   UNL     1       3.034   4.486  -1.314  1.00  0.00     0.165 HD
ATOM     16  O   UNL     1       3.575   5.805  -3.263  1.00  0.00    -0.249 OA
BRANCH  14  17
ATOM     17  C   UNL     1       1.189   3.630  -1.716  1.00  0.00     0.165 C 
BRANCH  17  18
ATOM     18  C   UNL     1       1.420   2.266  -2.313  1.00  0.00     0.027 A 
ATOM     19  C   UNL     1       1.122   1.023  -1.759  1.00  0.00    -0.033 A 
ATOM     20  C   UNL     1       1.391  -0.032  -2.698  1.00  0.00     0.016 A 
ATOM     21  C   UNL     1       1.877   0.425  -3.900  1.00  0.00     0.065 A 
ATOM     22  S   UNL     1       1.986   2.120  -3.933  1.00  0.00    -0.147 S 
BRANCH  19  23
ATOM     23  C   UNL     1       0.530   0.804  -0.389  1.00  0.00     0.033 C 
ATOM     24  C   UNL     1       1.070  -0.417   0.339  1.00  0.00     0.009 C 
ENDBRANCH  19  23
ENDBRANCH  17  18
ENDBRANCH  14  17
ENDBRANCH   7  13
ENDBRANCH   3   6
ENDBRANCH   1   2
BRANCH   1  25
ATOM     25  C   UNL     1      -1.207   9.794  -6.352  1.00  0.00     0.023 C 
BRANCH  25  26
ATOM     26  C   UNL     1      -1.955  10.702  -7.317  1.00  0.00     0.023 C 
BRANCH  26  27
ATOM     27  C   UNL     1      -3.393  11.009  -6.927  1.00  0.00     0.116 C 
BRANCH  27  28
ATOM     28  N   UNL     1      -3.543  11.580  -5.595  1.00  0.00    -0.352 N 
ATOM     29  C   UNL     1      -4.434  12.554  -5.190  1.00  0.00     0.251 C 
ATOM     30  H   UNL     1      -2.938  11.229  -4.901  1.00  0.00     0.163 HD
ATOM     31  O   UNL     1      -4.434  12.987  -4.054  1.00  0.00    -0.269 OA
BRANCH  29  32
ATOM     32  C   UNL     1      -5.355  13.095  -6.209  1.00  0.00     0.039 A 
ATOM     33  C   UNL     1      -5.281  14.451  -6.528  1.00  0.00     0.014 A 
ATOM     34  C   UNL     1      -6.154  12.221  -6.950  1.00  0.00     0.014 A 
ATOM     35  C   UNL     1      -5.938  14.918  -7.667  1.00  0.00     0.010 A 
ATOM     36  C   UNL     1      -6.737  12.672  -8.126  1.00  0.00     0.010 A 
ATOM     37  C   UNL     1      -6.621  14.020  -8.503  1.00  0.00    -0.014 A 
BRANCH  37  38
ATOM     38  C   UNL     1      -7.207  14.454  -9.794  1.00  0.00     0.031 A 
ATOM     39  C   UNL     1      -8.688  14.341 -10.013  1.00  0.00     0.074 A 
ATOM     40  C   UNL     1      -6.402  14.848 -10.800  1.00  0.00     0.049 A 
ATOM     41  N   UNL     1      -9.379  14.544 -11.105  1.00  0.00    -0.248 NA
ATOM     42  C   UNL     1      -9.494  13.906  -8.860  1.00  0.00     0.031 C 
ATOM     43  C   UNL     1      -4.941  14.947 -10.736  1.00  0.00     0.029 A 
ATOM     44  N   UNL     1      -6.702  15.226 -12.084  1.00  0.00    -0.354 N 
ATOM     45  C   UNL     1     -10.691  14.224 -10.781  1.00  0.00     0.074 A 
ATOM     46  C   UNL     1     -10.694  13.777  -9.405  1.00  0.00     0.031 C 
ATOM     47  C   UNL     1      -4.477  15.384 -11.918  1.00  0.00     0.029 A 
ATOM     48  C   UNL     1      -5.599  15.560 -12.833  1.00  0.00     0.049 A 
ATOM     49  H   UNL     1      -7.621  15.256 -12.436  1.00  0.00     0.167 HD
ATOM     50  C   UNL     1     -11.798  14.311 -11.554  1.00  0.00     0.031 A 
ATOM     51  C   UNL     1      -5.504  15.958 -14.115  1.00  0.00     0.031 A 
ATOM     52  C   UNL     1     -11.804  14.795 -12.906  1.00  0.00     0.049 A 
ATOM     53  C   UNL     1      -6.752  16.081 -14.942  1.00  0.00     0.074 A 
ATOM     54  C   UNL     1     -12.886  14.998 -13.744  1.00  0.00     0.029 A 
ATOM     55  N   UNL     1     -10.670  15.160 -13.614  1.00  0.00    -0.354 N 
ATOM     56  N   UNL     1      -7.993  15.833 -14.603  1.00  0.00    -0.248 NA
ATOM     57  C   UNL     1      -6.585  16.542 -16.328  1.00  0.00     0.031 C 
ATOM     58  C   UNL     1     -12.402  15.461 -14.973  1.00  0.00     0.029 A 
ATOM     59  C   UNL     1     -11.024  15.576 -14.886  1.00  0.00     0.049 A 
ATOM     60  H   UNL     1      -9.751  15.129 -13.265  1.00  0.00     0.167 HD
ATOM     61  C   UNL     1      -8.757  16.127 -15.724  1.00  0.00     0.074 A 
ATOM     62  C   UNL     1      -7.841  16.583 -16.750  1.00  0.00     0.031 C 
ATOM     63  C   UNL     1     -10.098  16.027 -15.889  1.00  0.00     0.031 A 
BRANCH  50  64
ATOM     64  C   UNL     1     -13.095  13.871 -10.940  1.00  0.00    -0.014 A 
ATOM     65  C   UNL     1     -13.727  14.641  -9.951  1.00  0.00     0.009 A 
ATOM     66  C   UNL     1     -13.696  12.676 -11.362  1.00  0.00     0.009 A 
ATOM     67  C   UNL     1     -14.916  14.201  -9.367  1.00  0.00     0.001 A 
ATOM     68  C   UNL     1     -14.899  12.252 -10.794  1.00  0.00     0.001 A 
ATOM     69  C   UNL     1     -15.502  13.009  -9.791  1.00  0.00     0.000 A 
ENDBRANCH  50  64
BRANCH  51  70
ATOM     70  C   UNL     1      -4.178  16.292 -14.694  1.00  0.00    -0.014 A 
ATOM     71  C   UNL     1      -3.821  17.632 -14.910  1.00  0.00     0.009 A 
ATOM     72  C   UNL     1      -3.268  15.281 -15.035  1.00  0.00     0.009 A 
ATOM     73  C   UNL     1      -2.585  17.952 -15.477  1.00  0.00     0.001 A 
ATOM     74  C   UNL     1      -2.024  15.605 -15.582  1.00  0.00     0.001 A 
ATOM     75  C   UNL     1      -1.687  16.939 -15.809  1.00  0.00     0.000 A 
ENDBRANCH  51  70
BRANCH  63  76
ATOM     76  C   UNL     1     -10.656  16.442 -17.218  1.00  0.00    -0.014 A 
ATOM     77  C   UNL     1     -10.547  15.607 -18.339  1.00  0.00     0.009 A 
ATOM     78  C   UNL     1     -11.342  17.660 -17.334  1.00  0.00     0.009 A 
ATOM     79  C   UNL     1     -11.099  15.996 -19.561  1.00  0.00     0.001 A 
ATOM     80  C   UNL     1     -11.910  18.036 -18.551  1.00  0.00     0.001 A 
ATOM     81  C   UNL     1     -11.783  17.207 -19.664  1.00  0.00     0.000 A 
ENDBRANCH  63  76
ENDBRANCH  37  38
ENDBRANCH  29  32
ENDBRANCH  27  28
ENDBRANCH  26  27
ENDBRANCH  25  26
ENDBRANCH   1  25
TORSDOF 15
