REMARK SMILES C[C@H](NC(N)=O)C(=O)N[C@@H](CO)C(=O)NCCCCNC(=O)c1ccc(-c2c3nc(c(-c4ccccc4)c4ccc([nH]4)c(-c4ccccc4)c4nc(c(-c5ccccc5)c5ccc2[nH]5)C=C4)C=C3)cc1
REMARK SMILES IDX 17 1 16 2 15 3 13 4 14 5 10 7 9 8 7 9 8 10 2 12 1 13 3 14
REMARK SMILES IDX 4 15 5 17 6 18 11 21 12 22 18 24 19 25 20 26 21 27 22 29
REMARK SMILES IDX 23 30 24 31 70 32 25 33 69 34 26 35 27 36 28 37 63 38 29 39
REMARK SMILES IDX 68 40 62 41 64 42 30 43 67 44 61 45 60 46 31 48 53 49 38 50
REMARK SMILES IDX 52 51 39 52 42 53 51 54 65 55 40 56 41 57 50 59 66 60 43 61
REMARK SMILES IDX 32 62 33 63 37 64 34 65 36 66 35 67 54 68 55 69 59 70 56 71
REMARK SMILES IDX 58 72 57 73 44 74 45 75 49 76 46 77 48 78 47 79
REMARK H PARENT 15 6 9 11 3 16 5 19 5 20 12 23 20 28 64 47 42 58
REMARK Flexibility Score: inf
ROOT
ATOM      1  C   UNL     1      -4.954  -0.313   2.965  1.00  0.00     0.023 C 
ENDROOT
BRANCH   1   2
ATOM      2  C   UNL     1      -3.966   0.840   2.828  1.00  0.00     0.116 C 
BRANCH   2   3
ATOM      3  N   UNL     1      -2.782   0.652   3.642  1.00  0.00    -0.354 N 
ATOM      4  C   UNL     1      -1.462   0.747   3.326  1.00  0.00     0.244 C 
ATOM      5  O   UNL     1      -0.659   0.756   4.266  1.00  0.00    -0.273 OA
ATOM      6  H   UNL     1      -2.963   0.416   4.581  1.00  0.00     0.163 HD
BRANCH   4   7
ATOM      7  C   UNL     1      -0.949   0.931   1.882  1.00  0.00     0.197 C 
BRANCH   7   8
ATOM      8  N   UNL     1      -1.466  -0.081   0.958  1.00  0.00    -0.340 N 
ATOM      9  C   UNL     1      -0.860  -1.185   0.431  1.00  0.00     0.243 C 
ATOM     10  O   UNL     1      -1.615  -2.079   0.036  1.00  0.00    -0.273 OA
ATOM     11  H   UNL     1      -2.397   0.057   0.671  1.00  0.00     0.164 HD
BRANCH   9  12
ATOM     12  C   UNL     1       0.669  -1.381   0.450  1.00  0.00     0.170 C 
ATOM     13  C   UNL     1       1.176  -1.787   1.829  1.00  0.00     0.041 C 
BRANCH  12  14
ATOM     14  N   UNL     1       1.386  -0.213  -0.059  1.00  0.00    -0.327 N 
ATOM     15  C   UNL     1       1.773  -0.134  -1.360  1.00  0.00     0.312 C 
ATOM     16  H   UNL     1       1.592   0.531   0.552  1.00  0.00     0.166 HD
ATOM     17  N   UNL     1       2.470   0.989  -1.643  1.00  0.00    -0.352 N 
ATOM     18  O   UNL     1       1.551  -0.975  -2.219  1.00  0.00    -0.249 OA
ATOM     19  H   UNL     1       2.639   1.654  -0.937  1.00  0.00     0.161 HD
ATOM     20  H   UNL     1       2.808   1.141  -2.555  1.00  0.00     0.161 HD
ENDBRANCH  12  14
ENDBRANCH   9  12
ENDBRANCH   7   8
BRANCH   7  21
ATOM     21  C   UNL     1      -1.120   2.372   1.384  1.00  0.00     0.191 C 
BRANCH  21  22
ATOM     22  O   UNL     1      -2.445   2.687   0.968  1.00  0.00    -0.394 OA
ATOM     23  H   UNL     1      -2.691   2.124   0.217  1.00  0.00     0.210 HD
ENDBRANCH  21  22
ENDBRANCH   7  21
ENDBRANCH   4   7
ENDBRANCH   2   3
ENDBRANCH   1   2
BRANCH   1  24
ATOM     24  C   UNL     1      -5.618  -0.428   4.335  1.00  0.00     0.023 C 
BRANCH  24  25
ATOM     25  C   UNL     1      -6.284   0.847   4.840  1.00  0.00     0.116 C 
BRANCH  25  26
ATOM     26  N   UNL     1      -7.298   1.362   3.932  1.00  0.00    -0.352 N 
ATOM     27  C   UNL     1      -8.597   1.723   4.196  1.00  0.00     0.251 C 
ATOM     28  H   UNL     1      -7.013   1.466   2.995  1.00  0.00     0.163 HD
ATOM     29  O   UNL     1      -9.361   2.011   3.281  1.00  0.00    -0.269 OA
BRANCH  27  30
ATOM     30  C   UNL     1      -9.078   1.729   5.593  1.00  0.00     0.039 A 
ATOM     31  C   UNL     1     -10.293   1.111   5.892  1.00  0.00     0.014 A 
ATOM     32  C   UNL     1      -8.312   2.310   6.606  1.00  0.00     0.014 A 
ATOM     33  C   UNL     1     -10.704   1.010   7.222  1.00  0.00     0.010 A 
ATOM     34  C   UNL     1      -8.677   2.128   7.935  1.00  0.00     0.010 A 
ATOM     35  C   UNL     1      -9.878   1.479   8.258  1.00  0.00    -0.014 A 
BRANCH  35  36
ATOM     36  C   UNL     1     -10.253   1.298   9.683  1.00  0.00     0.031 A 
ATOM     37  C   UNL     1     -10.480   2.496  10.563  1.00  0.00     0.074 A 
ATOM     38  C   UNL     1     -10.331   0.056  10.201  1.00  0.00     0.049 A 
ATOM     39  N   UNL     1     -10.771   2.540  11.839  1.00  0.00    -0.248 NA
ATOM     40  C   UNL     1     -10.338   3.820   9.934  1.00  0.00     0.031 C 
ATOM     41  C   UNL     1     -10.092  -1.188   9.465  1.00  0.00     0.029 A 
ATOM     42  N   UNL     1     -10.633  -0.364  11.472  1.00  0.00    -0.354 N 
ATOM     43  C   UNL     1     -10.830   3.889  12.165  1.00  0.00     0.074 A 
ATOM     44  C   UNL     1     -10.488   4.630  10.972  1.00  0.00     0.031 C 
ATOM     45  C   UNL     1     -10.290  -2.230  10.288  1.00  0.00     0.029 A 
ATOM     46  C   UNL     1     -10.625  -1.731  11.617  1.00  0.00     0.049 A 
ATOM     47  H   UNL     1     -10.836   0.255  12.210  1.00  0.00     0.167 HD
ATOM     48  C   UNL     1     -11.162   4.463  13.346  1.00  0.00     0.031 A 
ATOM     49  C   UNL     1     -10.855  -2.496  12.701  1.00  0.00     0.031 A 
ATOM     50  C   UNL     1     -11.507   3.727  14.533  1.00  0.00     0.049 A 
ATOM     51  C   UNL     1     -11.197  -1.834  14.007  1.00  0.00     0.074 A 
ATOM     52  C   UNL     1     -11.909   4.215  15.763  1.00  0.00     0.029 A 
ATOM     53  N   UNL     1     -11.485   2.345  14.638  1.00  0.00    -0.354 N 
ATOM     54  N   UNL     1     -11.321  -0.558  14.280  1.00  0.00    -0.248 NA
ATOM     55  C   UNL     1     -11.444  -2.722  15.152  1.00  0.00     0.031 C 
ATOM     56  C   UNL     1     -12.071   3.132  16.632  1.00  0.00     0.029 A 
ATOM     57  C   UNL     1     -11.838   1.964  15.922  1.00  0.00     0.049 A 
ATOM     58  H   UNL     1     -11.253   1.725  13.909  1.00  0.00     0.167 HD
ATOM     59  C   UNL     1     -11.691  -0.491  15.618  1.00  0.00     0.074 A 
ATOM     60  C   UNL     1     -11.788  -1.855  16.094  1.00  0.00     0.031 C 
ATOM     61  C   UNL     1     -11.929   0.603  16.383  1.00  0.00     0.031 A 
BRANCH  48  62
ATOM     62  C   UNL     1     -11.159   5.966  13.411  1.00  0.00    -0.014 A 
ATOM     63  C   UNL     1     -12.109   6.729  12.711  1.00  0.00     0.009 A 
ATOM     64  C   UNL     1     -10.214   6.629  14.209  1.00  0.00     0.009 A 
ATOM     65  C   UNL     1     -12.086   8.124  12.778  1.00  0.00     0.001 A 
ATOM     66  C   UNL     1     -10.214   8.022  14.301  1.00  0.00     0.001 A 
ATOM     67  C   UNL     1     -11.143   8.768  13.577  1.00  0.00     0.000 A 
ENDBRANCH  48  62
BRANCH  49  68
ATOM     68  C   UNL     1     -10.783  -3.978  12.598  1.00  0.00    -0.014 A 
ATOM     69  C   UNL     1     -11.942  -4.760  12.720  1.00  0.00     0.009 A 
ATOM     70  C   UNL     1      -9.552  -4.622  12.391  1.00  0.00     0.009 A 
ATOM     71  C   UNL     1     -11.866  -6.154  12.669  1.00  0.00     0.001 A 
ATOM     72  C   UNL     1      -9.484  -6.014  12.307  1.00  0.00     0.001 A 
ATOM     73  C   UNL     1     -10.638  -6.779  12.458  1.00  0.00     0.000 A 
ENDBRANCH  49  68
BRANCH  61  74
ATOM     74  C   UNL     1     -12.360   0.368  17.805  1.00  0.00    -0.014 A 
ATOM     75  C   UNL     1     -11.470  -0.130  18.768  1.00  0.00     0.009 A 
ATOM     76  C   UNL     1     -13.671   0.689  18.192  1.00  0.00     0.009 A 
ATOM     77  C   UNL     1     -11.896  -0.339  20.082  1.00  0.00     0.001 A 
ATOM     78  C   UNL     1     -14.084   0.512  19.513  1.00  0.00     0.001 A 
ATOM     79  C   UNL     1     -13.200  -0.012  20.454  1.00  0.00     0.000 A 
ENDBRANCH  61  74
ENDBRANCH  35  36
ENDBRANCH  27  30
ENDBRANCH  25  26
ENDBRANCH  24  25
ENDBRANCH   1  24
TORSDOF 16
