REMARK SMILES CCOC(=O)c1sc(NC(=O)CCC(=O)NCCCCNC(=O)c2ccc(-c3c4nc(c(-c5ccccc5)c5ccc([nH]5)c(-c5ccccc5)c5nc(c(-c6ccccc6)c6ccc3[nH]6)C=C5)C=C4)cc2)c(C#N)c1C
REMARK SMILES IDX 14 1 15 2 16 3 13 5 12 6 10 7 9 8 11 10 8 11 6 12 7 13 75 14
REMARK SMILES IDX 72 15 76 16 4 17 5 18 3 19 2 20 1 21 73 22 74 23 17 24 18 25
REMARK SMILES IDX 19 26 20 27 21 28 22 29 23 31 24 32 25 33 71 34 26 35 70 36
REMARK SMILES IDX 27 37 28 38 29 39 64 40 30 41 69 42 63 43 65 44 31 45 68 46
REMARK SMILES IDX 62 47 61 48 32 50 54 51 39 52 53 53 40 54 43 55 52 56 66 57
REMARK SMILES IDX 41 58 42 59 51 61 67 62 44 63 33 64 34 65 38 66 35 67 37 68
REMARK SMILES IDX 36 69 55 70 56 71 60 72 57 73 59 74 58 75 45 76 46 77 50 78
REMARK SMILES IDX 47 79 49 80 48 81
REMARK H PARENT 16 4 9 9 21 30 65 49 43 60
REMARK Flexibility Score: inf
ROOT
ATOM      1  C   UNL     1       5.721  -4.613   2.988  1.00  0.00     0.220 C 
ATOM      2  O   UNL     1       5.437  -4.242   1.848  1.00  0.00    -0.275 OA
ATOM      3  N   UNL     1       5.448  -5.904   3.318  1.00  0.00    -0.356 N 
ATOM      4  H   UNL     1       4.818  -6.363   2.716  1.00  0.00     0.163 HD
ENDROOT
BRANCH   1   5
ATOM      5  C   UNL     1       6.341  -3.670   3.990  1.00  0.00     0.110 C 
BRANCH   5   6
ATOM      6  C   UNL     1       5.415  -3.024   5.020  1.00  0.00     0.110 C 
BRANCH   6   7
ATOM      7  C   UNL     1       4.342  -3.874   5.678  1.00  0.00     0.225 C 
ATOM      8  N   UNL     1       3.192  -4.312   5.078  1.00  0.00    -0.317 N 
ATOM      9  H   UNL     1       2.648  -4.914   5.636  1.00  0.00     0.170 HD
ATOM     10  O   UNL     1       4.536  -4.252   6.842  1.00  0.00    -0.275 OA
BRANCH   8  11
ATOM     11  C   UNL     1       2.660  -4.057   3.829  1.00  0.00     0.114 A 
ATOM     12  C   UNL     1       2.252  -3.091   1.619  1.00  0.00     0.118 A 
ATOM     13  S   UNL     1       2.957  -2.568   3.067  1.00  0.00    -0.109 S 
ATOM     14  C   UNL     1       1.721  -4.363   1.711  1.00  0.00    -0.006 A 
ATOM     15  C   UNL     1       1.777  -4.817   3.073  1.00  0.00     0.091 A 
ATOM     16  C   UNL     1       1.140  -5.139   0.569  1.00  0.00     0.048 C 
BRANCH  12  17
ATOM     17  C   UNL     1       2.165  -2.166   0.527  1.00  0.00     0.348 C 
ATOM     18  O   UNL     1       3.086  -1.603  -0.044  1.00  0.00    -0.245 OA
BRANCH  17  19
ATOM     19  O   UNL     1       0.839  -1.976   0.291  1.00  0.00    -0.462 OA
BRANCH  19  20
ATOM     20  C   UNL     1       0.497  -0.958  -0.647  1.00  0.00     0.230 C 
ATOM     21  C   UNL     1       0.799   0.420  -0.088  1.00  0.00     0.049 C 
ENDBRANCH  19  20
ENDBRANCH  17  19
ENDBRANCH  12  17
BRANCH  15  22
ATOM     22  C   UNL     1       1.093  -5.997   3.498  1.00  0.00     0.103 C 
ATOM     23  N   UNL     1       0.532  -6.983   3.779  1.00  0.00    -0.192 NA
ENDBRANCH  15  22
ENDBRANCH   8  11
ENDBRANCH   6   7
ENDBRANCH   5   6
ENDBRANCH   1   5
BRANCH   3  24
ATOM     24  C   UNL     1       5.943  -6.713   4.420  1.00  0.00     0.116 C 
BRANCH  24  25
ATOM     25  C   UNL     1       4.873  -7.262   5.375  1.00  0.00     0.023 C 
BRANCH  25  26
ATOM     26  C   UNL     1       3.566  -7.729   4.741  1.00  0.00     0.023 C 
BRANCH  26  27
ATOM     27  C   UNL     1       3.657  -9.042   4.007  1.00  0.00     0.116 C 
BRANCH  27  28
ATOM     28  N   UNL     1       3.883 -10.180   4.900  1.00  0.00    -0.352 N 
ATOM     29  C   UNL     1       3.968 -11.521   4.551  1.00  0.00     0.251 C 
ATOM     30  H   UNL     1       3.987  -9.971   5.856  1.00  0.00     0.163 HD
ATOM     31  O   UNL     1       3.759 -12.412   5.363  1.00  0.00    -0.269 OA
BRANCH  29  32
ATOM     32  C   UNL     1       4.361 -11.841   3.167  1.00  0.00     0.039 A 
ATOM     33  C   UNL     1       3.800 -12.869   2.406  1.00  0.00     0.014 A 
ATOM     34  C   UNL     1       5.258 -10.958   2.595  1.00  0.00     0.014 A 
ATOM     35  C   UNL     1       4.176 -12.964   1.064  1.00  0.00     0.010 A 
ATOM     36  C   UNL     1       5.179 -10.795   1.253  1.00  0.00     0.010 A 
ATOM     37  C   UNL     1       4.898 -11.903   0.496  1.00  0.00    -0.014 A 
BRANCH  37  38
ATOM     38  C   UNL     1       5.217 -11.764  -0.913  1.00  0.00     0.031 A 
ATOM     39  C   UNL     1       4.013 -11.871  -1.755  1.00  0.00     0.074 A 
ATOM     40  C   UNL     1       6.436 -11.400  -1.384  1.00  0.00     0.049 A 
ATOM     41  N   UNL     1       3.642 -12.942  -2.363  1.00  0.00    -0.248 NA
ATOM     42  C   UNL     1       2.992 -10.812  -1.731  1.00  0.00     0.031 C 
ATOM     43  C   UNL     1       7.660 -11.026  -0.658  1.00  0.00     0.029 A 
ATOM     44  N   UNL     1       6.827 -11.242  -2.678  1.00  0.00    -0.354 N 
ATOM     45  C   UNL     1       2.473 -12.616  -3.024  1.00  0.00     0.074 A 
ATOM     46  C   UNL     1       2.009 -11.387  -2.431  1.00  0.00     0.031 C 
ATOM     47  C   UNL     1       8.566 -10.489  -1.515  1.00  0.00     0.029 A 
ATOM     48  C   UNL     1       8.063 -10.625  -2.870  1.00  0.00     0.049 A 
ATOM     49  H   UNL     1       6.272 -11.546  -3.433  1.00  0.00     0.167 HD
ATOM     50  C   UNL     1       2.167 -13.245  -4.190  1.00  0.00     0.031 A 
ATOM     51  C   UNL     1       8.635 -10.292  -4.062  1.00  0.00     0.031 A 
ATOM     52  C   UNL     1       3.046 -14.372  -4.412  1.00  0.00     0.049 A 
ATOM     53  C   UNL     1       8.010 -11.160  -5.090  1.00  0.00     0.074 A 
ATOM     54  C   UNL     1       3.307 -15.543  -3.728  1.00  0.00     0.029 A 
ATOM     55  N   UNL     1       4.149 -14.133  -5.204  1.00  0.00    -0.354 N 
ATOM     56  N   UNL     1       8.202 -12.448  -5.120  1.00  0.00    -0.248 NA
ATOM     57  C   UNL     1       6.780 -10.693  -5.711  1.00  0.00     0.031 C 
ATOM     58  C   UNL     1       4.725 -15.691  -3.784  1.00  0.00     0.029 A 
ATOM     59  C   UNL     1       5.248 -14.683  -4.595  1.00  0.00     0.049 A 
ATOM     60  H   UNL     1       4.147 -13.650  -6.061  1.00  0.00     0.167 HD
ATOM     61  C   UNL     1       6.934 -12.980  -5.304  1.00  0.00     0.074 A 
ATOM     62  C   UNL     1       6.109 -11.851  -5.746  1.00  0.00     0.031 C 
ATOM     63  C   UNL     1       6.599 -14.195  -4.777  1.00  0.00     0.031 A 
BRANCH  50  64
ATOM     64  C   UNL     1       1.426 -12.595  -5.323  1.00  0.00    -0.014 A 
ATOM     65  C   UNL     1       1.133 -13.377  -6.454  1.00  0.00     0.009 A 
ATOM     66  C   UNL     1       1.265 -11.204  -5.447  1.00  0.00     0.009 A 
ATOM     67  C   UNL     1       0.775 -12.787  -7.670  1.00  0.00     0.001 A 
ATOM     68  C   UNL     1       0.874 -10.614  -6.650  1.00  0.00     0.001 A 
ATOM     69  C   UNL     1       0.655 -11.404  -7.769  1.00  0.00     0.000 A 
ENDBRANCH  50  64
BRANCH  51  70
ATOM     70  C   UNL     1       9.458  -9.114  -4.441  1.00  0.00    -0.014 A 
ATOM     71  C   UNL     1      10.172  -9.075  -5.655  1.00  0.00     0.009 A 
ATOM     72  C   UNL     1       9.290  -7.898  -3.756  1.00  0.00     0.009 A 
ATOM     73  C   UNL     1      10.657  -7.863  -6.178  1.00  0.00     0.001 A 
ATOM     74  C   UNL     1       9.768  -6.689  -4.280  1.00  0.00     0.001 A 
ATOM     75  C   UNL     1      10.439  -6.668  -5.498  1.00  0.00     0.000 A 
ENDBRANCH  51  70
BRANCH  63  76
ATOM     76  C   UNL     1       7.705 -15.025  -4.161  1.00  0.00    -0.014 A 
ATOM     77  C   UNL     1       8.459 -14.626  -3.040  1.00  0.00     0.009 A 
ATOM     78  C   UNL     1       7.892 -16.324  -4.651  1.00  0.00     0.009 A 
ATOM     79  C   UNL     1       9.394 -15.492  -2.457  1.00  0.00     0.001 A 
ATOM     80  C   UNL     1       8.809 -17.194  -4.059  1.00  0.00     0.001 A 
ATOM     81  C   UNL     1       9.566 -16.777  -2.967  1.00  0.00     0.000 A 
ENDBRANCH  63  76
ENDBRANCH  37  38
ENDBRANCH  29  32
ENDBRANCH  27  28
ENDBRANCH  26  27
ENDBRANCH  25  26
ENDBRANCH  24  25
ENDBRANCH   3  24
TORSDOF 18
