REMARK SMILES Cc1ccc(C)c(S(=O)(=O)N[C@H](CC2=c3ccccc3=NC2)C(=O)NCCCCNC(=O)c2ccc(-c3c4nc(c(-c5ccccc5)c5ccc([nH]5)c(-c5ccccc5)c5nc(c(-c6ccccc6)c6ccc3[nH]6)C=C5)C=C4)cc2)c1
REMARK SMILES IDX 27 1 26 2 25 3 23 4 24 5 12 7 11 8 8 10 9 11 10 12 7 13 1 14
REMARK SMILES IDX 2 15 3 16 81 17 4 18 5 19 6 20 13 21 14 22 15 23 22 24 16 25
REMARK SMILES IDX 20 26 21 27 17 28 19 29 18 30 28 31 29 32 30 33 31 34 32 36
REMARK SMILES IDX 33 37 34 38 80 39 35 40 79 41 36 42 37 43 38 44 73 45 39 46
REMARK SMILES IDX 78 47 72 48 74 49 40 50 77 51 71 52 70 53 41 55 63 56 48 57
REMARK SMILES IDX 62 58 49 59 52 60 61 61 75 62 50 63 51 64 60 66 76 67 53 68
REMARK SMILES IDX 42 69 43 70 47 71 44 72 46 73 45 74 64 75 65 76 69 77 66 78
REMARK SMILES IDX 68 79 67 80 54 81 55 82 59 83 56 84 58 85 57 86
REMARK H PARENT 25 6 11 9 30 35 74 54 52 65
REMARK Flexibility Score: inf
ROOT
ATOM      1  C   UNL     1      -1.715   8.162  -0.746  1.00  0.00     0.023 C 
ENDROOT
BRANCH   1   2
ATOM      2  C   UNL     1      -1.118   6.995  -1.597  1.00  0.00     0.116 C 
BRANCH   2   3
ATOM      3  N   UNL     1       0.319   6.766  -1.584  1.00  0.00    -0.355 N 
ATOM      4  C   UNL     1       1.105   5.660  -1.372  1.00  0.00     0.238 C 
ATOM      5  O   UNL     1       2.325   5.851  -1.455  1.00  0.00    -0.273 OA
ATOM      6  H   UNL     1       0.841   7.580  -1.767  1.00  0.00     0.163 HD
BRANCH   4   7
ATOM      7  C   UNL     1       0.575   4.251  -1.008  1.00  0.00     0.163 C 
BRANCH   7   8
ATOM      8  N   UNL     1      -0.444   3.819  -2.014  1.00  0.00    -0.198 NA
ATOM      9  H   UNL     1      -1.208   3.391  -1.491  1.00  0.00     0.142 HD
BRANCH   8  10
ATOM     10  S   UNL     1      -0.029   2.735  -3.241  1.00  0.00     0.241 S 
ATOM     11  O   UNL     1       1.392   2.833  -3.460  1.00  0.00    -0.207 OA
ATOM     12  O   UNL     1      -0.994   3.000  -4.288  1.00  0.00    -0.207 OA
BRANCH  10  13
ATOM     13  C   UNL     1      -0.402   1.119  -2.588  1.00  0.00     0.085 A 
ATOM     14  C   UNL     1      -1.769  -0.273   0.687  1.00  0.00     0.044 C 
ATOM     15  C   UNL     1      -1.193  -0.204  -0.696  1.00  0.00    -0.050 A 
ATOM     16  C   UNL     1      -0.829  -1.366  -1.374  1.00  0.00     0.004 A 
ATOM     17  C   UNL     1      -1.004   1.030  -1.324  1.00  0.00     0.025 A 
ATOM     18  C   UNL     1      -0.291  -1.291  -2.662  1.00  0.00     0.005 A 
ATOM     19  C   UNL     1      -0.071  -0.052  -3.293  1.00  0.00    -0.031 A 
ATOM     20  C   UNL     1       0.485  -0.084  -4.690  1.00  0.00     0.046 C 
ENDBRANCH  10  13
ENDBRANCH   8  10
ENDBRANCH   7   8
BRANCH   7  21
ATOM     21  C   UNL     1       0.038   3.988   0.443  1.00  0.00     0.063 C 
BRANCH  21  22
ATOM     22  C   UNL     1       0.322   4.916   1.597  1.00  0.00    -0.037 C 
ATOM     23  C   UNL     1       0.769   4.729   2.842  1.00  0.00     0.001 A 
ATOM     24  C   UNL     1      -0.098   6.331   1.455  1.00  0.00     0.174 C 
ATOM     25  C   UNL     1       1.212   3.633   3.644  1.00  0.00     0.010 A 
ATOM     26  C   UNL     1       0.625   6.072   3.451  1.00  0.00     0.065 A 
ATOM     27  N   UNL     1       0.100   7.012   2.736  1.00  0.00    -0.280 NA
ATOM     28  C   UNL     1       1.556   3.865   4.925  1.00  0.00     0.001 A 
ATOM     29  C   UNL     1       1.067   6.264   4.838  1.00  0.00     0.028 A 
ATOM     30  C   UNL     1       1.512   5.196   5.512  1.00  0.00     0.002 A 
ENDBRANCH  21  22
ENDBRANCH   7  21
ENDBRANCH   4   7
ENDBRANCH   2   3
ENDBRANCH   1   2
BRANCH   1  31
ATOM     31  C   UNL     1      -0.833   9.032   0.190  1.00  0.00     0.023 C 
BRANCH  31  32
ATOM     32  C   UNL     1      -0.939  10.577   0.195  1.00  0.00     0.116 C 
BRANCH  32  33
ATOM     33  N   UNL     1      -2.207  11.130  -0.247  1.00  0.00    -0.352 N 
ATOM     34  C   UNL     1      -2.659  11.551  -1.481  1.00  0.00     0.251 C 
ATOM     35  H   UNL     1      -2.872  11.222   0.472  1.00  0.00     0.163 HD
ATOM     36  O   UNL     1      -3.747  12.122  -1.541  1.00  0.00    -0.269 OA
BRANCH  34  37
ATOM     37  C   UNL     1      -1.893  11.312  -2.735  1.00  0.00     0.039 A 
ATOM     38  C   UNL     1      -2.369  11.774  -3.972  1.00  0.00     0.014 A 
ATOM     39  C   UNL     1      -0.713  10.581  -2.725  1.00  0.00     0.014 A 
ATOM     40  C   UNL     1      -1.701  11.412  -5.150  1.00  0.00     0.010 A 
ATOM     41  C   UNL     1       0.024  10.350  -3.841  1.00  0.00     0.010 A 
ATOM     42  C   UNL     1      -0.531  10.654  -5.059  1.00  0.00    -0.014 A 
BRANCH  42  43
ATOM     43  C   UNL     1       0.242  10.162  -6.173  1.00  0.00     0.031 A 
ATOM     44  C   UNL     1       1.180  11.142  -6.745  1.00  0.00     0.074 A 
ATOM     45  C   UNL     1       0.485   8.852  -6.380  1.00  0.00     0.049 A 
ATOM     46  N   UNL     1       1.037  11.788  -7.848  1.00  0.00    -0.248 NA
ATOM     47  C   UNL     1       2.338  11.557  -5.937  1.00  0.00     0.031 C 
ATOM     48  C   UNL     1       0.110   7.689  -5.568  1.00  0.00     0.029 A 
ATOM     49  N   UNL     1       1.262   8.312  -7.350  1.00  0.00    -0.354 N 
ATOM     50  C   UNL     1       2.172  12.575  -7.966  1.00  0.00     0.074 A 
ATOM     51  C   UNL     1       2.807  12.565  -6.672  1.00  0.00     0.031 C 
ATOM     52  C   UNL     1       0.811   6.607  -5.984  1.00  0.00     0.029 A 
ATOM     53  C   UNL     1       1.546   6.968  -7.185  1.00  0.00     0.049 A 
ATOM     54  H   UNL     1       1.599   8.835  -8.113  1.00  0.00     0.167 HD
ATOM     55  C   UNL     1       2.628  12.983  -9.180  1.00  0.00     0.031 A 
ATOM     56  C   UNL     1       2.358   6.240  -7.986  1.00  0.00     0.031 A 
ATOM     57  C   UNL     1       1.709  12.620 -10.233  1.00  0.00     0.049 A 
ATOM     58  C   UNL     1       2.495   6.981  -9.266  1.00  0.00     0.074 A 
ATOM     59  C   UNL     1       0.397  12.932 -10.530  1.00  0.00     0.029 A 
ATOM     60  N   UNL     1       1.989  11.456 -10.915  1.00  0.00    -0.354 N 
ATOM     61  N   UNL     1       1.510   7.205 -10.089  1.00  0.00    -0.248 NA
ATOM     62  C   UNL     1       3.669   7.816  -9.471  1.00  0.00     0.031 C 
ATOM     63  C   UNL     1      -0.174  11.719 -11.020  1.00  0.00     0.029 A 
ATOM     64  C   UNL     1       0.824  10.740 -11.042  1.00  0.00     0.049 A 
ATOM     65  H   UNL     1       2.873  11.185 -11.254  1.00  0.00     0.167 HD
ATOM     66  C   UNL     1       1.761   8.461 -10.623  1.00  0.00     0.074 A 
ATOM     67  C   UNL     1       3.166   8.715 -10.323  1.00  0.00     0.031 C 
ATOM     68  C   UNL     1       0.740   9.288 -11.000  1.00  0.00     0.031 A 
BRANCH  55  69
ATOM     69  C   UNL     1       4.043  13.405  -9.463  1.00  0.00    -0.014 A 
ATOM     70  C   UNL     1       5.138  13.133  -8.621  1.00  0.00     0.009 A 
ATOM     71  C   UNL     1       4.341  13.945 -10.725  1.00  0.00     0.009 A 
ATOM     72  C   UNL     1       6.454  13.411  -8.997  1.00  0.00     0.001 A 
ATOM     73  C   UNL     1       5.661  14.179 -11.126  1.00  0.00     0.001 A 
ATOM     74  C   UNL     1       6.717  13.918 -10.260  1.00  0.00     0.000 A 
ENDBRANCH  55  69
BRANCH  56  75
ATOM     75  C   UNL     1       3.227   5.098  -7.646  1.00  0.00    -0.014 A 
ATOM     76  C   UNL     1       3.813   5.007  -6.371  1.00  0.00     0.009 A 
ATOM     77  C   UNL     1       3.718   4.258  -8.658  1.00  0.00     0.009 A 
ATOM     78  C   UNL     1       4.894   4.151  -6.133  1.00  0.00     0.001 A 
ATOM     79  C   UNL     1       4.801   3.402  -8.419  1.00  0.00     0.001 A 
ATOM     80  C   UNL     1       5.401   3.365  -7.163  1.00  0.00     0.000 A 
ENDBRANCH  56  75
BRANCH  68  81
ATOM     81  C   UNL     1      -0.651   8.693 -11.113  1.00  0.00    -0.014 A 
ATOM     82  C   UNL     1      -1.377   8.905 -12.296  1.00  0.00     0.009 A 
ATOM     83  C   UNL     1      -1.315   8.073 -10.039  1.00  0.00     0.009 A 
ATOM     84  C   UNL     1      -2.717   8.522 -12.400  1.00  0.00     0.001 A 
ATOM     85  C   UNL     1      -2.649   7.664 -10.151  1.00  0.00     0.001 A 
ATOM     86  C   UNL     1      -3.352   7.898 -11.329  1.00  0.00     0.000 A 
ENDBRANCH  68  81
ENDBRANCH  42  43
ENDBRANCH  34  37
ENDBRANCH  32  33
ENDBRANCH  31  32
ENDBRANCH   1  31
TORSDOF 16
