REMARK SMILES Cc1nc(CCc2ccc(S(=O)(=O)N3CCCC3)cc2)ncc1C(=O)NCCCCNC(=O)c1ccc(-c2c3nc(c(-c4ccccc4)c4ccc([nH]4)c(-c4ccccc4)c4nc(c(-c5ccccc5)c5ccc2[nH]5)C=C4)C=C3)cc1
REMARK SMILES IDX 27 1 26 2 24 3 25 4 23 6 1 7 2 8 3 9 4 10 22 11 21 12 5 13
REMARK SMILES IDX 6 14 7 15 8 16 20 17 9 18 19 19 10 20 11 21 12 22 13 23
REMARK SMILES IDX 14 24 15 25 18 26 16 27 17 28 28 29 29 30 30 31 31 32 32 33
REMARK SMILES IDX 33 35 34 36 35 37 81 38 36 39 80 40 37 41 38 42 39 43 74 44
REMARK SMILES IDX 40 45 79 46 73 47 75 48 41 49 78 50 72 51 71 52 42 54 64 55
REMARK SMILES IDX 49 56 63 57 50 58 53 59 62 60 76 61 51 62 52 63 61 65 77 66
REMARK SMILES IDX 54 67 43 68 44 69 48 70 45 71 47 72 46 73 65 74 66 75 70 76
REMARK SMILES IDX 67 77 69 78 68 79 55 80 56 81 60 82 57 83 59 84 58 85
REMARK H PARENT 26 5 31 34 75 53 53 64
REMARK Flexibility Score: inf
ROOT
ATOM      1  C   UNL     1      -2.928  -1.970  -0.448  1.00  0.00     0.116 C 
ENDROOT
BRANCH   1   2
ATOM      2  N   UNL     1      -1.852  -2.861  -0.067  1.00  0.00    -0.352 N 
ATOM      3  C   UNL     1      -0.547  -2.572   0.280  1.00  0.00     0.254 C 
ATOM      4  O   UNL     1       0.207  -3.511   0.537  1.00  0.00    -0.269 OA
ATOM      5  H   UNL     1      -2.086  -3.817  -0.053  1.00  0.00     0.163 HD
BRANCH   3   6
ATOM      6  C   UNL     1       0.020  -1.204   0.274  1.00  0.00     0.079 A 
ATOM      7  C   UNL     1      -1.770   0.038   1.612  1.00  0.00     0.068 C 
ATOM      8  C   UNL     1      -0.496  -0.054   0.843  1.00  0.00     0.054 A 
ATOM      9  N   UNL     1       0.114   1.151   0.712  1.00  0.00    -0.237 NA
ATOM     10  C   UNL     1       1.271   1.216   0.034  1.00  0.00     0.128 A 
ATOM     11  C   UNL     1       1.266  -1.044  -0.315  1.00  0.00     0.129 A 
ATOM     12  N   UNL     1       1.899   0.145  -0.474  1.00  0.00    -0.241 NA
BRANCH  10  13
ATOM     13  C   UNL     1       1.810   2.588  -0.259  1.00  0.00     0.082 C 
BRANCH  13  14
ATOM     14  C   UNL     1       1.208   3.177  -1.541  1.00  0.00     0.043 C 
BRANCH  14  15
ATOM     15  C   UNL     1      -0.274   3.498  -1.486  1.00  0.00    -0.047 A 
ATOM     16  C   UNL     1      -0.721   4.710  -0.946  1.00  0.00     0.005 A 
ATOM     17  C   UNL     1      -1.224   2.597  -1.993  1.00  0.00     0.005 A 
ATOM     18  C   UNL     1      -2.085   5.016  -0.916  1.00  0.00     0.022 A 
ATOM     19  C   UNL     1      -2.591   2.908  -1.984  1.00  0.00     0.022 A 
ATOM     20  C   UNL     1      -3.023   4.116  -1.436  1.00  0.00     0.082 A 
BRANCH  20  21
ATOM     21  S   UNL     1      -4.750   4.579  -1.366  1.00  0.00     0.243 S 
ATOM     22  O   UNL     1      -4.883   5.503  -0.260  1.00  0.00    -0.207 OA
ATOM     23  O   UNL     1      -5.140   4.947  -2.711  1.00  0.00    -0.207 OA
BRANCH  21  24
ATOM     24  N   UNL     1      -5.604   3.204  -0.932  1.00  0.00    -0.198 NA
ATOM     25  C   UNL     1      -5.311   2.511   0.326  1.00  0.00     0.102 C 
ATOM     26  C   UNL     1      -6.075   2.253  -1.950  1.00  0.00     0.102 C 
ATOM     27  C   UNL     1      -5.004   1.099  -0.135  1.00  0.00     0.018 C 
ATOM     28  C   UNL     1      -5.968   0.889  -1.288  1.00  0.00     0.018 C 
ENDBRANCH  21  24
ENDBRANCH  20  21
ENDBRANCH  14  15
ENDBRANCH  13  14
ENDBRANCH  10  13
ENDBRANCH   3   6
ENDBRANCH   1   2
BRANCH   1  29
ATOM     29  C   UNL     1      -3.795  -2.439  -1.612  1.00  0.00     0.023 C 
BRANCH  29  30
ATOM     30  C   UNL     1      -4.975  -3.382  -1.350  1.00  0.00     0.023 C 
BRANCH  30  31
ATOM     31  C   UNL     1      -5.724  -3.311  -0.021  1.00  0.00     0.116 C 
BRANCH  31  32
ATOM     32  N   UNL     1      -6.548  -2.122   0.155  1.00  0.00    -0.352 N 
ATOM     33  C   UNL     1      -7.913  -1.966   0.255  1.00  0.00     0.251 C 
ATOM     34  H   UNL     1      -6.039  -1.281   0.213  1.00  0.00     0.163 HD
ATOM     35  O   UNL     1      -8.413  -0.849   0.336  1.00  0.00    -0.269 OA
BRANCH  33  36
ATOM     36  C   UNL     1      -8.790  -3.146   0.263  1.00  0.00     0.039 A 
ATOM     37  C   UNL     1      -9.920  -3.183  -0.559  1.00  0.00     0.014 A 
ATOM     38  C   UNL     1      -8.479  -4.219   1.093  1.00  0.00     0.014 A 
ATOM     39  C   UNL     1     -10.682  -4.350  -0.622  1.00  0.00     0.010 A 
ATOM     40  C   UNL     1      -9.168  -5.410   0.949  1.00  0.00     0.010 A 
ATOM     41  C   UNL     1     -10.277  -5.487   0.094  1.00  0.00    -0.014 A 
BRANCH  41  42
ATOM     42  C   UNL     1     -10.982  -6.785  -0.017  1.00  0.00     0.031 A 
ATOM     43  C   UNL     1     -11.584  -7.405   1.213  1.00  0.00     0.074 A 
ATOM     44  C   UNL     1     -10.961  -7.451  -1.186  1.00  0.00     0.049 A 
ATOM     45  N   UNL     1     -12.105  -8.594   1.368  1.00  0.00    -0.248 NA
ATOM     46  C   UNL     1     -11.553  -6.597   2.445  1.00  0.00     0.031 C 
ATOM     47  C   UNL     1     -10.355  -6.970  -2.430  1.00  0.00     0.029 A 
ATOM     48  N   UNL     1     -11.449  -8.690  -1.514  1.00  0.00    -0.354 N 
ATOM     49  C   UNL     1     -12.433  -8.686   2.715  1.00  0.00     0.074 A 
ATOM     50  C   UNL     1     -11.996  -7.461   3.345  1.00  0.00     0.031 C 
ATOM     51  C   UNL     1     -10.533  -7.889  -3.392  1.00  0.00     0.029 A 
ATOM     52  C   UNL     1     -11.220  -9.042  -2.822  1.00  0.00     0.049 A 
ATOM     53  H   UNL     1     -11.919  -9.271  -0.874  1.00  0.00     0.167 HD
ATOM     54  C   UNL     1     -13.062  -9.693   3.364  1.00  0.00     0.031 A 
ATOM     55  C   UNL     1     -11.523 -10.175  -3.483  1.00  0.00     0.031 A 
ATOM     56  C   UNL     1     -13.508 -10.898   2.721  1.00  0.00     0.049 A 
ATOM     57  C   UNL     1     -12.228 -11.276  -2.742  1.00  0.00     0.074 A 
ATOM     58  C   UNL     1     -14.216 -11.955   3.264  1.00  0.00     0.029 A 
ATOM     59  N   UNL     1     -13.288 -11.204   1.386  1.00  0.00    -0.354 N 
ATOM     60  N   UNL     1     -12.598 -11.320  -1.484  1.00  0.00    -0.248 NA
ATOM     61  C   UNL     1     -12.568 -12.477  -3.515  1.00  0.00     0.031 C 
ATOM     62  C   UNL     1     -14.378 -12.925   2.269  1.00  0.00     0.029 A 
ATOM     63  C   UNL     1     -13.825 -12.444   1.092  1.00  0.00     0.049 A 
ATOM     64  H   UNL     1     -12.819 -10.624   0.743  1.00  0.00     0.167 HD
ATOM     65  C   UNL     1     -13.238 -12.541  -1.321  1.00  0.00     0.074 A 
ATOM     66  C   UNL     1     -13.222 -13.196  -2.613  1.00  0.00     0.031 C 
ATOM     67  C   UNL     1     -13.791 -13.074  -0.203  1.00  0.00     0.031 A 
BRANCH  54  68
ATOM     68  C   UNL     1     -13.298  -9.525   4.840  1.00  0.00    -0.014 A 
ATOM     69  C   UNL     1     -14.188  -8.556   5.333  1.00  0.00     0.009 A 
ATOM     70  C   UNL     1     -12.633 -10.357   5.754  1.00  0.00     0.009 A 
ATOM     71  C   UNL     1     -14.373  -8.395   6.708  1.00  0.00     0.001 A 
ATOM     72  C   UNL     1     -12.845 -10.217   7.127  1.00  0.00     0.001 A 
ATOM     73  C   UNL     1     -13.706  -9.229   7.603  1.00  0.00     0.000 A 
ENDBRANCH  54  68
BRANCH  55  74
ATOM     74  C   UNL     1     -11.187 -10.311  -4.925  1.00  0.00    -0.014 A 
ATOM     75  C   UNL     1     -12.204 -10.312  -5.892  1.00  0.00     0.009 A 
ATOM     76  C   UNL     1      -9.853 -10.432  -5.345  1.00  0.00     0.009 A 
ATOM     77  C   UNL     1     -11.895 -10.457  -7.247  1.00  0.00     0.001 A 
ATOM     78  C   UNL     1      -9.545 -10.547  -6.703  1.00  0.00     0.001 A 
ATOM     79  C   UNL     1     -10.566 -10.569  -7.651  1.00  0.00     0.000 A 
ENDBRANCH  55  74
BRANCH  67  80
ATOM     80  C   UNL     1     -14.451 -14.416  -0.343  1.00  0.00    -0.014 A 
ATOM     81  C   UNL     1     -13.696 -15.585  -0.526  1.00  0.00     0.009 A 
ATOM     82  C   UNL     1     -15.848 -14.514  -0.247  1.00  0.00     0.009 A 
ATOM     83  C   UNL     1     -14.332 -16.821  -0.647  1.00  0.00     0.001 A 
ATOM     84  C   UNL     1     -16.478 -15.755  -0.335  1.00  0.00     0.001 A 
ATOM     85  C   UNL     1     -15.721 -16.906  -0.545  1.00  0.00     0.000 A 
ENDBRANCH  67  80
ENDBRANCH  41  42
ENDBRANCH  33  36
ENDBRANCH  31  32
ENDBRANCH  30  31
ENDBRANCH  29  30
ENDBRANCH   1  29
TORSDOF 16
