REMARK SMILES [NH3+][C@@]1(C(=O)NCCCCNC(=O)c2ccc(-c3c4nc(c(-c5ccccc5)c5ccc([nH]5)c(-c5ccccc5)c5nc(c(-c6ccccc6)c6ccc3[nH]6)C=C5)C=C4)cc2)CC[N@@H+](Cc2ccc(OCC(=O)N3CCCCC3)cc2)C1
REMARK SMILES IDX 6 1 5 2 3 3 4 4 2 6 61 7 81 8 62 9 63 10 1 12 64 16 65 17
REMARK SMILES IDX 66 18 80 19 67 20 79 21 68 22 69 23 70 24 71 25 72 26 73 27
REMARK SMILES IDX 74 28 78 29 75 30 77 31 76 32 7 33 8 34 9 35 10 36 11 37
REMARK SMILES IDX 12 39 13 40 14 41 60 42 15 43 59 44 16 45 17 46 18 47 53 48
REMARK SMILES IDX 19 49 58 50 52 51 54 52 20 53 57 54 51 55 50 56 21 58 43 59
REMARK SMILES IDX 28 60 42 61 29 62 32 63 41 64 55 65 30 66 31 67 40 69 56 70
REMARK SMILES IDX 33 71 22 72 23 73 27 74 24 75 26 76 25 77 44 78 45 79 49 80
REMARK SMILES IDX 46 81 48 82 47 83 34 84 35 85 39 86 36 87 38 88 37 89
REMARK H PARENT 5 5 63 11 1 13 1 14 1 15 10 38 54 57 32 68
REMARK Flexibility Score: inf
ROOT
ATOM      1  C   UNL     1      -2.212   2.008  -3.545  1.00  0.00     0.116 C 
ENDROOT
BRANCH   1   2
ATOM      2  N   UNL     1      -1.418   0.824  -3.246  1.00  0.00    -0.350 N 
ATOM      3  C   UNL     1      -0.817   0.298  -2.145  1.00  0.00     0.287 C 
ATOM      4  O   UNL     1      -0.504  -0.901  -2.273  1.00  0.00    -0.268 OA
ATOM      5  H   UNL     1      -1.281   0.262  -4.043  1.00  0.00     0.163 HD
BRANCH   3   6
ATOM      6  C   UNL     1      -0.405   1.009  -0.792  1.00  0.00     0.228 C 
ATOM      7  C   UNL     1      -1.096   2.304  -0.362  1.00  0.00     0.146 C 
ATOM      8  C   UNL     1       1.060   1.475  -0.913  1.00  0.00     0.342 C 
ATOM      9  C   UNL     1      -0.173   3.448  -0.838  1.00  0.00     0.270 C 
ATOM     10  N   UNL     1       0.852   2.749  -1.585  1.00  0.00    -0.325 N 
ATOM     11  H   UNL     1       0.480   2.637  -2.528  1.00  0.00     0.348 HD
BRANCH   6  12
ATOM     12  N   UNL     1      -0.543  -0.018   0.289  1.00  0.00    -0.340 N 
ATOM     13  H   UNL     1      -1.517  -0.314   0.355  1.00  0.00     0.345 HD
ATOM     14  H   UNL     1      -0.249   0.384   1.180  1.00  0.00     0.345 HD
ATOM     15  H   UNL     1       0.043  -0.824   0.070  1.00  0.00     0.345 HD
ENDBRANCH   6  12
BRANCH  10  16
ATOM     16  C   UNL     1       2.025   3.428  -2.126  1.00  0.00     0.299 C 
BRANCH  16  17
ATOM     17  C   UNL     1       2.613   2.630  -3.294  1.00  0.00     0.006 A 
ATOM     18  C   UNL     1       3.914   2.741  -3.774  1.00  0.00     0.013 A 
ATOM     19  C   UNL     1       1.793   1.714  -3.954  1.00  0.00     0.013 A 
ATOM     20  C   UNL     1       4.362   1.880  -4.805  1.00  0.00     0.047 A 
ATOM     21  C   UNL     1       2.209   0.869  -4.965  1.00  0.00     0.047 A 
ATOM     22  C   UNL     1       3.517   0.917  -5.380  1.00  0.00     0.120 A 
BRANCH  22  23
ATOM     23  O   UNL     1       4.059   0.043  -6.278  1.00  0.00    -0.484 OA
BRANCH  23  24
ATOM     24  C   UNL     1       3.181  -0.844  -6.954  1.00  0.00     0.329 C 
BRANCH  24  25
ATOM     25  C   UNL     1       2.239  -1.923  -6.321  1.00  0.00     0.260 C 
ATOM     26  O   UNL     1       1.127  -2.095  -6.840  1.00  0.00    -0.271 OA
ATOM     27  N   UNL     1       2.656  -2.699  -5.253  1.00  0.00    -0.340 N 
ATOM     28  C   UNL     1       1.824  -3.817  -4.797  1.00  0.00     0.119 C 
ATOM     29  C   UNL     1       3.866  -2.489  -4.466  1.00  0.00     0.119 C 
ATOM     30  C   UNL     1       1.478  -3.715  -3.311  1.00  0.00     0.022 C 
ATOM     31  C   UNL     1       3.497  -2.240  -3.004  1.00  0.00     0.022 C 
ATOM     32  C   UNL     1       2.702  -3.420  -2.446  1.00  0.00     0.004 C 
ENDBRANCH  24  25
ENDBRANCH  23  24
ENDBRANCH  22  23
ENDBRANCH  16  17
ENDBRANCH  10  16
ENDBRANCH   3   6
ENDBRANCH   1   2
BRANCH   1  33
ATOM     33  C   UNL     1      -1.518   3.175  -4.265  1.00  0.00     0.023 C 
BRANCH  33  34
ATOM     34  C   UNL     1      -0.839   2.911  -5.612  1.00  0.00     0.023 C 
BRANCH  34  35
ATOM     35  C   UNL     1      -1.693   2.394  -6.753  1.00  0.00     0.116 C 
BRANCH  35  36
ATOM     36  N   UNL     1      -2.469   3.446  -7.378  1.00  0.00    -0.352 N 
ATOM     37  C   UNL     1      -2.412   3.925  -8.663  1.00  0.00     0.251 C 
ATOM     38  H   UNL     1      -3.134   3.881  -6.796  1.00  0.00     0.163 HD
ATOM     39  O   UNL     1      -3.003   4.974  -8.940  1.00  0.00    -0.269 OA
BRANCH  37  40
ATOM     40  C   UNL     1      -1.655   3.220  -9.727  1.00  0.00     0.039 A 
ATOM     41  C   UNL     1      -0.973   3.978 -10.689  1.00  0.00     0.014 A 
ATOM     42  C   UNL     1      -1.667   1.826  -9.838  1.00  0.00     0.014 A 
ATOM     43  C   UNL     1      -0.285   3.345 -11.731  1.00  0.00     0.010 A 
ATOM     44  C   UNL     1      -0.925   1.193 -10.836  1.00  0.00     0.010 A 
ATOM     45  C   UNL     1      -0.245   1.945 -11.806  1.00  0.00    -0.014 A 
BRANCH  45  46
ATOM     46  C   UNL     1       0.449   1.241 -12.915  1.00  0.00     0.031 A 
ATOM     47  C   UNL     1      -0.350   0.432 -13.902  1.00  0.00     0.074 A 
ATOM     48  C   UNL     1       1.793   1.265 -13.001  1.00  0.00     0.049 A 
ATOM     49  N   UNL     1       0.069  -0.348 -14.867  1.00  0.00    -0.248 NA
ATOM     50  C   UNL     1      -1.816   0.490 -13.771  1.00  0.00     0.031 C 
ATOM     51  C   UNL     1       2.689   1.990 -12.100  1.00  0.00     0.029 A 
ATOM     52  N   UNL     1       2.640   0.643 -13.885  1.00  0.00    -0.354 N 
ATOM     53  C   UNL     1      -1.076  -0.897 -15.432  1.00  0.00     0.074 A 
ATOM     54  C   UNL     1      -2.205  -0.386 -14.685  1.00  0.00     0.031 C 
ATOM     55  C   UNL     1       3.959   1.780 -12.483  1.00  0.00     0.029 A 
ATOM     56  C   UNL     1       3.969   0.876 -13.630  1.00  0.00     0.049 A 
ATOM     57  H   UNL     1       2.325   0.083 -14.631  1.00  0.00     0.167 HD
ATOM     58  C   UNL     1      -1.183  -1.742 -16.486  1.00  0.00     0.031 A 
ATOM     59  C   UNL     1       5.073   0.402 -14.239  1.00  0.00     0.031 A 
ATOM     60  C   UNL     1      -0.067  -2.229 -17.249  1.00  0.00     0.049 A 
ATOM     61  C   UNL     1       4.931  -0.545 -15.398  1.00  0.00     0.074 A 
ATOM     62  C   UNL     1      -0.079  -3.028 -18.380  1.00  0.00     0.029 A 
ATOM     63  N   UNL     1       1.261  -1.964 -16.958  1.00  0.00    -0.354 N 
ATOM     64  N   UNL     1       3.839  -1.010 -15.955  1.00  0.00    -0.248 NA
ATOM     65  C   UNL     1       6.175  -1.034 -16.010  1.00  0.00     0.031 C 
ATOM     66  C   UNL     1       1.247  -3.281 -18.749  1.00  0.00     0.029 A 
ATOM     67  C   UNL     1       2.080  -2.606 -17.871  1.00  0.00     0.049 A 
ATOM     68  H   UNL     1       1.576  -1.403 -16.213  1.00  0.00     0.167 HD
ATOM     69  C   UNL     1       4.263  -1.833 -16.990  1.00  0.00     0.074 A 
ATOM     70  C   UNL     1       5.710  -1.791 -16.995  1.00  0.00     0.031 C 
ATOM     71  C   UNL     1       3.518  -2.560 -17.857  1.00  0.00     0.031 A 
BRANCH  58  72
ATOM     72  C   UNL     1      -2.561  -2.200 -16.868  1.00  0.00    -0.014 A 
ATOM     73  C   UNL     1      -3.470  -1.331 -17.492  1.00  0.00     0.009 A 
ATOM     74  C   UNL     1      -2.945  -3.529 -16.629  1.00  0.00     0.009 A 
ATOM     75  C   UNL     1      -4.749  -1.775 -17.836  1.00  0.00     0.001 A 
ATOM     76  C   UNL     1      -4.216  -3.976 -16.997  1.00  0.00     0.001 A 
ATOM     77  C   UNL     1      -5.120  -3.097 -17.591  1.00  0.00     0.000 A 
ENDBRANCH  58  72
BRANCH  59  78
ATOM     78  C   UNL     1       6.418   0.811 -13.760  1.00  0.00    -0.014 A 
ATOM     79  C   UNL     1       7.198   1.701 -14.513  1.00  0.00     0.009 A 
ATOM     80  C   UNL     1       6.928   0.315 -12.550  1.00  0.00     0.009 A 
ATOM     81  C   UNL     1       8.471   2.072 -14.072  1.00  0.00     0.001 A 
ATOM     82  C   UNL     1       8.191   0.706 -12.101  1.00  0.00     0.001 A 
ATOM     83  C   UNL     1       8.964   1.578 -12.866  1.00  0.00     0.000 A 
ENDBRANCH  59  78
BRANCH  71  84
ATOM     84  C   UNL     1       4.254  -3.361 -18.891  1.00  0.00    -0.014 A 
ATOM     85  C   UNL     1       4.891  -4.564 -18.551  1.00  0.00     0.009 A 
ATOM     86  C   UNL     1       4.264  -2.935 -20.228  1.00  0.00     0.009 A 
ATOM     87  C   UNL     1       5.542  -5.316 -19.529  1.00  0.00     0.001 A 
ATOM     88  C   UNL     1       4.898  -3.701 -21.207  1.00  0.00     0.001 A 
ATOM     89  C   UNL     1       5.540  -4.888 -20.857  1.00  0.00     0.000 A 
ENDBRANCH  71  84
ENDBRANCH  45  46
ENDBRANCH  37  40
ENDBRANCH  35  36
ENDBRANCH  34  35
ENDBRANCH  33  34
ENDBRANCH   1  33
TORSDOF 17
