REMARK SMILES O=C(NCCCCNC(=O)[C@H]1Cc2cc(Cl)ccc2O1)c1ccc(-c2c3nc(c(-c4ccccc4)c4ccc([nH]4)c(-c4ccccc4)c4nc(c(-c5ccccc5)c5ccc2[nH]5)C=C4)C=C3)cc1
REMARK SMILES IDX 4 1 3 2 1 3 2 4 21 6 22 7 68 8 23 9 67 10 24 11 25 12 26 13
REMARK SMILES IDX 61 14 27 15 66 16 60 17 62 18 28 19 65 20 59 21 58 22 29 24
REMARK SMILES IDX 51 25 36 26 50 27 37 28 40 29 49 30 63 31 38 32 39 33 48 35
REMARK SMILES IDX 64 36 41 37 30 38 31 39 35 40 32 41 34 42 33 43 52 44 53 45
REMARK SMILES IDX 57 46 54 47 56 48 55 49 42 50 43 51 47 52 44 53 46 54 45 55
REMARK SMILES IDX 5 56 6 57 7 58 8 59 9 60 10 62 11 63 12 64 20 65 13 66 19 67
REMARK SMILES IDX 14 68 18 69 15 70 17 71 16 72
REMARK H PARENT 3 5 62 23 40 34 8 61
REMARK Flexibility Score: inf
ROOT
ATOM      1  C   UNL     1       0.980   7.345   4.801  1.00  0.00     0.116 C 
ENDROOT
BRANCH   1   2
ATOM      2  N   UNL     1       1.099   8.784   4.972  1.00  0.00    -0.352 N 
ATOM      3  O   UNL     1       0.350  10.896   5.246  1.00  0.00    -0.269 OA
ATOM      4  C   UNL     1       0.121   9.689   5.290  1.00  0.00     0.251 C 
ATOM      5  H   UNL     1       2.001   9.157   4.843  1.00  0.00     0.163 HD
BRANCH   4   6
ATOM      6  C   UNL     1      -1.217   9.205   5.675  1.00  0.00     0.039 A 
ATOM      7  C   UNL     1      -2.343   9.815   5.117  1.00  0.00     0.014 A 
ATOM      8  C   UNL     1      -1.355   8.165   6.598  1.00  0.00     0.014 A 
ATOM      9  C   UNL     1      -3.614   9.365   5.471  1.00  0.00     0.010 A 
ATOM     10  C   UNL     1      -2.618   7.668   6.891  1.00  0.00     0.010 A 
ATOM     11  C   UNL     1      -3.758   8.283   6.354  1.00  0.00    -0.014 A 
BRANCH  11  12
ATOM     12  C   UNL     1      -5.095   7.811   6.781  1.00  0.00     0.031 A 
ATOM     13  C   UNL     1      -5.505   7.951   8.219  1.00  0.00     0.074 A 
ATOM     14  C   UNL     1      -5.909   7.209   5.895  1.00  0.00     0.049 A 
ATOM     15  N   UNL     1      -6.596   7.537   8.808  1.00  0.00    -0.248 NA
ATOM     16  C   UNL     1      -4.552   8.621   9.120  1.00  0.00     0.031 C 
ATOM     17  C   UNL     1      -5.610   7.008   4.477  1.00  0.00     0.029 A 
ATOM     18  N   UNL     1      -7.153   6.654   6.059  1.00  0.00    -0.354 N 
ATOM     19  C   UNL     1      -6.448   7.873  10.148  1.00  0.00     0.074 A 
ATOM     20  C   UNL     1      -5.145   8.478  10.296  1.00  0.00     0.031 C 
ATOM     21  C   UNL     1      -6.655   6.401   3.894  1.00  0.00     0.029 A 
ATOM     22  C   UNL     1      -7.673   6.123   4.905  1.00  0.00     0.049 A 
ATOM     23  H   UNL     1      -7.627   6.637   6.922  1.00  0.00     0.167 HD
ATOM     24  C   UNL     1      -7.332   7.708  11.158  1.00  0.00     0.031 A 
ATOM     25  C   UNL     1      -8.834   5.475   4.683  1.00  0.00     0.031 A 
ATOM     26  C   UNL     1      -8.638   7.130  10.989  1.00  0.00     0.049 A 
ATOM     27  C   UNL     1      -9.790   5.272   5.824  1.00  0.00     0.074 A 
ATOM     28  C   UNL     1      -9.642   7.001  11.931  1.00  0.00     0.029 A 
ATOM     29  N   UNL     1      -9.116   6.580   9.809  1.00  0.00    -0.354 N 
ATOM     30  N   UNL     1      -9.672   5.660   7.072  1.00  0.00    -0.248 NA
ATOM     31  C   UNL     1     -11.036   4.549   5.535  1.00  0.00     0.031 C 
ATOM     32  C   UNL     1     -10.692   6.293  11.346  1.00  0.00     0.029 A 
ATOM     33  C   UNL     1     -10.380   6.057  10.015  1.00  0.00     0.049 A 
ATOM     34  H   UNL     1      -8.629   6.563   8.954  1.00  0.00     0.167 HD
ATOM     35  C   UNL     1     -10.829   5.240   7.715  1.00  0.00     0.074 A 
ATOM     36  C   UNL     1     -11.646   4.581   6.715  1.00  0.00     0.031 C 
ATOM     37  C   UNL     1     -11.178   5.389   9.016  1.00  0.00     0.031 A 
BRANCH  24  38
ATOM     38  C   UNL     1      -6.923   8.144  12.539  1.00  0.00    -0.014 A 
ATOM     39  C   UNL     1      -6.798   7.185  13.558  1.00  0.00     0.009 A 
ATOM     40  C   UNL     1      -6.739   9.498  12.859  1.00  0.00     0.009 A 
ATOM     41  C   UNL     1      -6.510   7.572  14.867  1.00  0.00     0.001 A 
ATOM     42  C   UNL     1      -6.413   9.880  14.162  1.00  0.00     0.001 A 
ATOM     43  C   UNL     1      -6.310   8.919  15.167  1.00  0.00     0.000 A 
ENDBRANCH  24  38
BRANCH  25  44
ATOM     44  C   UNL     1      -9.141   5.016   3.303  1.00  0.00    -0.014 A 
ATOM     45  C   UNL     1      -8.393   3.986   2.708  1.00  0.00     0.009 A 
ATOM     46  C   UNL     1     -10.099   5.689   2.531  1.00  0.00     0.009 A 
ATOM     47  C   UNL     1      -8.562   3.673   1.357  1.00  0.00     0.001 A 
ATOM     48  C   UNL     1     -10.286   5.354   1.187  1.00  0.00     0.001 A 
ATOM     49  C   UNL     1      -9.507   4.360   0.598  1.00  0.00     0.000 A 
ENDBRANCH  25  44
BRANCH  37  50
ATOM     50  C   UNL     1     -12.495   4.822   9.471  1.00  0.00    -0.014 A 
ATOM     51  C   UNL     1     -13.517   5.687   9.898  1.00  0.00     0.009 A 
ATOM     52  C   UNL     1     -12.666   3.439   9.629  1.00  0.00     0.009 A 
ATOM     53  C   UNL     1     -14.665   5.181  10.509  1.00  0.00     0.001 A 
ATOM     54  C   UNL     1     -13.831   2.934  10.211  1.00  0.00     0.001 A 
ATOM     55  C   UNL     1     -14.821   3.805  10.665  1.00  0.00     0.000 A 
ENDBRANCH  37  50
ENDBRANCH  11  12
ENDBRANCH   4   6
ENDBRANCH   1   2
BRANCH   1  56
ATOM     56  C   UNL     1       1.820   6.817   3.645  1.00  0.00     0.023 C 
BRANCH  56  57
ATOM     57  C   UNL     1       3.308   7.162   3.727  1.00  0.00     0.023 C 
BRANCH  57  58
ATOM     58  C   UNL     1       4.003   6.633   4.981  1.00  0.00     0.116 C 
BRANCH  58  59
ATOM     59  N   UNL     1       4.316   5.225   4.860  1.00  0.00    -0.353 N 
ATOM     60  C   UNL     1       5.490   4.593   4.580  1.00  0.00     0.261 C 
ATOM     61  H   UNL     1       3.550   4.623   5.004  1.00  0.00     0.163 HD
ATOM     62  O   UNL     1       5.443   3.360   4.490  1.00  0.00    -0.271 OA
BRANCH  60  63
ATOM     63  C   UNL     1       6.827   5.335   4.377  1.00  0.00     0.266 C 
ATOM     64  C   UNL     1       6.835   6.358   3.233  1.00  0.00     0.095 C 
ATOM     65  O   UNL     1       7.304   5.945   5.597  1.00  0.00    -0.480 OA
ATOM     66  C   UNL     1       7.137   7.595   3.990  1.00  0.00    -0.000 A 
ATOM     67  C   UNL     1       7.444   7.273   5.303  1.00  0.00     0.123 A 
ATOM     68  C   UNL     1       7.109   8.915   3.574  1.00  0.00     0.028 A 
ATOM     69  C   UNL     1       7.766   8.233   6.240  1.00  0.00     0.048 A 
ATOM     70  C   UNL     1       7.408   9.905   4.516  1.00  0.00     0.041 A 
ATOM     71  C   UNL     1       7.747   9.570   5.837  1.00  0.00     0.024 A 
ATOM     72  Cl  UNL     1       7.334  11.562   4.057  1.00  0.00    -0.084 Cl
ENDBRANCH  60  63
ENDBRANCH  58  59
ENDBRANCH  57  58
ENDBRANCH  56  57
ENDBRANCH   1  56
TORSDOF 11
