REMARK SMILES Cc1cc(C(=O)NCCCCNC(=O)c2ccc(-c3c4nc(c(-c5ccccc5)c5ccc([nH]5)c(-c5ccccc5)c5nc(c(-c6ccccc6)c6ccc3[nH]6)C=C5)C=C4)cc2)ccc1NC(=O)N1C[C@@H](C)[C@H](C)C1
REMARK SMILES IDX 10 1 9 2 8 3 7 4 5 5 6 6 4 8 1 9 2 10 3 11 65 12 64 13 63 14
REMARK SMILES IDX 66 15 67 16 68 18 69 19 70 20 75 21 71 22 73 23 72 24 74 25
REMARK SMILES IDX 11 26 12 27 13 28 14 30 15 31 16 32 62 33 17 34 61 35 18 36
REMARK SMILES IDX 19 37 20 38 55 39 21 40 60 41 54 42 56 43 22 44 59 45 53 46
REMARK SMILES IDX 52 47 23 49 45 50 30 51 44 52 31 53 34 54 43 55 57 56 32 57
REMARK SMILES IDX 33 58 42 60 58 61 35 62 24 63 25 64 29 65 26 66 28 67 27 68
REMARK SMILES IDX 46 69 47 70 51 71 48 72 50 73 49 74 36 75 37 76 41 77 38 78
REMARK SMILES IDX 40 79 39 80
REMARK H PARENT 7 7 66 17 12 29 56 48 34 59
REMARK Flexibility Score: inf
ROOT
ATOM      1  C   UNL     1      -5.599  -2.185  -2.014  1.00  0.00     0.023 C 
ENDROOT
BRANCH   1   2
ATOM      2  C   UNL     1      -4.802  -1.061  -1.357  1.00  0.00     0.023 C 
BRANCH   2   3
ATOM      3  C   UNL     1      -4.052  -1.457  -0.072  1.00  0.00     0.116 C 
BRANCH   3   4
ATOM      4  N   UNL     1      -3.057  -2.507  -0.274  1.00  0.00    -0.352 N 
ATOM      5  C   UNL     1      -1.681  -2.466  -0.358  1.00  0.00     0.251 C 
ATOM      6  O   UNL     1      -1.055  -3.524  -0.328  1.00  0.00    -0.269 OA
ATOM      7  H   UNL     1      -3.438  -3.410  -0.366  1.00  0.00     0.163 HD
BRANCH   5   8
ATOM      8  C   UNL     1      -0.938  -1.183  -0.441  1.00  0.00     0.040 A 
ATOM      9  C   UNL     1       2.455   0.157   0.613  1.00  0.00     0.046 C 
ATOM     10  C   UNL     1       1.026   0.166   0.146  1.00  0.00    -0.027 A 
ATOM     11  C   UNL     1       0.341  -1.073   0.119  1.00  0.00     0.019 A 
ATOM     12  C   UNL     1       0.362   1.311  -0.328  1.00  0.00     0.045 A 
ATOM     13  C   UNL     1      -0.820   1.143  -1.050  1.00  0.00     0.027 A 
ATOM     14  C   UNL     1      -1.443  -0.093  -1.127  1.00  0.00     0.016 A 
BRANCH  12  15
ATOM     15  N   UNL     1       0.880   2.608  -0.137  1.00  0.00    -0.308 N 
ATOM     16  C   UNL     1       0.246   3.809  -0.320  1.00  0.00     0.321 C 
ATOM     17  H   UNL     1       1.816   2.658   0.167  1.00  0.00     0.171 HD
ATOM     18  O   UNL     1       0.898   4.776  -0.715  1.00  0.00    -0.248 OA
ATOM     19  N   UNL     1      -1.096   3.897  -0.038  1.00  0.00    -0.324 N 
ATOM     20  C   UNL     1      -1.944   4.874  -0.696  1.00  0.00     0.125 C 
ATOM     21  C   UNL     1      -1.730   3.372   1.167  1.00  0.00     0.125 C 
ATOM     22  C   UNL     1      -3.106   5.120   0.265  1.00  0.00     0.010 C 
ATOM     23  C   UNL     1      -3.195   3.804   1.061  1.00  0.00     0.010 C 
ATOM     24  C   UNL     1      -4.400   5.475  -0.452  1.00  0.00     0.010 C 
ATOM     25  C   UNL     1      -3.880   3.970   2.414  1.00  0.00     0.010 C 
ENDBRANCH  12  15
ENDBRANCH   5   8
ENDBRANCH   3   4
ENDBRANCH   2   3
ENDBRANCH   1   2
BRANCH   1  26
ATOM     26  C   UNL     1      -6.931  -2.453  -1.336  1.00  0.00     0.116 C 
BRANCH  26  27
ATOM     27  N   UNL     1      -8.027  -1.615  -1.810  1.00  0.00    -0.352 N 
ATOM     28  C   UNL     1      -9.334  -1.521  -1.351  1.00  0.00     0.251 C 
ATOM     29  H   UNL     1      -7.806  -1.027  -2.568  1.00  0.00     0.163 HD
ATOM     30  O   UNL     1     -10.129  -0.792  -1.913  1.00  0.00    -0.269 OA
BRANCH  28  31
ATOM     31  C   UNL     1      -9.706  -2.184  -0.071  1.00  0.00     0.039 A 
ATOM     32  C   UNL     1     -10.415  -1.416   0.860  1.00  0.00     0.014 A 
ATOM     33  C   UNL     1      -9.125  -3.385   0.315  1.00  0.00     0.014 A 
ATOM     34  C   UNL     1     -10.257  -1.683   2.215  1.00  0.00     0.010 A 
ATOM     35  C   UNL     1      -8.855  -3.575   1.654  1.00  0.00     0.010 A 
ATOM     36  C   UNL     1      -9.344  -2.664   2.594  1.00  0.00    -0.014 A 
BRANCH  36  37
ATOM     37  C   UNL     1      -8.712  -2.693   3.908  1.00  0.00     0.031 A 
ATOM     38  C   UNL     1      -9.021  -3.786   4.857  1.00  0.00     0.074 A 
ATOM     39  C   UNL     1      -7.765  -1.771   4.207  1.00  0.00     0.049 A 
ATOM     40  N   UNL     1      -8.870  -3.706   6.137  1.00  0.00    -0.248 NA
ATOM     41  C   UNL     1      -9.588  -5.062   4.430  1.00  0.00     0.031 C 
ATOM     42  C   UNL     1      -6.848  -1.797   5.346  1.00  0.00     0.029 A 
ATOM     43  N   UNL     1      -7.548  -0.504   3.651  1.00  0.00    -0.354 N 
ATOM     44  C   UNL     1      -8.978  -4.983   6.642  1.00  0.00     0.074 A 
ATOM     45  C   UNL     1      -9.549  -5.760   5.568  1.00  0.00     0.031 C 
ATOM     46  C   UNL     1      -6.434  -0.543   5.592  1.00  0.00     0.029 A 
ATOM     47  C   UNL     1      -7.208   0.332   4.727  1.00  0.00     0.049 A 
ATOM     48  H   UNL     1      -7.619  -0.251   2.702  1.00  0.00     0.167 HD
ATOM     49  C   UNL     1      -8.413  -5.276   7.848  1.00  0.00     0.031 A 
ATOM     50  C   UNL     1      -7.980   1.372   5.167  1.00  0.00     0.031 A 
ATOM     51  C   UNL     1      -7.907  -4.073   8.513  1.00  0.00     0.049 A 
ATOM     52  C   UNL     1      -8.377   1.252   6.630  1.00  0.00     0.074 A 
ATOM     53  C   UNL     1      -6.635  -3.553   8.687  1.00  0.00     0.029 A 
ATOM     54  N   UNL     1      -8.795  -3.061   8.861  1.00  0.00    -0.354 N 
ATOM     55  N   UNL     1      -8.305   0.140   7.308  1.00  0.00    -0.248 NA
ATOM     56  C   UNL     1      -8.941   2.344   7.423  1.00  0.00     0.031 C 
ATOM     57  C   UNL     1      -6.766  -2.188   9.056  1.00  0.00     0.029 A 
ATOM     58  C   UNL     1      -8.115  -1.891   9.138  1.00  0.00     0.049 A 
ATOM     59  H   UNL     1      -9.774  -3.164   8.903  1.00  0.00     0.167 HD
ATOM     60  C   UNL     1      -8.787   0.335   8.575  1.00  0.00     0.074 A 
ATOM     61  C   UNL     1      -9.167   1.735   8.603  1.00  0.00     0.031 C 
ATOM     62  C   UNL     1      -8.847  -0.680   9.485  1.00  0.00     0.031 A 
BRANCH  49  63
ATOM     63  C   UNL     1      -8.037  -6.682   8.279  1.00  0.00    -0.014 A 
ATOM     64  C   UNL     1      -7.022  -6.866   9.239  1.00  0.00     0.009 A 
ATOM     65  C   UNL     1      -8.568  -7.862   7.732  1.00  0.00     0.009 A 
ATOM     66  C   UNL     1      -6.504  -8.133   9.549  1.00  0.00     0.001 A 
ATOM     67  C   UNL     1      -8.040  -9.131   8.014  1.00  0.00     0.001 A 
ATOM     68  C   UNL     1      -6.995  -9.265   8.914  1.00  0.00     0.000 A 
ENDBRANCH  49  63
BRANCH  50  69
ATOM     69  C   UNL     1      -8.832   2.006   4.126  1.00  0.00    -0.014 A 
ATOM     70  C   UNL     1      -8.207   2.735   3.098  1.00  0.00     0.009 A 
ATOM     71  C   UNL     1     -10.168   1.616   3.953  1.00  0.00     0.009 A 
ATOM     72  C   UNL     1      -8.858   2.962   1.882  1.00  0.00     0.001 A 
ATOM     73  C   UNL     1     -10.820   1.855   2.736  1.00  0.00     0.001 A 
ATOM     74  C   UNL     1     -10.154   2.492   1.690  1.00  0.00     0.000 A 
ENDBRANCH  50  69
BRANCH  62  75
ATOM     75  C   UNL     1      -9.548  -0.633  10.819  1.00  0.00    -0.014 A 
ATOM     76  C   UNL     1     -10.632   0.205  11.110  1.00  0.00     0.009 A 
ATOM     77  C   UNL     1      -9.200  -1.587  11.803  1.00  0.00     0.009 A 
ATOM     78  C   UNL     1     -11.307   0.122  12.337  1.00  0.00     0.001 A 
ATOM     79  C   UNL     1      -9.897  -1.703  13.008  1.00  0.00     0.001 A 
ATOM     80  C   UNL     1     -10.947  -0.838  13.279  1.00  0.00     0.000 A 
ENDBRANCH  62  75
ENDBRANCH  36  37
ENDBRANCH  28  31
ENDBRANCH  26  27
ENDBRANCH   1  26
TORSDOF 12
