REMARK SMILES CC[C@@H](NS(=O)(=O)c1cc(C)ccc1C)C(=O)NCCCCNC(=O)c1ccc(-c2c3nc(c(-c4ccccc4)c4ccc([nH]4)c(-c4ccccc4)c4nc(c(-c5ccccc5)c5ccc2[nH]5)C=C4)C=C3)cc1
REMARK SMILES IDX 20 1 19 2 18 3 16 4 17 5 3 7 2 8 1 9 4 10 5 12 6 13 7 14
REMARK SMILES IDX 8 15 9 16 14 17 10 18 13 19 15 20 11 21 12 22 21 23 22 24
REMARK SMILES IDX 23 25 24 26 25 28 26 29 27 30 73 31 28 32 72 33 29 34 30 35
REMARK SMILES IDX 31 36 66 37 32 38 71 39 65 40 67 41 33 42 70 43 64 44 63 45
REMARK SMILES IDX 34 47 56 48 41 49 55 50 42 51 45 52 54 53 68 54 43 55 44 56
REMARK SMILES IDX 53 58 69 59 46 60 35 61 36 62 40 63 37 64 39 65 38 66 57 67
REMARK SMILES IDX 58 68 62 69 59 70 61 71 60 72 47 73 48 74 52 75 49 76 51 77
REMARK SMILES IDX 50 78
REMARK H PARENT 18 6 4 11 23 27 67 46 45 57
REMARK Flexibility Score: inf
ROOT
ATOM      1  C   UNL     1      -2.853  -0.920   2.339  1.00  0.00     0.023 C 
ENDROOT
BRANCH   1   2
ATOM      2  C   UNL     1      -1.884   0.167   2.806  1.00  0.00     0.116 C 
BRANCH   2   3
ATOM      3  N   UNL     1      -0.829  -0.424   3.605  1.00  0.00    -0.355 N 
ATOM      4  C   UNL     1       0.463  -0.715   3.267  1.00  0.00     0.238 C 
ATOM      5  O   UNL     1       1.070  -1.539   3.954  1.00  0.00    -0.273 OA
ATOM      6  H   UNL     1      -1.080  -0.649   4.530  1.00  0.00     0.163 HD
BRANCH   4   7
ATOM      7  C   UNL     1       1.143   0.002   2.099  1.00  0.00     0.158 C 
BRANCH   7   8
ATOM      8  C   UNL     1       0.711  -0.638   0.778  1.00  0.00     0.027 C 
ATOM      9  C   UNL     1       1.368  -0.042  -0.456  1.00  0.00     0.006 C 
ENDBRANCH   7   8
BRANCH   7  10
ATOM     10  N   UNL     1       0.858   1.450   2.183  1.00  0.00    -0.199 NA
ATOM     11  H   UNL     1      -0.137   1.554   2.380  1.00  0.00     0.142 HD
BRANCH  10  12
ATOM     12  S   UNL     1       1.700   2.352   3.339  1.00  0.00     0.241 S 
ATOM     13  O   UNL     1       3.041   1.848   3.417  1.00  0.00    -0.207 OA
ATOM     14  O   UNL     1       1.465   3.730   2.930  1.00  0.00    -0.207 OA
BRANCH  12  15
ATOM     15  C   UNL     1       0.875   2.023   4.906  1.00  0.00     0.085 A 
ATOM     16  C   UNL     1       1.339   0.961   5.686  1.00  0.00     0.025 A 
ATOM     17  C   UNL     1      -0.183   2.778   5.410  1.00  0.00    -0.031 A 
ATOM     18  C   UNL     1       0.678   0.605   6.875  1.00  0.00    -0.050 A 
ATOM     19  C   UNL     1      -0.697   2.542   6.700  1.00  0.00     0.005 A 
ATOM     20  C   UNL     1      -0.874   3.818   4.633  1.00  0.00     0.046 C 
ATOM     21  C   UNL     1       0.927  -0.714   7.533  1.00  0.00     0.044 C 
ATOM     22  C   UNL     1      -0.277   1.452   7.427  1.00  0.00     0.004 A 
ENDBRANCH  12  15
ENDBRANCH  10  12
ENDBRANCH   7  10
ENDBRANCH   4   7
ENDBRANCH   2   3
ENDBRANCH   1   2
BRANCH   1  23
ATOM     23  C   UNL     1      -3.638  -1.618   3.462  1.00  0.00     0.023 C 
BRANCH  23  24
ATOM     24  C   UNL     1      -4.705  -0.759   4.140  1.00  0.00     0.116 C 
BRANCH  24  25
ATOM     25  N   UNL     1      -5.746  -0.313   3.203  1.00  0.00    -0.352 N 
ATOM     26  C   UNL     1      -6.551   0.811   3.136  1.00  0.00     0.251 C 
ATOM     27  H   UNL     1      -5.904  -0.948   2.467  1.00  0.00     0.163 HD
ATOM     28  O   UNL     1      -7.553   0.791   2.427  1.00  0.00    -0.269 OA
BRANCH  26  29
ATOM     29  C   UNL     1      -6.215   2.050   3.869  1.00  0.00     0.039 A 
ATOM     30  C   UNL     1      -7.034   3.187   3.926  1.00  0.00     0.014 A 
ATOM     31  C   UNL     1      -4.937   2.188   4.347  1.00  0.00     0.014 A 
ATOM     32  C   UNL     1      -6.487   4.404   4.390  1.00  0.00     0.010 A 
ATOM     33  C   UNL     1      -4.665   3.159   5.255  1.00  0.00     0.010 A 
ATOM     34  C   UNL     1      -5.213   4.391   4.955  1.00  0.00    -0.014 A 
BRANCH  34  35
ATOM     35  C   UNL     1      -4.466   5.499   5.542  1.00  0.00     0.031 A 
ATOM     36  C   UNL     1      -4.717   5.679   6.999  1.00  0.00     0.074 A 
ATOM     37  C   UNL     1      -3.388   6.065   4.949  1.00  0.00     0.049 A 
ATOM     38  N   UNL     1      -5.417   6.631   7.520  1.00  0.00    -0.248 NA
ATOM     39  C   UNL     1      -4.358   4.617   7.959  1.00  0.00     0.031 C 
ATOM     40  C   UNL     1      -2.834   5.880   3.599  1.00  0.00     0.029 A 
ATOM     41  N   UNL     1      -2.443   6.861   5.538  1.00  0.00    -0.354 N 
ATOM     42  C   UNL     1      -5.441   6.375   8.883  1.00  0.00     0.074 A 
ATOM     43  C   UNL     1      -5.056   4.999   9.028  1.00  0.00     0.031 C 
ATOM     44  C   UNL     1      -1.570   6.390   3.550  1.00  0.00     0.029 A 
ATOM     45  C   UNL     1      -1.236   6.995   4.836  1.00  0.00     0.049 A 
ATOM     46  H   UNL     1      -2.600   7.310   6.400  1.00  0.00     0.167 HD
ATOM     47  C   UNL     1      -5.480   7.377   9.805  1.00  0.00     0.031 A 
ATOM     48  C   UNL     1      -0.074   7.486   5.365  1.00  0.00     0.031 A 
ATOM     49  C   UNL     1      -5.659   8.658   9.158  1.00  0.00     0.049 A 
ATOM     50  C   UNL     1      -0.489   8.454   6.403  1.00  0.00     0.074 A 
ATOM     51  C   UNL     1      -6.636   9.223   8.361  1.00  0.00     0.029 A 
ATOM     52  N   UNL     1      -4.517   9.395   8.931  1.00  0.00    -0.354 N 
ATOM     53  N   UNL     1      -1.181   9.516   6.104  1.00  0.00    -0.248 NA
ATOM     54  C   UNL     1      -0.571   8.022   7.790  1.00  0.00     0.031 C 
ATOM     55  C   UNL     1      -5.925   9.952   7.361  1.00  0.00     0.029 A 
ATOM     56  C   UNL     1      -4.562   9.851   7.638  1.00  0.00     0.049 A 
ATOM     57  H   UNL     1      -3.797   9.564   9.581  1.00  0.00     0.167 HD
ATOM     58  C   UNL     1      -2.143   9.584   7.094  1.00  0.00     0.074 A 
ATOM     59  C   UNL     1      -1.633   8.739   8.179  1.00  0.00     0.031 C 
ATOM     60  C   UNL     1      -3.397  10.048   6.810  1.00  0.00     0.031 A 
BRANCH  47  61
ATOM     61  C   UNL     1      -4.957   7.266  11.219  1.00  0.00    -0.014 A 
ATOM     62  C   UNL     1      -5.050   8.396  12.050  1.00  0.00     0.009 A 
ATOM     63  C   UNL     1      -4.193   6.192  11.716  1.00  0.00     0.009 A 
ATOM     64  C   UNL     1      -4.353   8.477  13.261  1.00  0.00     0.001 A 
ATOM     65  C   UNL     1      -3.526   6.251  12.943  1.00  0.00     0.001 A 
ATOM     66  C   UNL     1      -3.582   7.407  13.703  1.00  0.00     0.000 A 
ENDBRANCH  47  61
BRANCH  48  67
ATOM     67  C   UNL     1       1.335   6.998   5.341  1.00  0.00    -0.014 A 
ATOM     68  C   UNL     1       2.439   7.838   5.142  1.00  0.00     0.009 A 
ATOM     69  C   UNL     1       1.621   5.717   5.852  1.00  0.00     0.009 A 
ATOM     70  C   UNL     1       3.757   7.384   5.371  1.00  0.00     0.001 A 
ATOM     71  C   UNL     1       2.928   5.242   6.044  1.00  0.00     0.001 A 
ATOM     72  C   UNL     1       4.003   6.081   5.801  1.00  0.00     0.000 A 
ENDBRANCH  48  67
BRANCH  60  73
ATOM     73  C   UNL     1      -3.645  10.534   5.393  1.00  0.00    -0.014 A 
ATOM     74  C   UNL     1      -3.793   9.642   4.314  1.00  0.00     0.009 A 
ATOM     75  C   UNL     1      -3.889  11.884   5.145  1.00  0.00     0.009 A 
ATOM     76  C   UNL     1      -4.125  10.070   3.026  1.00  0.00     0.001 A 
ATOM     77  C   UNL     1      -4.252  12.320   3.863  1.00  0.00     0.001 A 
ATOM     78  C   UNL     1      -4.362  11.417   2.803  1.00  0.00     0.000 A 
ENDBRANCH  60  73
ENDBRANCH  34  35
ENDBRANCH  26  29
ENDBRANCH  24  25
ENDBRANCH  23  24
ENDBRANCH   1  23
TORSDOF 15
