REMARK SMILES CCN(C(=O)c1ccccc1C(=O)NCCCCNC(=O)c1ccc(-c2c3nc(c(-c4ccccc4)c4ccc([nH]4)c(-c4ccccc4)c4nc(c(-c5ccccc5)c5ccc2[nH]5)C=C4)C=C3)cc1)[C@H](CCO)c1ccccc1
REMARK SMILES IDX 12 1 13 2 14 3 11 5 6 6 7 7 8 8 10 9 9 10 4 11 5 12 3 13
REMARK SMILES IDX 2 14 1 15 70 16 74 17 75 18 79 19 76 20 78 21 77 22 71 23
REMARK SMILES IDX 72 24 73 25 15 27 16 28 17 29 18 30 19 31 20 32 21 34 22 35
REMARK SMILES IDX 23 36 69 37 24 38 68 39 25 40 26 41 27 42 62 43 28 44 67 45
REMARK SMILES IDX 61 46 63 47 29 48 66 49 60 50 59 51 30 53 52 54 37 55 51 56
REMARK SMILES IDX 38 57 41 58 50 59 64 60 39 61 40 62 49 64 65 65 42 66 31 67
REMARK SMILES IDX 32 68 36 69 33 70 35 71 34 72 53 73 54 74 58 75 55 76 57 77
REMARK SMILES IDX 56 78 43 79 44 80 48 81 45 82 47 83 46 84
REMARK H PARENT 14 4 73 26 19 33 63 52 41 63
REMARK Flexibility Score: inf
ROOT
ATOM      1  C   UNL     1       3.488   2.882   2.528  1.00  0.00     0.252 C 
ATOM      2  O   UNL     1       2.773   3.270   3.466  1.00  0.00    -0.269 OA
ATOM      3  N   UNL     1       3.056   1.680   1.986  1.00  0.00    -0.352 N 
ATOM      4  H   UNL     1       2.362   1.230   2.520  1.00  0.00     0.163 HD
ENDROOT
BRANCH   1   5
ATOM      5  C   UNL     1       4.719   3.746   2.236  1.00  0.00     0.052 A 
ATOM      6  C   UNL     1       5.290   4.279   1.052  1.00  0.00     0.052 A 
ATOM      7  C   UNL     1       6.362   5.216   1.117  1.00  0.00     0.014 A 
ATOM      8  C   UNL     1       6.833   5.720   2.315  1.00  0.00     0.001 A 
ATOM      9  C   UNL     1       5.251   4.288   3.442  1.00  0.00     0.014 A 
ATOM     10  C   UNL     1       6.262   5.264   3.484  1.00  0.00     0.001 A 
BRANCH   6  11
ATOM     11  C   UNL     1       4.858   4.141  -0.362  1.00  0.00     0.255 C 
ATOM     12  O   UNL     1       5.675   4.319  -1.266  1.00  0.00    -0.269 OA
BRANCH  11  13
ATOM     13  N   UNL     1       3.547   3.825  -0.628  1.00  0.00    -0.332 N 
BRANCH  13  14
ATOM     14  C   UNL     1       2.565   4.707   0.044  1.00  0.00     0.117 C 
ATOM     15  C   UNL     1       1.996   5.855  -0.779  1.00  0.00     0.027 C 
ENDBRANCH  13  14
BRANCH  13  16
ATOM     16  C   UNL     1       3.290   3.106  -1.925  1.00  0.00     0.118 C 
BRANCH  16  17
ATOM     17  C   UNL     1       4.221   1.788  -2.163  1.00  0.00    -0.025 A 
ATOM     18  C   UNL     1       3.976   0.870  -3.188  1.00  0.00     0.006 A 
ATOM     19  C   UNL     1       5.396   1.457  -1.448  1.00  0.00     0.006 A 
ATOM     20  C   UNL     1       4.554  -0.425  -3.231  1.00  0.00     0.000 A 
ATOM     21  C   UNL     1       6.067   0.217  -1.541  1.00  0.00     0.000 A 
ATOM     22  C   UNL     1       5.587  -0.767  -2.377  1.00  0.00     0.000 A 
ENDBRANCH  16  17
BRANCH  16  23
ATOM     23  C   UNL     1       1.734   3.018  -2.228  1.00  0.00     0.058 C 
BRANCH  23  24
ATOM     24  C   UNL     1       0.693   2.533  -1.185  1.00  0.00     0.158 C 
BRANCH  24  25
ATOM     25  O   UNL     1      -0.034   3.586  -0.554  1.00  0.00    -0.396 OA
ATOM     26  H   UNL     1       0.579   4.151  -0.059  1.00  0.00     0.210 HD
ENDBRANCH  24  25
ENDBRANCH  23  24
ENDBRANCH  16  23
ENDBRANCH  13  16
ENDBRANCH  11  13
ENDBRANCH   6  11
ENDBRANCH   1   5
BRANCH   3  27
ATOM     27  C   UNL     1       3.427   0.964   0.794  1.00  0.00     0.116 C 
BRANCH  27  28
ATOM     28  C   UNL     1       3.075  -0.528   0.622  1.00  0.00     0.023 C 
BRANCH  28  29
ATOM     29  C   UNL     1       1.696  -1.121   0.224  1.00  0.00     0.023 C 
BRANCH  29  30
ATOM     30  C   UNL     1       0.808  -0.808  -1.006  1.00  0.00     0.116 C 
BRANCH  30  31
ATOM     31  N   UNL     1       1.381  -0.165  -2.171  1.00  0.00    -0.352 N 
ATOM     32  C   UNL     1       0.867  -0.048  -3.456  1.00  0.00     0.251 C 
ATOM     33  H   UNL     1       2.263   0.250  -2.031  1.00  0.00     0.163 HD
ATOM     34  O   UNL     1       1.312   0.648  -4.363  1.00  0.00    -0.269 OA
BRANCH  32  35
ATOM     35  C   UNL     1      -0.280  -0.822  -3.832  1.00  0.00     0.039 A 
ATOM     36  C   UNL     1      -0.110  -1.753  -4.863  1.00  0.00     0.014 A 
ATOM     37  C   UNL     1      -1.453  -0.655  -3.116  1.00  0.00     0.014 A 
ATOM     38  C   UNL     1      -1.107  -2.674  -5.072  1.00  0.00     0.010 A 
ATOM     39  C   UNL     1      -2.399  -1.629  -3.256  1.00  0.00     0.010 A 
ATOM     40  C   UNL     1      -2.204  -2.649  -4.208  1.00  0.00    -0.014 A 
BRANCH  40  41
ATOM     41  C   UNL     1      -3.210  -3.701  -4.233  1.00  0.00     0.031 A 
ATOM     42  C   UNL     1      -4.597  -3.298  -4.584  1.00  0.00     0.074 A 
ATOM     43  C   UNL     1      -2.866  -4.899  -3.733  1.00  0.00     0.049 A 
ATOM     44  N   UNL     1      -5.707  -3.944  -4.386  1.00  0.00    -0.248 NA
ATOM     45  C   UNL     1      -4.763  -1.943  -5.146  1.00  0.00     0.031 C 
ATOM     46  C   UNL     1      -1.517  -5.299  -3.309  1.00  0.00     0.029 A 
ATOM     47  N   UNL     1      -3.636  -5.989  -3.463  1.00  0.00    -0.354 N 
ATOM     48  C   UNL     1      -6.706  -3.056  -4.753  1.00  0.00     0.074 A 
ATOM     49  C   UNL     1      -6.078  -1.808  -5.113  1.00  0.00     0.031 C 
ATOM     50  C   UNL     1      -1.557  -6.560  -2.851  1.00  0.00     0.029 A 
ATOM     51  C   UNL     1      -2.934  -7.027  -2.905  1.00  0.00     0.049 A 
ATOM     52  H   UNL     1      -4.602  -6.029  -3.650  1.00  0.00     0.167 HD
ATOM     53  C   UNL     1      -8.034  -3.292  -4.799  1.00  0.00     0.031 A 
ATOM     54  C   UNL     1      -3.383  -8.219  -2.482  1.00  0.00     0.031 A 
ATOM     55  C   UNL     1      -8.594  -4.568  -4.459  1.00  0.00     0.049 A 
ATOM     56  C   UNL     1      -4.855  -8.480  -2.615  1.00  0.00     0.074 A 
ATOM     57  C   UNL     1      -9.906  -4.988  -4.536  1.00  0.00     0.029 A 
ATOM     58  N   UNL     1      -7.847  -5.643  -3.988  1.00  0.00    -0.354 N 
ATOM     59  N   UNL     1      -5.802  -7.667  -3.027  1.00  0.00    -0.248 NA
ATOM     60  C   UNL     1      -5.321  -9.819  -2.248  1.00  0.00     0.031 C 
ATOM     61  C   UNL     1      -9.956  -6.311  -4.082  1.00  0.00     0.029 A 
ATOM     62  C   UNL     1      -8.669  -6.729  -3.769  1.00  0.00     0.049 A 
ATOM     63  H   UNL     1      -6.875  -5.631  -3.835  1.00  0.00     0.167 HD
ATOM     64  C   UNL     1      -6.975  -8.404  -2.998  1.00  0.00     0.074 A 
ATOM     65  C   UNL     1      -6.611  -9.734  -2.541  1.00  0.00     0.031 C 
ATOM     66  C   UNL     1      -8.239  -8.028  -3.314  1.00  0.00     0.031 A 
BRANCH  53  67
ATOM     67  C   UNL     1      -8.916  -2.160  -5.234  1.00  0.00    -0.014 A 
ATOM     68  C   UNL     1      -8.844  -1.639  -6.538  1.00  0.00     0.009 A 
ATOM     69  C   UNL     1      -9.809  -1.579  -4.323  1.00  0.00     0.009 A 
ATOM     70  C   UNL     1      -9.611  -0.533  -6.906  1.00  0.00     0.001 A 
ATOM     71  C   UNL     1     -10.602  -0.494  -4.704  1.00  0.00     0.001 A 
ATOM     72  C   UNL     1     -10.494   0.036  -5.990  1.00  0.00     0.000 A 
ENDBRANCH  53  67
BRANCH  54  73
ATOM     73  C   UNL     1      -2.436  -9.239  -1.969  1.00  0.00    -0.014 A 
ATOM     74  C   UNL     1      -2.134 -10.368  -2.746  1.00  0.00     0.009 A 
ATOM     75  C   UNL     1      -1.796  -9.080  -0.730  1.00  0.00     0.009 A 
ATOM     76  C   UNL     1      -1.238 -11.333  -2.280  1.00  0.00     0.001 A 
ATOM     77  C   UNL     1      -0.879 -10.033  -0.278  1.00  0.00     0.001 A 
ATOM     78  C   UNL     1      -0.609 -11.163  -1.048  1.00  0.00     0.000 A 
ENDBRANCH  54  73
BRANCH  66  79
ATOM     79  C   UNL     1      -9.293  -9.088  -3.206  1.00  0.00    -0.014 A 
ATOM     80  C   UNL     1      -9.756  -9.524  -1.956  1.00  0.00     0.009 A 
ATOM     81  C   UNL     1      -9.859  -9.617  -4.376  1.00  0.00     0.009 A 
ATOM     82  C   UNL     1     -10.748 -10.500  -1.881  1.00  0.00     0.001 A 
ATOM     83  C   UNL     1     -10.873 -10.568  -4.296  1.00  0.00     0.001 A 
ATOM     84  C   UNL     1     -11.309 -11.015  -3.050  1.00  0.00     0.000 A 
ENDBRANCH  66  79
ENDBRANCH  40  41
ENDBRANCH  32  35
ENDBRANCH  30  31
ENDBRANCH  29  30
ENDBRANCH  28  29
ENDBRANCH  27  28
ENDBRANCH   3  27
TORSDOF 19
