REMARK SMILES CC1([C@@H]2C[C@H](C(F)(F)F)n3nc(C(=O)NCCCCNC(=O)c4ccc(-c5c6nc(c(-c7ccccc7)c7ccc([nH]7)c(-c7ccccc7)c7nc(c(-c8ccccc8)c8ccc5[nH]8)C=C7)C=C6)cc4)cc3N2)CC1
REMARK SMILES IDX 18 1 17 2 16 3 15 4 13 5 14 6 12 8 3 9 4 10 73 11 5 12 72 13
REMARK SMILES IDX 10 15 71 16 11 17 2 18 1 19 74 20 75 21 6 22 7 23 8 24 9 25
REMARK SMILES IDX 19 26 20 27 21 28 22 30 23 31 24 32 70 33 25 34 69 35 26 36
REMARK SMILES IDX 27 37 28 38 63 39 29 40 68 41 62 42 64 43 30 44 67 45 61 46
REMARK SMILES IDX 60 47 31 49 53 50 38 51 52 52 39 53 42 54 51 55 65 56 40 57
REMARK SMILES IDX 41 58 50 60 66 61 43 62 32 63 33 64 37 65 34 66 36 67 35 68
REMARK SMILES IDX 54 69 55 70 59 71 56 72 58 73 57 74 44 75 45 76 49 77 46 78
REMARK SMILES IDX 48 79 47 80
REMARK H PARENT 15 7 73 14 20 29 64 48 42 59
REMARK Flexibility Score: inf
ROOT
ATOM      1  C   UNL     1      -0.926   0.518  10.197  1.00  0.00     0.023 C 
ENDROOT
BRANCH   1   2
ATOM      2  C   UNL     1      -0.488   0.785   8.752  1.00  0.00     0.023 C 
BRANCH   2   3
ATOM      3  C   UNL     1       0.996   1.121   8.597  1.00  0.00     0.116 C 
BRANCH   3   4
ATOM      4  N   UNL     1       1.818  -0.062   8.732  1.00  0.00    -0.351 N 
ATOM      5  C   UNL     1       2.412  -0.870   7.787  1.00  0.00     0.271 C 
ATOM      6  O   UNL     1       3.136  -1.768   8.226  1.00  0.00    -0.267 OA
ATOM      7  H   UNL     1       1.982  -0.338   9.662  1.00  0.00     0.163 HD
BRANCH   5   8
ATOM      8  C   UNL     1       2.204  -0.653   6.339  1.00  0.00     0.152 A 
ATOM      9  C   UNL     1       1.446   0.384   1.891  1.00  0.00     0.089 C 
ATOM     10  C   UNL     1       2.881  -0.182   1.893  1.00  0.00     0.062 C 
ATOM     11  N   UNL     1       0.912   0.526   3.236  1.00  0.00    -0.367 N 
ATOM     12  C   UNL     1       3.236  -1.179   3.012  1.00  0.00     0.216 C 
ATOM     13  C   UNL     1       1.479  -0.025   4.323  1.00  0.00     0.126 A 
ATOM     14  H   UNL     1       0.091   1.055   3.358  1.00  0.00     0.162 HD
ATOM     15  N   UNL     1       2.597  -0.796   4.250  1.00  0.00    -0.237 N 
ATOM     16  C   UNL     1       1.144   0.008   5.649  1.00  0.00     0.082 A 
ATOM     17  N   UNL     1       3.099  -1.133   5.445  1.00  0.00    -0.165 NA
BRANCH   9  18
ATOM     18  C   UNL     1       0.461  -0.318   0.945  1.00  0.00    -0.012 C 
ATOM     19  C   UNL     1       0.794  -0.154  -0.525  1.00  0.00     0.013 C 
ATOM     20  C   UNL     1      -1.038  -0.259   1.228  1.00  0.00     0.009 C 
ATOM     21  C   UNL     1      -0.303  -1.553   1.387  1.00  0.00     0.009 C 
ENDBRANCH   9  18
BRANCH  12  22
ATOM     22  C   UNL     1       2.926  -2.624   2.692  1.00  0.00     0.410 C 
ATOM     23  F   UNL     1       3.261  -2.907   1.406  1.00  0.00    -0.169 F 
ATOM     24  F   UNL     1       3.649  -3.474   3.460  1.00  0.00    -0.169 F 
ATOM     25  F   UNL     1       1.632  -2.961   2.840  1.00  0.00    -0.169 F 
ENDBRANCH  12  22
ENDBRANCH   5   8
ENDBRANCH   3   4
ENDBRANCH   2   3
ENDBRANCH   1   2
BRANCH   1  26
ATOM     26  C   UNL     1      -0.699   1.672  11.168  1.00  0.00     0.116 C 
BRANCH  26  27
ATOM     27  N   UNL     1      -1.341   2.910  10.756  1.00  0.00    -0.352 N 
ATOM     28  C   UNL     1      -1.865   3.907  11.543  1.00  0.00     0.251 C 
ATOM     29  H   UNL     1      -1.410   3.053   9.785  1.00  0.00     0.163 HD
ATOM     30  O   UNL     1      -2.471   4.845  11.034  1.00  0.00    -0.269 OA
BRANCH  28  31
ATOM     31  C   UNL     1      -1.730   3.821  13.012  1.00  0.00     0.039 A 
ATOM     32  C   UNL     1      -2.863   4.028  13.803  1.00  0.00     0.014 A 
ATOM     33  C   UNL     1      -0.502   3.517  13.604  1.00  0.00     0.014 A 
ATOM     34  C   UNL     1      -2.777   3.866  15.186  1.00  0.00     0.010 A 
ATOM     35  C   UNL     1      -0.434   3.287  14.975  1.00  0.00     0.010 A 
ATOM     36  C   UNL     1      -1.570   3.461  15.780  1.00  0.00    -0.014 A 
BRANCH  36  37
ATOM     37  C   UNL     1      -1.483   3.212  17.240  1.00  0.00     0.031 A 
ATOM     38  C   UNL     1      -0.602   4.070  18.105  1.00  0.00     0.074 A 
ATOM     39  C   UNL     1      -2.155   2.176  17.779  1.00  0.00     0.049 A 
ATOM     40  N   UNL     1      -0.379   3.989  19.392  1.00  0.00    -0.248 NA
ATOM     41  C   UNL     1       0.144   5.146  17.432  1.00  0.00     0.031 C 
ATOM     42  C   UNL     1      -3.005   1.239  17.041  1.00  0.00     0.029 A 
ATOM     43  N   UNL     1      -2.227   1.738  19.077  1.00  0.00    -0.354 N 
ATOM     44  C   UNL     1       0.541   4.989  19.679  1.00  0.00     0.074 A 
ATOM     45  C   UNL     1       0.875   5.629  18.425  1.00  0.00     0.031 C 
ATOM     46  C   UNL     1      -3.539   0.358  17.902  1.00  0.00     0.029 A 
ATOM     47  C   UNL     1      -3.042   0.644  19.244  1.00  0.00     0.049 A 
ATOM     48  H   UNL     1      -1.741   2.166  19.819  1.00  0.00     0.167 HD
ATOM     49  C   UNL     1       1.048   5.357  20.880  1.00  0.00     0.031 A 
ATOM     50  C   UNL     1      -3.356  -0.049  20.355  1.00  0.00     0.031 A 
ATOM     51  C   UNL     1       0.709   4.728  22.128  1.00  0.00     0.049 A 
ATOM     52  C   UNL     1      -2.778   0.378  21.675  1.00  0.00     0.074 A 
ATOM     53  C   UNL     1       1.125   5.064  23.404  1.00  0.00     0.029 A 
ATOM     54  N   UNL     1      -0.127   3.630  22.255  1.00  0.00    -0.354 N 
ATOM     55  N   UNL     1      -1.967   1.373  21.939  1.00  0.00    -0.248 NA
ATOM     56  C   UNL     1      -3.174  -0.408  22.853  1.00  0.00     0.031 C 
ATOM     57  C   UNL     1       0.578   4.139  24.300  1.00  0.00     0.029 A 
ATOM     58  C   UNL     1      -0.224   3.262  23.587  1.00  0.00     0.049 A 
ATOM     59  H   UNL     1      -0.585   3.178  21.510  1.00  0.00     0.167 HD
ATOM     60  C   UNL     1      -1.779   1.352  23.315  1.00  0.00     0.074 A 
ATOM     61  C   UNL     1      -2.573   0.256  23.831  1.00  0.00     0.031 C 
ATOM     62  C   UNL     1      -1.018   2.169  24.084  1.00  0.00     0.031 A 
BRANCH  49  63
ATOM     63  C   UNL     1       2.028   6.497  20.895  1.00  0.00    -0.014 A 
ATOM     64  C   UNL     1       1.618   7.813  20.626  1.00  0.00     0.009 A 
ATOM     65  C   UNL     1       3.375   6.258  21.210  1.00  0.00     0.009 A 
ATOM     66  C   UNL     1       2.543   8.859  20.634  1.00  0.00     0.001 A 
ATOM     67  C   UNL     1       4.292   7.310  21.247  1.00  0.00     0.001 A 
ATOM     68  C   UNL     1       3.878   8.607  20.949  1.00  0.00     0.000 A 
ENDBRANCH  49  63
BRANCH  50  69
ATOM     69  C   UNL     1      -4.286  -1.206  20.273  1.00  0.00    -0.014 A 
ATOM     70  C   UNL     1      -5.579  -1.117  20.811  1.00  0.00     0.009 A 
ATOM     71  C   UNL     1      -3.884  -2.405  19.665  1.00  0.00     0.009 A 
ATOM     72  C   UNL     1      -6.441  -2.215  20.767  1.00  0.00     0.001 A 
ATOM     73  C   UNL     1      -4.759  -3.492  19.597  1.00  0.00     0.001 A 
ATOM     74  C   UNL     1      -6.032  -3.400  20.157  1.00  0.00     0.000 A 
ENDBRANCH  50  69
BRANCH  62  75
ATOM     75  C   UNL     1      -1.038   1.930  25.567  1.00  0.00    -0.014 A 
ATOM     76  C   UNL     1      -0.404   0.816  26.137  1.00  0.00     0.009 A 
ATOM     77  C   UNL     1      -1.676   2.855  26.409  1.00  0.00     0.009 A 
ATOM     78  C   UNL     1      -0.439   0.615  27.518  1.00  0.00     0.001 A 
ATOM     79  C   UNL     1      -1.683   2.667  27.791  1.00  0.00     0.001 A 
ATOM     80  C   UNL     1      -1.074   1.542  28.344  1.00  0.00     0.000 A 
ENDBRANCH  62  75
ENDBRANCH  36  37
ENDBRANCH  28  31
ENDBRANCH  26  27
ENDBRANCH   1  26
TORSDOF 13
