REMARK SMILES CC(C)[NH2+][C@@H](CSc1cccc(F)c1)C(=O)NCCCCNC(=O)c1ccc(-c2c3nc(c(-c4ccccc4)c4ccc([nH]4)c(-c4ccccc4)c4nc(c(-c5ccccc5)c5ccc2[nH]5)C=C4)C=C3)cc1
REMARK SMILES IDX 19 1 18 2 17 3 15 4 16 5 5 7 4 8 2 11 1 12 3 13 6 14 7 15
REMARK SMILES IDX 8 16 9 17 14 18 10 19 12 20 11 21 13 22 20 23 21 24 22 25
REMARK SMILES IDX 23 26 24 28 25 29 26 30 72 31 27 32 71 33 28 34 29 35 30 36
REMARK SMILES IDX 65 37 31 38 70 39 64 40 66 41 32 42 69 43 63 44 62 45 33 47
REMARK SMILES IDX 55 48 40 49 54 50 41 51 44 52 53 53 67 54 42 55 43 56 52 58
REMARK SMILES IDX 68 59 45 60 34 61 35 62 39 63 36 64 38 65 37 66 56 67 57 68
REMARK SMILES IDX 61 69 58 70 60 71 59 72 46 73 47 74 51 75 48 76 50 77 49 78
REMARK H PARENT 17 6 4 9 4 10 22 27 66 46 44 57
REMARK Flexibility Score: inf
ROOT
ATOM      1  C   UNL     1      -3.849  -1.860  -0.045  1.00  0.00     0.023 C 
ENDROOT
BRANCH   1   2
ATOM      2  C   UNL     1      -3.359  -1.860  -1.485  1.00  0.00     0.116 C 
BRANCH   2   3
ATOM      3  N   UNL     1      -3.590  -0.635  -2.201  1.00  0.00    -0.351 N 
ATOM      4  C   UNL     1      -2.685   0.074  -2.940  1.00  0.00     0.279 C 
ATOM      5  O   UNL     1      -3.099   1.088  -3.514  1.00  0.00    -0.268 OA
ATOM      6  H   UNL     1      -4.502  -0.266  -2.155  1.00  0.00     0.163 HD
BRANCH   4   7
ATOM      7  C   UNL     1      -1.162  -0.299  -3.001  1.00  0.00     0.283 C 
BRANCH   7   8
ATOM      8  N   UNL     1      -0.510   0.202  -1.780  1.00  0.00    -0.333 N 
ATOM      9  H   UNL     1      -1.048   1.003  -1.449  1.00  0.00     0.347 HD
ATOM     10  H   UNL     1      -0.492  -0.593  -1.140  1.00  0.00     0.347 HD
BRANCH   8  11
ATOM     11  C   UNL     1       0.893   0.628  -1.906  1.00  0.00     0.176 C 
ATOM     12  C   UNL     1       1.371   1.006  -0.497  1.00  0.00     0.075 C 
ATOM     13  C   UNL     1       1.855  -0.406  -2.489  1.00  0.00     0.075 C 
ENDBRANCH   8  11
ENDBRANCH   7   8
BRANCH   7  14
ATOM     14  C   UNL     1      -0.919  -1.741  -3.528  1.00  0.00     0.150 C 
BRANCH  14  15
ATOM     15  S   UNL     1      -0.261  -3.337  -2.787  1.00  0.00    -0.119 SA
BRANCH  15  16
ATOM     16  C   UNL     1      -0.252  -3.472  -1.006  1.00  0.00     0.010 A 
ATOM     17  C   UNL     1      -0.258  -2.445  -0.067  1.00  0.00     0.015 A 
ATOM     18  C   UNL     1      -0.128  -4.776  -0.502  1.00  0.00     0.054 A 
ATOM     19  C   UNL     1      -0.154  -2.677   1.312  1.00  0.00     0.004 A 
ATOM     20  C   UNL     1      -0.011  -5.013   0.869  1.00  0.00     0.124 A 
ATOM     21  C   UNL     1      -0.023  -3.972   1.783  1.00  0.00     0.039 A 
ATOM     22  F   UNL     1       0.134  -6.269   1.311  1.00  0.00    -0.207 F 
ENDBRANCH  15  16
ENDBRANCH  14  15
ENDBRANCH   7  14
ENDBRANCH   4   7
ENDBRANCH   2   3
ENDBRANCH   1   2
BRANCH   1  23
ATOM     23  C   UNL     1      -5.301  -2.275   0.139  1.00  0.00     0.023 C 
BRANCH  23  24
ATOM     24  C   UNL     1      -5.684  -3.618  -0.474  1.00  0.00     0.116 C 
BRANCH  24  25
ATOM     25  N   UNL     1      -4.875  -4.745  -0.023  1.00  0.00    -0.352 N 
ATOM     26  C   UNL     1      -5.293  -6.005   0.346  1.00  0.00     0.251 C 
ATOM     27  H   UNL     1      -3.905  -4.584   0.023  1.00  0.00     0.163 HD
ATOM     28  O   UNL     1      -4.495  -6.840   0.760  1.00  0.00    -0.269 OA
BRANCH  26  29
ATOM     29  C   UNL     1      -6.734  -6.324   0.291  1.00  0.00     0.039 A 
ATOM     30  C   UNL     1      -7.361  -6.823   1.435  1.00  0.00     0.014 A 
ATOM     31  C   UNL     1      -7.478  -6.032  -0.855  1.00  0.00     0.014 A 
ATOM     32  C   UNL     1      -8.753  -6.928   1.464  1.00  0.00     0.010 A 
ATOM     33  C   UNL     1      -8.866  -6.051  -0.791  1.00  0.00     0.010 A 
ATOM     34  C   UNL     1      -9.519  -6.487   0.373  1.00  0.00    -0.014 A 
BRANCH  34  35
ATOM     35  C   UNL     1     -11.003  -6.452   0.429  1.00  0.00     0.031 A 
ATOM     36  C   UNL     1     -11.813  -7.269  -0.538  1.00  0.00     0.074 A 
ATOM     37  C   UNL     1     -11.622  -5.619   1.290  1.00  0.00     0.049 A 
ATOM     38  N   UNL     1     -13.111  -7.306  -0.703  1.00  0.00    -0.248 NA
ATOM     39  C   UNL     1     -11.065  -8.134  -1.465  1.00  0.00     0.031 C 
ATOM     40  C   UNL     1     -10.956  -4.732   2.247  1.00  0.00     0.029 A 
ATOM     41  N   UNL     1     -12.959  -5.377   1.493  1.00  0.00    -0.354 N 
ATOM     42  C   UNL     1     -13.330  -8.173  -1.766  1.00  0.00     0.074 A 
ATOM     43  C   UNL     1     -12.032  -8.601  -2.239  1.00  0.00     0.031 C 
ATOM     44  C   UNL     1     -11.885  -4.071   2.957  1.00  0.00     0.029 A 
ATOM     45  C   UNL     1     -13.209  -4.453   2.479  1.00  0.00     0.049 A 
ATOM     46  H   UNL     1     -13.670  -5.824   0.980  1.00  0.00     0.167 HD
ATOM     47  C   UNL     1     -14.506  -8.594  -2.289  1.00  0.00     0.031 A 
ATOM     48  C   UNL     1     -14.375  -3.966   2.944  1.00  0.00     0.031 A 
ATOM     49  C   UNL     1     -15.798  -8.193  -1.803  1.00  0.00     0.049 A 
ATOM     50  C   UNL     1     -15.667  -4.454   2.350  1.00  0.00     0.074 A 
ATOM     51  C   UNL     1     -17.046  -8.622  -2.220  1.00  0.00     0.029 A 
ATOM     52  N   UNL     1     -16.007  -7.271  -0.790  1.00  0.00    -0.354 N 
ATOM     53  N   UNL     1     -15.857  -5.330   1.395  1.00  0.00    -0.248 NA
ATOM     54  C   UNL     1     -16.905  -3.890   2.908  1.00  0.00     0.031 C 
ATOM     55  C   UNL     1     -18.013  -7.925  -1.488  1.00  0.00     0.029 A 
ATOM     56  C   UNL     1     -17.365  -7.100  -0.583  1.00  0.00     0.049 A 
ATOM     57  H   UNL     1     -15.296  -6.806  -0.293  1.00  0.00     0.167 HD
ATOM     58  C   UNL     1     -17.234  -5.446   1.257  1.00  0.00     0.074 A 
ATOM     59  C   UNL     1     -17.831  -4.560   2.235  1.00  0.00     0.031 C 
ATOM     60  C   UNL     1     -17.942  -6.218   0.397  1.00  0.00     0.031 A 
BRANCH  47  61
ATOM     61  C   UNL     1     -14.442  -9.541  -3.454  1.00  0.00    -0.014 A 
ATOM     62  C   UNL     1     -14.013 -10.868  -3.291  1.00  0.00     0.009 A 
ATOM     63  C   UNL     1     -14.842  -9.108  -4.728  1.00  0.00     0.009 A 
ATOM     64  C   UNL     1     -13.950 -11.731  -4.386  1.00  0.00     0.001 A 
ATOM     65  C   UNL     1     -14.806  -9.982  -5.816  1.00  0.00     0.001 A 
ATOM     66  C   UNL     1     -14.350 -11.289  -5.646  1.00  0.00     0.000 A 
ENDBRANCH  47  61
BRANCH  48  67
ATOM     67  C   UNL     1     -14.383  -2.974   4.052  1.00  0.00    -0.014 A 
ATOM     68  C   UNL     1     -14.825  -3.347   5.331  1.00  0.00     0.009 A 
ATOM     69  C   UNL     1     -13.966  -1.652   3.836  1.00  0.00     0.009 A 
ATOM     70  C   UNL     1     -14.876  -2.408   6.364  1.00  0.00     0.001 A 
ATOM     71  C   UNL     1     -13.992  -0.723   4.879  1.00  0.00     0.001 A 
ATOM     72  C   UNL     1     -14.456  -1.098   6.138  1.00  0.00     0.000 A 
ENDBRANCH  48  67
BRANCH  60  73
ATOM     73  C   UNL     1     -19.439  -6.169   0.502  1.00  0.00    -0.014 A 
ATOM     74  C   UNL     1     -20.165  -5.057   0.049  1.00  0.00     0.009 A 
ATOM     75  C   UNL     1     -20.134  -7.272   1.023  1.00  0.00     0.009 A 
ATOM     76  C   UNL     1     -21.558  -5.039   0.144  1.00  0.00     0.001 A 
ATOM     77  C   UNL     1     -21.527  -7.262   1.091  1.00  0.00     0.001 A 
ATOM     78  C   UNL     1     -22.238  -6.143   0.660  1.00  0.00     0.000 A 
ENDBRANCH  60  73
ENDBRANCH  34  35
ENDBRANCH  26  29
ENDBRANCH  24  25
ENDBRANCH  23  24
ENDBRANCH   1  23
TORSDOF 16
