REMARK SMILES CC[C@@](C)([NH2+]CC(=O)N[C@@H](C)c1ccc(F)cc1)C(=O)NCCCCNC(=O)c1ccc(-c2c3nc(c(-c4ccccc4)c4ccc([nH]4)c(-c4ccccc4)c4nc(c(-c5ccccc5)c5ccc2[nH]5)C=C4)C=C3)cc1
REMARK SMILES IDX 22 1 21 2 19 3 20 4 3 6 4 7 2 8 1 9 5 10 6 13 7 14 8 15 9 16
REMARK SMILES IDX 10 18 11 19 12 20 13 21 18 22 14 23 17 24 15 25 16 26 23 27
REMARK SMILES IDX 24 28 25 29 26 30 27 31 28 33 29 34 30 35 76 36 31 37 75 38
REMARK SMILES IDX 32 39 33 40 34 41 69 42 35 43 74 44 68 45 70 46 36 47 73 48
REMARK SMILES IDX 67 49 66 50 37 52 59 53 44 54 58 55 45 56 48 57 57 58 71 59
REMARK SMILES IDX 46 60 47 61 56 63 72 64 49 65 38 66 39 67 43 68 40 69 42 70
REMARK SMILES IDX 41 71 60 72 61 73 65 74 62 75 64 76 63 77 50 78 51 79 55 80
REMARK SMILES IDX 52 81 54 82 53 83
REMARK H PARENT 21 5 5 11 5 12 9 17 26 32 70 51 48 62
REMARK Flexibility Score: inf
ROOT
ATOM      1  C   UNL     1       3.410   0.472   4.570  1.00  0.00     0.116 C 
ENDROOT
BRANCH   1   2
ATOM      2  N   UNL     1       2.713  -0.562   3.801  1.00  0.00    -0.351 N 
ATOM      3  C   UNL     1       2.117  -0.275   2.582  1.00  0.00     0.281 C 
ATOM      4  O   UNL     1       2.840  -0.052   1.609  1.00  0.00    -0.268 OA
ATOM      5  H   UNL     1       2.667  -1.479   4.157  1.00  0.00     0.163 HD
BRANCH   3   6
ATOM      6  C   UNL     1       0.540  -0.430   2.448  1.00  0.00     0.172 C 
ATOM      7  C   UNL     1      -0.276   0.582   1.623  1.00  0.00     0.090 C 
BRANCH   6   8
ATOM      8  C   UNL     1       0.374  -1.788   1.678  1.00  0.00     0.075 C 
ATOM      9  C   UNL     1       0.590  -1.660   0.152  1.00  0.00     0.011 C 
ENDBRANCH   6   8
BRANCH   6  10
ATOM     10  N   UNL     1      -0.108  -0.446   3.770  1.00  0.00    -0.326 N 
ATOM     11  H   UNL     1       0.186  -1.306   4.232  1.00  0.00     0.347 HD
ATOM     12  H   UNL     1      -1.099  -0.351   3.547  1.00  0.00     0.347 HD
BRANCH  10  13
ATOM     13  C   UNL     1       0.136   0.660   4.725  1.00  0.00     0.362 C 
BRANCH  13  14
ATOM     14  C   UNL     1      -0.048   2.173   4.429  1.00  0.00     0.275 C 
ATOM     15  O   UNL     1      -0.945   2.764   5.056  1.00  0.00    -0.268 OA
ATOM     16  N   UNL     1       0.749   3.023   3.714  1.00  0.00    -0.345 N 
ATOM     17  H   UNL     1       0.743   3.929   4.098  1.00  0.00     0.164 HD
BRANCH  16  18
ATOM     18  C   UNL     1       1.613   2.948   2.525  1.00  0.00     0.109 C 
ATOM     19  C   UNL     1       0.937   3.604   1.307  1.00  0.00     0.036 C 
BRANCH  18  20
ATOM     20  C   UNL     1       2.990   3.582   2.683  1.00  0.00    -0.026 A 
ATOM     21  C   UNL     1       3.144   4.903   3.123  1.00  0.00     0.009 A 
ATOM     22  C   UNL     1       4.137   2.893   2.234  1.00  0.00     0.009 A 
ATOM     23  C   UNL     1       4.403   5.511   3.115  1.00  0.00     0.039 A 
ATOM     24  C   UNL     1       5.398   3.489   2.253  1.00  0.00     0.039 A 
ATOM     25  C   UNL     1       5.517   4.798   2.687  1.00  0.00     0.123 A 
ATOM     26  F   UNL     1       6.719   5.389   2.675  1.00  0.00    -0.207 F 
ENDBRANCH  18  20
ENDBRANCH  16  18
ENDBRANCH  13  14
ENDBRANCH  10  13
ENDBRANCH   6  10
ENDBRANCH   3   6
ENDBRANCH   1   2
BRANCH   1  27
ATOM     27  C   UNL     1       3.480   0.161   6.073  1.00  0.00     0.023 C 
BRANCH  27  28
ATOM     28  C   UNL     1       4.803   0.570   6.714  1.00  0.00     0.023 C 
BRANCH  28  29
ATOM     29  C   UNL     1       5.137   2.055   6.621  1.00  0.00     0.116 C 
BRANCH  29  30
ATOM     30  N   UNL     1       4.379   2.891   7.542  1.00  0.00    -0.352 N 
ATOM     31  C   UNL     1       4.853   3.821   8.443  1.00  0.00     0.251 C 
ATOM     32  H   UNL     1       3.401   2.778   7.519  1.00  0.00     0.163 HD
ATOM     33  O   UNL     1       4.091   4.403   9.211  1.00  0.00    -0.269 OA
BRANCH  31  34
ATOM     34  C   UNL     1       6.307   4.078   8.515  1.00  0.00     0.039 A 
ATOM     35  C   UNL     1       6.959   3.953   9.744  1.00  0.00     0.014 A 
ATOM     36  C   UNL     1       7.034   4.354   7.354  1.00  0.00     0.014 A 
ATOM     37  C   UNL     1       8.354   4.004   9.793  1.00  0.00     0.010 A 
ATOM     38  C   UNL     1       8.425   4.320   7.392  1.00  0.00     0.010 A 
ATOM     39  C   UNL     1       9.101   4.134   8.610  1.00  0.00    -0.014 A 
BRANCH  39  40
ATOM     40  C   UNL     1      10.585   4.066   8.621  1.00  0.00     0.031 A 
ATOM     41  C   UNL     1      11.398   5.250   8.175  1.00  0.00     0.074 A 
ATOM     42  C   UNL     1      11.205   2.917   8.961  1.00  0.00     0.049 A 
ATOM     43  N   UNL     1      12.697   5.363   8.055  1.00  0.00    -0.248 NA
ATOM     44  C   UNL     1      10.652   6.457   7.784  1.00  0.00     0.031 C 
ATOM     45  C   UNL     1      10.537   1.678   9.366  1.00  0.00     0.029 A 
ATOM     46  N   UNL     1      12.541   2.604   9.014  1.00  0.00    -0.354 N 
ATOM     47  C   UNL     1      12.918   6.639   7.553  1.00  0.00     0.074 A 
ATOM     48  C   UNL     1      11.621   7.244   7.344  1.00  0.00     0.031 C 
ATOM     49  C   UNL     1      11.466   0.752   9.659  1.00  0.00     0.029 A 
ATOM     50  C   UNL     1      12.791   1.317   9.425  1.00  0.00     0.049 A 
ATOM     51  H   UNL     1      13.253   3.243   8.780  1.00  0.00     0.167 HD
ATOM     52  C   UNL     1      14.095   7.263   7.307  1.00  0.00     0.031 A 
ATOM     53  C   UNL     1      13.957   0.663   9.594  1.00  0.00     0.031 A 
ATOM     54  C   UNL     1      15.386   6.675   7.535  1.00  0.00     0.049 A 
ATOM     55  C   UNL     1      15.250   1.379   9.318  1.00  0.00     0.074 A 
ATOM     56  C   UNL     1      16.635   7.252   7.382  1.00  0.00     0.029 A 
ATOM     57  N   UNL     1      15.595   5.375   7.965  1.00  0.00    -0.354 N 
ATOM     58  N   UNL     1      15.442   2.611   8.915  1.00  0.00    -0.248 NA
ATOM     59  C   UNL     1      16.488   0.614   9.529  1.00  0.00     0.031 C 
ATOM     60  C   UNL     1      17.601   6.285   7.677  1.00  0.00     0.029 A 
ATOM     61  C   UNL     1      16.953   5.123   8.063  1.00  0.00     0.049 A 
ATOM     62  H   UNL     1      14.883   4.726   8.171  1.00  0.00     0.167 HD
ATOM     63  C   UNL     1      16.820   2.779   8.854  1.00  0.00     0.074 A 
ATOM     64  C   UNL     1      17.414   1.527   9.274  1.00  0.00     0.031 C 
ATOM     65  C   UNL     1      17.528   3.873   8.485  1.00  0.00     0.031 A 
BRANCH  52  66
ATOM     66  C   UNL     1      14.032   8.661   6.758  1.00  0.00    -0.014 A 
ATOM     67  C   UNL     1      13.598   9.735   7.552  1.00  0.00     0.009 A 
ATOM     68  C   UNL     1      14.434   8.912   5.437  1.00  0.00     0.009 A 
ATOM     69  C   UNL     1      13.530  11.025   7.021  1.00  0.00     0.001 A 
ATOM     70  C   UNL     1      14.394  10.207   4.918  1.00  0.00     0.001 A 
ATOM     71  C   UNL     1      13.932  11.260   5.707  1.00  0.00     0.000 A 
ENDBRANCH  52  66
BRANCH  53  72
ATOM     72  C   UNL     1      13.963  -0.744  10.075  1.00  0.00    -0.014 A 
ATOM     73  C   UNL     1      14.408  -1.047  11.372  1.00  0.00     0.009 A 
ATOM     74  C   UNL     1      13.543  -1.790   9.241  1.00  0.00     0.009 A 
ATOM     75  C   UNL     1      14.458  -2.372  11.812  1.00  0.00     0.001 A 
ATOM     76  C   UNL     1      13.569  -3.112   9.694  1.00  0.00     0.001 A 
ATOM     77  C   UNL     1      14.035  -3.402  10.975  1.00  0.00     0.000 A 
ENDBRANCH  53  72
BRANCH  65  78
ATOM     78  C   UNL     1      19.026   3.778   8.553  1.00  0.00    -0.014 A 
ATOM     79  C   UNL     1      19.753   3.029   7.616  1.00  0.00     0.009 A 
ATOM     80  C   UNL     1      19.721   4.487   9.546  1.00  0.00     0.009 A 
ATOM     81  C   UNL     1      21.145   2.967   7.691  1.00  0.00     0.001 A 
ATOM     82  C   UNL     1      21.114   4.446   9.601  1.00  0.00     0.001 A 
ATOM     83  C   UNL     1      21.825   3.679   8.679  1.00  0.00     0.000 A 
ENDBRANCH  65  78
ENDBRANCH  39  40
ENDBRANCH  31  34
ENDBRANCH  29  30
ENDBRANCH  28  29
ENDBRANCH  27  28
ENDBRANCH   1  27
TORSDOF 17
