REMARK SMILES O=C(NCCCCNC(=O)[C@H](C[NH+]1CCCC1)c1ccc(Br)cc1)c1ccc(-c2c3nc(c(-c4ccccc4)c4ccc([nH]4)c(-c4ccccc4)c4nc(c(-c5ccccc5)c5ccc2[nH]5)C=C4)C=C3)cc1
REMARK SMILES IDX 5 1 4 2 3 3 1 4 2 5 25 7 26 8 72 9 27 10 71 11 28 12 29 13
REMARK SMILES IDX 30 14 65 15 31 16 70 17 64 18 66 19 32 20 69 21 63 22 62 23
REMARK SMILES IDX 33 25 55 26 40 27 54 28 41 29 44 30 53 31 67 32 42 33 43 34
REMARK SMILES IDX 52 36 68 37 45 38 34 39 35 40 39 41 36 42 38 43 37 44 56 45
REMARK SMILES IDX 57 46 61 47 58 48 60 49 59 50 46 51 47 52 51 53 48 54 50 55
REMARK SMILES IDX 49 56 6 57 7 58 8 59 9 60 10 62 11 63 18 64 19 65 24 66
REMARK SMILES IDX 20 67 23 68 21 69 22 70 12 71 13 72 14 73 17 74 15 76 16 77
REMARK H PARENT 3 6 66 24 44 35 8 61 13 75
REMARK Flexibility Score: inf
ROOT
ATOM      1  C   UNL     1       4.120  -4.673  10.005  1.00  0.00     0.023 C 
ENDROOT
BRANCH   1   2
ATOM      2  C   UNL     1       2.682  -5.056   9.685  1.00  0.00     0.116 C 
BRANCH   2   3
ATOM      3  N   UNL     1       2.451  -6.486   9.820  1.00  0.00    -0.352 N 
ATOM      4  O   UNL     1       1.707  -8.372  10.812  1.00  0.00    -0.269 OA
ATOM      5  C   UNL     1       1.633  -7.152  10.696  1.00  0.00     0.251 C 
ATOM      6  H   UNL     1       2.953  -7.056   9.194  1.00  0.00     0.163 HD
BRANCH   5   7
ATOM      7  C   UNL     1       0.673  -6.389  11.518  1.00  0.00     0.039 A 
ATOM      8  C   UNL     1      -0.128  -5.400  10.938  1.00  0.00     0.014 A 
ATOM      9  C   UNL     1       0.575  -6.671  12.881  1.00  0.00     0.014 A 
ATOM     10  C   UNL     1      -0.932  -4.603  11.744  1.00  0.00     0.010 A 
ATOM     11  C   UNL     1      -0.296  -5.925  13.675  1.00  0.00     0.010 A 
ATOM     12  C   UNL     1      -1.037  -4.870  13.117  1.00  0.00    -0.014 A 
BRANCH  12  13
ATOM     13  C   UNL     1      -1.973  -4.088  13.958  1.00  0.00     0.031 A 
ATOM     14  C   UNL     1      -1.467  -3.236  15.083  1.00  0.00     0.074 A 
ATOM     15  C   UNL     1      -3.295  -4.192  13.726  1.00  0.00     0.049 A 
ATOM     16  N   UNL     1      -2.147  -2.569  15.981  1.00  0.00    -0.248 NA
ATOM     17  C   UNL     1      -0.008  -3.127  15.227  1.00  0.00     0.031 C 
ATOM     18  C   UNL     1      -3.903  -4.988  12.658  1.00  0.00     0.029 A 
ATOM     19  N   UNL     1      -4.364  -3.642  14.384  1.00  0.00    -0.354 N 
ATOM     20  C   UNL     1      -1.202  -1.986  16.815  1.00  0.00     0.074 A 
ATOM     21  C   UNL     1       0.099  -2.396  16.328  1.00  0.00     0.031 C 
ATOM     22  C   UNL     1      -5.236  -4.870  12.729  1.00  0.00     0.029 A 
ATOM     23  C   UNL     1      -5.576  -4.051  13.887  1.00  0.00     0.049 A 
ATOM     24  H   UNL     1      -4.271  -3.015  15.137  1.00  0.00     0.167 HD
ATOM     25  C   UNL     1      -1.403  -1.185  17.890  1.00  0.00     0.031 A 
ATOM     26  C   UNL     1      -6.825  -3.833  14.335  1.00  0.00     0.031 A 
ATOM     27  C   UNL     1      -2.703  -0.799  18.375  1.00  0.00     0.049 A 
ATOM     28  C   UNL     1      -7.026  -2.992  15.560  1.00  0.00     0.074 A 
ATOM     29  C   UNL     1      -3.015   0.040  19.430  1.00  0.00     0.029 A 
ATOM     30  N   UNL     1      -3.907  -1.242  17.847  1.00  0.00    -0.354 N 
ATOM     31  N   UNL     1      -6.126  -2.410  16.314  1.00  0.00    -0.248 NA
ATOM     32  C   UNL     1      -8.412  -2.772  15.993  1.00  0.00     0.031 C 
ATOM     33  C   UNL     1      -4.405   0.047  19.585  1.00  0.00     0.029 A 
ATOM     34  C   UNL     1      -4.963  -0.724  18.578  1.00  0.00     0.049 A 
ATOM     35  H   UNL     1      -3.998  -1.837  17.067  1.00  0.00     0.167 HD
ATOM     36  C   UNL     1      -6.834  -1.731  17.295  1.00  0.00     0.074 A 
ATOM     37  C   UNL     1      -8.240  -1.971  17.037  1.00  0.00     0.031 C 
ATOM     38  C   UNL     1      -6.359  -0.971  18.311  1.00  0.00     0.031 A 
BRANCH  25  39
ATOM     39  C   UNL     1      -0.185  -0.722  18.645  1.00  0.00    -0.014 A 
ATOM     40  C   UNL     1       0.737   0.175  18.082  1.00  0.00     0.009 A 
ATOM     41  C   UNL     1       0.037  -1.188  19.950  1.00  0.00     0.009 A 
ATOM     42  C   UNL     1       1.883   0.550  18.789  1.00  0.00     0.001 A 
ATOM     43  C   UNL     1       1.164  -0.785  20.669  1.00  0.00     0.001 A 
ATOM     44  C   UNL     1       2.094   0.071  20.082  1.00  0.00     0.000 A 
ENDBRANCH  25  39
BRANCH  26  45
ATOM     45  C   UNL     1      -7.967  -4.458  13.620  1.00  0.00    -0.014 A 
ATOM     46  C   UNL     1      -8.836  -3.681  12.842  1.00  0.00     0.009 A 
ATOM     47  C   UNL     1      -8.150  -5.850  13.660  1.00  0.00     0.009 A 
ATOM     48  C   UNL     1      -9.872  -4.286  12.125  1.00  0.00     0.001 A 
ATOM     49  C   UNL     1      -9.166  -6.455  12.919  1.00  0.00     0.001 A 
ATOM     50  C   UNL     1     -10.030  -5.671  12.156  1.00  0.00     0.000 A 
ENDBRANCH  26  45
BRANCH  38  51
ATOM     51  C   UNL     1      -7.364  -0.296  19.203  1.00  0.00    -0.014 A 
ATOM     52  C   UNL     1      -8.104  -1.016  20.152  1.00  0.00     0.009 A 
ATOM     53  C   UNL     1      -7.508   1.099  19.142  1.00  0.00     0.009 A 
ATOM     54  C   UNL     1      -8.980  -0.352  21.014  1.00  0.00     0.001 A 
ATOM     55  C   UNL     1      -8.362   1.763  20.023  1.00  0.00     0.001 A 
ATOM     56  C   UNL     1      -9.100   1.037  20.955  1.00  0.00     0.000 A 
ENDBRANCH  38  51
ENDBRANCH  12  13
ENDBRANCH   5   7
ENDBRANCH   2   3
ENDBRANCH   1   2
BRANCH   1  57
ATOM     57  C   UNL     1       5.167  -5.327   9.105  1.00  0.00     0.023 C 
BRANCH  57  58
ATOM     58  C   UNL     1       4.925  -5.146   7.610  1.00  0.00     0.116 C 
BRANCH  58  59
ATOM     59  N   UNL     1       4.922  -3.747   7.241  1.00  0.00    -0.355 N 
ATOM     60  C   UNL     1       5.605  -3.112   6.243  1.00  0.00     0.233 C 
ATOM     61  H   UNL     1       4.344  -3.168   7.790  1.00  0.00     0.163 HD
ATOM     62  O   UNL     1       5.586  -1.880   6.281  1.00  0.00    -0.274 OA
BRANCH  60  63
ATOM     63  C   UNL     1       6.405  -3.937   5.219  1.00  0.00     0.163 C 
BRANCH  63  64
ATOM     64  C   UNL     1       5.588  -5.016   4.509  1.00  0.00    -0.030 A 
ATOM     65  C   UNL     1       6.051  -6.345   4.495  1.00  0.00     0.006 A 
ATOM     66  C   UNL     1       4.365  -4.725   3.889  1.00  0.00     0.006 A 
ATOM     67  C   UNL     1       5.292  -7.360   3.911  1.00  0.00     0.016 A 
ATOM     68  C   UNL     1       3.615  -5.737   3.284  1.00  0.00     0.016 A 
ATOM     69  C   UNL     1       4.077  -7.050   3.306  1.00  0.00     0.017 A 
ATOM     70  Br  UNL     1       3.047  -8.425   2.517  1.00  0.00    -0.051 Br
ENDBRANCH  63  64
BRANCH  63  71
ATOM     71  C   UNL     1       7.198  -3.042   4.231  1.00  0.00     0.280 C 
BRANCH  71  72
ATOM     72  N   UNL     1       6.357  -2.110   3.459  1.00  0.00    -0.334 N 
ATOM     73  C   UNL     1       6.251  -2.449   2.038  1.00  0.00     0.262 C 
ATOM     74  C   UNL     1       6.854  -0.724   3.512  1.00  0.00     0.262 C 
ATOM     75  H   UNL     1       5.444  -2.192   3.907  1.00  0.00     0.348 HD
ATOM     76  C   UNL     1       7.407  -1.723   1.384  1.00  0.00     0.067 C 
ATOM     77  C   UNL     1       7.492  -0.423   2.161  1.00  0.00     0.067 C 
ENDBRANCH  71  72
ENDBRANCH  63  71
ENDBRANCH  60  63
ENDBRANCH  58  59
ENDBRANCH  57  58
ENDBRANCH   1  57
TORSDOF 14
