REMARK SMILES CCN1C[C@@H](C(=O)NCCCCNC(=O)c2ccc(-c3c4nc(c(-c5ccccc5)c5ccc([nH]5)c(-c5ccccc5)c5nc(c(-c6ccccc6)c6ccc3[nH]6)C=C5)C=C4)cc2)CC1=O
REMARK SMILES IDX 11 1 10 2 9 3 8 4 6 5 7 6 5 8 3 9 4 10 65 11 64 12 66 13
REMARK SMILES IDX 2 14 1 15 12 16 13 17 14 18 15 20 16 21 17 22 63 23 18 24
REMARK SMILES IDX 62 25 19 26 20 27 21 28 56 29 22 30 61 31 55 32 57 33 23 34
REMARK SMILES IDX 60 35 54 36 53 37 24 39 46 40 31 41 45 42 32 43 35 44 44 45
REMARK SMILES IDX 58 46 33 47 34 48 43 50 59 51 36 52 25 53 26 54 30 55 27 56
REMARK SMILES IDX 29 57 28 58 47 59 48 60 52 61 49 62 51 63 50 64 37 65 38 66
REMARK SMILES IDX 42 67 39 68 41 69 40 70
REMARK H PARENT 8 7 13 19 57 38 35 49
REMARK Flexibility Score: inf
ROOT
ATOM      1  C   UNL     1      -1.585  -3.791   6.083  1.00  0.00     0.023 C 
ENDROOT
BRANCH   1   2
ATOM      2  C   UNL     1      -1.353  -3.741   4.572  1.00  0.00     0.023 C 
BRANCH   2   3
ATOM      3  C   UNL     1      -0.315  -2.719   4.118  1.00  0.00     0.116 C 
BRANCH   3   4
ATOM      4  N   UNL     1       1.012  -3.037   4.615  1.00  0.00    -0.356 N 
ATOM      5  C   UNL     1       2.163  -3.349   3.964  1.00  0.00     0.225 C 
ATOM      6  O   UNL     1       3.158  -3.576   4.657  1.00  0.00    -0.275 OA
ATOM      7  H   UNL     1       1.091  -3.026   5.596  1.00  0.00     0.163 HD
BRANCH   5   8
ATOM      8  C   UNL     1       2.264  -3.398   2.454  1.00  0.00     0.107 C 
ATOM      9  N   UNL     1       1.106  -2.334   0.704  1.00  0.00    -0.342 N 
ATOM     10  C   UNL     1       1.989  -2.050   1.810  1.00  0.00     0.133 C 
ATOM     11  C   UNL     1       0.718  -3.660   0.642  1.00  0.00     0.223 C 
ATOM     12  C   UNL     1       1.340  -4.410   1.787  1.00  0.00     0.115 C 
ATOM     13  O   UNL     1      -0.032  -4.154  -0.187  1.00  0.00    -0.275 OA
BRANCH   9  14
ATOM     14  C   UNL     1       0.646  -1.347  -0.260  1.00  0.00     0.116 C 
ATOM     15  C   UNL     1       1.082   0.083   0.005  1.00  0.00     0.027 C 
ENDBRANCH   9  14
ENDBRANCH   5   8
ENDBRANCH   3   4
ENDBRANCH   2   3
ENDBRANCH   1   2
BRANCH   1  16
ATOM     16  C   UNL     1      -1.956  -2.461   6.728  1.00  0.00     0.116 C 
BRANCH  16  17
ATOM     17  N   UNL     1      -3.167  -1.877   6.171  1.00  0.00    -0.352 N 
ATOM     18  C   UNL     1      -4.270  -1.381   6.822  1.00  0.00     0.251 C 
ATOM     19  H   UNL     1      -3.200  -1.832   5.188  1.00  0.00     0.163 HD
ATOM     20  O   UNL     1      -5.266  -1.051   6.187  1.00  0.00    -0.269 OA
BRANCH  18  21
ATOM     21  C   UNL     1      -4.266  -1.278   8.296  1.00  0.00     0.039 A 
ATOM     22  C   UNL     1      -5.373  -1.744   9.009  1.00  0.00     0.014 A 
ATOM     23  C   UNL     1      -3.166  -0.746   8.974  1.00  0.00     0.014 A 
ATOM     24  C   UNL     1      -5.346  -1.743  10.405  1.00  0.00     0.010 A 
ATOM     25  C   UNL     1      -3.107  -0.822  10.362  1.00  0.00     0.010 A 
ATOM     26  C   UNL     1      -4.195  -1.322  11.092  1.00  0.00    -0.014 A 
BRANCH  26  27
ATOM     27  C   UNL     1      -4.109  -1.405  12.572  1.00  0.00     0.031 A 
ATOM     28  C   UNL     1      -3.951  -0.156  13.395  1.00  0.00     0.074 A 
ATOM     29  C   UNL     1      -4.117  -2.611  13.174  1.00  0.00     0.049 A 
ATOM     30  N   UNL     1      -3.811  -0.034  14.691  1.00  0.00    -0.248 NA
ATOM     31  C   UNL     1      -3.923   1.122  12.666  1.00  0.00     0.031 C 
ATOM     32  C   UNL     1      -4.234  -3.902  12.490  1.00  0.00     0.029 A 
ATOM     33  N   UNL     1      -4.025  -2.949  14.502  1.00  0.00    -0.354 N 
ATOM     34  C   UNL     1      -3.665   1.327  14.928  1.00  0.00     0.074 A 
ATOM     35  C   UNL     1      -3.680   1.985  13.641  1.00  0.00     0.031 C 
ATOM     36  C   UNL     1      -4.247  -4.885  13.405  1.00  0.00     0.029 A 
ATOM     37  C   UNL     1      -4.090  -4.302  14.733  1.00  0.00     0.049 A 
ATOM     38  H   UNL     1      -3.922  -2.284  15.221  1.00  0.00     0.167 HD
ATOM     39  C   UNL     1      -3.551   1.974  16.112  1.00  0.00     0.031 A 
ATOM     40  C   UNL     1      -4.026  -4.997  15.884  1.00  0.00     0.031 A 
ATOM     41  C   UNL     1      -3.542   1.321  17.394  1.00  0.00     0.049 A 
ATOM     42  C   UNL     1      -3.862  -4.255  17.182  1.00  0.00     0.074 A 
ATOM     43  C   UNL     1      -3.480   1.896  18.652  1.00  0.00     0.029 A 
ATOM     44  N   UNL     1      -3.594  -0.051  17.583  1.00  0.00    -0.354 N 
ATOM     45  N   UNL     1      -3.788  -2.963  17.393  1.00  0.00    -0.248 NA
ATOM     46  C   UNL     1      -3.784  -5.070  18.403  1.00  0.00     0.031 C 
ATOM     47  C   UNL     1      -3.432   0.869  19.599  1.00  0.00     0.029 A 
ATOM     48  C   UNL     1      -3.536  -0.343  18.935  1.00  0.00     0.049 A 
ATOM     49  H   UNL     1      -3.662  -0.719  16.862  1.00  0.00     0.167 HD
ATOM     50  C   UNL     1      -3.688  -2.810  18.770  1.00  0.00     0.074 A 
ATOM     51  C   UNL     1      -3.728  -4.139  19.344  1.00  0.00     0.031 C 
ATOM     52  C   UNL     1      -3.577  -1.670  19.494  1.00  0.00     0.031 A 
BRANCH  39  53
ATOM     53  C   UNL     1      -3.418   3.472  16.076  1.00  0.00    -0.014 A 
ATOM     54  C   UNL     1      -4.494   4.290  15.695  1.00  0.00     0.009 A 
ATOM     55  C   UNL     1      -2.216   4.076  16.477  1.00  0.00     0.009 A 
ATOM     56  C   UNL     1      -4.357   5.680  15.683  1.00  0.00     0.001 A 
ATOM     57  C   UNL     1      -2.093   5.467  16.496  1.00  0.00     0.001 A 
ATOM     58  C   UNL     1      -3.159   6.267  16.090  1.00  0.00     0.000 A 
ENDBRANCH  39  53
BRANCH  40  59
ATOM     59  C   UNL     1      -4.137  -6.480  15.871  1.00  0.00    -0.014 A 
ATOM     60  C   UNL     1      -5.267  -7.112  16.413  1.00  0.00     0.009 A 
ATOM     61  C   UNL     1      -3.112  -7.272  15.332  1.00  0.00     0.009 A 
ATOM     62  C   UNL     1      -5.354  -8.506  16.443  1.00  0.00     0.001 A 
ATOM     63  C   UNL     1      -3.216  -8.665  15.335  1.00  0.00     0.001 A 
ATOM     64  C   UNL     1      -4.331  -9.281  15.900  1.00  0.00     0.000 A 
ENDBRANCH  40  59
BRANCH  52  65
ATOM     65  C   UNL     1      -3.535  -1.804  20.991  1.00  0.00    -0.014 A 
ATOM     66  C   UNL     1      -2.418  -2.341  21.649  1.00  0.00     0.009 A 
ATOM     67  C   UNL     1      -4.618  -1.344  21.758  1.00  0.00     0.009 A 
ATOM     68  C   UNL     1      -2.403  -2.449  23.041  1.00  0.00     0.001 A 
ATOM     69  C   UNL     1      -4.587  -1.422  23.150  1.00  0.00     0.001 A 
ATOM     70  C   UNL     1      -3.484  -1.984  23.790  1.00  0.00     0.000 A 
ENDBRANCH  52  65
ENDBRANCH  26  27
ENDBRANCH  18  21
ENDBRANCH  16  17
ENDBRANCH   1  16
TORSDOF 12
