REMARK SMILES CC(=O)c1cc(C(=O)NC[C@H]2CC[C@H](C(=O)NCCCCNC(=O)c3ccc(-c4c5nc(c(-c6ccccc6)c6ccc([nH]6)c(-c6ccccc6)c6nc(c(-c7ccccc7)c7ccc4[nH]7)C=C6)C=C5)cc3)O2)n(C)c1
REMARK SMILES IDX 18 1 17 2 15 3 16 4 14 6 11 7 12 8 73 9 13 10 10 11 9 12
REMARK SMILES IDX 7 13 8 14 6 16 4 17 5 18 76 19 74 20 75 21 2 22 1 23 3 24
REMARK SMILES IDX 19 25 20 26 21 27 22 28 23 29 24 31 25 32 26 33 72 34 27 35
REMARK SMILES IDX 71 36 28 37 29 38 30 39 65 40 31 41 70 42 64 43 66 44 32 45
REMARK SMILES IDX 69 46 63 47 62 48 33 50 55 51 40 52 54 53 41 54 44 55 53 56
REMARK SMILES IDX 67 57 42 58 43 59 52 61 68 62 45 63 34 64 35 65 39 66 36 67
REMARK SMILES IDX 38 68 37 69 56 70 57 71 61 72 58 73 60 74 59 75 46 76 47 77
REMARK SMILES IDX 51 78 48 79 50 80 49 81
REMARK H PARENT 17 5 9 15 22 30 66 49 44 60
REMARK Flexibility Score: inf
ROOT
ATOM      1  C   UNL     1       1.094   8.272  -6.379  1.00  0.00     0.116 C 
ENDROOT
BRANCH   1   2
ATOM      2  N   UNL     1       1.157   9.697  -6.124  1.00  0.00    -0.354 N 
ATOM      3  C   UNL     1       0.994  10.384  -4.957  1.00  0.00     0.249 C 
ATOM      4  O   UNL     1       1.038  11.617  -5.003  1.00  0.00    -0.272 OA
ATOM      5  H   UNL     1       1.347  10.254  -6.914  1.00  0.00     0.163 HD
BRANCH   3   6
ATOM      6  C   UNL     1       0.711   9.660  -3.627  1.00  0.00     0.207 C 
ATOM      7  C   UNL     1       0.399   7.447  -2.916  1.00  0.00     0.138 C 
ATOM      8  C   UNL     1      -0.989   8.025  -3.118  1.00  0.00     0.037 C 
ATOM      9  O   UNL     1       1.316   8.379  -3.509  1.00  0.00    -0.363 OA
ATOM     10  C   UNL     1      -0.771   9.509  -3.323  1.00  0.00     0.045 C 
BRANCH   7  11
ATOM     11  C   UNL     1       0.849   7.291  -1.465  1.00  0.00     0.148 C 
BRANCH  11  12
ATOM     12  N   UNL     1       0.481   6.046  -0.837  1.00  0.00    -0.348 N 
ATOM     13  C   UNL     1       1.232   5.173  -0.090  1.00  0.00     0.268 C 
ATOM     14  O   UNL     1       0.665   4.118   0.206  1.00  0.00    -0.268 OA
ATOM     15  H   UNL     1      -0.458   5.780  -0.963  1.00  0.00     0.163 HD
BRANCH  13  16
ATOM     16  C   UNL     1       2.621   5.417   0.289  1.00  0.00     0.107 A 
ATOM     17  C   UNL     1       4.781   4.917   0.940  1.00  0.00     0.036 A 
ATOM     18  C   UNL     1       3.538   4.384   0.510  1.00  0.00     0.045 A 
ATOM     19  C   UNL     1       4.609   6.283   0.933  1.00  0.00     0.097 A 
ATOM     20  N   UNL     1       3.299   6.575   0.631  1.00  0.00    -0.346 N 
ATOM     21  C   UNL     1       2.788   7.914   0.826  1.00  0.00     0.150 C 
BRANCH  17  22
ATOM     22  C   UNL     1       6.012   4.242   1.351  1.00  0.00     0.161 C 
ATOM     23  C   UNL     1       6.101   2.745   1.195  1.00  0.00     0.093 C 
ATOM     24  O   UNL     1       6.968   4.874   1.802  1.00  0.00    -0.294 OA
ENDBRANCH  17  22
ENDBRANCH  13  16
ENDBRANCH  11  12
ENDBRANCH   7  11
ENDBRANCH   3   6
ENDBRANCH   1   2
BRANCH   1  25
ATOM     25  C   UNL     1      -0.332   7.829  -6.697  1.00  0.00     0.023 C 
BRANCH  25  26
ATOM     26  C   UNL     1      -0.637   7.801  -8.193  1.00  0.00     0.023 C 
BRANCH  26  27
ATOM     27  C   UNL     1       0.197   6.800  -8.983  1.00  0.00     0.116 C 
BRANCH  27  28
ATOM     28  N   UNL     1       0.036   5.421  -8.546  1.00  0.00    -0.352 N 
ATOM     29  C   UNL     1       0.239   4.285  -9.300  1.00  0.00     0.251 C 
ATOM     30  H   UNL     1      -0.247   5.285  -7.613  1.00  0.00     0.163 HD
ATOM     31  O   UNL     1       0.006   3.171  -8.860  1.00  0.00    -0.269 OA
BRANCH  29  32
ATOM     32  C   UNL     1       0.700   4.468 -10.690  1.00  0.00     0.039 A 
ATOM     33  C   UNL     1      -0.124   4.045 -11.734  1.00  0.00     0.014 A 
ATOM     34  C   UNL     1       1.870   5.187 -10.940  1.00  0.00     0.014 A 
ATOM     35  C   UNL     1       0.187   4.420 -13.041  1.00  0.00     0.010 A 
ATOM     36  C   UNL     1       2.139   5.617 -12.232  1.00  0.00     0.010 A 
ATOM     37  C   UNL     1       1.294   5.247 -13.292  1.00  0.00    -0.014 A 
BRANCH  37  38
ATOM     38  C   UNL     1       1.595   5.752 -14.652  1.00  0.00     0.031 A 
ATOM     39  C   UNL     1       2.875   5.349 -15.325  1.00  0.00     0.074 A 
ATOM     40  C   UNL     1       0.774   6.647 -15.235  1.00  0.00     0.049 A 
ATOM     41  N   UNL     1       3.392   5.784 -16.445  1.00  0.00    -0.248 NA
ATOM     42  C   UNL     1       3.698   4.346 -14.629  1.00  0.00     0.031 C 
ATOM     43  C   UNL     1      -0.480   7.149 -14.668  1.00  0.00     0.029 A 
ATOM     44  N   UNL     1       0.884   7.310 -16.432  1.00  0.00    -0.354 N 
ATOM     45  C   UNL     1       4.613   5.134 -16.570  1.00  0.00     0.074 A 
ATOM     46  C   UNL     1       4.777   4.306 -15.396  1.00  0.00     0.031 C 
ATOM     47  C   UNL     1      -1.031   8.025 -15.524  1.00  0.00     0.029 A 
ATOM     48  C   UNL     1      -0.150   8.180 -16.678  1.00  0.00     0.049 A 
ATOM     49  H   UNL     1       1.634   7.175 -17.055  1.00  0.00     0.167 HD
ATOM     50  C   UNL     1       5.510   5.208 -17.580  1.00  0.00     0.031 A 
ATOM     51  C   UNL     1      -0.359   9.017 -17.711  1.00  0.00     0.031 A 
ATOM     52  C   UNL     1       5.333   6.009 -18.760  1.00  0.00     0.049 A 
ATOM     53  C   UNL     1       0.651   9.079 -18.823  1.00  0.00     0.074 A 
ATOM     54  C   UNL     1       6.154   6.101 -19.869  1.00  0.00     0.029 A 
ATOM     55  N   UNL     1       4.256   6.852 -18.983  1.00  0.00    -0.354 N 
ATOM     56  N   UNL     1       1.774   8.415 -18.954  1.00  0.00    -0.248 NA
ATOM     57  C   UNL     1       0.361  10.000 -19.932  1.00  0.00     0.031 C 
ATOM     58  C   UNL     1       5.591   7.030 -20.750  1.00  0.00     0.029 A 
ATOM     59  C   UNL     1       4.399   7.482 -20.207  1.00  0.00     0.049 A 
ATOM     60  H   UNL     1       3.502   6.984 -18.364  1.00  0.00     0.167 HD
ATOM     61  C   UNL     1       2.310   8.817 -20.171  1.00  0.00     0.074 A 
ATOM     62  C   UNL     1       1.387   9.776 -20.742  1.00  0.00     0.031 C 
ATOM     63  C   UNL     1       3.463   8.424 -20.762  1.00  0.00     0.031 A 
BRANCH  50  64
ATOM     64  C   UNL     1       6.768   4.400 -17.444  1.00  0.00    -0.014 A 
ATOM     65  C   UNL     1       6.747   3.000 -17.554  1.00  0.00     0.009 A 
ATOM     66  C   UNL     1       7.992   5.047 -17.222  1.00  0.00     0.009 A 
ATOM     67  C   UNL     1       7.923   2.263 -17.408  1.00  0.00     0.001 A 
ATOM     68  C   UNL     1       9.171   4.309 -17.104  1.00  0.00     0.001 A 
ATOM     69  C   UNL     1       9.134   2.918 -17.187  1.00  0.00     0.000 A 
ENDBRANCH  50  64
BRANCH  51  70
ATOM     70  C   UNL     1      -1.582   9.859 -17.753  1.00  0.00    -0.014 A 
ATOM     71  C   UNL     1      -2.616   9.562 -18.654  1.00  0.00     0.009 A 
ATOM     72  C   UNL     1      -1.722  10.963 -16.898  1.00  0.00     0.009 A 
ATOM     73  C   UNL     1      -3.756  10.367 -18.714  1.00  0.00     0.001 A 
ATOM     74  C   UNL     1      -2.874  11.752 -16.944  1.00  0.00     0.001 A 
ATOM     75  C   UNL     1      -3.885  11.459 -17.857  1.00  0.00     0.000 A 
ENDBRANCH  51  70
BRANCH  63  76
ATOM     76  C   UNL     1       3.776   8.994 -22.114  1.00  0.00    -0.014 A 
ATOM     77  C   UNL     1       4.251  10.306 -22.257  1.00  0.00     0.009 A 
ATOM     78  C   UNL     1       3.657   8.181 -23.252  1.00  0.00     0.009 A 
ATOM     79  C   UNL     1       4.585  10.799 -23.519  1.00  0.00     0.001 A 
ATOM     80  C   UNL     1       4.014   8.669 -24.509  1.00  0.00     0.001 A 
ATOM     81  C   UNL     1       4.473   9.979 -24.642  1.00  0.00     0.000 A 
ENDBRANCH  63  76
ENDBRANCH  37  38
ENDBRANCH  29  32
ENDBRANCH  27  28
ENDBRANCH  26  27
ENDBRANCH  25  26
ENDBRANCH   1  25
TORSDOF 15
