REMARK SMILES C[N@H+]1CCCN(C(=O)N[C@@H]2CCCCC[C@@H]2C(=O)NCCCCNC(=O)c2ccc(-c3c4nc(c(-c5ccccc5)c5ccc([nH]5)c(-c5ccccc5)c5nc(c(-c6ccccc6)c6ccc3[nH]6)C=C5)C=C4)cc2)CC1
REMARK SMILES IDX 17 1 18 2 19 3 16 5 10 7 9 8 7 9 8 10 6 12 75 13 76 14 2 15
REMARK SMILES IDX 1 16 3 18 5 20 4 21 11 23 12 24 13 25 14 26 15 27 20 29
REMARK SMILES IDX 21 30 22 31 23 32 24 33 25 34 26 36 27 37 28 38 74 39 29 40
REMARK SMILES IDX 73 41 30 42 31 43 32 44 67 45 33 46 72 47 66 48 68 49 34 50
REMARK SMILES IDX 71 51 65 52 64 53 35 55 57 56 42 57 56 58 43 59 46 60 55 61
REMARK SMILES IDX 69 62 44 63 45 64 54 66 70 67 47 68 36 69 37 70 41 71 38 72
REMARK SMILES IDX 40 73 39 74 58 75 59 76 63 77 60 78 62 79 61 80 48 81 49 82
REMARK SMILES IDX 53 83 50 84 52 85 51 86
REMARK H PARENT 19 4 9 11 2 17 24 35 68 54 46 65
REMARK Flexibility Score: 180.00
ROOT
ATOM      1  C   UNL     1       0.859  -6.491   1.507  1.00  0.00     0.225 C 
ATOM      2  O   UNL     1       0.862  -5.966   0.393  1.00  0.00    -0.275 OA
ATOM      3  N   UNL     1      -0.153  -7.363   1.780  1.00  0.00    -0.356 N 
ATOM      4  H   UNL     1      -0.763  -7.529   1.025  1.00  0.00     0.163 HD
ENDROOT
BRANCH   1   5
ATOM      5  C   UNL     1       1.955  -6.238   2.540  1.00  0.00     0.101 CG1
ATOM      6  G   UNL     1       3.356  -6.386   1.893  1.00  0.00     0.000 G1
BRANCH   5   7
ATOM      7  C   UNL     1       1.719  -5.001   3.449  1.00  0.00     0.096 C 
BRANCH   7   8
ATOM      8  N   UNL     1       0.298  -4.796   3.879  1.00  0.00    -0.334 N 
ATOM      9  C   UNL     1      -0.799  -4.021   3.706  1.00  0.00     0.317 C 
ATOM     10  O   UNL     1      -1.720  -4.278   4.492  1.00  0.00    -0.249 OA
ATOM     11  H   UNL     1       0.078  -5.490   4.541  1.00  0.00     0.165 HD
BRANCH   9  12
ATOM     12  N   UNL     1      -0.921  -3.021   2.781  1.00  0.00    -0.319 N 
BRANCH  12  13
ATOM     13  C   UNL     1       0.056  -2.752   1.763  1.00  0.00     0.182 C 
BRANCH  13  14
ATOM     14  C   UNL     1      -0.235  -1.814   0.595  1.00  0.00     0.283 C 
BRANCH  14  15
ATOM     15  N   UNL     1      -0.059  -0.426   1.052  1.00  0.00    -0.336 N 
ATOM     16  C   UNL     1       0.437   0.428  -0.020  1.00  0.00     0.332 C 
ATOM     17  H   UNL     1       0.662  -0.422   1.773  1.00  0.00     0.347 HD
BRANCH  15  18
ATOM     18  C   UNL     1      -1.264   0.092   1.694  1.00  0.00     0.263 CG0
ATOM     19  G   UNL     1      -1.616  -0.616   3.014  1.00  0.00     0.000 G0
ENDBRANCH  15  18
ENDBRANCH  14  15
ENDBRANCH  13  14
ENDBRANCH  12  13
BRANCH  12  20
ATOM     20  C   UNL     1      -2.046  -2.083   2.874  1.00  0.00     0.127 C 
BRANCH  20  21
ATOM     21  C   UNL     1      -1.616  -0.616   3.014  1.00  0.00     0.083 CG0
ATOM     22  G   UNL     1      -1.264   0.092   1.694  1.00  0.00     0.000 G0
ENDBRANCH  20  21
ENDBRANCH  12  20
ENDBRANCH   9  12
ENDBRANCH   7   8
BRANCH   7  23
ATOM     23  C   UNL     1       2.498  -3.724   3.147  1.00  0.00     0.026 C 
BRANCH  23  24
ATOM     24  C   UNL     1       4.010  -3.799   3.033  1.00  0.00     0.002 C 
BRANCH  24  25
ATOM     25  C   UNL     1       4.411  -4.038   1.577  1.00  0.00     0.000 C 
BRANCH  25  26
ATOM     26  C   UNL     1       3.820  -5.291   0.932  1.00  0.00     0.001 C 
BRANCH  26  27
ATOM     27  C   UNL     1       3.356  -6.386   1.893  1.00  0.00     0.015 CG1
ATOM     28  G   UNL     1       1.955  -6.238   2.540  1.00  0.00     0.000 G1
ENDBRANCH  26  27
ENDBRANCH  25  26
ENDBRANCH  24  25
ENDBRANCH  23  24
ENDBRANCH   7  23
ENDBRANCH   5   7
ENDBRANCH   1   5
BRANCH   3  29
ATOM     29  C   UNL     1      -0.486  -8.091   2.993  1.00  0.00     0.116 C 
BRANCH  29  30
ATOM     30  C   UNL     1      -1.863  -7.706   3.528  1.00  0.00     0.023 C 
BRANCH  30  31
ATOM     31  C   UNL     1      -3.024  -7.943   2.565  1.00  0.00     0.023 C 
BRANCH  31  32
ATOM     32  C   UNL     1      -3.154  -9.377   2.074  1.00  0.00     0.116 C 
BRANCH  32  33
ATOM     33  N   UNL     1      -3.357 -10.322   3.162  1.00  0.00    -0.352 N 
ATOM     34  C   UNL     1      -4.356 -11.250   3.334  1.00  0.00     0.251 C 
ATOM     35  H   UNL     1      -2.682 -10.292   3.878  1.00  0.00     0.163 HD
ATOM     36  O   UNL     1      -4.472 -11.847   4.395  1.00  0.00    -0.269 OA
BRANCH  34  37
ATOM     37  C   UNL     1      -5.306 -11.504   2.231  1.00  0.00     0.039 A 
ATOM     38  C   UNL     1      -6.671 -11.572   2.517  1.00  0.00     0.014 A 
ATOM     39  C   UNL     1      -4.851 -11.652   0.919  1.00  0.00     0.014 A 
ATOM     40  C   UNL     1      -7.585 -11.723   1.474  1.00  0.00     0.010 A 
ATOM     41  C   UNL     1      -5.766 -11.710  -0.126  1.00  0.00     0.010 A 
ATOM     42  C   UNL     1      -7.142 -11.754   0.141  1.00  0.00    -0.014 A 
BRANCH  42  43
ATOM     43  C   UNL     1      -8.101 -11.837  -0.989  1.00  0.00     0.031 A 
ATOM     44  C   UNL     1      -8.076 -13.023  -1.913  1.00  0.00     0.074 A 
ATOM     45  C   UNL     1      -8.952 -10.818  -1.219  1.00  0.00     0.049 A 
ATOM     46  N   UNL     1      -8.793 -13.251  -2.984  1.00  0.00    -0.248 NA
ATOM     47  C   UNL     1      -7.099 -14.082  -1.609  1.00  0.00     0.031 C 
ATOM     48  C   UNL     1      -9.049  -9.594  -0.420  1.00  0.00     0.029 A 
ATOM     49  N   UNL     1      -9.898 -10.648  -2.199  1.00  0.00    -0.354 N 
ATOM     50  C   UNL     1      -8.345 -14.466  -3.486  1.00  0.00     0.074 A 
ATOM     51  C   UNL     1      -7.255 -14.899  -2.640  1.00  0.00     0.031 C 
ATOM     52  C   UNL     1     -10.023  -8.818  -0.921  1.00  0.00     0.029 A 
ATOM     53  C   UNL     1     -10.586  -9.463  -2.102  1.00  0.00     0.049 A 
ATOM     54  H   UNL     1     -10.067 -11.313  -2.905  1.00  0.00     0.167 HD
ATOM     55  C   UNL     1      -8.812 -15.171  -4.544  1.00  0.00     0.031 A 
ATOM     56  C   UNL     1     -11.556  -8.950  -2.881  1.00  0.00     0.031 A 
ATOM     57  C   UNL     1      -9.899 -14.742  -5.382  1.00  0.00     0.049 A 
ATOM     58  C   UNL     1     -12.036  -9.739  -4.068  1.00  0.00     0.074 A 
ATOM     59  C   UNL     1     -10.479 -15.407  -6.448  1.00  0.00     0.029 A 
ATOM     60  N   UNL     1     -10.566 -13.534  -5.252  1.00  0.00    -0.354 N 
ATOM     61  N   UNL     1     -11.648 -10.919  -4.489  1.00  0.00    -0.248 NA
ATOM     62  C   UNL     1     -13.097  -9.128  -4.882  1.00  0.00     0.031 C 
ATOM     63  C   UNL     1     -11.457 -14.575  -7.001  1.00  0.00     0.029 A 
ATOM     64  C   UNL     1     -11.534 -13.422  -6.236  1.00  0.00     0.049 A 
ATOM     65  H   UNL     1     -10.380 -12.856  -4.562  1.00  0.00     0.167 HD
ATOM     66  C   UNL     1     -12.439 -11.206  -5.594  1.00  0.00     0.074 A 
ATOM     67  C   UNL     1     -13.339 -10.084  -5.767  1.00  0.00     0.031 C 
ATOM     68  C   UNL     1     -12.424 -12.300  -6.393  1.00  0.00     0.031 A 
BRANCH  55  69
ATOM     69  C   UNL     1      -8.140 -16.480  -4.856  1.00  0.00    -0.014 A 
ATOM     70  C   UNL     1      -8.264 -17.586  -3.999  1.00  0.00     0.009 A 
ATOM     71  C   UNL     1      -7.402 -16.622  -6.041  1.00  0.00     0.009 A 
ATOM     72  C   UNL     1      -7.631 -18.793  -4.304  1.00  0.00     0.001 A 
ATOM     73  C   UNL     1      -6.798 -17.839  -6.360  1.00  0.00     0.001 A 
ATOM     74  C   UNL     1      -6.904 -18.920  -5.486  1.00  0.00     0.000 A 
ENDBRANCH  55  69
BRANCH  56  75
ATOM     75  C   UNL     1     -12.152  -7.624  -2.562  1.00  0.00    -0.014 A 
ATOM     76  C   UNL     1     -13.484  -7.526  -2.131  1.00  0.00     0.009 A 
ATOM     77  C   UNL     1     -11.398  -6.449  -2.704  1.00  0.00     0.009 A 
ATOM     78  C   UNL     1     -14.058  -6.277  -1.881  1.00  0.00     0.001 A 
ATOM     79  C   UNL     1     -11.964  -5.204  -2.422  1.00  0.00     0.001 A 
ATOM     80  C   UNL     1     -13.297  -5.118  -2.023  1.00  0.00     0.000 A 
ENDBRANCH  56  75
BRANCH  68  81
ATOM     81  C   UNL     1     -13.440 -12.360  -7.500  1.00  0.00    -0.014 A 
ATOM     82  C   UNL     1     -13.349 -11.526  -8.626  1.00  0.00     0.009 A 
ATOM     83  C   UNL     1     -14.481 -13.300  -7.432  1.00  0.00     0.009 A 
ATOM     84  C   UNL     1     -14.304 -11.607  -9.642  1.00  0.00     0.001 A 
ATOM     85  C   UNL     1     -15.413 -13.402  -8.465  1.00  0.00     0.001 A 
ATOM     86  C   UNL     1     -15.330 -12.548  -9.564  1.00  0.00     0.000 A 
ENDBRANCH  68  81
ENDBRANCH  42  43
ENDBRANCH  34  37
ENDBRANCH  32  33
ENDBRANCH  31  32
ENDBRANCH  30  31
ENDBRANCH  29  30
ENDBRANCH   3  29
TORSDOF 13
