REMARK SMILES O=Cc1ccc(-c2cnccc2C(=O)NCCCCNC(=O)c2ccc(-c3c4nc(c(-c5ccccc5)c5ccc([nH]5)c(-c5ccccc5)c5nc(c(-c6ccccc6)c6ccc3[nH]6)C=C5)C=C4)cc2)s1
REMARK SMILES IDX 17 1 16 2 15 3 13 4 14 5 12 7 7 8 8 9 9 10 11 11 10 12 6 13
REMARK SMILES IDX 3 14 4 15 71 16 5 17 2 18 1 19 18 20 19 21 20 22 21 23 22 25
REMARK SMILES IDX 23 26 24 27 70 28 25 29 69 30 26 31 27 32 28 33 63 34 29 35
REMARK SMILES IDX 68 36 62 37 64 38 30 39 67 40 61 41 60 42 31 44 53 45 38 46
REMARK SMILES IDX 52 47 39 48 42 49 51 50 65 51 40 52 41 53 50 55 66 56 43 57
REMARK SMILES IDX 32 58 33 59 37 60 34 61 36 62 35 63 54 64 55 65 59 66 56 67
REMARK SMILES IDX 58 68 57 69 44 70 45 71 49 72 46 73 48 74 47 75
REMARK H PARENT 15 6 20 24 64 43 42 54
REMARK Flexibility Score: inf
ROOT
ATOM      1  C   UNL     1       5.704   1.325   0.818  1.00  0.00     0.023 C 
ENDROOT
BRANCH   1   2
ATOM      2  C   UNL     1       5.352   2.332  -0.265  1.00  0.00     0.116 C 
BRANCH   2   3
ATOM      3  N   UNL     1       5.792   3.688  -0.078  1.00  0.00    -0.352 N 
ATOM      4  C   UNL     1       5.938   4.687  -1.013  1.00  0.00     0.252 C 
ATOM      5  O   UNL     1       6.193   5.819  -0.595  1.00  0.00    -0.269 OA
ATOM      6  H   UNL     1       6.019   3.936   0.847  1.00  0.00     0.163 HD
BRANCH   4   7
ATOM      7  C   UNL     1       5.928   4.475  -2.494  1.00  0.00     0.051 A 
ATOM      8  C   UNL     1       4.987   3.782  -3.276  1.00  0.00     0.023 A 
ATOM      9  C   UNL     1       5.206   3.785  -4.661  1.00  0.00     0.121 A 
ATOM     10  N   UNL     1       6.230   4.398  -5.297  1.00  0.00    -0.264 NA
ATOM     11  C   UNL     1       6.987   5.139  -3.148  1.00  0.00     0.034 A 
ATOM     12  C   UNL     1       7.095   5.074  -4.525  1.00  0.00     0.112 A 
BRANCH   8  13
ATOM     13  C   UNL     1       3.784   3.102  -2.790  1.00  0.00     0.037 A 
ATOM     14  C   UNL     1       2.177   1.330  -2.151  1.00  0.00     0.067 A 
ATOM     15  C   UNL     1       1.758   2.583  -1.755  1.00  0.00     0.024 A 
ATOM     16  S   UNL     1       3.609   1.405  -3.071  1.00  0.00    -0.132 S 
ATOM     17  C   UNL     1       2.685   3.608  -2.124  1.00  0.00     0.021 A 
BRANCH  14  18
ATOM     18  C   UNL     1       1.550   0.051  -1.899  1.00  0.00     0.270 C 
ATOM     19  O   UNL     1       0.403  -0.082  -1.484  1.00  0.00    -0.297 OA
ENDBRANCH  14  18
ENDBRANCH   8  13
ENDBRANCH   4   7
ENDBRANCH   2   3
ENDBRANCH   1   2
BRANCH   1  20
ATOM     20  C   UNL     1       5.140   1.580   2.214  1.00  0.00     0.023 C 
BRANCH  20  21
ATOM     21  C   UNL     1       3.679   2.016   2.314  1.00  0.00     0.116 C 
BRANCH  21  22
ATOM     22  N   UNL     1       2.735   1.065   1.744  1.00  0.00    -0.352 N 
ATOM     23  C   UNL     1       1.761   0.292   2.331  1.00  0.00     0.251 C 
ATOM     24  H   UNL     1       2.807   0.956   0.768  1.00  0.00     0.163 HD
ATOM     25  O   UNL     1       1.188  -0.565   1.664  1.00  0.00    -0.269 OA
BRANCH  23  26
ATOM     26  C   UNL     1       1.438   0.435   3.767  1.00  0.00     0.039 A 
ATOM     27  C   UNL     1       1.230  -0.721   4.527  1.00  0.00     0.014 A 
ATOM     28  C   UNL     1       1.365   1.688   4.376  1.00  0.00     0.014 A 
ATOM     29  C   UNL     1       1.083  -0.624   5.912  1.00  0.00     0.010 A 
ATOM     30  C   UNL     1       1.320   1.778   5.763  1.00  0.00     0.010 A 
ATOM     31  C   UNL     1       1.198   0.621   6.547  1.00  0.00    -0.014 A 
BRANCH  31  32
ATOM     32  C   UNL     1       1.238   0.735   8.027  1.00  0.00     0.031 A 
ATOM     33  C   UNL     1       0.194   1.537   8.754  1.00  0.00     0.074 A 
ATOM     34  C   UNL     1       2.271   0.194   8.703  1.00  0.00     0.049 A 
ATOM     35  N   UNL     1       0.114   1.826  10.028  1.00  0.00    -0.248 NA
ATOM     36  C   UNL     1      -0.882   2.120   7.936  1.00  0.00     0.031 C 
ATOM     37  C   UNL     1       3.378  -0.558   8.105  1.00  0.00     0.029 A 
ATOM     38  N   UNL     1       2.565   0.200  10.044  1.00  0.00    -0.354 N 
ATOM     39  C   UNL     1      -1.002   2.642  10.159  1.00  0.00     0.074 A 
ATOM     40  C   UNL     1      -1.537   2.846   8.830  1.00  0.00     0.031 C 
ATOM     41  C   UNL     1       4.209  -0.968   9.075  1.00  0.00     0.029 A 
ATOM     42  C   UNL     1       3.723  -0.473  10.357  1.00  0.00     0.049 A 
ATOM     43  H   UNL     1       2.001   0.644  10.717  1.00  0.00     0.167 HD
ATOM     44  C   UNL     1      -1.546   3.159  11.286  1.00  0.00     0.031 A 
ATOM     45  C   UNL     1       4.327  -0.666  11.545  1.00  0.00     0.031 A 
ATOM     46  C   UNL     1      -1.020   2.939  12.606  1.00  0.00     0.049 A 
ATOM     47  C   UNL     1       3.698  -0.091  12.782  1.00  0.00     0.074 A 
ATOM     48  C   UNL     1      -1.529   3.364  13.820  1.00  0.00     0.029 A 
ATOM     49  N   UNL     1       0.139   2.229  12.883  1.00  0.00    -0.354 N 
ATOM     50  N   UNL     1       2.601   0.619  12.897  1.00  0.00    -0.248 NA
ATOM     51  C   UNL     1       4.383  -0.354  14.055  1.00  0.00     0.031 C 
ATOM     52  C   UNL     1      -0.652   2.951  14.829  1.00  0.00     0.029 A 
ATOM     53  C   UNL     1       0.373   2.222  14.248  1.00  0.00     0.049 A 
ATOM     54  H   UNL     1       0.711   1.795  12.210  1.00  0.00     0.167 HD
ATOM     55  C   UNL     1       2.450   0.865  14.255  1.00  0.00     0.074 A 
ATOM     56  C   UNL     1       3.558   0.213  14.924  1.00  0.00     0.031 C 
ATOM     57  C   UNL     1       1.482   1.567  14.892  1.00  0.00     0.031 A 
BRANCH  44  58
ATOM     58  C   UNL     1      -2.773   4.016  11.132  1.00  0.00    -0.014 A 
ATOM     59  C   UNL     1      -4.002   3.465  10.732  1.00  0.00     0.009 A 
ATOM     60  C   UNL     1      -2.706   5.390  11.409  1.00  0.00     0.009 A 
ATOM     61  C   UNL     1      -5.125   4.279  10.570  1.00  0.00     0.001 A 
ATOM     62  C   UNL     1      -3.838   6.197  11.277  1.00  0.00     0.001 A 
ATOM     63  C   UNL     1      -5.043   5.643  10.846  1.00  0.00     0.000 A 
ENDBRANCH  44  58
BRANCH  45  64
ATOM     64  C   UNL     1       5.583  -1.458  11.624  1.00  0.00    -0.014 A 
ATOM     65  C   UNL     1       5.583  -2.733  12.213  1.00  0.00     0.009 A 
ATOM     66  C   UNL     1       6.787  -0.950  11.112  1.00  0.00     0.009 A 
ATOM     67  C   UNL     1       6.767  -3.469  12.310  1.00  0.00     0.001 A 
ATOM     68  C   UNL     1       7.963  -1.700  11.184  1.00  0.00     0.001 A 
ATOM     69  C   UNL     1       7.954  -2.955  11.792  1.00  0.00     0.000 A 
ENDBRANCH  45  64
BRANCH  57  70
ATOM     70  C   UNL     1       1.562   1.638  16.390  1.00  0.00    -0.014 A 
ATOM     71  C   UNL     1       2.533   2.421  17.032  1.00  0.00     0.009 A 
ATOM     72  C   UNL     1       0.625   0.940  17.167  1.00  0.00     0.009 A 
ATOM     73  C   UNL     1       2.583   2.477  18.426  1.00  0.00     0.001 A 
ATOM     74  C   UNL     1       0.659   1.022  18.559  1.00  0.00     0.001 A 
ATOM     75  C   UNL     1       1.644   1.783  19.188  1.00  0.00     0.000 A 
ENDBRANCH  57  70
ENDBRANCH  31  32
ENDBRANCH  23  26
ENDBRANCH  21  22
ENDBRANCH  20  21
ENDBRANCH   1  20
TORSDOF 13
