REMARK SMILES CCOc1cc(/C=C(/F)C(=O)NCCCCNC(=O)c2ccc(-c3c4nc(c(-c5ccccc5)c5ccc([nH]5)c(-c5ccccc5)c5nc(c(-c6ccccc6)c6ccc3[nH]6)C=C5)C=C4)cc2)ccc1O
REMARK SMILES IDX 14 1 13 2 12 3 10 4 11 5 8 7 7 8 9 9 6 10 4 11 5 12 70 13
REMARK SMILES IDX 69 14 68 15 3 16 2 17 1 18 71 19 15 21 16 22 17 23 18 24
REMARK SMILES IDX 19 26 20 27 21 28 67 29 22 30 66 31 23 32 24 33 25 34 60 35
REMARK SMILES IDX 26 36 65 37 59 38 61 39 27 40 64 41 58 42 57 43 28 45 50 46
REMARK SMILES IDX 35 47 49 48 36 49 39 50 48 51 62 52 37 53 38 54 47 56 63 57
REMARK SMILES IDX 40 58 29 59 30 60 34 61 31 62 33 63 32 64 51 65 52 66 56 67
REMARK SMILES IDX 53 68 55 69 54 70 41 71 42 72 46 73 43 74 45 75 44 76
REMARK H PARENT 12 6 71 20 17 25 61 44 39 55
REMARK Flexibility Score: inf
ROOT
ATOM      1  C   UNL     1       2.981  -6.277  -6.080  1.00  0.00     0.023 C 
ENDROOT
BRANCH   1   2
ATOM      2  C   UNL     1       1.944  -5.383  -6.757  1.00  0.00     0.116 C 
BRANCH   2   3
ATOM      3  N   UNL     1       1.310  -4.446  -5.845  1.00  0.00    -0.350 N 
ATOM      4  C   UNL     1       1.309  -3.084  -5.763  1.00  0.00     0.280 C 
ATOM      5  O   UNL     1       0.546  -2.584  -4.937  1.00  0.00    -0.267 OA
ATOM      6  H   UNL     1       0.774  -4.882  -5.144  1.00  0.00     0.163 HD
BRANCH   4   7
ATOM      7  C   UNL     1       2.185  -2.256  -6.642  1.00  0.00     0.188 C 
ATOM      8  C   UNL     1       2.552  -0.974  -6.488  1.00  0.00     0.053 C 
ATOM      9  F   UNL     1       2.620  -2.863  -7.768  1.00  0.00    -0.201 F 
BRANCH   8  10
ATOM     10  C   UNL     1       2.289   0.025  -5.438  1.00  0.00    -0.019 A 
ATOM     11  C   UNL     1       1.988   0.735  -3.128  1.00  0.00     0.161 A 
ATOM     12  C   UNL     1       2.153  -0.280  -4.077  1.00  0.00     0.058 A 
ATOM     13  C   UNL     1       2.025   2.070  -3.529  1.00  0.00     0.157 A 
ATOM     14  C   UNL     1       2.162   2.398  -4.870  1.00  0.00     0.051 A 
ATOM     15  C   UNL     1       2.300   1.380  -5.818  1.00  0.00     0.012 A 
BRANCH  11  16
ATOM     16  O   UNL     1       1.971   0.373  -1.807  1.00  0.00    -0.490 OA
BRANCH  16  17
ATOM     17  C   UNL     1       0.719   0.633  -1.159  1.00  0.00     0.226 C 
ATOM     18  C   UNL     1       0.831   0.079   0.253  1.00  0.00     0.049 C 
ENDBRANCH  16  17
ENDBRANCH  11  16
BRANCH  13  19
ATOM     19  O   UNL     1       2.018   3.095  -2.629  1.00  0.00    -0.504 OA
ATOM     20  H   UNL     1       1.928   2.915  -1.714  1.00  0.00     0.293 HD
ENDBRANCH  13  19
ENDBRANCH   8  10
ENDBRANCH   4   7
ENDBRANCH   2   3
ENDBRANCH   1   2
BRANCH   1  21
ATOM     21  C   UNL     1       2.491  -7.066  -4.864  1.00  0.00     0.023 C 
BRANCH  21  22
ATOM     22  C   UNL     1       1.179  -7.823  -5.041  1.00  0.00     0.116 C 
BRANCH  22  23
ATOM     23  N   UNL     1       1.213  -8.788  -6.125  1.00  0.00    -0.352 N 
ATOM     24  C   UNL     1       0.800 -10.098  -6.147  1.00  0.00     0.251 C 
ATOM     25  H   UNL     1       1.588  -8.453  -6.972  1.00  0.00     0.163 HD
ATOM     26  O   UNL     1       1.021 -10.789  -7.136  1.00  0.00    -0.269 OA
BRANCH  24  27
ATOM     27  C   UNL     1       0.116 -10.692  -4.975  1.00  0.00     0.039 A 
ATOM     28  C   UNL     1       0.466 -11.988  -4.586  1.00  0.00     0.014 A 
ATOM     29  C   UNL     1      -0.877 -10.001  -4.277  1.00  0.00     0.014 A 
ATOM     30  C   UNL     1      -0.145 -12.570  -3.474  1.00  0.00     0.010 A 
ATOM     31  C   UNL     1      -1.427 -10.550  -3.120  1.00  0.00     0.010 A 
ATOM     32  C   UNL     1      -1.079 -11.847  -2.714  1.00  0.00    -0.014 A 
BRANCH  32  33
ATOM     33  C   UNL     1      -1.714 -12.449  -1.513  1.00  0.00     0.031 A 
ATOM     34  C   UNL     1      -3.199 -12.693  -1.479  1.00  0.00     0.074 A 
ATOM     35  C   UNL     1      -0.960 -12.751  -0.438  1.00  0.00     0.049 A 
ATOM     36  N   UNL     1      -3.930 -13.209  -0.522  1.00  0.00    -0.248 NA
ATOM     37  C   UNL     1      -3.969 -12.285  -2.666  1.00  0.00     0.031 C 
ATOM     38  C   UNL     1       0.483 -12.529  -0.324  1.00  0.00     0.029 A 
ATOM     39  N   UNL     1      -1.305 -13.314   0.766  1.00  0.00    -0.354 N 
ATOM     40  C   UNL     1      -5.240 -13.175  -0.987  1.00  0.00     0.074 A 
ATOM     41  C   UNL     1      -5.212 -12.534  -2.283  1.00  0.00     0.031 C 
ATOM     42  C   UNL     1       0.905 -12.987   0.866  1.00  0.00     0.029 A 
ATOM     43  C   UNL     1      -0.239 -13.496   1.614  1.00  0.00     0.049 A 
ATOM     44  H   UNL     1      -2.228 -13.565   0.999  1.00  0.00     0.167 HD
ATOM     45  C   UNL     1      -6.364 -13.653  -0.401  1.00  0.00     0.031 A 
ATOM     46  C   UNL     1      -0.188 -14.017   2.855  1.00  0.00     0.031 A 
ATOM     47  C   UNL     1      -6.395 -14.293   0.888  1.00  0.00     0.049 A 
ATOM     48  C   UNL     1      -1.452 -14.528   3.490  1.00  0.00     0.074 A 
ATOM     49  C   UNL     1      -7.476 -14.852   1.548  1.00  0.00     0.029 A 
ATOM     50  N   UNL     1      -5.294 -14.456   1.714  1.00  0.00    -0.354 N 
ATOM     51  N   UNL     1      -2.671 -14.549   3.008  1.00  0.00    -0.248 NA
ATOM     52  C   UNL     1      -1.325 -15.106   4.835  1.00  0.00     0.031 C 
ATOM     53  C   UNL     1      -7.040 -15.302   2.799  1.00  0.00     0.029 A 
ATOM     54  C   UNL     1      -5.673 -15.088   2.887  1.00  0.00     0.049 A 
ATOM     55  H   UNL     1      -4.378 -14.166   1.500  1.00  0.00     0.167 HD
ATOM     56  C   UNL     1      -3.448 -15.177   3.974  1.00  0.00     0.074 A 
ATOM     57  C   UNL     1      -2.559 -15.534   5.059  1.00  0.00     0.031 C 
ATOM     58  C   UNL     1      -4.779 -15.438   3.961  1.00  0.00     0.031 A 
BRANCH  45  59
ATOM     59  C   UNL     1      -7.659 -13.491  -1.151  1.00  0.00    -0.014 A 
ATOM     60  C   UNL     1      -7.909 -14.199  -2.338  1.00  0.00     0.009 A 
ATOM     61  C   UNL     1      -8.656 -12.639  -0.649  1.00  0.00     0.009 A 
ATOM     62  C   UNL     1      -9.111 -14.026  -3.028  1.00  0.00     0.001 A 
ATOM     63  C   UNL     1      -9.871 -12.494  -1.322  1.00  0.00     0.001 A 
ATOM     64  C   UNL     1     -10.093 -13.178  -2.516  1.00  0.00     0.000 A 
ENDBRANCH  45  59
BRANCH  46  65
ATOM     65  C   UNL     1       1.111 -14.107   3.575  1.00  0.00    -0.014 A 
ATOM     66  C   UNL     1       1.703 -15.355   3.827  1.00  0.00     0.009 A 
ATOM     67  C   UNL     1       1.757 -12.947   4.029  1.00  0.00     0.009 A 
ATOM     68  C   UNL     1       2.896 -15.440   4.549  1.00  0.00     0.001 A 
ATOM     69  C   UNL     1       2.967 -13.034   4.722  1.00  0.00     0.001 A 
ATOM     70  C   UNL     1       3.529 -14.280   4.992  1.00  0.00     0.000 A 
ENDBRANCH  46  65
BRANCH  58  71
ATOM     71  C   UNL     1      -5.342 -16.195   5.133  1.00  0.00    -0.014 A 
ATOM     72  C   UNL     1      -5.433 -15.617   6.410  1.00  0.00     0.009 A 
ATOM     73  C   UNL     1      -5.805 -17.507   4.948  1.00  0.00     0.009 A 
ATOM     74  C   UNL     1      -5.930 -16.357   7.486  1.00  0.00     0.001 A 
ATOM     75  C   UNL     1      -6.335 -18.231   6.017  1.00  0.00     0.001 A 
ATOM     76  C   UNL     1      -6.384 -17.661   7.287  1.00  0.00     0.000 A 
ENDBRANCH  58  71
ENDBRANCH  32  33
ENDBRANCH  24  27
ENDBRANCH  22  23
ENDBRANCH  21  22
ENDBRANCH   1  21
TORSDOF 15
