REMARK SMILES CC(C)n1c2c(c3ccccc31)[C@@H](c1ccccc1)N(CC(=O)NCCCCNC(=O)c1ccc(-c3c4nc(c(-c5ccccc5)c5ccc([nH]5)c(-c5ccccc5)c5nc(c(-c6ccccc6)c6ccc3[nH]6)C=C5)C=C4)cc1)C2=O
REMARK SMILES IDX 26 1 25 2 24 3 22 4 23 5 21 7 20 8 4 9 5 10 12 11 6 12 80 13
REMARK SMILES IDX 7 14 11 15 13 16 81 17 8 18 10 19 9 20 2 21 1 22 3 23 14 24
REMARK SMILES IDX 15 25 19 26 16 27 18 28 17 29 27 30 28 31 29 32 30 33 31 35
REMARK SMILES IDX 32 36 33 37 79 38 34 39 78 40 35 41 36 42 37 43 72 44 38 45
REMARK SMILES IDX 77 46 71 47 73 48 39 49 76 50 70 51 69 52 40 54 62 55 47 56
REMARK SMILES IDX 61 57 48 58 51 59 60 60 74 61 49 62 50 63 59 65 75 66 52 67
REMARK SMILES IDX 41 68 42 69 46 70 43 71 45 72 44 73 63 74 64 75 68 76 65 77
REMARK SMILES IDX 67 78 66 79 53 80 54 81 58 82 55 83 57 84 56 85
REMARK H PARENT 24 6 29 34 73 53 51 64
REMARK Flexibility Score: inf
ROOT
ATOM      1  C   UNL     1      -2.230  -2.705   4.520  1.00  0.00     0.023 C 
ENDROOT
BRANCH   1   2
ATOM      2  C   UNL     1      -2.449  -4.201   4.290  1.00  0.00     0.116 C 
BRANCH   2   3
ATOM      3  N   UNL     1      -3.853  -4.524   4.165  1.00  0.00    -0.355 N 
ATOM      4  C   UNL     1      -4.522  -4.923   3.043  1.00  0.00     0.239 C 
ATOM      5  O   UNL     1      -5.739  -5.109   3.117  1.00  0.00    -0.273 OA
ATOM      6  H   UNL     1      -4.390  -4.449   4.986  1.00  0.00     0.163 HD
BRANCH   4   7
ATOM      7  C   UNL     1      -3.770  -5.081   1.715  1.00  0.00     0.220 C 
BRANCH   7   8
ATOM      8  N   UNL     1      -3.380  -3.788   1.179  1.00  0.00    -0.317 N 
ATOM      9  N   UNL     1      -1.324  -0.869   1.032  1.00  0.00    -0.334 N 
ATOM     10  C   UNL     1      -2.145  -1.951   0.988  1.00  0.00     0.114 A 
ATOM     11  C   UNL     1      -2.131   0.272   1.083  1.00  0.00     0.049 A 
ATOM     12  C   UNL     1      -3.451  -1.546   0.955  1.00  0.00     0.018 A 
ATOM     13  C   UNL     1      -2.053  -3.368   1.083  1.00  0.00     0.272 C 
ATOM     14  C   UNL     1      -3.478  -0.148   1.050  1.00  0.00     0.006 A 
ATOM     15  C   UNL     1      -1.813   1.638   1.169  1.00  0.00     0.027 A 
ATOM     16  C   UNL     1      -4.374  -2.709   0.927  1.00  0.00     0.150 C 
ATOM     17  O   UNL     1      -1.043  -4.052   1.191  1.00  0.00    -0.267 OA
ATOM     18  C   UNL     1      -4.510   0.805   1.116  1.00  0.00     0.011 A 
ATOM     19  C   UNL     1      -2.857   2.568   1.223  1.00  0.00     0.002 A 
ATOM     20  C   UNL     1      -4.186   2.160   1.200  1.00  0.00     0.001 A 
BRANCH   9  21
ATOM     21  C   UNL     1       0.136  -0.935   1.061  1.00  0.00     0.082 C 
ATOM     22  C   UNL     1       0.777  -0.252  -0.148  1.00  0.00     0.031 C 
ATOM     23  C   UNL     1       0.727  -0.435   2.380  1.00  0.00     0.031 C 
ENDBRANCH   9  21
BRANCH  16  24
ATOM     24  C   UNL     1      -5.002  -2.847  -0.451  1.00  0.00    -0.021 A 
ATOM     25  C   UNL     1      -5.977  -3.847  -0.636  1.00  0.00     0.006 A 
ATOM     26  C   UNL     1      -4.641  -2.084  -1.578  1.00  0.00     0.006 A 
ATOM     27  C   UNL     1      -6.531  -4.100  -1.894  1.00  0.00     0.000 A 
ATOM     28  C   UNL     1      -5.213  -2.320  -2.831  1.00  0.00     0.000 A 
ATOM     29  C   UNL     1      -6.147  -3.337  -2.992  1.00  0.00     0.000 A 
ENDBRANCH  16  24
ENDBRANCH   7   8
ENDBRANCH   4   7
ENDBRANCH   2   3
ENDBRANCH   1   2
BRANCH   1  30
ATOM     30  C   UNL     1      -2.556  -2.222   5.939  1.00  0.00     0.023 C 
BRANCH  30  31
ATOM     31  C   UNL     1      -1.955  -3.095   7.040  1.00  0.00     0.116 C 
BRANCH  31  32
ATOM     32  N   UNL     1      -0.522  -3.273   6.907  1.00  0.00    -0.352 N 
ATOM     33  C   UNL     1       0.578  -2.638   7.402  1.00  0.00     0.251 C 
ATOM     34  H   UNL     1      -0.289  -4.030   6.323  1.00  0.00     0.163 HD
ATOM     35  O   UNL     1       1.669  -3.151   7.142  1.00  0.00    -0.269 OA
BRANCH  33  36
ATOM     36  C   UNL     1       0.552  -1.347   8.131  1.00  0.00     0.039 A 
ATOM     37  C   UNL     1      -0.597  -0.654   8.513  1.00  0.00     0.014 A 
ATOM     38  C   UNL     1       1.808  -0.749   8.341  1.00  0.00     0.014 A 
ATOM     39  C   UNL     1      -0.515   0.665   8.921  1.00  0.00     0.010 A 
ATOM     40  C   UNL     1       1.901   0.557   8.785  1.00  0.00     0.010 A 
ATOM     41  C   UNL     1       0.731   1.282   8.982  1.00  0.00    -0.014 A 
BRANCH  41  42
ATOM     42  C   UNL     1       0.768   2.699   9.304  1.00  0.00     0.031 A 
ATOM     43  C   UNL     1       0.258   3.047  10.662  1.00  0.00     0.074 A 
ATOM     44  C   UNL     1       1.341   3.577   8.457  1.00  0.00     0.049 A 
ATOM     45  N   UNL     1      -0.617   3.939  10.997  1.00  0.00    -0.248 NA
ATOM     46  C   UNL     1       0.720   2.210  11.786  1.00  0.00     0.031 C 
ATOM     47  C   UNL     1       2.097   3.290   7.231  1.00  0.00     0.029 A 
ATOM     48  N   UNL     1       1.497   4.918   8.595  1.00  0.00    -0.354 N 
ATOM     49  C   UNL     1      -0.705   3.886  12.389  1.00  0.00     0.074 A 
ATOM     50  C   UNL     1       0.038   2.726  12.806  1.00  0.00     0.031 C 
ATOM     51  C   UNL     1       2.859   4.362   6.918  1.00  0.00     0.029 A 
ATOM     52  C   UNL     1       2.523   5.447   7.821  1.00  0.00     0.049 A 
ATOM     53  H   UNL     1       0.935   5.466   9.190  1.00  0.00     0.167 HD
ATOM     54  C   UNL     1      -1.214   4.908  13.129  1.00  0.00     0.031 A 
ATOM     55  C   UNL     1       3.119   6.653   7.993  1.00  0.00     0.031 A 
ATOM     56  C   UNL     1      -2.075   5.758  12.356  1.00  0.00     0.049 A 
ATOM     57  C   UNL     1       2.215   7.477   8.829  1.00  0.00     0.074 A 
ATOM     58  C   UNL     1      -3.280   5.572  11.709  1.00  0.00     0.029 A 
ATOM     59  N   UNL     1      -1.547   6.915  11.839  1.00  0.00    -0.354 N 
ATOM     60  N   UNL     1       1.037   7.874   8.441  1.00  0.00    -0.248 NA
ATOM     61  C   UNL     1       2.431   7.457  10.268  1.00  0.00     0.031 C 
ATOM     62  C   UNL     1      -3.163   6.321  10.504  1.00  0.00     0.029 A 
ATOM     63  C   UNL     1      -1.931   6.978  10.524  1.00  0.00     0.049 A 
ATOM     64  H   UNL     1      -0.997   7.575  12.321  1.00  0.00     0.167 HD
ATOM     65  C   UNL     1       0.234   7.745   9.565  1.00  0.00     0.074 A 
ATOM     66  C   UNL     1       1.164   7.558  10.679  1.00  0.00     0.031 C 
ATOM     67  C   UNL     1      -1.108   7.513   9.460  1.00  0.00     0.031 A 
BRANCH  54  68
ATOM     68  C   UNL     1      -0.640   5.318  14.461  1.00  0.00    -0.014 A 
ATOM     69  C   UNL     1       0.618   4.878  14.922  1.00  0.00     0.009 A 
ATOM     70  C   UNL     1      -1.232   6.378  15.170  1.00  0.00     0.009 A 
ATOM     71  C   UNL     1       1.260   5.465  16.014  1.00  0.00     0.001 A 
ATOM     72  C   UNL     1      -0.573   6.997  16.241  1.00  0.00     0.001 A 
ATOM     73  C   UNL     1       0.675   6.543  16.658  1.00  0.00     0.000 A 
ENDBRANCH  54  68
BRANCH  55  74
ATOM     74  C   UNL     1       4.570   6.941   7.894  1.00  0.00    -0.014 A 
ATOM     75  C   UNL     1       5.511   5.939   8.201  1.00  0.00     0.009 A 
ATOM     76  C   UNL     1       5.034   8.262   7.794  1.00  0.00     0.009 A 
ATOM     77  C   UNL     1       6.855   6.247   8.436  1.00  0.00     0.001 A 
ATOM     78  C   UNL     1       6.381   8.571   8.030  1.00  0.00     0.001 A 
ATOM     79  C   UNL     1       7.287   7.567   8.366  1.00  0.00     0.000 A 
ENDBRANCH  55  74
BRANCH  67  80
ATOM     80  C   UNL     1      -1.742   7.545   8.086  1.00  0.00    -0.014 A 
ATOM     81  C   UNL     1      -2.882   8.341   7.899  1.00  0.00     0.009 A 
ATOM     82  C   UNL     1      -1.382   6.655   7.056  1.00  0.00     0.009 A 
ATOM     83  C   UNL     1      -3.651   8.238   6.737  1.00  0.00     0.001 A 
ATOM     84  C   UNL     1      -2.138   6.568   5.881  1.00  0.00     0.001 A 
ATOM     85  C   UNL     1      -3.280   7.351   5.729  1.00  0.00     0.000 A 
ENDBRANCH  67  80
ENDBRANCH  41  42
ENDBRANCH  33  36
ENDBRANCH  31  32
ENDBRANCH  30  31
ENDBRANCH   1  30
TORSDOF 14
