REMARK SMILES CC(C)(CC(=O)NCCCCNC(=O)c1ccc(-c2c3nc(c(-c4ccccc4)c4ccc([nH]4)c(-c4ccccc4)c4nc(c(-c5ccccc5)c5ccc2[nH]5)C=C4)C=C3)cc1)CC(=O)N1CCN(c2nc3ccc(Cl)cc3s2)CC1
REMARK SMILES IDX 8 1 7 2 5 3 6 4 4 6 2 7 1 8 3 9 63 10 64 11 65 12 66 13
REMARK SMILES IDX 67 14 81 15 68 16 80 17 69 18 70 19 71 20 79 21 72 22 78 23
REMARK SMILES IDX 73 24 77 25 74 26 75 27 76 28 9 29 10 30 11 31 12 32 13 33
REMARK SMILES IDX 14 35 15 36 16 37 62 38 17 39 61 40 18 41 19 42 20 43 55 44
REMARK SMILES IDX 21 45 60 46 54 47 56 48 22 49 59 50 53 51 52 52 23 54 45 55
REMARK SMILES IDX 30 56 44 57 31 58 34 59 43 60 57 61 32 62 33 63 42 65 58 66
REMARK SMILES IDX 35 67 24 68 25 69 29 70 26 71 28 72 27 73 46 74 47 75 51 76
REMARK SMILES IDX 48 77 50 78 49 79 36 80 37 81 41 82 38 83 40 84 39 85
REMARK H PARENT 7 5 12 34 56 53 34 64
REMARK Flexibility Score: inf
ROOT
ATOM      1  C   UNL     1       0.097  -1.002   1.610  1.00  0.00     0.116 C 
ENDROOT
BRANCH   1   2
ATOM      2  N   UNL     1      -0.941  -0.353   0.852  1.00  0.00    -0.356 N 
ATOM      3  C   UNL     1      -1.190  -0.537  -0.477  1.00  0.00     0.220 C 
ATOM      4  O   UNL     1      -2.355  -0.552  -0.881  1.00  0.00    -0.275 OA
ATOM      5  H   UNL     1      -1.522   0.278   1.335  1.00  0.00     0.163 HD
BRANCH   3   6
ATOM      6  C   UNL     1      -0.057  -0.667  -1.456  1.00  0.00     0.107 C 
BRANCH   6   7
ATOM      7  C   UNL     1       0.931   0.528  -1.618  1.00  0.00    -0.018 C 
ATOM      8  C   UNL     1       2.201   0.322  -0.767  1.00  0.00     0.012 C 
ATOM      9  C   UNL     1       1.438   0.399  -3.096  1.00  0.00     0.012 C 
BRANCH   7  10
ATOM     10  C   UNL     1       0.286   1.964  -1.513  1.00  0.00     0.107 C 
BRANCH  10  11
ATOM     11  C   UNL     1      -0.105   2.738  -0.213  1.00  0.00     0.223 C 
ATOM     12  O   UNL     1       0.737   3.071   0.619  1.00  0.00    -0.275 OA
ATOM     13  N   UNL     1      -1.395   3.269  -0.203  1.00  0.00    -0.339 N 
ATOM     14  C   UNL     1      -1.752   4.675   0.038  1.00  0.00     0.141 C 
ATOM     15  C   UNL     1      -2.556   2.420  -0.094  1.00  0.00     0.141 C 
ATOM     16  C   UNL     1      -3.041   5.130  -0.778  1.00  0.00     0.140 C 
ATOM     17  C   UNL     1      -3.475   2.721  -1.254  1.00  0.00     0.140 C 
ATOM     18  N   UNL     1      -4.033   4.051  -0.994  1.00  0.00    -0.345 N 
BRANCH  18  19
ATOM     19  C   UNL     1      -5.314   4.049  -0.527  1.00  0.00     0.186 A 
ATOM     20  N   UNL     1      -5.814   2.993   0.080  1.00  0.00    -0.220 NA
ATOM     21  S   UNL     1      -6.482   5.269  -0.868  1.00  0.00    -0.097 S 
ATOM     22  C   UNL     1      -7.187   3.006   0.060  1.00  0.00     0.084 A 
ATOM     23  C   UNL     1      -7.758   4.170  -0.452  1.00  0.00     0.058 A 
ATOM     24  C   UNL     1      -8.020   1.942   0.464  1.00  0.00     0.031 A 
ATOM     25  C   UNL     1      -9.152   4.305  -0.581  1.00  0.00     0.042 A 
ATOM     26  C   UNL     1      -9.405   2.054   0.320  1.00  0.00     0.023 A 
ATOM     27  C   UNL     1      -9.955   3.221  -0.198  1.00  0.00     0.042 A 
ATOM     28  Cl  UNL     1     -11.665   3.328  -0.388  1.00  0.00    -0.084 Cl
ENDBRANCH  18  19
ENDBRANCH  10  11
ENDBRANCH   7  10
ENDBRANCH   6   7
ENDBRANCH   3   6
ENDBRANCH   1   2
BRANCH   1  29
ATOM     29  C   UNL     1       1.063  -0.053   2.309  1.00  0.00     0.023 C 
BRANCH  29  30
ATOM     30  C   UNL     1       0.546   0.688   3.534  1.00  0.00     0.023 C 
BRANCH  30  31
ATOM     31  C   UNL     1      -0.152  -0.178   4.566  1.00  0.00     0.116 C 
BRANCH  31  32
ATOM     32  N   UNL     1       0.563  -1.413   4.854  1.00  0.00    -0.352 N 
ATOM     33  C   UNL     1       0.881  -1.998   6.052  1.00  0.00     0.251 C 
ATOM     34  H   UNL     1       0.867  -1.909   4.059  1.00  0.00     0.163 HD
ATOM     35  O   UNL     1       1.602  -2.984   6.077  1.00  0.00    -0.269 OA
BRANCH  33  36
ATOM     36  C   UNL     1       0.373  -1.413   7.307  1.00  0.00     0.039 A 
ATOM     37  C   UNL     1       1.230  -1.358   8.407  1.00  0.00     0.014 A 
ATOM     38  C   UNL     1      -0.929  -0.919   7.401  1.00  0.00     0.014 A 
ATOM     39  C   UNL     1       0.792  -0.760   9.586  1.00  0.00     0.010 A 
ATOM     40  C   UNL     1      -1.324  -0.224   8.535  1.00  0.00     0.010 A 
ATOM     41  C   UNL     1      -0.477  -0.159   9.648  1.00  0.00    -0.014 A 
BRANCH  41  42
ATOM     42  C   UNL     1      -0.930   0.520  10.884  1.00  0.00     0.031 A 
ATOM     43  C   UNL     1      -2.129   0.009  11.633  1.00  0.00     0.074 A 
ATOM     44  C   UNL     1      -0.268   1.610  11.316  1.00  0.00     0.049 A 
ATOM     45  N   UNL     1      -2.643   0.442  12.757  1.00  0.00    -0.248 NA
ATOM     46  C   UNL     1      -2.866  -1.117  11.034  1.00  0.00     0.031 C 
ATOM     47  C   UNL     1       0.872   2.235  10.639  1.00  0.00     0.029 A 
ATOM     48  N   UNL     1      -0.449   2.377  12.438  1.00  0.00    -0.354 N 
ATOM     49  C   UNL     1      -3.761  -0.350  12.989  1.00  0.00     0.074 A 
ATOM     50  C   UNL     1      -3.893  -1.242  11.860  1.00  0.00     0.031 C 
ATOM     51  C   UNL     1       1.324   3.252  11.389  1.00  0.00     0.029 A 
ATOM     52  C   UNL     1       0.483   3.377  12.574  1.00  0.00     0.049 A 
ATOM     53  H   UNL     1      -1.177   2.226  13.083  1.00  0.00     0.167 HD
ATOM     54  C   UNL     1      -4.587  -0.357  14.061  1.00  0.00     0.031 A 
ATOM     55  C   UNL     1       0.648   4.285  13.553  1.00  0.00     0.031 A 
ATOM     56  C   UNL     1      -4.449   0.530  15.185  1.00  0.00     0.049 A 
ATOM     57  C   UNL     1      -0.283   4.257  14.732  1.00  0.00     0.074 A 
ATOM     58  C   UNL     1      -5.200   0.575  16.346  1.00  0.00     0.029 A 
ATOM     59  N   UNL     1      -3.497   1.533  15.284  1.00  0.00    -0.354 N 
ATOM     60  N   UNL     1      -1.286   3.447  14.978  1.00  0.00    -0.248 NA
ATOM     61  C   UNL     1      -0.045   5.258  15.780  1.00  0.00     0.031 C 
ATOM     62  C   UNL     1      -4.739   1.644  17.121  1.00  0.00     0.029 A 
ATOM     63  C   UNL     1      -3.656   2.220  16.475  1.00  0.00     0.049 A 
ATOM     64  H   UNL     1      -2.809   1.728  14.607  1.00  0.00     0.167 HD
ATOM     65  C   UNL     1      -1.779   3.822  16.220  1.00  0.00     0.074 A 
ATOM     66  C   UNL     1      -0.947   4.913  16.686  1.00  0.00     0.031 C 
ATOM     67  C   UNL     1      -2.825   3.311  16.915  1.00  0.00     0.031 A 
BRANCH  54  68
ATOM     68  C   UNL     1      -5.715  -1.353  14.060  1.00  0.00    -0.014 A 
ATOM     69  C   UNL     1      -5.471  -2.734  14.159  1.00  0.00     0.009 A 
ATOM     70  C   UNL     1      -7.043  -0.906  13.983  1.00  0.00     0.009 A 
ATOM     71  C   UNL     1      -6.529  -3.645  14.140  1.00  0.00     0.001 A 
ATOM     72  C   UNL     1      -8.101  -1.817  13.999  1.00  0.00     0.001 A 
ATOM     73  C   UNL     1      -7.843  -3.186  14.067  1.00  0.00     0.000 A 
ENDBRANCH  54  68
BRANCH  55  74
ATOM     74  C   UNL     1       1.756   5.274  13.477  1.00  0.00    -0.014 A 
ATOM     75  C   UNL     1       2.835   5.209  14.371  1.00  0.00     0.009 A 
ATOM     76  C   UNL     1       1.736   6.293  12.513  1.00  0.00     0.009 A 
ATOM     77  C   UNL     1       3.853   6.164  14.324  1.00  0.00     0.001 A 
ATOM     78  C   UNL     1       2.772   7.227  12.446  1.00  0.00     0.001 A 
ATOM     79  C   UNL     1       3.823   7.169  13.359  1.00  0.00     0.000 A 
ENDBRANCH  55  74
BRANCH  67  80
ATOM     80  C   UNL     1      -3.100   3.909  18.268  1.00  0.00    -0.014 A 
ATOM     81  C   UNL     1      -3.584   5.220  18.406  1.00  0.00     0.009 A 
ATOM     82  C   UNL     1      -2.878   3.142  19.422  1.00  0.00     0.009 A 
ATOM     83  C   UNL     1      -3.785   5.767  19.675  1.00  0.00     0.001 A 
ATOM     84  C   UNL     1      -3.117   3.678  20.687  1.00  0.00     0.001 A 
ATOM     85  C   UNL     1      -3.555   4.995  20.813  1.00  0.00     0.000 A 
ENDBRANCH  67  80
ENDBRANCH  41  42
ENDBRANCH  33  36
ENDBRANCH  31  32
ENDBRANCH  30  31
ENDBRANCH  29  30
ENDBRANCH   1  29
TORSDOF 15
