REMARK SMILES O=C(NCCCCNC(=O)c1cc(-c2ccn(C(F)F)c(=O)c2)ccc1O)c1ccc(-c2c3nc(c(-c4ccccc4)c4ccc([nH]4)c(-c4ccccc4)c4nc(c(-c5ccccc5)c5ccc2[nH]5)C=C4)C=C3)cc1
REMARK SMILES IDX 5 1 4 2 3 3 1 4 2 5 28 7 29 8 75 9 30 10 74 11 31 12 32 13
REMARK SMILES IDX 33 14 68 15 34 16 73 17 67 18 69 19 35 20 72 21 66 22 65 23
REMARK SMILES IDX 36 25 58 26 43 27 57 28 44 29 47 30 56 31 70 32 45 33 46 34
REMARK SMILES IDX 55 36 71 37 48 38 37 39 38 40 42 41 39 42 41 43 40 44 59 45
REMARK SMILES IDX 60 46 64 47 61 48 63 49 62 50 49 51 50 52 54 53 51 54 53 55
REMARK SMILES IDX 52 56 6 57 7 58 8 59 9 60 10 62 11 63 12 64 26 65 13 66
REMARK SMILES IDX 25 67 24 68 27 69 14 71 15 72 23 73 16 74 21 75 17 76 22 77
REMARK SMILES IDX 18 78 19 79 20 80
REMARK H PARENT 3 6 69 24 47 35 8 61 27 70
REMARK Flexibility Score: inf
ROOT
ATOM      1  C   UNL     1       4.956  -1.107   2.202  1.00  0.00     0.023 C 
ENDROOT
BRANCH   1   2
ATOM      2  C   UNL     1       4.592  -0.894   0.736  1.00  0.00     0.116 C 
BRANCH   2   3
ATOM      3  N   UNL     1       3.155  -0.880   0.517  1.00  0.00    -0.352 N 
ATOM      4  O   UNL     1       1.128  -0.021   0.065  1.00  0.00    -0.269 OA
ATOM      5  C   UNL     1       2.350   0.102   0.001  1.00  0.00     0.251 C 
ATOM      6  H   UNL     1       2.687  -1.705   0.781  1.00  0.00     0.163 HD
BRANCH   5   7
ATOM      7  C   UNL     1       2.926   1.307  -0.636  1.00  0.00     0.039 A 
ATOM      8  C   UNL     1       2.307   2.544  -0.419  1.00  0.00     0.014 A 
ATOM      9  C   UNL     1       4.011   1.218  -1.511  1.00  0.00     0.014 A 
ATOM     10  C   UNL     1       2.783   3.689  -1.064  1.00  0.00     0.010 A 
ATOM     11  C   UNL     1       4.527   2.369  -2.102  1.00  0.00     0.010 A 
ATOM     12  C   UNL     1       3.899   3.610  -1.910  1.00  0.00    -0.014 A 
BRANCH  12  13
ATOM     13  C   UNL     1       4.366   4.778  -2.699  1.00  0.00     0.031 A 
ATOM     14  C   UNL     1       4.240   4.739  -4.199  1.00  0.00     0.074 A 
ATOM     15  C   UNL     1       4.941   5.835  -2.096  1.00  0.00     0.049 A 
ATOM     16  N   UNL     1       4.729   5.562  -5.090  1.00  0.00    -0.248 NA
ATOM     17  C   UNL     1       3.483   3.612  -4.773  1.00  0.00     0.031 C 
ATOM     18  C   UNL     1       5.107   6.003  -0.653  1.00  0.00     0.029 A 
ATOM     19  N   UNL     1       5.508   6.967  -2.632  1.00  0.00    -0.354 N 
ATOM     20  C   UNL     1       4.365   5.037  -6.324  1.00  0.00     0.074 A 
ATOM     21  C   UNL     1       3.645   3.810  -6.074  1.00  0.00     0.031 C 
ATOM     22  C   UNL     1       5.729   7.171  -0.417  1.00  0.00     0.029 A 
ATOM     23  C   UNL     1       6.050   7.810  -1.691  1.00  0.00     0.049 A 
ATOM     24  H   UNL     1       5.524   7.156  -3.598  1.00  0.00     0.167 HD
ATOM     25  C   UNL     1       4.597   5.543  -7.556  1.00  0.00     0.031 A 
ATOM     26  C   UNL     1       6.748   8.954  -1.839  1.00  0.00     0.031 A 
ATOM     27  C   UNL     1       5.275   6.785  -7.802  1.00  0.00     0.049 A 
ATOM     28  C   UNL     1       7.016   9.484  -3.223  1.00  0.00     0.074 A 
ATOM     29  C   UNL     1       5.520   7.398  -9.018  1.00  0.00     0.029 A 
ATOM     30  N   UNL     1       5.797   7.609  -6.819  1.00  0.00    -0.354 N 
ATOM     31  N   UNL     1       6.654   8.984  -4.379  1.00  0.00    -0.248 NA
ATOM     32  C   UNL     1       7.786  10.734  -3.326  1.00  0.00     0.031 C 
ATOM     33  C   UNL     1       6.232   8.572  -8.774  1.00  0.00     0.029 A 
ATOM     34  C   UNL     1       6.378   8.718  -7.404  1.00  0.00     0.049 A 
ATOM     35  H   UNL     1       5.759   7.431  -5.851  1.00  0.00     0.167 HD
ATOM     36  C   UNL     1       7.125   9.868  -5.341  1.00  0.00     0.074 A 
ATOM     37  C   UNL     1       7.793  10.942  -4.638  1.00  0.00     0.031 C 
ATOM     38  C   UNL     1       7.015   9.792  -6.689  1.00  0.00     0.031 A 
BRANCH  25  39
ATOM     39  C   UNL     1       4.108   4.773  -8.748  1.00  0.00    -0.014 A 
ATOM     40  C   UNL     1       5.034   4.176  -9.619  1.00  0.00     0.009 A 
ATOM     41  C   UNL     1       2.744   4.740  -9.075  1.00  0.00     0.009 A 
ATOM     42  C   UNL     1       4.606   3.580 -10.806  1.00  0.00     0.001 A 
ATOM     43  C   UNL     1       2.317   4.119 -10.251  1.00  0.00     0.001 A 
ATOM     44  C   UNL     1       3.248   3.551 -11.120  1.00  0.00     0.000 A 
ENDBRANCH  25  39
BRANCH  26  45
ATOM     45  C   UNL     1       7.250   9.672  -0.636  1.00  0.00    -0.014 A 
ATOM     46  C   UNL     1       8.271   9.119   0.153  1.00  0.00     0.009 A 
ATOM     47  C   UNL     1       6.697  10.905  -0.258  1.00  0.00     0.009 A 
ATOM     48  C   UNL     1       8.716   9.775   1.303  1.00  0.00     0.001 A 
ATOM     49  C   UNL     1       7.165  11.575   0.875  1.00  0.00     0.001 A 
ATOM     50  C   UNL     1       8.168  11.006   1.659  1.00  0.00     0.000 A 
ENDBRANCH  26  45
BRANCH  38  51
ATOM     51  C   UNL     1       7.589  10.902  -7.521  1.00  0.00    -0.014 A 
ATOM     52  C   UNL     1       6.722  11.770  -8.206  1.00  0.00     0.009 A 
ATOM     53  C   UNL     1       8.967  10.980  -7.765  1.00  0.00     0.009 A 
ATOM     54  C   UNL     1       7.222  12.674  -9.144  1.00  0.00     0.001 A 
ATOM     55  C   UNL     1       9.466  11.902  -8.687  1.00  0.00     0.001 A 
ATOM     56  C   UNL     1       8.593  12.737  -9.385  1.00  0.00     0.000 A 
ENDBRANCH  38  51
ENDBRANCH  12  13
ENDBRANCH   5   7
ENDBRANCH   2   3
ENDBRANCH   1   2
BRANCH   1  57
ATOM     57  C   UNL     1       4.461  -2.417   2.818  1.00  0.00     0.023 C 
BRANCH  57  58
ATOM     58  C   UNL     1       4.837  -3.684   2.057  1.00  0.00     0.116 C 
BRANCH  58  59
ATOM     59  N   UNL     1       6.273  -3.862   1.937  1.00  0.00    -0.352 N 
ATOM     60  C   UNL     1       7.006  -5.005   2.138  1.00  0.00     0.255 C 
ATOM     61  H   UNL     1       6.785  -3.062   1.680  1.00  0.00     0.163 HD
ATOM     62  O   UNL     1       8.232  -4.980   2.038  1.00  0.00    -0.269 OA
BRANCH  60  63
ATOM     63  C   UNL     1       6.338  -6.250   2.561  1.00  0.00     0.082 A 
ATOM     64  C   UNL     1       6.734  -6.801   3.788  1.00  0.00     0.026 A 
ATOM     65  C   UNL     1       5.359  -6.884   1.788  1.00  0.00     0.128 A 
ATOM     66  C   UNL     1       6.110  -7.957   4.273  1.00  0.00    -0.017 A 
ATOM     67  C   UNL     1       4.729  -8.030   2.268  1.00  0.00     0.047 A 
ATOM     68  C   UNL     1       5.098  -8.557   3.508  1.00  0.00     0.012 A 
BRANCH  65  69
ATOM     69  O   UNL     1       5.007  -6.383   0.566  1.00  0.00    -0.507 OA
ATOM     70  H   UNL     1       5.426  -5.613   0.237  1.00  0.00     0.293 HD
ENDBRANCH  65  69
BRANCH  66  71
ATOM     71  C   UNL     1       6.508  -8.560   5.560  1.00  0.00    -0.011 A 
ATOM     72  C   UNL     1       6.997  -9.923   5.657  1.00  0.00     0.027 A 
ATOM     73  C   UNL     1       6.387  -7.832   6.684  1.00  0.00     0.080 A 
ATOM     74  C   UNL     1       7.302 -10.456   6.845  1.00  0.00     0.095 A 
ATOM     75  C   UNL     1       6.730  -8.410   8.014  1.00  0.00     0.255 A 
ATOM     76  N   UNL     1       7.169  -9.723   8.009  1.00  0.00    -0.258 N 
ATOM     77  O   UNL     1       6.594  -7.704   9.010  1.00  0.00    -0.269 OA
BRANCH  76  78
ATOM     78  C   UNL     1       7.479 -10.315   9.285  1.00  0.00     0.451 C 
ATOM     79  F   UNL     1       8.449  -9.621   9.927  1.00  0.00    -0.185 F 
ATOM     80  F   UNL     1       6.384 -10.345  10.084  1.00  0.00    -0.185 F 
ENDBRANCH  76  78
ENDBRANCH  66  71
ENDBRANCH  60  63
ENDBRANCH  58  59
ENDBRANCH  57  58
ENDBRANCH   1  57
TORSDOF 14
