REMARK SMILES C[C@H](NC(=O)c1ccc(C(C)(C)C)cc1)C(=O)N[C@@H](C(=O)NCCCCNC(=O)c1ccc(-c2c3nc(c(-c4ccccc4)c4ccc([nH]4)c(-c4ccccc4)c4nc(c(-c5ccccc5)c5ccc2[nH]5)C=C4)C=C3)cc1)[C@H](C)O
REMARK SMILES IDX 23 1 22 2 20 3 21 4 19 6 18 7 16 8 17 9 2 11 1 12 3 13 4 14
REMARK SMILES IDX 5 16 6 17 7 18 15 19 8 20 14 21 9 22 10 23 11 24 12 25 13 26
REMARK SMILES IDX 78 27 79 28 80 29 24 31 25 32 26 33 27 34 28 35 29 37 30 38
REMARK SMILES IDX 31 39 77 40 32 41 76 42 33 43 34 44 35 45 70 46 36 47 75 48
REMARK SMILES IDX 69 49 71 50 37 51 74 52 68 53 67 54 38 56 60 57 45 58 59 59
REMARK SMILES IDX 46 60 49 61 58 62 72 63 47 64 48 65 57 67 73 68 50 69 39 70
REMARK SMILES IDX 40 71 44 72 41 73 43 74 42 75 61 76 62 77 66 78 63 79 65 80
REMARK SMILES IDX 64 81 51 82 52 83 56 84 53 85 55 86 54 87
REMARK H PARENT 22 5 18 10 3 15 80 30 27 36 71 55 49 66
REMARK Flexibility Score: inf
ROOT
ATOM      1  C   UNL     1       0.370  -6.290  -0.641  1.00  0.00     0.116 C 
ENDROOT
BRANCH   1   2
ATOM      2  N   UNL     1       1.004  -5.533   0.414  1.00  0.00    -0.354 N 
ATOM      3  C   UNL     1       0.473  -4.517   1.160  1.00  0.00     0.245 C 
ATOM      4  O   UNL     1       1.155  -4.083   2.093  1.00  0.00    -0.273 OA
ATOM      5  H   UNL     1       1.935  -5.779   0.621  1.00  0.00     0.163 HD
BRANCH   3   6
ATOM      6  C   UNL     1      -0.971  -4.004   0.877  1.00  0.00     0.200 C 
BRANCH   6   7
ATOM      7  N   UNL     1      -1.044  -3.515  -0.510  1.00  0.00    -0.340 N 
ATOM      8  C   UNL     1      -1.952  -3.716  -1.503  1.00  0.00     0.243 C 
ATOM      9  O   UNL     1      -1.616  -3.367  -2.640  1.00  0.00    -0.273 OA
ATOM     10  H   UNL     1      -0.293  -2.931  -0.768  1.00  0.00     0.164 HD
BRANCH   8  11
ATOM     11  C   UNL     1      -3.300  -4.438  -1.280  1.00  0.00     0.168 C 
ATOM     12  C   UNL     1      -4.124  -3.735  -0.214  1.00  0.00     0.041 C 
BRANCH  11  13
ATOM     13  N   UNL     1      -3.048  -5.885  -1.196  1.00  0.00    -0.341 N 
ATOM     14  C   UNL     1      -3.337  -6.835  -0.255  1.00  0.00     0.251 C 
ATOM     15  H   UNL     1      -2.572  -6.243  -1.979  1.00  0.00     0.164 HD
ATOM     16  O   UNL     1      -2.633  -7.838  -0.155  1.00  0.00    -0.269 OA
BRANCH  14  17
ATOM     17  C   UNL     1      -4.513  -6.673   0.606  1.00  0.00     0.039 A 
ATOM     18  C   UNL     1      -4.383  -6.688   1.991  1.00  0.00     0.014 A 
ATOM     19  C   UNL     1      -5.758  -6.485   0.011  1.00  0.00     0.014 A 
ATOM     20  C   UNL     1      -5.496  -6.386   2.781  1.00  0.00     0.005 A 
ATOM     21  C   UNL     1      -6.862  -6.178   0.805  1.00  0.00     0.005 A 
ATOM     22  C   UNL     1      -6.744  -6.069   2.202  1.00  0.00    -0.043 A 
BRANCH  22  23
ATOM     23  C   UNL     1      -7.925  -5.619   3.079  1.00  0.00    -0.013 C 
ATOM     24  C   UNL     1      -8.469  -6.834   3.851  1.00  0.00     0.016 C 
ATOM     25  C   UNL     1      -7.472  -4.533   4.082  1.00  0.00     0.016 C 
ATOM     26  C   UNL     1      -9.089  -5.004   2.266  1.00  0.00     0.016 C 
ENDBRANCH  22  23
ENDBRANCH  14  17
ENDBRANCH  11  13
ENDBRANCH   8  11
ENDBRANCH   6   7
BRANCH   6  27
ATOM     27  C   UNL     1      -1.381  -2.920   1.912  1.00  0.00     0.143 C 
ATOM     28  C   UNL     1      -0.730  -1.556   1.692  1.00  0.00     0.041 C 
BRANCH  27  29
ATOM     29  O   UNL     1      -1.139  -3.353   3.253  1.00  0.00    -0.391 OA
ATOM     30  H   UNL     1      -0.185  -3.470   3.388  1.00  0.00     0.211 HD
ENDBRANCH  27  29
ENDBRANCH   6  27
ENDBRANCH   3   6
ENDBRANCH   1   2
BRANCH   1  31
ATOM     31  C   UNL     1       1.006  -6.024  -2.001  1.00  0.00     0.023 C 
BRANCH  31  32
ATOM     32  C   UNL     1       2.256  -6.862  -2.264  1.00  0.00     0.023 C 
BRANCH  32  33
ATOM     33  C   UNL     1       2.025  -8.370  -2.271  1.00  0.00     0.116 C 
BRANCH  33  34
ATOM     34  N   UNL     1       1.065  -8.808  -3.272  1.00  0.00    -0.352 N 
ATOM     35  C   UNL     1       1.078  -9.958  -4.021  1.00  0.00     0.251 C 
ATOM     36  H   UNL     1       0.308  -8.200  -3.434  1.00  0.00     0.163 HD
ATOM     37  O   UNL     1       0.246 -10.132  -4.911  1.00  0.00    -0.269 OA
BRANCH  35  38
ATOM     38  C   UNL     1       2.126 -10.971  -3.783  1.00  0.00     0.039 A 
ATOM     39  C   UNL     1       2.814 -11.497  -4.878  1.00  0.00     0.014 A 
ATOM     40  C   UNL     1       2.449 -11.378  -2.485  1.00  0.00     0.014 A 
ATOM     41  C   UNL     1       3.867 -12.387  -4.668  1.00  0.00     0.010 A 
ATOM     42  C   UNL     1       3.550 -12.202  -2.273  1.00  0.00     0.010 A 
ATOM     43  C   UNL     1       4.266 -12.721  -3.362  1.00  0.00    -0.014 A 
BRANCH  43  44
ATOM     44  C   UNL     1       5.423 -13.619  -3.128  1.00  0.00     0.031 A 
ATOM     45  C   UNL     1       5.225 -14.959  -2.475  1.00  0.00     0.074 A 
ATOM     46  C   UNL     1       6.661 -13.213  -3.471  1.00  0.00     0.049 A 
ATOM     47  N   UNL     1       6.112 -15.884  -2.205  1.00  0.00    -0.248 NA
ATOM     48  C   UNL     1       3.858 -15.295  -2.045  1.00  0.00     0.031 C 
ATOM     49  C   UNL     1       6.996 -11.914  -4.061  1.00  0.00     0.029 A 
ATOM     50  N   UNL     1       7.870 -13.855  -3.378  1.00  0.00    -0.354 N 
ATOM     51  C   UNL     1       5.414 -16.900  -1.565  1.00  0.00     0.074 A 
ATOM     52  C   UNL     1       4.044 -16.456  -1.435  1.00  0.00     0.031 C 
ATOM     53  C   UNL     1       8.314 -11.873  -4.314  1.00  0.00     0.029 A 
ATOM     54  C   UNL     1       8.921 -13.127  -3.879  1.00  0.00     0.049 A 
ATOM     55  H   UNL     1       7.974 -14.754  -2.989  1.00  0.00     0.167 HD
ATOM     56  C   UNL     1       5.865 -18.106  -1.145  1.00  0.00     0.031 A 
ATOM     57  C   UNL     1      10.226 -13.438  -3.987  1.00  0.00     0.031 A 
ATOM     58  C   UNL     1       7.224 -18.555  -1.286  1.00  0.00     0.049 A 
ATOM     59  C   UNL     1      10.700 -14.789  -3.529  1.00  0.00     0.074 A 
ATOM     60  C   UNL     1       7.768 -19.780  -0.942  1.00  0.00     0.029 A 
ATOM     61  N   UNL     1       8.254 -17.793  -1.814  1.00  0.00    -0.354 N 
ATOM     62  N   UNL     1      10.011 -15.769  -2.997  1.00  0.00    -0.248 NA
ATOM     63  C   UNL     1      12.129 -15.082  -3.707  1.00  0.00     0.031 C 
ATOM     64  C   UNL     1       9.138 -19.744  -1.223  1.00  0.00     0.029 A 
ATOM     65  C   UNL     1       9.434 -18.516  -1.792  1.00  0.00     0.049 A 
ATOM     66  H   UNL     1       8.160 -16.873  -2.155  1.00  0.00     0.167 HD
ATOM     67  C   UNL     1      10.914 -16.807  -2.809  1.00  0.00     0.074 A 
ATOM     68  C   UNL     1      12.196 -16.340  -3.296  1.00  0.00     0.031 C 
ATOM     69  C   UNL     1      10.701 -18.038  -2.283  1.00  0.00     0.031 A 
BRANCH  56  70
ATOM     70  C   UNL     1       4.870 -19.025  -0.493  1.00  0.00    -0.014 A 
ATOM     71  C   UNL     1       3.843 -19.629  -1.237  1.00  0.00     0.009 A 
ATOM     72  C   UNL     1       4.974 -19.311   0.877  1.00  0.00     0.009 A 
ATOM     73  C   UNL     1       2.918 -20.470  -0.614  1.00  0.00     0.001 A 
ATOM     74  C   UNL     1       4.066 -20.177   1.490  1.00  0.00     0.001 A 
ATOM     75  C   UNL     1       3.034 -20.747   0.747  1.00  0.00     0.000 A 
ENDBRANCH  56  70
BRANCH  57  76
ATOM     76  C   UNL     1      11.175 -12.468  -4.593  1.00  0.00    -0.014 A 
ATOM     77  C   UNL     1      11.720 -12.708  -5.864  1.00  0.00     0.009 A 
ATOM     78  C   UNL     1      11.544 -11.302  -3.906  1.00  0.00     0.009 A 
ATOM     79  C   UNL     1      12.638 -11.814  -6.421  1.00  0.00     0.001 A 
ATOM     80  C   UNL     1      12.440 -10.396  -4.477  1.00  0.00     0.001 A 
ATOM     81  C   UNL     1      12.994 -10.658  -5.729  1.00  0.00     0.000 A 
ENDBRANCH  57  76
BRANCH  69  82
ATOM     82  C   UNL     1      11.870 -18.981  -2.250  1.00  0.00    -0.014 A 
ATOM     83  C   UNL     1      12.936 -18.795  -1.356  1.00  0.00     0.009 A 
ATOM     84  C   UNL     1      11.886 -20.092  -3.108  1.00  0.00     0.009 A 
ATOM     85  C   UNL     1      14.014 -19.682  -1.351  1.00  0.00     0.001 A 
ATOM     86  C   UNL     1      12.951 -20.993  -3.081  1.00  0.00     0.001 A 
ATOM     87  C   UNL     1      14.019 -20.781  -2.210  1.00  0.00     0.000 A 
ENDBRANCH  69  82
ENDBRANCH  43  44
ENDBRANCH  35  38
ENDBRANCH  33  34
ENDBRANCH  32  33
ENDBRANCH  31  32
ENDBRANCH   1  31
TORSDOF 18
