REMARK SMILES COc1ccc2c(c1)c(Cc1nc(-c3ccc(C(=O)NCCCCNC(=O)c4ccc(-c5c6nc(c(-c7ccccc7)c7ccc([nH]7)c(-c7ccccc7)c7nc(c(-c8ccccc8)c8ccc5[nH]8)C=C7)C=C6)cc4)cc3)cs1)c(C)n2C(=O)c1ccc(Cl)cc1
REMARK SMILES IDX 21 1 20 2 18 3 19 4 17 6 14 7 15 8 77 9 16 10 76 11 13 12
REMARK SMILES IDX 11 13 12 14 79 15 78 16 10 17 9 18 3 19 4 20 8 21 5 22 7 23
REMARK SMILES IDX 6 24 82 25 80 26 81 27 2 28 1 29 83 30 84 31 85 32 86 33
REMARK SMILES IDX 91 34 87 35 90 36 88 37 89 38 22 39 23 40 24 41 25 42 26 43
REMARK SMILES IDX 27 45 28 46 29 47 75 48 30 49 74 50 31 51 32 52 33 53 68 54
REMARK SMILES IDX 34 55 73 56 67 57 69 58 35 59 72 60 66 61 65 62 36 64 58 65
REMARK SMILES IDX 43 66 57 67 44 68 47 69 56 70 70 71 45 72 46 73 55 75 71 76
REMARK SMILES IDX 48 77 37 78 38 79 42 80 39 81 41 82 40 83 59 84 60 85 64 86
REMARK SMILES IDX 61 87 63 88 62 89 49 90 50 91 54 92 51 93 53 94 52 95
REMARK H PARENT 20 5 25 44 69 63 47 74
REMARK Flexibility Score: inf
ROOT
ATOM      1  C   UNL     1      -4.239  -3.659  -5.084  1.00  0.00     0.116 C 
ENDROOT
BRANCH   1   2
ATOM      2  N   UNL     1      -3.192  -4.000  -6.030  1.00  0.00    -0.352 N 
ATOM      3  C   UNL     1      -2.147  -3.246  -6.516  1.00  0.00     0.251 C 
ATOM      4  O   UNL     1      -1.364  -3.767  -7.308  1.00  0.00    -0.269 OA
ATOM      5  H   UNL     1      -3.235  -4.919  -6.380  1.00  0.00     0.163 HD
BRANCH   3   6
ATOM      6  C   UNL     1      -1.999  -1.804  -6.181  1.00  0.00     0.039 A 
ATOM      7  C   UNL     1      -2.042   0.982  -5.811  1.00  0.00     0.001 A 
ATOM      8  C   UNL     1      -1.556   0.438  -7.005  1.00  0.00     0.011 A 
ATOM      9  C   UNL     1      -2.373   0.116  -4.761  1.00  0.00     0.011 A 
ATOM     10  C   UNL     1      -1.542  -0.948  -7.191  1.00  0.00     0.014 A 
ATOM     11  C   UNL     1      -2.316  -1.268  -4.932  1.00  0.00     0.014 A 
BRANCH   7  12
ATOM     12  C   UNL     1      -2.181   2.417  -5.617  1.00  0.00     0.081 A 
ATOM     13  C   UNL     1      -2.123   4.264  -4.403  1.00  0.00     0.098 A 
ATOM     14  N   UNL     1      -2.133   2.950  -4.349  1.00  0.00    -0.241 NA
ATOM     15  S   UNL     1      -2.415   4.928  -5.959  1.00  0.00    -0.126 S 
ATOM     16  C   UNL     1      -2.408   3.340  -6.618  1.00  0.00     0.095 A 
BRANCH  13  17
ATOM     17  C   UNL     1      -1.833   5.133  -3.216  1.00  0.00     0.105 C 
BRANCH  17  18
ATOM     18  C   UNL     1      -0.367   5.090  -2.856  1.00  0.00    -0.012 A 
ATOM     19  C   UNL     1       0.794   1.737  -1.422  1.00  0.00     0.119 A 
ATOM     20  C   UNL     1       2.097   2.124  -1.171  1.00  0.00     0.048 A 
ATOM     21  C   UNL     1      -0.096   2.654  -1.978  1.00  0.00     0.057 A 
ATOM     22  C   UNL     1       2.523   3.425  -1.462  1.00  0.00     0.031 A 
ATOM     23  C   UNL     1       0.318   3.966  -2.311  1.00  0.00     0.008 A 
ATOM     24  C   UNL     1       1.645   4.340  -2.088  1.00  0.00     0.057 A 
ATOM     25  N   UNL     1       1.821   5.649  -2.583  1.00  0.00    -0.280 N 
ATOM     26  C   UNL     1       0.561   6.115  -2.998  1.00  0.00     0.028 A 
ATOM     27  C   UNL     1       0.262   7.478  -3.540  1.00  0.00     0.065 C 
BRANCH  19  28
ATOM     28  O   UNL     1       0.296   0.482  -1.199  1.00  0.00    -0.497 OA
ATOM     29  C   UNL     1       0.803  -0.158  -0.033  1.00  0.00     0.278 C 
ENDBRANCH  19  28
BRANCH  25  30
ATOM     30  C   UNL     1       3.056   6.362  -2.640  1.00  0.00     0.262 C 
ATOM     31  O   UNL     1       3.056   7.550  -2.968  1.00  0.00    -0.268 OA
BRANCH  30  32
ATOM     32  C   UNL     1       4.378   5.812  -2.296  1.00  0.00     0.040 A 
ATOM     33  C   UNL     1       4.951   4.781  -3.050  1.00  0.00     0.015 A 
ATOM     34  C   UNL     1       5.029   6.322  -1.167  1.00  0.00     0.015 A 
ATOM     35  C   UNL     1       6.140   4.194  -2.608  1.00  0.00     0.021 A 
ATOM     36  C   UNL     1       6.221   5.739  -0.737  1.00  0.00     0.021 A 
ATOM     37  C   UNL     1       6.759   4.664  -1.446  1.00  0.00     0.041 A 
ATOM     38  Cl  UNL     1       8.183   3.893  -0.867  1.00  0.00    -0.084 Cl
ENDBRANCH  30  32
ENDBRANCH  25  30
ENDBRANCH  17  18
ENDBRANCH  13  17
ENDBRANCH   7  12
ENDBRANCH   3   6
ENDBRANCH   1   2
BRANCH   1  39
ATOM     39  C   UNL     1      -5.606  -4.237  -5.419  1.00  0.00     0.023 C 
BRANCH  39  40
ATOM     40  C   UNL     1      -5.709  -5.757  -5.505  1.00  0.00     0.023 C 
BRANCH  40  41
ATOM     41  C   UNL     1      -5.049  -6.546  -4.372  1.00  0.00     0.116 C 
BRANCH  41  42
ATOM     42  N   UNL     1      -5.431  -6.140  -3.034  1.00  0.00    -0.352 N 
ATOM     43  C   UNL     1      -6.391  -6.541  -2.147  1.00  0.00     0.251 C 
ATOM     44  H   UNL     1      -4.871  -5.410  -2.684  1.00  0.00     0.163 HD
ATOM     45  O   UNL     1      -6.266  -6.136  -0.988  1.00  0.00    -0.269 OA
BRANCH  43  46
ATOM     46  C   UNL     1      -7.603  -7.326  -2.498  1.00  0.00     0.039 A 
ATOM     47  C   UNL     1      -7.913  -7.788  -3.774  1.00  0.00     0.014 A 
ATOM     48  C   UNL     1      -8.560  -7.475  -1.476  1.00  0.00     0.014 A 
ATOM     49  C   UNL     1      -9.203  -8.201  -4.072  1.00  0.00     0.010 A 
ATOM     50  C   UNL     1      -9.841  -7.928  -1.757  1.00  0.00     0.010 A 
ATOM     51  C   UNL     1     -10.182  -8.200  -3.076  1.00  0.00    -0.014 A 
BRANCH  51  52
ATOM     52  C   UNL     1     -11.549  -8.493  -3.487  1.00  0.00     0.031 A 
ATOM     53  C   UNL     1     -11.756  -9.809  -4.152  1.00  0.00     0.074 A 
ATOM     54  C   UNL     1     -12.576  -7.650  -3.264  1.00  0.00     0.049 A 
ATOM     55  N   UNL     1     -12.193 -10.042  -5.347  1.00  0.00    -0.248 NA
ATOM     56  C   UNL     1     -11.329 -11.010  -3.419  1.00  0.00     0.031 C 
ATOM     57  C   UNL     1     -12.610  -6.449  -2.425  1.00  0.00     0.029 A 
ATOM     58  N   UNL     1     -13.865  -7.768  -3.683  1.00  0.00    -0.354 N 
ATOM     59  C   UNL     1     -12.224 -11.428  -5.483  1.00  0.00     0.074 A 
ATOM     60  C   UNL     1     -11.589 -11.969  -4.307  1.00  0.00     0.031 C 
ATOM     61  C   UNL     1     -13.898  -6.104  -2.196  1.00  0.00     0.029 A 
ATOM     62  C   UNL     1     -14.756  -6.955  -3.001  1.00  0.00     0.049 A 
ATOM     63  H   UNL     1     -14.140  -8.377  -4.405  1.00  0.00     0.167 HD
ATOM     64  C   UNL     1     -12.905 -12.054  -6.482  1.00  0.00     0.031 A 
ATOM     65  C   UNL     1     -16.107  -7.035  -3.040  1.00  0.00     0.031 A 
ATOM     66  C   UNL     1     -13.209 -11.174  -7.574  1.00  0.00     0.049 A 
ATOM     67  C   UNL     1     -16.479  -7.749  -4.283  1.00  0.00     0.074 A 
ATOM     68  C   UNL     1     -12.453 -10.490  -8.505  1.00  0.00     0.029 A 
ATOM     69  N   UNL     1     -14.459 -10.608  -7.619  1.00  0.00    -0.354 N 
ATOM     70  N   UNL     1     -16.280  -7.265  -5.476  1.00  0.00    -0.248 NA
ATOM     71  C   UNL     1     -16.674  -9.188  -4.218  1.00  0.00     0.031 C 
ATOM     72  C   UNL     1     -13.132  -9.252  -8.688  1.00  0.00     0.029 A 
ATOM     73  C   UNL     1     -14.285  -9.277  -7.900  1.00  0.00     0.049 A 
ATOM     74  H   UNL     1     -15.316 -11.070  -7.476  1.00  0.00     0.167 HD
ATOM     75  C   UNL     1     -15.899  -8.356  -6.243  1.00  0.00     0.074 A 
ATOM     76  C   UNL     1     -16.256  -9.524  -5.441  1.00  0.00     0.031 C 
ATOM     77  C   UNL     1     -15.082  -8.212  -7.329  1.00  0.00     0.031 A 
BRANCH  64  78
ATOM     78  C   UNL     1     -13.558 -13.401  -6.325  1.00  0.00    -0.014 A 
ATOM     79  C   UNL     1     -13.844 -13.963  -5.066  1.00  0.00     0.009 A 
ATOM     80  C   UNL     1     -14.143 -14.022  -7.442  1.00  0.00     0.009 A 
ATOM     81  C   UNL     1     -14.666 -15.082  -4.922  1.00  0.00     0.001 A 
ATOM     82  C   UNL     1     -15.001 -15.120  -7.299  1.00  0.00     0.001 A 
ATOM     83  C   UNL     1     -15.264 -15.647  -6.038  1.00  0.00     0.000 A 
ENDBRANCH  64  78
BRANCH  65  84
ATOM     84  C   UNL     1     -17.013  -6.949  -1.873  1.00  0.00    -0.014 A 
ATOM     85  C   UNL     1     -16.562  -7.370  -0.607  1.00  0.00     0.009 A 
ATOM     86  C   UNL     1     -18.387  -6.727  -2.039  1.00  0.00     0.009 A 
ATOM     87  C   UNL     1     -17.452  -7.593   0.447  1.00  0.00     0.001 A 
ATOM     88  C   UNL     1     -19.280  -6.950  -0.981  1.00  0.00     0.001 A 
ATOM     89  C   UNL     1     -18.814  -7.396   0.255  1.00  0.00     0.000 A 
ENDBRANCH  65  84
BRANCH  77  90
ATOM     90  C   UNL     1     -14.743  -6.811  -7.790  1.00  0.00    -0.014 A 
ATOM     91  C   UNL     1     -14.923  -6.488  -9.144  1.00  0.00     0.009 A 
ATOM     92  C   UNL     1     -14.067  -5.886  -6.973  1.00  0.00     0.009 A 
ATOM     93  C   UNL     1     -14.431  -5.289  -9.669  1.00  0.00     0.001 A 
ATOM     94  C   UNL     1     -13.596  -4.675  -7.493  1.00  0.00     0.001 A 
ATOM     95  C   UNL     1     -13.768  -4.383  -8.844  1.00  0.00     0.000 A 
ENDBRANCH  77  90
ENDBRANCH  51  52
ENDBRANCH  43  46
ENDBRANCH  41  42
ENDBRANCH  40  41
ENDBRANCH  39  40
ENDBRANCH   1  39
TORSDOF 17
