REMARK SMILES CC(C)OC(=O)c1c(NC(=O)[C@H]2[C@@H](C(=O)NCCCCNC(=O)c3ccc(-c4c5nc(c(-c6ccccc6)c6ccc([nH]6)c(-c6ccccc6)c6nc(c(-c7ccccc7)c7ccc4[nH]7)C=C6)C=C5)cc3)[C@@H]3C=C[C@H]2CC3)sc2c1CCC2
REMARK SMILES IDX 17 1 16 2 14 3 15 4 13 6 12 7 75 8 72 9 74 10 76 11 73 12
REMARK SMILES IDX 77 13 10 14 9 15 11 17 8 18 7 19 80 20 78 21 79 22 81 23
REMARK SMILES IDX 83 24 82 25 5 26 6 27 4 28 2 29 1 30 3 31 18 32 19 33 20 34
REMARK SMILES IDX 21 35 22 36 23 38 24 39 25 40 71 41 26 42 70 43 27 44 28 45
REMARK SMILES IDX 29 46 64 47 30 48 69 49 63 50 65 51 31 52 68 53 62 54 61 55
REMARK SMILES IDX 32 57 54 58 39 59 53 60 40 61 43 62 52 63 66 64 41 65 42 66
REMARK SMILES IDX 51 68 67 69 44 70 33 71 34 72 38 73 35 74 37 75 36 76 55 77
REMARK SMILES IDX 56 78 60 79 57 80 59 81 58 82 45 83 46 84 50 85 47 86 49 87
REMARK SMILES IDX 48 88
REMARK H PARENT 16 5 9 16 21 37 65 56 43 67
REMARK Flexibility Score: inf
ROOT
ATOM      1  C   UNL     1      -8.696   5.838   2.924  1.00  0.00     0.116 C 
ENDROOT
BRANCH   1   2
ATOM      2  N   UNL     1      -8.729   4.957   1.770  1.00  0.00    -0.356 N 
ATOM      3  C   UNL     1      -8.200   3.704   1.617  1.00  0.00     0.224 C 
ATOM      4  O   UNL     1      -8.583   3.050   0.648  1.00  0.00    -0.275 OA
ATOM      5  H   UNL     1      -9.201   5.313   0.983  1.00  0.00     0.163 HD
BRANCH   3   6
ATOM      6  C   UNL     1      -7.215   3.163   2.652  1.00  0.00     0.098 C 
ATOM      7  C   UNL     1      -6.250   2.010   2.173  1.00  0.00     0.099 C 
ATOM      8  C   UNL     1      -6.524   0.738   3.036  1.00  0.00     0.025 C 
ATOM      9  C   UNL     1      -7.970   2.701   3.931  1.00  0.00     0.025 C 
ATOM     10  C   UNL     1      -6.204   1.157   4.467  1.00  0.00    -0.027 C 
ATOM     11  C   UNL     1      -8.021   0.362   2.998  1.00  0.00     0.009 C 
ATOM     12  C   UNL     1      -6.931   2.193   4.916  1.00  0.00    -0.027 C 
ATOM     13  C   UNL     1      -8.875   1.504   3.581  1.00  0.00     0.009 C 
BRANCH   7  14
ATOM     14  C   UNL     1      -6.163   1.712   0.672  1.00  0.00     0.229 C 
ATOM     15  N   UNL     1      -5.788   2.658  -0.248  1.00  0.00    -0.317 N 
ATOM     16  H   UNL     1      -5.881   2.367  -1.184  1.00  0.00     0.170 HD
ATOM     17  O   UNL     1      -6.425   0.582   0.242  1.00  0.00    -0.274 OA
BRANCH  15  18
ATOM     18  C   UNL     1      -5.302   3.946  -0.103  1.00  0.00     0.110 A 
ATOM     19  C   UNL     1      -5.299   4.970  -1.055  1.00  0.00     0.098 A 
ATOM     20  C   UNL     1      -4.932   6.194  -0.417  1.00  0.00    -0.017 A 
ATOM     21  S   UNL     1      -4.446   4.413   1.309  1.00  0.00    -0.122 S 
ATOM     22  C   UNL     1      -4.573   6.008   0.887  1.00  0.00     0.011 A 
ATOM     23  C   UNL     1      -4.898   7.640  -0.758  1.00  0.00     0.038 C 
ATOM     24  C   UNL     1      -4.314   7.244   1.648  1.00  0.00     0.047 C 
ATOM     25  C   UNL     1      -4.168   8.261   0.483  1.00  0.00     0.010 C 
BRANCH  19  26
ATOM     26  C   UNL     1      -5.700   4.789  -2.440  1.00  0.00     0.341 C 
ATOM     27  O   UNL     1      -6.591   4.006  -2.781  1.00  0.00    -0.246 OA
BRANCH  26  28
ATOM     28  O   UNL     1      -4.921   5.501  -3.294  1.00  0.00    -0.459 OA
BRANCH  28  29
ATOM     29  C   UNL     1      -5.039   5.314  -4.723  1.00  0.00     0.170 C 
ATOM     30  C   UNL     1      -4.902   3.859  -5.170  1.00  0.00     0.052 C 
ATOM     31  C   UNL     1      -6.293   5.988  -5.262  1.00  0.00     0.052 C 
ENDBRANCH  28  29
ENDBRANCH  26  28
ENDBRANCH  19  26
ENDBRANCH  15  18
ENDBRANCH   7  14
ENDBRANCH   3   6
ENDBRANCH   1   2
BRANCH   1  32
ATOM     32  C   UNL     1      -8.460   7.311   2.584  1.00  0.00     0.023 C 
BRANCH  32  33
ATOM     33  C   UNL     1      -9.407   7.966   1.572  1.00  0.00     0.023 C 
BRANCH  33  34
ATOM     34  C   UNL     1     -10.883   7.849   1.911  1.00  0.00     0.116 C 
BRANCH  34  35
ATOM     35  N   UNL     1     -11.266   8.564   3.127  1.00  0.00    -0.352 N 
ATOM     36  C   UNL     1     -12.545   8.738   3.628  1.00  0.00     0.251 C 
ATOM     37  H   UNL     1     -10.534   8.966   3.648  1.00  0.00     0.163 HD
ATOM     38  O   UNL     1     -12.797   9.633   4.425  1.00  0.00    -0.269 OA
BRANCH  36  39
ATOM     39  C   UNL     1     -13.605   7.811   3.189  1.00  0.00     0.039 A 
ATOM     40  C   UNL     1     -14.902   8.250   2.906  1.00  0.00     0.014 A 
ATOM     41  C   UNL     1     -13.260   6.470   3.037  1.00  0.00     0.014 A 
ATOM     42  C   UNL     1     -15.822   7.335   2.396  1.00  0.00     0.010 A 
ATOM     43  C   UNL     1     -14.105   5.616   2.380  1.00  0.00     0.010 A 
ATOM     44  C   UNL     1     -15.406   6.021   2.118  1.00  0.00    -0.014 A 
BRANCH  44  45
ATOM     45  C   UNL     1     -16.275   5.079   1.426  1.00  0.00     0.031 A 
ATOM     46  C   UNL     1     -16.740   5.558   0.098  1.00  0.00     0.074 A 
ATOM     47  C   UNL     1     -16.445   3.800   1.829  1.00  0.00     0.049 A 
ATOM     48  N   UNL     1     -17.938   5.907  -0.229  1.00  0.00    -0.248 NA
ATOM     49  C   UNL     1     -15.734   5.834  -0.944  1.00  0.00     0.031 C 
ATOM     50  C   UNL     1     -15.779   3.096   2.934  1.00  0.00     0.029 A 
ATOM     51  N   UNL     1     -17.169   2.805   1.248  1.00  0.00    -0.354 N 
ATOM     52  C   UNL     1     -17.887   6.229  -1.581  1.00  0.00     0.074 A 
ATOM     53  C   UNL     1     -16.491   6.365  -1.907  1.00  0.00     0.031 C 
ATOM     54  C   UNL     1     -15.933   1.761   2.781  1.00  0.00     0.029 A 
ATOM     55  C   UNL     1     -16.842   1.521   1.675  1.00  0.00     0.049 A 
ATOM     56  H   UNL     1     -17.869   2.980   0.579  1.00  0.00     0.167 HD
ATOM     57  C   UNL     1     -18.983   6.077  -2.376  1.00  0.00     0.031 A 
ATOM     58  C   UNL     1     -17.264   0.349   1.133  1.00  0.00     0.031 A 
ATOM     59  C   UNL     1     -20.177   5.878  -1.589  1.00  0.00     0.049 A 
ATOM     60  C   UNL     1     -18.463   0.652   0.318  1.00  0.00     0.074 A 
ATOM     61  C   UNL     1     -20.831   6.598  -0.609  1.00  0.00     0.029 A 
ATOM     62  N   UNL     1     -20.634   4.586  -1.477  1.00  0.00    -0.354 N 
ATOM     63  N   UNL     1     -19.600   1.024   0.830  1.00  0.00    -0.248 NA
ATOM     64  C   UNL     1     -18.262   0.995  -1.081  1.00  0.00     0.031 C 
ATOM     65  C   UNL     1     -21.257   5.620   0.339  1.00  0.00     0.029 A 
ATOM     66  C   UNL     1     -20.927   4.358  -0.159  1.00  0.00     0.049 A 
ATOM     67  H   UNL     1     -20.733   3.940  -2.213  1.00  0.00     0.167 HD
ATOM     68  C   UNL     1     -20.038   2.040  -0.005  1.00  0.00     0.074 A 
ATOM     69  C   UNL     1     -19.227   1.910  -1.218  1.00  0.00     0.031 C 
ATOM     70  C   UNL     1     -20.797   3.068   0.478  1.00  0.00     0.031 A 
BRANCH  57  71
ATOM     71  C   UNL     1     -18.916   5.641  -3.822  1.00  0.00    -0.014 A 
ATOM     72  C   UNL     1     -20.126   5.482  -4.525  1.00  0.00     0.009 A 
ATOM     73  C   UNL     1     -17.765   5.096  -4.421  1.00  0.00     0.009 A 
ATOM     74  C   UNL     1     -20.194   4.730  -5.703  1.00  0.00     0.001 A 
ATOM     75  C   UNL     1     -17.822   4.381  -5.621  1.00  0.00     0.001 A 
ATOM     76  C   UNL     1     -19.042   4.169  -6.244  1.00  0.00     0.000 A 
ENDBRANCH  57  71
BRANCH  58  77
ATOM     77  C   UNL     1     -16.586  -0.964   1.038  1.00  0.00    -0.014 A 
ATOM     78  C   UNL     1     -17.311  -2.116   0.683  1.00  0.00     0.009 A 
ATOM     79  C   UNL     1     -15.183  -1.039   0.994  1.00  0.00     0.009 A 
ATOM     80  C   UNL     1     -16.658  -3.277   0.244  1.00  0.00     0.001 A 
ATOM     81  C   UNL     1     -14.531  -2.200   0.559  1.00  0.00     0.001 A 
ATOM     82  C   UNL     1     -15.269  -3.311   0.164  1.00  0.00     0.000 A 
ENDBRANCH  58  77
BRANCH  70  83
ATOM     83  C   UNL     1     -21.358   2.942   1.875  1.00  0.00    -0.014 A 
ATOM     84  C   UNL     1     -20.566   2.768   3.025  1.00  0.00     0.009 A 
ATOM     85  C   UNL     1     -22.735   3.142   2.045  1.00  0.00     0.009 A 
ATOM     86  C   UNL     1     -21.146   2.754   4.299  1.00  0.00     0.001 A 
ATOM     87  C   UNL     1     -23.310   3.152   3.316  1.00  0.00     0.001 A 
ATOM     88  C   UNL     1     -22.518   2.949   4.443  1.00  0.00     0.000 A 
ENDBRANCH  70  83
ENDBRANCH  44  45
ENDBRANCH  36  39
ENDBRANCH  34  35
ENDBRANCH  33  34
ENDBRANCH  32  33
ENDBRANCH   1  32
TORSDOF 16
