REMARK SMILES C[C@H]1[C@H](C)CC[C@@]2(C(=O)NCCCCNC(=O)c3ccc(-c4c5nc(c(-c6ccccc6)c6ccc([nH]6)c(-c6ccccc6)c6nc(c(-c7ccccc7)c7ccc4[nH]7)C=C6)C=C5)cc3)CC[C@@]3(C)C(=CC[C@@H]4[C@@]5(C)CC[C@H](O)C(C)(C)[C@@H]5CC[C@]43C)[C@H]12
REMARK SMILES IDX 13 1 12 2 11 3 10 4 8 5 9 6 7 8 1 9 2 10 3 11 88 12 4 13
REMARK SMILES IDX 5 14 70 15 6 16 66 17 68 18 71 19 67 20 69 21 86 22 72 23
REMARK SMILES IDX 73 24 85 25 87 26 74 27 84 28 75 29 76 30 83 31 77 32 80 33
REMARK SMILES IDX 78 34 81 35 82 36 79 37 14 39 15 40 16 41 17 43 18 44 19 45
REMARK SMILES IDX 65 46 20 47 64 48 21 49 22 50 23 51 58 52 24 53 63 54 57 55
REMARK SMILES IDX 59 56 25 57 62 58 56 59 55 60 26 62 48 63 33 64 47 65 34 66
REMARK SMILES IDX 37 67 46 68 60 69 35 70 36 71 45 73 61 74 38 75 27 76 28 77
REMARK SMILES IDX 32 78 29 79 31 80 30 81 49 82 50 83 54 84 51 85 53 86 52 87
REMARK SMILES IDX 39 88 40 89 44 90 41 91 43 92 42 93
REMARK H PARENT 10 7 79 38 15 42 59 61 37 72
REMARK Flexibility Score: inf
ROOT
ATOM      1  C   UNL     1      -1.305  -0.679  -2.708  1.00  0.00     0.023 C 
ENDROOT
BRANCH   1   2
ATOM      2  C   UNL     1      -2.103   0.614  -2.499  1.00  0.00     0.023 C 
BRANCH   2   3
ATOM      3  C   UNL     1      -1.464   1.692  -1.617  1.00  0.00     0.116 C 
BRANCH   3   4
ATOM      4  N   UNL     1      -0.335   2.381  -2.209  1.00  0.00    -0.356 N 
ATOM      5  C   UNL     1       0.439   3.411  -1.746  1.00  0.00     0.226 C 
ATOM      6  O   UNL     1       0.867   4.147  -2.646  1.00  0.00    -0.274 OA
ATOM      7  H   UNL     1      -0.079   2.050  -3.100  1.00  0.00     0.163 HD
BRANCH   5   8
ATOM      8  C   UNL     1       0.848   3.658  -0.241  1.00  0.00     0.056 C 
ATOM      9  C   UNL     1       2.118   0.263   1.321  1.00  0.00     0.008 C 
ATOM     10  C   UNL     1       1.097   1.273   0.764  1.00  0.00    -0.003 C 
ATOM     11  C   UNL     1      -0.008   1.597   1.816  1.00  0.00    -0.011 C 
ATOM     12  C   UNL     1       1.808   2.572   0.320  1.00  0.00     0.034 C 
ATOM     13  C   UNL     1      -0.895   0.390   2.165  1.00  0.00     0.008 C 
ATOM     14  C   UNL     1      -0.961   2.742   1.429  1.00  0.00     0.005 C 
ATOM     15  C   UNL     1       2.986   2.509  -0.667  1.00  0.00    -0.063 C 
ATOM     16  C   UNL     1      -0.379   3.912   0.656  1.00  0.00     0.018 C 
ATOM     17  C   UNL     1       1.680   5.004  -0.166  1.00  0.00     0.018 C 
ATOM     18  C   UNL     1       3.961   3.716  -0.599  1.00  0.00    -0.006 C 
ATOM     19  C   UNL     1       2.999   1.630  -1.691  1.00  0.00    -0.027 C 
ATOM     20  C   UNL     1       3.094   5.010  -0.778  1.00  0.00     0.013 C 
ATOM     21  C   UNL     1       4.630   3.776   0.802  1.00  0.00     0.017 C 
ATOM     22  C   UNL     1       5.115   3.616  -1.745  1.00  0.00    -0.020 C 
ATOM     23  C   UNL     1       3.808   1.811  -2.949  1.00  0.00     0.032 C 
ATOM     24  C   UNL     1       4.366   3.252  -3.081  1.00  0.00     0.006 C 
ATOM     25  C   UNL     1       5.919   4.937  -1.880  1.00  0.00     0.008 C 
ATOM     26  C   UNL     1       6.164   2.522  -1.369  1.00  0.00     0.012 C 
ATOM     27  C   UNL     1       5.040   3.613  -4.472  1.00  0.00    -0.025 C 
ATOM     28  C   UNL     1       6.738   5.024  -3.170  1.00  0.00     0.005 C 
ATOM     29  C   UNL     1       5.928   2.449  -4.953  1.00  0.00     0.012 C 
ATOM     30  C   UNL     1       3.896   3.827  -5.518  1.00  0.00     0.010 C 
ATOM     31  C   UNL     1       5.782   4.997  -4.369  1.00  0.00     0.003 C 
ATOM     32  C   UNL     1       4.368   4.373  -6.864  1.00  0.00     0.033 C 
ATOM     33  C   UNL     1       6.367   5.575  -5.713  1.00  0.00    -0.006 C 
ATOM     34  C   UNL     1       5.198   5.652  -6.742  1.00  0.00     0.120 C 
ATOM     35  C   UNL     1       7.580   4.800  -6.270  1.00  0.00     0.014 C 
ATOM     36  C   UNL     1       6.876   7.028  -5.491  1.00  0.00     0.014 C 
BRANCH  34  37
ATOM     37  O   UNL     1       5.667   6.025  -8.038  1.00  0.00    -0.393 OA
ATOM     38  H   UNL     1       6.250   5.331  -8.383  1.00  0.00     0.210 HD
ENDBRANCH  34  37
ENDBRANCH   5   8
ENDBRANCH   3   4
ENDBRANCH   2   3
ENDBRANCH   1   2
BRANCH   1  39
ATOM     39  C   UNL     1      -0.895  -1.463  -1.461  1.00  0.00     0.116 C 
BRANCH  39  40
ATOM     40  N   UNL     1      -1.998  -1.901  -0.618  1.00  0.00    -0.352 N 
ATOM     41  C   UNL     1      -2.494  -3.154  -0.346  1.00  0.00     0.251 C 
ATOM     42  H   UNL     1      -2.473  -1.169  -0.161  1.00  0.00     0.163 HD
ATOM     43  O   UNL     1      -3.435  -3.283   0.433  1.00  0.00    -0.269 OA
BRANCH  41  44
ATOM     44  C   UNL     1      -1.970  -4.341  -1.050  1.00  0.00     0.039 A 
ATOM     45  C   UNL     1      -2.885  -5.158  -1.719  1.00  0.00     0.014 A 
ATOM     46  C   UNL     1      -0.605  -4.627  -1.102  1.00  0.00     0.014 A 
ATOM     47  C   UNL     1      -2.424  -6.171  -2.560  1.00  0.00     0.010 A 
ATOM     48  C   UNL     1      -0.141  -5.594  -1.992  1.00  0.00     0.010 A 
ATOM     49  C   UNL     1      -1.046  -6.340  -2.764  1.00  0.00    -0.014 A 
BRANCH  49  50
ATOM     50  C   UNL     1      -0.540  -7.197  -3.865  1.00  0.00     0.031 A 
ATOM     51  C   UNL     1       0.274  -8.424  -3.584  1.00  0.00     0.074 A 
ATOM     52  C   UNL     1      -0.748  -6.805  -5.138  1.00  0.00     0.049 A 
ATOM     53  N   UNL     1       0.854  -9.237  -4.430  1.00  0.00    -0.248 NA
ATOM     54  C   UNL     1       0.477  -8.772  -2.171  1.00  0.00     0.031 C 
ATOM     55  C   UNL     1      -1.499  -5.615  -5.547  1.00  0.00     0.029 A 
ATOM     56  N   UNL     1      -0.341  -7.361  -6.325  1.00  0.00    -0.354 N 
ATOM     57  C   UNL     1       1.502 -10.188  -3.654  1.00  0.00     0.074 A 
ATOM     58  C   UNL     1       1.275  -9.826  -2.270  1.00  0.00     0.031 C 
ATOM     59  C   UNL     1      -1.528  -5.550  -6.886  1.00  0.00     0.029 A 
ATOM     60  C   UNL     1      -0.756  -6.661  -7.431  1.00  0.00     0.049 A 
ATOM     61  H   UNL     1       0.197  -8.184  -6.378  1.00  0.00     0.167 HD
ATOM     62  C   UNL     1       2.210 -11.270  -4.057  1.00  0.00     0.031 A 
ATOM     63  C   UNL     1      -0.531  -6.877  -8.740  1.00  0.00     0.031 A 
ATOM     64  C   UNL     1       2.444 -11.624  -5.433  1.00  0.00     0.049 A 
ATOM     65  C   UNL     1       0.314  -8.044  -9.159  1.00  0.00     0.074 A 
ATOM     66  C   UNL     1       3.097 -12.735  -5.939  1.00  0.00     0.029 A 
ATOM     67  N   UNL     1       2.046 -10.864  -6.521  1.00  0.00    -0.354 N 
ATOM     68  N   UNL     1       0.866  -8.970  -8.414  1.00  0.00    -0.248 NA
ATOM     69  C   UNL     1       0.574  -8.189 -10.598  1.00  0.00     0.031 C 
ATOM     70  C   UNL     1       3.142 -12.617  -7.334  1.00  0.00     0.029 A 
ATOM     71  C   UNL     1       2.475 -11.458  -7.697  1.00  0.00     0.049 A 
ATOM     72  H   UNL     1       1.534 -10.024  -6.467  1.00  0.00     0.167 HD
ATOM     73  C   UNL     1       1.526  -9.817  -9.293  1.00  0.00     0.074 A 
ATOM     74  C   UNL     1       1.294  -9.302 -10.628  1.00  0.00     0.031 C 
ATOM     75  C   UNL     1       2.256 -10.925  -9.017  1.00  0.00     0.031 A 
BRANCH  62  76
ATOM     76  C   UNL     1       2.803 -12.136  -2.981  1.00  0.00    -0.014 A 
ATOM     77  C   UNL     1       1.991 -12.941  -2.166  1.00  0.00     0.009 A 
ATOM     78  C   UNL     1       4.192 -12.153  -2.784  1.00  0.00     0.009 A 
ATOM     79  C   UNL     1       2.554 -13.708  -1.144  1.00  0.00     0.001 A 
ATOM     80  C   UNL     1       4.755 -12.942  -1.779  1.00  0.00     0.001 A 
ATOM     81  C   UNL     1       3.935 -13.708  -0.952  1.00  0.00     0.000 A 
ENDBRANCH  62  76
BRANCH  63  82
ATOM     82  C   UNL     1      -1.127  -5.968  -9.751  1.00  0.00    -0.014 A 
ATOM     83  C   UNL     1      -2.208  -6.399 -10.534  1.00  0.00     0.009 A 
ATOM     84  C   UNL     1      -0.639  -4.663  -9.925  1.00  0.00     0.009 A 
ATOM     85  C   UNL     1      -2.782  -5.546 -11.479  1.00  0.00     0.001 A 
ATOM     86  C   UNL     1      -1.230  -3.805 -10.854  1.00  0.00     0.001 A 
ATOM     87  C   UNL     1      -2.297  -4.248 -11.633  1.00  0.00     0.000 A 
ENDBRANCH  63  82
BRANCH  75  88
ATOM     88  C   UNL     1       2.853 -11.658 -10.183  1.00  0.00    -0.014 A 
ATOM     89  C   UNL     1       3.977 -11.152 -10.854  1.00  0.00     0.009 A 
ATOM     90  C   UNL     1       2.311 -12.887 -10.588  1.00  0.00     0.009 A 
ATOM     91  C   UNL     1       4.534 -11.856 -11.924  1.00  0.00     0.001 A 
ATOM     92  C   UNL     1       2.885 -13.600 -11.642  1.00  0.00     0.001 A 
ATOM     93  C   UNL     1       3.992 -13.081 -12.312  1.00  0.00     0.000 A 
ENDBRANCH  75  88
ENDBRANCH  49  50
ENDBRANCH  41  44
ENDBRANCH  39  40
ENDBRANCH   1  39
TORSDOF 12
