REMARK SMILES CS(=O)(=O)c1ccc(/C=C(/C(=O)NCCCCNC(=O)c2ccc(-c3c4nc(c(-c5ccccc5)c5ccc([nH]5)c(-c5ccccc5)c5nc(c(-c6ccccc6)c6ccc3[nH]6)C=C5)C=C4)cc2)c2cccc(-c3ccc(S(C)(=O)=O)cc3)c2)cc1
REMARK SMILES IDX 15 1 14 2 13 3 11 4 12 5 10 7 9 8 8 9 5 10 6 11 86 12 7 13
REMARK SMILES IDX 85 14 2 15 1 16 3 17 4 18 69 19 70 20 84 21 71 22 73 23
REMARK SMILES IDX 72 24 74 25 75 26 83 27 76 28 82 29 77 30 78 31 79 32 80 33
REMARK SMILES IDX 81 34 16 35 17 36 18 37 19 38 20 40 21 41 22 42 68 43 23 44
REMARK SMILES IDX 67 45 24 46 25 47 26 48 61 49 27 50 66 51 60 52 62 53 28 54
REMARK SMILES IDX 65 55 59 56 58 57 29 59 51 60 36 61 50 62 37 63 40 64 49 65
REMARK SMILES IDX 63 66 38 67 39 68 48 70 64 71 41 72 30 73 31 74 35 75 32 76
REMARK SMILES IDX 34 77 33 78 52 79 53 80 57 81 54 82 56 83 55 84 42 85 43 86
REMARK SMILES IDX 47 87 44 88 46 89 45 90
REMARK H PARENT 13 6 18 39 62 58 40 69
REMARK Flexibility Score: inf
ROOT
ATOM      1  C   UNL     1       0.701   9.977  -0.107  1.00  0.00     0.023 C 
ENDROOT
BRANCH   1   2
ATOM      2  C   UNL     1       2.123   9.470  -0.364  1.00  0.00     0.116 C 
BRANCH   2   3
ATOM      3  N   UNL     1       2.873   9.441   0.875  1.00  0.00    -0.352 N 
ATOM      4  C   UNL     1       3.167   8.467   1.776  1.00  0.00     0.251 C 
ATOM      5  O   UNL     1       3.795   8.841   2.771  1.00  0.00    -0.269 OA
ATOM      6  H   UNL     1       3.252  10.317   1.116  1.00  0.00     0.163 HD
BRANCH   4   7
ATOM      7  C   UNL     1       2.846   6.999   1.572  1.00  0.00     0.047 C 
ATOM      8  C   UNL     1       1.740   6.598   0.901  1.00  0.00     0.022 C 
BRANCH   8   9
ATOM      9  C   UNL     1       1.312   5.247   0.473  1.00  0.00    -0.025 A 
ATOM     10  C   UNL     1       0.611   2.723  -0.548  1.00  0.00     0.067 A 
ATOM     11  C   UNL     1       1.026   2.845   0.777  1.00  0.00     0.021 A 
ATOM     12  C   UNL     1       0.503   3.856  -1.358  1.00  0.00     0.021 A 
ATOM     13  C   UNL     1       1.344   4.111   1.289  1.00  0.00     0.009 A 
ATOM     14  C   UNL     1       0.852   5.108  -0.847  1.00  0.00     0.009 A 
BRANCH  10  15
ATOM     15  S   UNL     1       0.216   1.153  -1.282  1.00  0.00     0.175 S 
ATOM     16  C   UNL     1       0.892  -0.106  -0.236  1.00  0.00     0.163 C 
ATOM     17  O   UNL     1       0.935   1.097  -2.541  1.00  0.00    -0.224 OA
ATOM     18  O   UNL     1      -1.229   1.040  -1.238  1.00  0.00    -0.224 OA
ENDBRANCH  10  15
ENDBRANCH   8   9
BRANCH   7  19
ATOM     19  C   UNL     1       3.702   6.014   2.289  1.00  0.00    -0.012 A 
ATOM     20  C   UNL     1       3.752   6.065   3.693  1.00  0.00     0.009 A 
ATOM     21  C   UNL     1       4.356   4.962   1.631  1.00  0.00     0.017 A 
ATOM     22  C   UNL     1       4.422   5.090   4.423  1.00  0.00     0.001 A 
ATOM     23  C   UNL     1       4.959   3.918   2.358  1.00  0.00    -0.018 A 
ATOM     24  C   UNL     1       5.009   4.017   3.759  1.00  0.00     0.009 A 
BRANCH  23  25
ATOM     25  C   UNL     1       5.397   2.687   1.683  1.00  0.00    -0.018 A 
ATOM     26  C   UNL     1       4.879   1.444   2.098  1.00  0.00     0.010 A 
ATOM     27  C   UNL     1       6.276   2.710   0.588  1.00  0.00     0.010 A 
ATOM     28  C   UNL     1       5.220   0.262   1.442  1.00  0.00     0.021 A 
ATOM     29  C   UNL     1       6.628   1.529  -0.074  1.00  0.00     0.021 A 
ATOM     30  C   UNL     1       6.100   0.313   0.362  1.00  0.00     0.067 A 
BRANCH  30  31
ATOM     31  S   UNL     1       6.494  -1.197  -0.485  1.00  0.00     0.175 S 
ATOM     32  C   UNL     1       7.439  -2.111   0.706  1.00  0.00     0.163 C 
ATOM     33  O   UNL     1       5.240  -1.891  -0.703  1.00  0.00    -0.224 OA
ATOM     34  O   UNL     1       7.375  -0.869  -1.591  1.00  0.00    -0.224 OA
ENDBRANCH  30  31
ENDBRANCH  23  25
ENDBRANCH   7  19
ENDBRANCH   4   7
ENDBRANCH   2   3
ENDBRANCH   1   2
BRANCH   1  35
ATOM     35  C   UNL     1       0.617  11.469   0.239  1.00  0.00     0.023 C 
BRANCH  35  36
ATOM     36  C   UNL     1       1.158  12.410  -0.831  1.00  0.00     0.116 C 
BRANCH  36  37
ATOM     37  N   UNL     1       0.513  12.234  -2.122  1.00  0.00    -0.352 N 
ATOM     38  C   UNL     1       0.241  13.178  -3.080  1.00  0.00     0.251 C 
ATOM     39  H   UNL     1       0.234  11.314  -2.337  1.00  0.00     0.163 HD
ATOM     40  O   UNL     1      -0.419  12.884  -4.070  1.00  0.00    -0.269 OA
BRANCH  38  41
ATOM     41  C   UNL     1       0.720  14.562  -2.892  1.00  0.00     0.039 A 
ATOM     42  C   UNL     1      -0.176  15.615  -3.091  1.00  0.00     0.014 A 
ATOM     43  C   UNL     1       2.039  14.817  -2.511  1.00  0.00     0.014 A 
ATOM     44  C   UNL     1       0.240  16.926  -2.858  1.00  0.00     0.010 A 
ATOM     45  C   UNL     1       2.432  16.117  -2.212  1.00  0.00     0.010 A 
ATOM     46  C   UNL     1       1.539  17.185  -2.392  1.00  0.00    -0.014 A 
BRANCH  46  47
ATOM     47  C   UNL     1       1.991  18.568  -2.109  1.00  0.00     0.031 A 
ATOM     48  C   UNL     1       3.092  19.179  -2.931  1.00  0.00     0.074 A 
ATOM     49  C   UNL     1       1.456  19.251  -1.079  1.00  0.00     0.049 A 
ATOM     50  N   UNL     1       3.666  20.349  -2.803  1.00  0.00    -0.248 NA
ATOM     51  C   UNL     1       3.638  18.358  -4.023  1.00  0.00     0.031 C 
ATOM     52  C   UNL     1       0.409  18.754  -0.183  1.00  0.00     0.029 A 
ATOM     53  N   UNL     1       1.725  20.511  -0.609  1.00  0.00    -0.354 N 
ATOM     54  C   UNL     1       4.651  20.393  -3.781  1.00  0.00     0.074 A 
ATOM     55  C   UNL     1       4.631  19.116  -4.461  1.00  0.00     0.031 C 
ATOM     56  C   UNL     1       0.107  19.710   0.711  1.00  0.00     0.029 A 
ATOM     57  C   UNL     1       0.962  20.869   0.475  1.00  0.00     0.049 A 
ATOM     58  H   UNL     1       2.402  21.103  -1.010  1.00  0.00     0.167 HD
ATOM     59  C   UNL     1       5.484  21.411  -4.101  1.00  0.00     0.031 A 
ATOM     60  C   UNL     1       0.954  22.003   1.200  1.00  0.00     0.031 A 
ATOM     61  C   UNL     1       5.492  22.686  -3.437  1.00  0.00     0.049 A 
ATOM     62  C   UNL     1       1.891  23.119   0.827  1.00  0.00     0.074 A 
ATOM     63  C   UNL     1       6.257  23.803  -3.722  1.00  0.00     0.029 A 
ATOM     64  N   UNL     1       4.692  23.014  -2.352  1.00  0.00    -0.354 N 
ATOM     65  N   UNL     1       2.770  23.170  -0.144  1.00  0.00    -0.248 NA
ATOM     66  C   UNL     1       1.822  24.339   1.643  1.00  0.00     0.031 C 
ATOM     67  C   UNL     1       5.954  24.792  -2.781  1.00  0.00     0.029 A 
ATOM     68  C   UNL     1       4.960  24.309  -1.944  1.00  0.00     0.049 A 
ATOM     69  H   UNL     1       4.033  22.414  -1.935  1.00  0.00     0.167 HD
ATOM     70  C   UNL     1       3.338  24.436  -0.074  1.00  0.00     0.074 A 
ATOM     71  C   UNL     1       2.692  25.125   1.024  1.00  0.00     0.031 C 
ATOM     72  C   UNL     1       4.305  24.980  -0.852  1.00  0.00     0.031 A 
BRANCH  59  73
ATOM     73  C   UNL     1       6.459  21.180  -5.221  1.00  0.00    -0.014 A 
ATOM     74  C   UNL     1       6.027  21.074  -6.553  1.00  0.00     0.009 A 
ATOM     75  C   UNL     1       7.832  21.090  -4.944  1.00  0.00     0.009 A 
ATOM     76  C   UNL     1       6.945  20.842  -7.579  1.00  0.00     0.001 A 
ATOM     77  C   UNL     1       8.751  20.889  -5.976  1.00  0.00     0.001 A 
ATOM     78  C   UNL     1       8.306  20.755  -7.291  1.00  0.00     0.000 A 
ENDBRANCH  59  73
BRANCH  60  79
ATOM     79  C   UNL     1       0.012  22.154   2.339  1.00  0.00    -0.014 A 
ATOM     80  C   UNL     1      -1.078  23.034   2.249  1.00  0.00     0.009 A 
ATOM     81  C   UNL     1       0.202  21.429   3.526  1.00  0.00     0.009 A 
ATOM     82  C   UNL     1      -1.941  23.206   3.333  1.00  0.00     0.001 A 
ATOM     83  C   UNL     1      -0.679  21.582   4.598  1.00  0.00     0.001 A 
ATOM     84  C   UNL     1      -1.744  22.478   4.505  1.00  0.00     0.000 A 
ENDBRANCH  60  79
BRANCH  72  85
ATOM     85  C   UNL     1       4.696  26.402  -0.568  1.00  0.00    -0.014 A 
ATOM     86  C   UNL     1       5.448  26.741   0.567  1.00  0.00     0.009 A 
ATOM     87  C   UNL     1       4.339  27.412  -1.475  1.00  0.00     0.009 A 
ATOM     88  C   UNL     1       5.809  28.069   0.803  1.00  0.00     0.001 A 
ATOM     89  C   UNL     1       4.725  28.734  -1.251  1.00  0.00     0.001 A 
ATOM     90  C   UNL     1       5.451  29.062  -0.108  1.00  0.00     0.000 A 
ENDBRANCH  72  85
ENDBRANCH  46  47
ENDBRANCH  38  41
ENDBRANCH  36  37
ENDBRANCH  35  36
ENDBRANCH   1  35
TORSDOF 16
