REMARK SMILES CCOC(=O)c1c(NC(=O)[C@@H]2[C@@H]3CC[C@@H](C3)[C@@H]2C(=O)NCCCCNC(=O)c2ccc(-c3c4nc(c(-c5ccccc5)c5ccc([nH]5)c(-c5ccccc5)c5nc(c(-c6ccccc6)c6ccc3[nH]6)C=C5)C=C4)cc2)sc2c1CCCC2
REMARK SMILES IDX 21 1 20 2 18 3 19 4 17 6 11 7 12 8 13 9 16 10 15 11 14 12
REMARK SMILES IDX 9 13 8 14 10 16 7 17 6 18 78 19 76 20 77 21 79 22 82 23
REMARK SMILES IDX 80 24 81 25 4 26 5 27 3 28 2 29 1 30 22 31 23 32 24 33 25 34
REMARK SMILES IDX 26 35 27 37 28 38 29 39 75 40 30 41 74 42 31 43 32 44 33 45
REMARK SMILES IDX 68 46 34 47 73 48 67 49 69 50 35 51 72 52 66 53 65 54 36 56
REMARK SMILES IDX 58 57 43 58 57 59 44 60 47 61 56 62 70 63 45 64 46 65 55 67
REMARK SMILES IDX 71 68 48 69 37 70 38 71 42 72 39 73 41 74 40 75 59 76 60 77
REMARK SMILES IDX 64 78 61 79 63 80 62 81 49 82 50 83 54 84 51 85 53 86 52 87
REMARK H PARENT 20 5 8 15 25 36 69 55 47 66
REMARK Flexibility Score: inf
ROOT
ATOM      1  C   UNL     1       1.928   1.451   2.345  1.00  0.00     0.116 C 
ENDROOT
BRANCH   1   2
ATOM      2  N   UNL     1       1.613   0.053   2.193  1.00  0.00    -0.356 N 
ATOM      3  C   UNL     1       1.571  -0.726   1.083  1.00  0.00     0.224 C 
ATOM      4  O   UNL     1       1.433  -1.941   1.283  1.00  0.00    -0.275 OA
ATOM      5  H   UNL     1       1.392  -0.412   3.032  1.00  0.00     0.163 HD
BRANCH   3   6
ATOM      6  C   UNL     1       1.550  -0.212  -0.364  1.00  0.00     0.094 C 
ATOM      7  C   UNL     1       2.459   0.905  -0.937  1.00  0.00     0.094 C 
ATOM      8  C   UNL     1       1.426   1.924  -1.495  1.00  0.00     0.002 C 
ATOM      9  C   UNL     1       0.422   2.535  -0.496  1.00  0.00     0.005 C 
ATOM     10  C   UNL     1       0.478   0.932  -2.193  1.00  0.00     0.009 C 
ATOM     11  C   UNL     1       0.144   0.192  -0.888  1.00  0.00     0.002 C 
ATOM     12  C   UNL     1      -0.450   1.343  -0.074  1.00  0.00     0.005 C 
BRANCH   7  13
ATOM     13  C   UNL     1       3.693   1.286  -0.149  1.00  0.00     0.229 C 
ATOM     14  N   UNL     1       4.439   2.384  -0.395  1.00  0.00    -0.317 N 
ATOM     15  H   UNL     1       4.744   2.843   0.420  1.00  0.00     0.170 HD
ATOM     16  O   UNL     1       4.106   0.563   0.765  1.00  0.00    -0.274 OA
BRANCH  14  17
ATOM     17  C   UNL     1       4.856   2.988  -1.555  1.00  0.00     0.110 A 
ATOM     18  C   UNL     1       4.723   2.868  -2.925  1.00  0.00     0.098 A 
ATOM     19  C   UNL     1       5.618   3.790  -3.600  1.00  0.00    -0.017 A 
ATOM     20  S   UNL     1       5.952   4.240  -1.115  1.00  0.00    -0.122 S 
ATOM     21  C   UNL     1       6.312   4.596  -2.725  1.00  0.00     0.011 A 
ATOM     22  C   UNL     1       5.808   3.896  -5.088  1.00  0.00     0.038 C 
ATOM     23  C   UNL     1       7.319   5.636  -3.108  1.00  0.00     0.047 C 
ATOM     24  C   UNL     1       7.093   4.658  -5.442  1.00  0.00     0.005 C 
ATOM     25  C   UNL     1       7.228   5.941  -4.611  1.00  0.00     0.006 C 
BRANCH  18  26
ATOM     26  C   UNL     1       3.871   1.980  -3.695  1.00  0.00     0.341 C 
ATOM     27  O   UNL     1       2.957   2.408  -4.391  1.00  0.00    -0.246 OA
BRANCH  26  28
ATOM     28  O   UNL     1       4.281   0.680  -3.668  1.00  0.00    -0.462 OA
BRANCH  28  29
ATOM     29  C   UNL     1       3.603  -0.193  -4.589  1.00  0.00     0.230 C 
ATOM     30  C   UNL     1       3.314  -1.521  -3.917  1.00  0.00     0.049 C 
ENDBRANCH  28  29
ENDBRANCH  26  28
ENDBRANCH  18  26
ENDBRANCH  14  17
ENDBRANCH   7  13
ENDBRANCH   3   6
ENDBRANCH   1   2
BRANCH   1  31
ATOM     31  C   UNL     1       0.950   2.205   3.230  1.00  0.00     0.023 C 
BRANCH  31  32
ATOM     32  C   UNL     1       1.203   1.995   4.714  1.00  0.00     0.023 C 
BRANCH  32  33
ATOM     33  C   UNL     1       2.638   2.269   5.144  1.00  0.00     0.116 C 
BRANCH  33  34
ATOM     34  N   UNL     1       3.108   3.601   4.763  1.00  0.00    -0.352 N 
ATOM     35  C   UNL     1       3.579   4.601   5.583  1.00  0.00     0.251 C 
ATOM     36  H   UNL     1       3.085   3.808   3.801  1.00  0.00     0.163 HD
ATOM     37  O   UNL     1       3.836   5.720   5.160  1.00  0.00    -0.269 OA
BRANCH  35  38
ATOM     38  C   UNL     1       3.721   4.276   7.010  1.00  0.00     0.039 A 
ATOM     39  C   UNL     1       2.887   4.909   7.930  1.00  0.00     0.014 A 
ATOM     40  C   UNL     1       4.500   3.172   7.365  1.00  0.00     0.014 A 
ATOM     41  C   UNL     1       2.745   4.355   9.200  1.00  0.00     0.010 A 
ATOM     42  C   UNL     1       4.278   2.569   8.593  1.00  0.00     0.010 A 
ATOM     43  C   UNL     1       3.384   3.143   9.513  1.00  0.00    -0.014 A 
BRANCH  43  44
ATOM     44  C   UNL     1       3.107   2.428  10.781  1.00  0.00     0.031 A 
ATOM     45  C   UNL     1       4.228   2.164  11.743  1.00  0.00     0.074 A 
ATOM     46  C   UNL     1       1.875   1.932  11.017  1.00  0.00     0.049 A 
ATOM     47  N   UNL     1       4.215   1.475  12.855  1.00  0.00    -0.248 NA
ATOM     48  C   UNL     1       5.546   2.719  11.393  1.00  0.00     0.031 C 
ATOM     49  C   UNL     1       0.715   2.067  10.130  1.00  0.00     0.029 A 
ATOM     50  N   UNL     1       1.395   1.200  12.074  1.00  0.00    -0.354 N 
ATOM     51  C   UNL     1       5.523   1.494  13.319  1.00  0.00     0.074 A 
ATOM     52  C   UNL     1       6.313   2.213  12.345  1.00  0.00     0.031 C 
ATOM     53  C   UNL     1      -0.345   1.467  10.695  1.00  0.00     0.029 A 
ATOM     54  C   UNL     1       0.067   0.866  11.959  1.00  0.00     0.049 A 
ATOM     55  H   UNL     1       1.951   0.939  12.844  1.00  0.00     0.167 HD
ATOM     56  C   UNL     1       6.019   0.980  14.468  1.00  0.00     0.031 A 
ATOM     57  C   UNL     1      -0.727   0.147  12.776  1.00  0.00     0.031 A 
ATOM     58  C   UNL     1       5.229   0.285  15.445  1.00  0.00     0.049 A 
ATOM     59  C   UNL     1      -0.148  -0.422  14.041  1.00  0.00     0.074 A 
ATOM     60  C   UNL     1       5.620  -0.203  16.678  1.00  0.00     0.029 A 
ATOM     61  N   UNL     1       3.886  -0.023  15.296  1.00  0.00    -0.354 N 
ATOM     62  N   UNL     1       1.072  -0.319  14.510  1.00  0.00    -0.248 NA
ATOM     63  C   UNL     1      -1.057  -1.204  14.891  1.00  0.00     0.031 C 
ATOM     64  C   UNL     1       4.524  -0.854  17.254  1.00  0.00     0.029 A 
ATOM     65  C   UNL     1       3.440  -0.726  16.401  1.00  0.00     0.049 A 
ATOM     66  H   UNL     1       3.332   0.222  14.519  1.00  0.00     0.167 HD
ATOM     67  C   UNL     1       1.073  -1.009  15.715  1.00  0.00     0.074 A 
ATOM     68  C   UNL     1      -0.272  -1.506  15.916  1.00  0.00     0.031 C 
ATOM     69  C   UNL     1       2.098  -1.218  16.576  1.00  0.00     0.031 A 
BRANCH  56  70
ATOM     70  C   UNL     1       7.488   1.157  14.723  1.00  0.00    -0.014 A 
ATOM     71  C   UNL     1       8.027   2.418  15.023  1.00  0.00     0.009 A 
ATOM     72  C   UNL     1       8.341   0.043  14.688  1.00  0.00     0.009 A 
ATOM     73  C   UNL     1       9.397   2.566  15.247  1.00  0.00     0.001 A 
ATOM     74  C   UNL     1       9.706   0.190  14.941  1.00  0.00     0.001 A 
ATOM     75  C   UNL     1      10.233   1.452  15.211  1.00  0.00     0.000 A 
ENDBRANCH  56  70
BRANCH  57  76
ATOM     76  C   UNL     1      -2.155  -0.077  12.428  1.00  0.00    -0.014 A 
ATOM     77  C   UNL     1      -3.172   0.551  13.163  1.00  0.00     0.009 A 
ATOM     78  C   UNL     1      -2.510  -0.929  11.371  1.00  0.00     0.009 A 
ATOM     79  C   UNL     1      -4.516   0.310  12.864  1.00  0.00     0.001 A 
ATOM     80  C   UNL     1      -3.854  -1.147  11.056  1.00  0.00     0.001 A 
ATOM     81  C   UNL     1      -4.855  -0.535  11.809  1.00  0.00     0.000 A 
ENDBRANCH  57  76
BRANCH  69  82
ATOM     82  C   UNL     1       1.800  -2.007  17.817  1.00  0.00    -0.014 A 
ATOM     83  C   UNL     1       1.606  -3.396  17.761  1.00  0.00     0.009 A 
ATOM     84  C   UNL     1       1.764  -1.362  19.063  1.00  0.00     0.009 A 
ATOM     85  C   UNL     1       1.355  -4.120  18.928  1.00  0.00     0.001 A 
ATOM     86  C   UNL     1       1.540  -2.092  20.230  1.00  0.00     0.001 A 
ATOM     87  C   UNL     1       1.328  -3.468  20.161  1.00  0.00     0.000 A 
ENDBRANCH  69  82
ENDBRANCH  43  44
ENDBRANCH  35  38
ENDBRANCH  33  34
ENDBRANCH  32  33
ENDBRANCH  31  32
ENDBRANCH   1  31
TORSDOF 16
