REMARK SMILES [NH3+][C@@H]1C=C[C@H](C(=O)N(CC(=O)NCCCCNC(=O)c2ccc(-c3c4nc(c(-c5ccccc5)c5ccc([nH]5)c(-c5ccccc5)c5nc(c(-c6ccccc6)c6ccc3[nH]6)C=C5)C=C4)cc2)c2ccccc2)C1
REMARK SMILES IDX 13 1 12 2 10 3 11 4 9 6 8 7 6 8 7 9 5 10 2 11 3 12 74 13
REMARK SMILES IDX 4 14 1 15 68 19 69 20 73 21 70 22 72 23 71 24 14 25 15 26
REMARK SMILES IDX 16 27 17 28 18 29 19 31 20 32 21 33 67 34 22 35 66 36 23 37
REMARK SMILES IDX 24 38 25 39 60 40 26 41 65 42 59 43 61 44 27 45 64 46 58 47
REMARK SMILES IDX 57 48 28 50 50 51 35 52 49 53 36 54 39 55 48 56 62 57 37 58
REMARK SMILES IDX 38 59 47 61 63 62 40 63 29 64 30 65 34 66 31 67 33 68 32 69
REMARK SMILES IDX 51 70 52 71 56 72 53 73 55 74 54 75 41 76 42 77 46 78 43 79
REMARK SMILES IDX 45 80 44 81
REMARK H PARENT 12 5 1 16 1 17 1 18 17 30 61 49 39 60
REMARK Flexibility Score: inf
ROOT
ATOM      1  C   UNL     1      -3.201  -3.188   2.153  1.00  0.00     0.116 C 
ENDROOT
BRANCH   1   2
ATOM      2  N   UNL     1      -3.176  -2.141   3.143  1.00  0.00    -0.355 N 
ATOM      3  C   UNL     1      -2.098  -1.519   3.697  1.00  0.00     0.240 C 
ATOM      4  O   UNL     1      -2.324  -0.527   4.398  1.00  0.00    -0.273 OA
ATOM      5  H   UNL     1      -4.056  -1.833   3.460  1.00  0.00     0.163 HD
BRANCH   3   6
ATOM      6  C   UNL     1      -0.654  -1.928   3.357  1.00  0.00     0.225 C 
BRANCH   6   7
ATOM      7  N   UNL     1      -0.239  -3.343   3.311  1.00  0.00    -0.303 N 
BRANCH   7   8
ATOM      8  C   UNL     1       0.158  -4.004   2.137  1.00  0.00     0.234 C 
ATOM      9  O   UNL     1       0.210  -5.244   2.085  1.00  0.00    -0.274 OA
BRANCH   8  10
ATOM     10  C   UNL     1       0.515  -3.265   0.809  1.00  0.00     0.108 C 
ATOM     11  C   UNL     1       1.118  -0.914   0.326  1.00  0.00     0.205 C 
ATOM     12  C   UNL     1      -0.240  -1.269  -0.183  1.00  0.00     0.033 C 
ATOM     13  C   UNL     1       1.660  -2.248   0.876  1.00  0.00     0.087 C 
ATOM     14  C   UNL     1      -0.563  -2.544   0.059  1.00  0.00    -0.012 C 
BRANCH  11  15
ATOM     15  N   UNL     1       1.038   0.097   1.364  1.00  0.00    -0.352 N 
ATOM     16  H   UNL     1       0.676   0.964   0.967  1.00  0.00     0.345 HD
ATOM     17  H   UNL     1       1.967   0.262   1.751  1.00  0.00     0.345 HD
ATOM     18  H   UNL     1       0.414  -0.224   2.104  1.00  0.00     0.345 HD
ENDBRANCH  11  15
ENDBRANCH   8  10
ENDBRANCH   7   8
BRANCH   7  19
ATOM     19  C   UNL     1      -0.197  -4.036   4.590  1.00  0.00     0.044 A 
ATOM     20  C   UNL     1      -1.058  -3.707   5.651  1.00  0.00     0.026 A 
ATOM     21  C   UNL     1       0.760  -5.033   4.840  1.00  0.00     0.026 A 
ATOM     22  C   UNL     1      -0.982  -4.352   6.893  1.00  0.00     0.002 A 
ATOM     23  C   UNL     1       0.853  -5.666   6.088  1.00  0.00     0.002 A 
ATOM     24  C   UNL     1      -0.020  -5.328   7.114  1.00  0.00     0.000 A 
ENDBRANCH   7  19
ENDBRANCH   6   7
ENDBRANCH   3   6
ENDBRANCH   1   2
BRANCH   1  25
ATOM     25  C   UNL     1      -3.733  -4.509   2.683  1.00  0.00     0.023 C 
BRANCH  25  26
ATOM     26  C   UNL     1      -5.219  -4.493   3.020  1.00  0.00     0.023 C 
BRANCH  26  27
ATOM     27  C   UNL     1      -6.123  -3.957   1.918  1.00  0.00     0.116 C 
BRANCH  27  28
ATOM     28  N   UNL     1      -5.990  -4.668   0.654  1.00  0.00    -0.352 N 
ATOM     29  C   UNL     1      -6.988  -5.046  -0.216  1.00  0.00     0.251 C 
ATOM     30  H   UNL     1      -5.073  -4.910   0.389  1.00  0.00     0.163 HD
ATOM     31  O   UNL     1      -6.747  -5.713  -1.210  1.00  0.00    -0.269 OA
BRANCH  29  32
ATOM     32  C   UNL     1      -8.376  -4.661   0.108  1.00  0.00     0.039 A 
ATOM     33  C   UNL     1      -9.344  -5.660   0.219  1.00  0.00     0.014 A 
ATOM     34  C   UNL     1      -8.681  -3.330   0.404  1.00  0.00     0.014 A 
ATOM     35  C   UNL     1     -10.608  -5.333   0.709  1.00  0.00     0.010 A 
ATOM     36  C   UNL     1      -9.913  -3.023   0.967  1.00  0.00     0.010 A 
ATOM     37  C   UNL     1     -10.887  -4.022   1.128  1.00  0.00    -0.014 A 
BRANCH  37  38
ATOM     38  C   UNL     1     -12.190  -3.668   1.741  1.00  0.00     0.031 A 
ATOM     39  C   UNL     1     -13.092  -2.679   1.059  1.00  0.00     0.074 A 
ATOM     40  C   UNL     1     -12.525  -4.172   2.945  1.00  0.00     0.049 A 
ATOM     41  N   UNL     1     -14.228  -2.176   1.471  1.00  0.00    -0.248 NA
ATOM     42  C   UNL     1     -12.642  -2.163  -0.244  1.00  0.00     0.031 C 
ATOM     43  C   UNL     1     -11.714  -5.102   3.734  1.00  0.00     0.029 A 
ATOM     44  N   UNL     1     -13.637  -3.961   3.721  1.00  0.00    -0.354 N 
ATOM     45  C   UNL     1     -14.616  -1.275   0.489  1.00  0.00     0.074 A 
ATOM     46  C   UNL     1     -13.569  -1.256  -0.509  1.00  0.00     0.031 C 
ATOM     47  C   UNL     1     -12.366  -5.397   4.871  1.00  0.00     0.029 A 
ATOM     48  C   UNL     1     -13.619  -4.651   4.909  1.00  0.00     0.049 A 
ATOM     49  H   UNL     1     -14.377  -3.370   3.452  1.00  0.00     0.167 HD
ATOM     50  C   UNL     1     -15.753  -0.544   0.410  1.00  0.00     0.031 A 
ATOM     51  C   UNL     1     -14.509  -4.674   5.918  1.00  0.00     0.031 A 
ATOM     52  C   UNL     1     -16.799  -0.570   1.396  1.00  0.00     0.049 A 
ATOM     53  C   UNL     1     -15.764  -3.854   5.810  1.00  0.00     0.074 A 
ATOM     54  C   UNL     1     -18.012   0.094   1.383  1.00  0.00     0.029 A 
ATOM     55  N   UNL     1     -16.753  -1.302   2.573  1.00  0.00    -0.354 N 
ATOM     56  N   UNL     1     -16.148  -3.056   4.844  1.00  0.00    -0.248 NA
ATOM     57  C   UNL     1     -16.714  -3.949   6.928  1.00  0.00     0.031 C 
ATOM     58  C   UNL     1     -18.684  -0.203   2.574  1.00  0.00     0.029 A 
ATOM     59  C   UNL     1     -17.910  -1.092   3.303  1.00  0.00     0.049 A 
ATOM     60  H   UNL     1     -16.008  -1.884   2.848  1.00  0.00     0.167 HD
ATOM     61  C   UNL     1     -17.393  -2.572   5.224  1.00  0.00     0.074 A 
ATOM     62  C   UNL     1     -17.706  -3.179   6.501  1.00  0.00     0.031 C 
ATOM     63  C   UNL     1     -18.204  -1.704   4.573  1.00  0.00     0.031 A 
BRANCH  50  64
ATOM     64  C   UNL     1     -15.913   0.345  -0.790  1.00  0.00    -0.014 A 
ATOM     65  C   UNL     1     -16.118  -0.195  -2.071  1.00  0.00     0.009 A 
ATOM     66  C   UNL     1     -15.867   1.739  -0.641  1.00  0.00     0.009 A 
ATOM     67  C   UNL     1     -16.230   0.642  -3.182  1.00  0.00     0.001 A 
ATOM     68  C   UNL     1     -16.010   2.575  -1.750  1.00  0.00     0.001 A 
ATOM     69  C   UNL     1     -16.179   2.026  -3.021  1.00  0.00     0.000 A 
ENDBRANCH  50  64
BRANCH  51  70
ATOM     70  C   UNL     1     -14.252  -5.517   7.115  1.00  0.00    -0.014 A 
ATOM     71  C   UNL     1     -14.997  -6.686   7.336  1.00  0.00     0.009 A 
ATOM     72  C   UNL     1     -13.259  -5.160   8.040  1.00  0.00     0.009 A 
ATOM     73  C   UNL     1     -14.769  -7.466   8.471  1.00  0.00     0.001 A 
ATOM     74  C   UNL     1     -13.014  -5.958   9.160  1.00  0.00     0.001 A 
ATOM     75  C   UNL     1     -13.775  -7.105   9.379  1.00  0.00     0.000 A 
ENDBRANCH  51  70
BRANCH  63  76
ATOM     76  C   UNL     1     -19.523  -1.383   5.215  1.00  0.00    -0.014 A 
ATOM     77  C   UNL     1     -19.600  -0.555   6.346  1.00  0.00     0.009 A 
ATOM     78  C   UNL     1     -20.709  -1.879   4.651  1.00  0.00     0.009 A 
ATOM     79  C   UNL     1     -20.839  -0.254   6.915  1.00  0.00     0.001 A 
ATOM     80  C   UNL     1     -21.947  -1.554   5.206  1.00  0.00     0.001 A 
ATOM     81  C   UNL     1     -22.011  -0.749   6.342  1.00  0.00     0.000 A 
ENDBRANCH  63  76
ENDBRANCH  37  38
ENDBRANCH  29  32
ENDBRANCH  27  28
ENDBRANCH  26  27
ENDBRANCH  25  26
ENDBRANCH   1  25
TORSDOF 16
