REMARK SMILES O=C(NCCCCNC(=O)c1nnn(-c2cccc(Br)c2)c1[C@@H]1COc2ccccc2O1)c1ccc(-c2c3nc(c(-c4ccccc4)c4ccc([nH]4)c(-c4ccccc4)c4nc(c(-c5ccccc5)c5ccc2[nH]5)C=C4)C=C3)cc1
REMARK SMILES IDX 5 1 4 2 3 3 1 4 2 5 33 7 34 8 80 9 35 10 79 11 36 12 37 13
REMARK SMILES IDX 38 14 73 15 39 16 78 17 72 18 74 19 40 20 77 21 71 22 70 23
REMARK SMILES IDX 41 25 63 26 48 27 62 28 49 29 52 30 61 31 75 32 50 33 51 34
REMARK SMILES IDX 60 36 76 37 53 38 42 39 43 40 47 41 44 42 46 43 45 44 64 45
REMARK SMILES IDX 65 46 69 47 66 48 68 49 67 50 54 51 55 52 59 53 56 54 58 55
REMARK SMILES IDX 57 56 6 57 7 58 8 59 9 60 10 62 11 63 12 64 22 65 13 66
REMARK SMILES IDX 14 67 23 68 24 69 32 70 25 71 31 72 26 73 30 74 27 75 29 76
REMARK SMILES IDX 28 77 15 78 16 79 21 80 17 81 19 82 18 83 20 84
REMARK H PARENT 3 6 74 24 52 35 8 61
REMARK Flexibility Score: inf
ROOT
ATOM      1  C   UNL     1       4.848  -2.833   0.829  1.00  0.00     0.023 C 
ENDROOT
BRANCH   1   2
ATOM      2  C   UNL     1       4.654  -1.617  -0.068  1.00  0.00     0.116 C 
BRANCH   2   3
ATOM      3  N   UNL     1       3.284  -1.370  -0.473  1.00  0.00    -0.352 N 
ATOM      4  O   UNL     1       1.528  -0.058  -0.893  1.00  0.00    -0.269 OA
ATOM      5  C   UNL     1       2.360  -0.445  -0.072  1.00  0.00     0.251 C 
ATOM      6  H   UNL     1       2.957  -1.984  -1.169  1.00  0.00     0.163 HD
BRANCH   5   7
ATOM      7  C   UNL     1       2.214  -0.054   1.345  1.00  0.00     0.039 A 
ATOM      8  C   UNL     1       3.255  -0.044   2.270  1.00  0.00     0.014 A 
ATOM      9  C   UNL     1       0.901   0.212   1.772  1.00  0.00     0.014 A 
ATOM     10  C   UNL     1       2.975   0.085   3.617  1.00  0.00     0.010 A 
ATOM     11  C   UNL     1       0.618   0.369   3.120  1.00  0.00     0.010 A 
ATOM     12  C   UNL     1       1.656   0.253   4.040  1.00  0.00    -0.014 A 
BRANCH  12  13
ATOM     13  C   UNL     1       1.451   0.431   5.468  1.00  0.00     0.031 A 
ATOM     14  C   UNL     1       2.058   1.665   6.029  1.00  0.00     0.074 A 
ATOM     15  C   UNL     1       0.707  -0.395   6.224  1.00  0.00     0.049 A 
ATOM     16  N   UNL     1       2.973   1.765   6.936  1.00  0.00    -0.248 NA
ATOM     17  C   UNL     1       1.663   2.945   5.421  1.00  0.00     0.031 C 
ATOM     18  C   UNL     1      -0.173  -1.473   5.772  1.00  0.00     0.029 A 
ATOM     19  N   UNL     1       0.494  -0.354   7.569  1.00  0.00    -0.354 N 
ATOM     20  C   UNL     1       3.147   3.130   7.147  1.00  0.00     0.074 A 
ATOM     21  C   UNL     1       2.427   3.802   6.095  1.00  0.00     0.031 C 
ATOM     22  C   UNL     1      -0.998  -1.817   6.786  1.00  0.00     0.029 A 
ATOM     23  C   UNL     1      -0.618  -1.074   7.977  1.00  0.00     0.049 A 
ATOM     24  H   UNL     1       1.074   0.140   8.192  1.00  0.00     0.167 HD
ATOM     25  C   UNL     1       3.654   3.615   8.313  1.00  0.00     0.031 A 
ATOM     26  C   UNL     1      -1.235  -0.995   9.179  1.00  0.00     0.031 A 
ATOM     27  C   UNL     1       4.394   2.618   9.043  1.00  0.00     0.049 A 
ATOM     28  C   UNL     1      -0.297  -0.380  10.145  1.00  0.00     0.074 A 
ATOM     29  C   UNL     1       5.491   1.821   8.784  1.00  0.00     0.029 A 
ATOM     30  N   UNL     1       3.804   2.086  10.163  1.00  0.00    -0.354 N 
ATOM     31  N   UNL     1       0.764  -0.975  10.606  1.00  0.00    -0.248 NA
ATOM     32  C   UNL     1      -0.327   1.064  10.322  1.00  0.00     0.031 C 
ATOM     33  C   UNL     1       5.235   0.598   9.473  1.00  0.00     0.029 A 
ATOM     34  C   UNL     1       4.014   0.736  10.136  1.00  0.00     0.049 A 
ATOM     35  H   UNL     1       3.319   2.586  10.858  1.00  0.00     0.167 HD
ATOM     36  C   UNL     1       1.709   0.032  10.729  1.00  0.00     0.074 A 
ATOM     37  C   UNL     1       0.946   1.275  10.665  1.00  0.00     0.031 C 
ATOM     38  C   UNL     1       3.042  -0.233  10.584  1.00  0.00     0.031 A 
BRANCH  25  39
ATOM     39  C   UNL     1       3.073   4.835   8.998  1.00  0.00    -0.014 A 
ATOM     40  C   UNL     1       3.609   5.226  10.240  1.00  0.00     0.009 A 
ATOM     41  C   UNL     1       1.833   5.402   8.643  1.00  0.00     0.009 A 
ATOM     42  C   UNL     1       2.882   6.030  11.126  1.00  0.00     0.001 A 
ATOM     43  C   UNL     1       1.128   6.245   9.504  1.00  0.00     0.001 A 
ATOM     44  C   UNL     1       1.634   6.525  10.764  1.00  0.00     0.000 A 
ENDBRANCH  25  39
BRANCH  26  45
ATOM     45  C   UNL     1      -2.669  -1.179   9.482  1.00  0.00    -0.014 A 
ATOM     46  C   UNL     1      -3.105  -1.374  10.801  1.00  0.00     0.009 A 
ATOM     47  C   UNL     1      -3.643  -0.912   8.502  1.00  0.00     0.009 A 
ATOM     48  C   UNL     1      -4.463  -1.274  11.130  1.00  0.00     0.001 A 
ATOM     49  C   UNL     1      -4.999  -0.823   8.828  1.00  0.00     0.001 A 
ATOM     50  C   UNL     1      -5.407  -0.989  10.146  1.00  0.00     0.000 A 
ENDBRANCH  26  45
BRANCH  38  51
ATOM     51  C   UNL     1       3.483  -1.673  10.598  1.00  0.00    -0.014 A 
ATOM     52  C   UNL     1       3.022  -2.621   9.669  1.00  0.00     0.009 A 
ATOM     53  C   UNL     1       4.497  -2.051  11.490  1.00  0.00     0.009 A 
ATOM     54  C   UNL     1       3.533  -3.922   9.662  1.00  0.00     0.001 A 
ATOM     55  C   UNL     1       5.024  -3.344  11.468  1.00  0.00     0.001 A 
ATOM     56  C   UNL     1       4.536  -4.281  10.559  1.00  0.00     0.000 A 
ENDBRANCH  38  51
ENDBRANCH  12  13
ENDBRANCH   5   7
ENDBRANCH   2   3
ENDBRANCH   1   2
BRANCH   1  57
ATOM     57  C   UNL     1       4.368  -4.165   0.239  1.00  0.00     0.023 C 
BRANCH  57  58
ATOM     58  C   UNL     1       4.704  -4.418  -1.227  1.00  0.00     0.116 C 
BRANCH  58  59
ATOM     59  N   UNL     1       6.122  -4.375  -1.526  1.00  0.00    -0.351 N 
ATOM     60  C   UNL     1       6.758  -4.978  -2.595  1.00  0.00     0.273 C 
ATOM     61  H   UNL     1       6.689  -3.864  -0.904  1.00  0.00     0.163 HD
ATOM     62  O   UNL     1       7.950  -4.818  -2.773  1.00  0.00    -0.267 OA
BRANCH  60  63
ATOM     63  C   UNL     1       5.941  -5.840  -3.436  1.00  0.00     0.178 A 
ATOM     64  N   UNL     1       5.761  -7.150  -3.092  1.00  0.00    -0.124 NA
ATOM     65  C   UNL     1       5.179  -5.534  -4.560  1.00  0.00     0.122 A 
ATOM     66  N   UNL     1       4.877  -7.672  -3.919  1.00  0.00    -0.061 NA
ATOM     67  N   UNL     1       4.548  -6.744  -4.848  1.00  0.00    -0.213 N 
BRANCH  65  68
ATOM     68  C   UNL     1       4.942  -4.244  -5.289  1.00  0.00     0.262 C 
ATOM     69  C   UNL     1       6.213  -3.594  -5.840  1.00  0.00     0.281 C 
ATOM     70  O   UNL     1       4.129  -3.380  -4.480  1.00  0.00    -0.477 OA
ATOM     71  O   UNL     1       6.932  -2.881  -4.834  1.00  0.00    -0.485 OA
ATOM     72  C   UNL     1       4.718  -2.187  -4.159  1.00  0.00     0.162 A 
ATOM     73  C   UNL     1       6.094  -1.978  -4.239  1.00  0.00     0.161 A 
ATOM     74  C   UNL     1       3.896  -1.183  -3.659  1.00  0.00     0.050 A 
ATOM     75  C   UNL     1       6.667  -0.831  -3.697  1.00  0.00     0.050 A 
ATOM     76  C   UNL     1       4.461  -0.005  -3.162  1.00  0.00     0.004 A 
ATOM     77  C   UNL     1       5.848   0.156  -3.150  1.00  0.00     0.004 A 
ENDBRANCH  65  68
BRANCH  67  78
ATOM     78  C   UNL     1       3.597  -7.082  -5.845  1.00  0.00     0.068 A 
ATOM     79  C   UNL     1       3.645  -6.538  -7.132  1.00  0.00     0.028 A 
ATOM     80  C   UNL     1       2.565  -7.971  -5.503  1.00  0.00     0.044 A 
ATOM     81  C   UNL     1       2.605  -6.782  -8.032  1.00  0.00     0.003 A 
ATOM     82  C   UNL     1       1.532  -8.205  -6.408  1.00  0.00     0.020 A 
ATOM     83  C   UNL     1       1.536  -7.597  -7.662  1.00  0.00     0.016 A 
ATOM     84  Br  UNL     1       0.091  -9.324  -5.914  1.00  0.00    -0.051 Br
ENDBRANCH  67  78
ENDBRANCH  60  63
ENDBRANCH  58  59
ENDBRANCH  57  58
ENDBRANCH   1  57
TORSDOF 13
