REMARK SMILES CC(C)[NH2+]CC[C@H](c1ccccc1)c1cc(C(=O)NCCCCNC(=O)c2ccc(-c3c4nc(c(-c5ccccc5)c5ccc([nH]5)c(-c5ccccc5)c5nc(c(-c6ccccc6)c6ccc3[nH]6)C=C5)C=C4)cc2)ccc1O
REMARK SMILES IDX 20 1 19 2 17 3 18 4 16 6 14 7 15 8 77 9 76 10 75 11 7 12
REMARK SMILES IDX 6 13 5 14 4 15 2 18 1 19 3 20 8 21 9 22 13 23 10 24 12 25
REMARK SMILES IDX 11 26 78 27 21 29 22 30 23 31 24 32 25 33 26 35 27 36 28 37
REMARK SMILES IDX 74 38 29 39 73 40 30 41 31 42 32 43 67 44 33 45 72 46 66 47
REMARK SMILES IDX 68 48 34 49 71 50 65 51 64 52 35 54 57 55 42 56 56 57 43 58
REMARK SMILES IDX 46 59 55 60 69 61 44 62 45 63 54 65 70 66 47 67 36 68 37 69
REMARK SMILES IDX 41 70 38 71 40 72 39 73 58 74 59 75 63 76 60 77 62 78 61 79
REMARK SMILES IDX 48 80 49 81 53 82 50 83 52 84 51 85
REMARK H PARENT 19 5 4 16 4 17 78 28 24 34 68 53 46 64
REMARK Flexibility Score: inf
ROOT
ATOM      1  C   UNL     1      -1.352  -8.584   5.536  1.00  0.00     0.116 C 
ENDROOT
BRANCH   1   2
ATOM      2  N   UNL     1      -1.126  -8.951   4.150  1.00  0.00    -0.352 N 
ATOM      3  C   UNL     1      -0.640  -8.210   3.100  1.00  0.00     0.251 C 
ATOM      4  O   UNL     1      -0.521  -8.745   2.000  1.00  0.00    -0.269 OA
ATOM      5  H   UNL     1      -1.358  -9.881   3.926  1.00  0.00     0.163 HD
BRANCH   3   6
ATOM      6  C   UNL     1      -0.337  -6.765   3.242  1.00  0.00     0.040 A 
ATOM      7  C   UNL     1      -0.650  -4.513   2.285  1.00  0.00     0.002 A 
ATOM      8  C   UNL     1      -0.776  -5.912   2.214  1.00  0.00     0.022 A 
ATOM      9  C   UNL     1      -0.068  -4.005   3.464  1.00  0.00     0.119 A 
ATOM     10  C   UNL     1       0.438  -4.852   4.459  1.00  0.00     0.047 A 
ATOM     11  C   UNL     1       0.333  -6.233   4.336  1.00  0.00     0.017 A 
BRANCH   7  12
ATOM     12  C   UNL     1      -1.222  -3.615   1.177  1.00  0.00     0.059 C 
BRANCH  12  13
ATOM     13  C   UNL     1      -2.759  -3.401   1.322  1.00  0.00     0.074 C 
BRANCH  13  14
ATOM     14  C   UNL     1      -3.751  -4.020   0.325  1.00  0.00     0.261 C 
BRANCH  14  15
ATOM     15  N   UNL     1      -3.710  -5.452   0.123  1.00  0.00    -0.344 N 
ATOM     16  H   UNL     1      -4.007  -5.625  -0.837  1.00  0.00     0.346 HD
ATOM     17  H   UNL     1      -2.749  -5.699   0.364  1.00  0.00     0.346 HD
BRANCH  15  18
ATOM     18  C   UNL     1      -4.508  -6.325   0.976  1.00  0.00     0.176 C 
ATOM     19  C   UNL     1      -4.097  -7.766   0.645  1.00  0.00     0.075 C 
ATOM     20  C   UNL     1      -4.391  -6.084   2.479  1.00  0.00     0.075 C 
ENDBRANCH  15  18
ENDBRANCH  14  15
ENDBRANCH  13  14
ENDBRANCH  12  13
BRANCH  12  21
ATOM     21  C   UNL     1      -0.638  -3.730  -0.236  1.00  0.00    -0.040 A 
ATOM     22  C   UNL     1      -0.529  -4.924  -0.965  1.00  0.00     0.004 A 
ATOM     23  C   UNL     1      -0.173  -2.557  -0.867  1.00  0.00     0.004 A 
ATOM     24  C   UNL     1      -0.007  -4.946  -2.264  1.00  0.00     0.000 A 
ATOM     25  C   UNL     1       0.371  -2.580  -2.156  1.00  0.00     0.000 A 
ATOM     26  C   UNL     1       0.446  -3.775  -2.858  1.00  0.00     0.000 A 
ENDBRANCH  12  21
ENDBRANCH   7  12
BRANCH   9  27
ATOM     27  O   UNL     1       0.046  -2.678   3.776  1.00  0.00    -0.508 OA
ATOM     28  H   UNL     1      -0.262  -2.028   3.176  1.00  0.00     0.293 HD
ENDBRANCH   9  27
ENDBRANCH   3   6
ENDBRANCH   1   2
BRANCH   1  29
ATOM     29  C   UNL     1      -2.653  -9.119   6.126  1.00  0.00     0.023 C 
BRANCH  29  30
ATOM     30  C   UNL     1      -2.900 -10.620   6.011  1.00  0.00     0.023 C 
BRANCH  30  31
ATOM     31  C   UNL     1      -1.731 -11.534   6.356  1.00  0.00     0.116 C 
BRANCH  31  32
ATOM     32  N   UNL     1      -1.218 -11.354   7.704  1.00  0.00    -0.352 N 
ATOM     33  C   UNL     1      -1.021 -12.276   8.704  1.00  0.00     0.251 C 
ATOM     34  H   UNL     1      -0.974 -10.429   7.936  1.00  0.00     0.163 HD
ATOM     35  O   UNL     1      -0.627 -11.906   9.807  1.00  0.00    -0.269 OA
BRANCH  33  36
ATOM     36  C   UNL     1      -1.327 -13.706   8.478  1.00  0.00     0.039 A 
ATOM     37  C   UNL     1      -2.060 -14.396   9.448  1.00  0.00     0.014 A 
ATOM     38  C   UNL     1      -0.914 -14.363   7.317  1.00  0.00     0.014 A 
ATOM     39  C   UNL     1      -2.454 -15.716   9.215  1.00  0.00     0.010 A 
ATOM     40  C   UNL     1      -1.375 -15.649   7.050  1.00  0.00     0.010 A 
ATOM     41  C   UNL     1      -2.154 -16.338   7.993  1.00  0.00    -0.014 A 
BRANCH  41  42
ATOM     42  C   UNL     1      -2.633 -17.706   7.674  1.00  0.00     0.031 A 
ATOM     43  C   UNL     1      -1.641 -18.811   7.435  1.00  0.00     0.074 A 
ATOM     44  C   UNL     1      -3.950 -17.939   7.510  1.00  0.00     0.049 A 
ATOM     45  N   UNL     1      -1.849 -20.033   7.013  1.00  0.00    -0.248 NA
ATOM     46  C   UNL     1      -0.225 -18.489   7.672  1.00  0.00     0.031 C 
ATOM     47  C   UNL     1      -5.018 -16.951   7.680  1.00  0.00     0.029 A 
ATOM     48  N   UNL     1      -4.615 -19.084   7.143  1.00  0.00    -0.354 N 
ATOM     49  C   UNL     1      -0.591 -20.610   6.902  1.00  0.00     0.074 A 
ATOM     50  C   UNL     1       0.376 -19.597   7.264  1.00  0.00     0.031 C 
ATOM     51  C   UNL     1      -6.202 -17.536   7.436  1.00  0.00     0.029 A 
ATOM     52  C   UNL     1      -5.976 -18.925   7.051  1.00  0.00     0.049 A 
ATOM     53  H   UNL     1      -4.158 -19.937   6.963  1.00  0.00     0.167 HD
ATOM     54  C   UNL     1      -0.267 -21.875   6.544  1.00  0.00     0.031 A 
ATOM     55  C   UNL     1      -6.935 -19.797   6.685  1.00  0.00     0.031 A 
ATOM     56  C   UNL     1      -1.225 -22.894   6.211  1.00  0.00     0.049 A 
ATOM     57  C   UNL     1      -6.552 -21.198   6.299  1.00  0.00     0.074 A 
ATOM     58  C   UNL     1      -0.997 -24.221   5.889  1.00  0.00     0.029 A 
ATOM     59  N   UNL     1      -2.596 -22.699   6.163  1.00  0.00    -0.354 N 
ATOM     60  N   UNL     1      -5.361 -21.742   6.244  1.00  0.00    -0.248 NA
ATOM     61  C   UNL     1      -7.647 -22.108   5.934  1.00  0.00     0.031 C 
ATOM     62  C   UNL     1      -2.229 -24.821   5.613  1.00  0.00     0.029 A 
ATOM     63  C   UNL     1      -3.227 -23.879   5.808  1.00  0.00     0.049 A 
ATOM     64  H   UNL     1      -3.054 -21.849   6.354  1.00  0.00     0.167 HD
ATOM     65  C   UNL     1      -5.565 -23.064   5.871  1.00  0.00     0.074 A 
ATOM     66  C   UNL     1      -6.995 -23.242   5.720  1.00  0.00     0.031 C 
ATOM     67  C   UNL     1      -4.650 -24.043   5.676  1.00  0.00     0.031 A 
BRANCH  54  68
ATOM     68  C   UNL     1       1.194 -22.223   6.490  1.00  0.00    -0.014 A 
ATOM     69  C   UNL     1       1.955 -22.352   7.663  1.00  0.00     0.009 A 
ATOM     70  C   UNL     1       1.812 -22.449   5.250  1.00  0.00     0.009 A 
ATOM     71  C   UNL     1       3.314 -22.660   7.593  1.00  0.00     0.001 A 
ATOM     72  C   UNL     1       3.165 -22.785   5.185  1.00  0.00     0.001 A 
ATOM     73  C   UNL     1       3.917 -22.880   6.354  1.00  0.00     0.000 A 
ENDBRANCH  54  68
BRANCH  55  74
ATOM     74  C   UNL     1      -8.361 -19.377   6.681  1.00  0.00    -0.014 A 
ATOM     75  C   UNL     1      -9.242 -19.853   7.664  1.00  0.00     0.009 A 
ATOM     76  C   UNL     1      -8.849 -18.506   5.695  1.00  0.00     0.009 A 
ATOM     77  C   UNL     1     -10.589 -19.486   7.644  1.00  0.00     0.001 A 
ATOM     78  C   UNL     1     -10.191 -18.120   5.693  1.00  0.00     0.001 A 
ATOM     79  C   UNL     1     -11.062 -18.617   6.662  1.00  0.00     0.000 A 
ENDBRANCH  55  74
BRANCH  67  80
ATOM     80  C   UNL     1      -5.165 -25.410   5.329  1.00  0.00    -0.014 A 
ATOM     81  C   UNL     1      -5.651 -25.702   4.046  1.00  0.00     0.009 A 
ATOM     82  C   UNL     1      -5.109 -26.433   6.288  1.00  0.00     0.009 A 
ATOM     83  C   UNL     1      -6.095 -26.991   3.739  1.00  0.00     0.001 A 
ATOM     84  C   UNL     1      -5.531 -27.724   5.971  1.00  0.00     0.001 A 
ATOM     85  C   UNL     1      -6.029 -28.000   4.699  1.00  0.00     0.000 A 
ENDBRANCH  67  80
ENDBRANCH  41  42
ENDBRANCH  33  36
ENDBRANCH  31  32
ENDBRANCH  30  31
ENDBRANCH  29  30
ENDBRANCH   1  29
TORSDOF 18
