REMARK SMILES C[C@](NC(=O)C[C@@H]1CCCCO1)(C(=O)NCCCCNC(=O)c1ccc(-c2c3nc(c(-c4ccccc4)c4ccc([nH]4)c(-c4ccccc4)c4nc(c(-c5ccccc5)c5ccc2[nH]5)C=C4)C=C3)cc1)c1ccccc1
REMARK SMILES IDX 17 1 16 2 15 3 13 4 14 5 2 7 1 8 71 9 72 10 76 11 73 12
REMARK SMILES IDX 75 13 74 14 3 15 4 16 5 18 6 19 7 20 8 21 12 22 9 23 11 24
REMARK SMILES IDX 10 25 18 26 19 27 20 28 21 29 22 31 23 32 24 33 70 34 25 35
REMARK SMILES IDX 69 36 26 37 27 38 28 39 63 40 29 41 68 42 62 43 64 44 30 45
REMARK SMILES IDX 67 46 61 47 60 48 31 50 53 51 38 52 52 53 39 54 42 55 51 56
REMARK SMILES IDX 65 57 40 58 41 59 50 61 66 62 43 63 32 64 33 65 37 66 34 67
REMARK SMILES IDX 36 68 35 69 54 70 55 71 59 72 56 73 58 74 57 75 44 76 45 77
REMARK SMILES IDX 49 78 46 79 48 80 47 81
REMARK H PARENT 15 6 3 17 20 30 64 49 42 60
REMARK Flexibility Score: inf
ROOT
ATOM      1  C   UNL     1      -1.393  -1.783  -2.164  1.00  0.00     0.023 C 
ENDROOT
BRANCH   1   2
ATOM      2  C   UNL     1      -1.167  -0.276  -2.053  1.00  0.00     0.116 C 
BRANCH   2   3
ATOM      3  N   UNL     1      -1.975   0.292  -0.983  1.00  0.00    -0.354 N 
ATOM      4  C   UNL     1      -1.694   1.147   0.048  1.00  0.00     0.250 C 
ATOM      5  O   UNL     1      -2.685   1.595   0.634  1.00  0.00    -0.272 OA
ATOM      6  H   UNL     1      -2.916   0.001  -1.006  1.00  0.00     0.163 HD
BRANCH   4   7
ATOM      7  C   UNL     1      -0.231   1.670   0.317  1.00  0.00     0.141 C 
ATOM      8  C   UNL     1       0.100   2.572  -0.904  1.00  0.00     0.051 C 
BRANCH   7   9
ATOM      9  C   UNL     1      -0.194   2.373   1.682  1.00  0.00    -0.013 A 
ATOM     10  C   UNL     1       0.149   1.659   2.848  1.00  0.00     0.007 A 
ATOM     11  C   UNL     1      -0.433   3.754   1.808  1.00  0.00     0.007 A 
ATOM     12  C   UNL     1       0.406   2.324   4.047  1.00  0.00     0.000 A 
ATOM     13  C   UNL     1      -0.169   4.419   3.008  1.00  0.00     0.000 A 
ATOM     14  C   UNL     1       0.279   3.708   4.117  1.00  0.00     0.000 A 
ENDBRANCH   7   9
BRANCH   7  15
ATOM     15  N   UNL     1       0.694   0.511   0.296  1.00  0.00    -0.338 N 
ATOM     16  C   UNL     1       2.038   0.365   0.302  1.00  0.00     0.223 C 
ATOM     17  H   UNL     1       0.220  -0.352   0.271  1.00  0.00     0.164 HD
ATOM     18  O   UNL     1       2.439  -0.700  -0.189  1.00  0.00    -0.275 OA
BRANCH  16  19
ATOM     19  C   UNL     1       3.046   1.257   1.012  1.00  0.00     0.132 C 
BRANCH  19  20
ATOM     20  C   UNL     1       3.037   2.780   0.973  1.00  0.00     0.127 C 
ATOM     21  C   UNL     1       3.387   3.443  -0.359  1.00  0.00     0.033 C 
ATOM     22  O   UNL     1       3.873   3.305   2.025  1.00  0.00    -0.378 OA
ATOM     23  C   UNL     1       4.877   3.443  -0.661  1.00  0.00     0.005 C 
ATOM     24  C   UNL     1       5.273   3.176   1.792  1.00  0.00     0.160 C 
ATOM     25  C   UNL     1       5.673   3.934   0.538  1.00  0.00     0.029 C 
ENDBRANCH  19  20
ENDBRANCH  16  19
ENDBRANCH   7  15
ENDBRANCH   4   7
ENDBRANCH   2   3
ENDBRANCH   1   2
BRANCH   1  26
ATOM     26  C   UNL     1      -2.844  -2.187  -2.448  1.00  0.00     0.023 C 
BRANCH  26  27
ATOM     27  C   UNL     1      -3.474  -1.508  -3.658  1.00  0.00     0.116 C 
BRANCH  27  28
ATOM     28  N   UNL     1      -2.805  -1.852  -4.902  1.00  0.00    -0.352 N 
ATOM     29  C   UNL     1      -3.369  -2.265  -6.084  1.00  0.00     0.251 C 
ATOM     30  H   UNL     1      -1.823  -1.780  -4.896  1.00  0.00     0.163 HD
ATOM     31  O   UNL     1      -2.667  -2.671  -7.005  1.00  0.00    -0.269 OA
BRANCH  29  32
ATOM     32  C   UNL     1      -4.838  -2.245  -6.223  1.00  0.00     0.039 A 
ATOM     33  C   UNL     1      -5.494  -3.399  -6.654  1.00  0.00     0.014 A 
ATOM     34  C   UNL     1      -5.564  -1.100  -5.882  1.00  0.00     0.014 A 
ATOM     35  C   UNL     1      -6.889  -3.426  -6.684  1.00  0.00     0.010 A 
ATOM     36  C   UNL     1      -6.954  -1.153  -5.845  1.00  0.00     0.010 A 
ATOM     37  C   UNL     1      -7.630  -2.315  -6.247  1.00  0.00    -0.014 A 
BRANCH  37  38
ATOM     38  C   UNL     1      -9.113  -2.351  -6.203  1.00  0.00     0.031 A 
ATOM     39  C   UNL     1      -9.915  -1.431  -7.079  1.00  0.00     0.074 A 
ATOM     40  C   UNL     1      -9.736  -3.168  -5.332  1.00  0.00     0.049 A 
ATOM     41  N   UNL     1     -11.214  -1.277  -7.145  1.00  0.00    -0.248 NA
ATOM     42  C   UNL     1      -9.159  -0.548  -7.983  1.00  0.00     0.031 C 
ATOM     43  C   UNL     1      -9.072  -4.080  -4.397  1.00  0.00     0.029 A 
ATOM     44  N   UNL     1     -11.073  -3.359  -5.088  1.00  0.00    -0.354 N 
ATOM     45  C   UNL     1     -11.427  -0.275  -8.083  1.00  0.00     0.074 A 
ATOM     46  C   UNL     1     -10.126   0.180  -8.520  1.00  0.00     0.031 C 
ATOM     47  C   UNL     1     -10.005  -4.749  -3.700  1.00  0.00     0.029 A 
ATOM     48  C   UNL     1     -11.328  -4.288  -4.109  1.00  0.00     0.049 A 
ATOM     49  H   UNL     1     -11.783  -2.874  -5.569  1.00  0.00     0.167 HD
ATOM     50  C   UNL     1     -12.600   0.209  -8.555  1.00  0.00     0.031 A 
ATOM     51  C   UNL     1     -12.495  -4.718  -3.594  1.00  0.00     0.031 A 
ATOM     52  C   UNL     1     -13.895  -0.248  -8.127  1.00  0.00     0.049 A 
ATOM     53  C   UNL     1     -13.784  -4.156  -4.126  1.00  0.00     0.074 A 
ATOM     54  C   UNL     1     -15.142   0.145  -8.581  1.00  0.00     0.029 A 
ATOM     55  N   UNL     1     -14.109  -1.199  -7.141  1.00  0.00    -0.354 N 
ATOM     56  N   UNL     1     -13.970  -3.257  -5.061  1.00  0.00    -0.248 NA
ATOM     57  C   UNL     1     -15.025  -4.679  -3.538  1.00  0.00     0.031 C 
ATOM     58  C   UNL     1     -16.111  -0.534  -7.836  1.00  0.00     0.029 A 
ATOM     59  C   UNL     1     -15.468  -1.390  -6.958  1.00  0.00     0.049 A 
ATOM     60  H   UNL     1     -13.399  -1.668  -6.645  1.00  0.00     0.167 HD
ATOM     61  C   UNL     1     -15.346  -3.126  -5.193  1.00  0.00     0.074 A 
ATOM     62  C   UNL     1     -15.947  -4.051  -4.254  1.00  0.00     0.031 C 
ATOM     63  C   UNL     1     -16.049  -2.314  -6.018  1.00  0.00     0.031 A 
BRANCH  50  64
ATOM     64  C   UNL     1     -12.530   1.295  -9.592  1.00  0.00    -0.014 A 
ATOM     65  C   UNL     1     -12.075   1.029 -10.894  1.00  0.00     0.009 A 
ATOM     66  C   UNL     1     -12.951   2.595  -9.274  1.00  0.00     0.009 A 
ATOM     67  C   UNL     1     -12.006   2.050 -11.843  1.00  0.00     0.001 A 
ATOM     68  C   UNL     1     -12.910   3.608 -10.234  1.00  0.00     0.001 A 
ATOM     69  C   UNL     1     -12.428   3.338 -11.514  1.00  0.00     0.000 A 
ENDBRANCH  50  64
BRANCH  51  70
ATOM     70  C   UNL     1     -12.502  -5.747  -2.521  1.00  0.00    -0.014 A 
ATOM     71  C   UNL     1     -12.955  -7.049  -2.784  1.00  0.00     0.009 A 
ATOM     72  C   UNL     1     -12.063  -5.431  -1.226  1.00  0.00     0.009 A 
ATOM     73  C   UNL     1     -12.994  -8.005  -1.766  1.00  0.00     0.001 A 
ATOM     74  C   UNL     1     -12.075  -6.397  -0.217  1.00  0.00     0.001 A 
ATOM     75  C   UNL     1     -12.550  -7.679  -0.486  1.00  0.00     0.000 A 
ENDBRANCH  51  70
BRANCH  63  76
ATOM     76  C   UNL     1     -17.548  -2.413  -5.968  1.00  0.00    -0.014 A 
ATOM     77  C   UNL     1     -18.276  -1.912  -4.878  1.00  0.00     0.009 A 
ATOM     78  C   UNL     1     -18.242  -2.981  -7.048  1.00  0.00     0.009 A 
ATOM     79  C   UNL     1     -19.669  -2.007  -4.857  1.00  0.00     0.001 A 
ATOM     80  C   UNL     1     -19.636  -3.048  -7.038  1.00  0.00     0.001 A 
ATOM     81  C   UNL     1     -20.347  -2.570  -5.939  1.00  0.00     0.000 A 
ENDBRANCH  63  76
ENDBRANCH  37  38
ENDBRANCH  29  32
ENDBRANCH  27  28
ENDBRANCH  26  27
ENDBRANCH   1  26
TORSDOF 15
