REMARK SMILES O=C(CCCNC(=O)Cc1csc(-c2ccsc2)n1)NCCCCNC(=O)c1ccc(-c2c3nc(c(-c4ccccc4)c4ccc([nH]4)c(-c4ccccc4)c4nc(c(-c5ccccc5)c5ccc2[nH]5)C=C4)C=C3)cc1
REMARK SMILES IDX 1 1 2 2 20 3 3 5 4 6 5 7 6 8 7 9 8 11 9 12 10 13 11 14 19 15
REMARK SMILES IDX 12 16 13 17 14 18 15 19 18 20 16 21 17 22 21 23 22 24 23 25
REMARK SMILES IDX 24 26 25 27 26 28 27 30 28 31 29 32 75 33 30 34 74 35 31 36
REMARK SMILES IDX 32 37 33 38 68 39 34 40 73 41 67 42 69 43 35 44 72 45 66 46
REMARK SMILES IDX 65 47 36 49 58 50 43 51 57 52 44 53 47 54 56 55 70 56 45 57
REMARK SMILES IDX 46 58 55 60 71 61 48 62 37 63 38 64 42 65 39 66 41 67 40 68
REMARK SMILES IDX 59 69 60 70 64 71 61 72 63 73 62 74 49 75 50 76 54 77 51 78
REMARK SMILES IDX 53 79 52 80
REMARK H PARENT 20 4 6 10 25 29 69 48 47 59
REMARK Flexibility Score: inf
ROOT
ATOM      1  O   UNL     1       0.900  -0.444  -0.112  1.00  0.00    -0.275 OA
ATOM      2  C   UNL     1       2.041  -0.004  -0.007  1.00  0.00     0.220 C 
ATOM      3  N   UNL     1       2.638   0.812  -0.938  1.00  0.00    -0.356 N 
ATOM      4  H   UNL     1       3.543   1.156  -0.757  1.00  0.00     0.163 HD
ENDROOT
BRANCH   2   5
ATOM      5  C   UNL     1       2.940  -0.364   1.153  1.00  0.00     0.102 C 
BRANCH   5   6
ATOM      6  C   UNL     1       3.812  -1.579   0.832  1.00  0.00     0.031 C 
BRANCH   6   7
ATOM      7  C   UNL     1       4.936  -1.336  -0.184  1.00  0.00     0.116 C 
BRANCH   7   8
ATOM      8  N   UNL     1       5.859  -0.298   0.249  1.00  0.00    -0.356 N 
ATOM      9  C   UNL     1       7.200  -0.366   0.502  1.00  0.00     0.226 C 
ATOM     10  H   UNL     1       5.456   0.590   0.380  1.00  0.00     0.163 HD
ATOM     11  O   UNL     1       7.758   0.671   0.869  1.00  0.00    -0.275 OA
BRANCH   9  12
ATOM     12  C   UNL     1       7.973  -1.655   0.302  1.00  0.00     0.157 C 
BRANCH  12  13
ATOM     13  C   UNL     1       7.593  -2.750   1.246  1.00  0.00     0.061 A 
ATOM     14  C   UNL     1       6.849  -2.659   2.408  1.00  0.00     0.091 A 
ATOM     15  N   UNL     1       8.001  -4.041   0.936  1.00  0.00    -0.241 NA
ATOM     16  S   UNL     1       6.398  -4.224   2.937  1.00  0.00    -0.122 S 
ATOM     17  C   UNL     1       7.414  -4.910   1.733  1.00  0.00     0.124 A 
BRANCH  17  18
ATOM     18  C   UNL     1       7.652  -6.383   1.603  1.00  0.00     0.021 A 
ATOM     19  C   UNL     1       8.873  -6.959   1.141  1.00  0.00     0.023 A 
ATOM     20  C   UNL     1       6.716  -7.345   1.920  1.00  0.00     0.076 A 
ATOM     21  C   UNL     1       8.844  -8.336   1.186  1.00  0.00     0.065 A 
ATOM     22  S   UNL     1       7.319  -8.931   1.684  1.00  0.00    -0.152 S 
ENDBRANCH  17  18
ENDBRANCH  12  13
ENDBRANCH   9  12
ENDBRANCH   7   8
ENDBRANCH   6   7
ENDBRANCH   5   6
ENDBRANCH   2   5
BRANCH   3  23
ATOM     23  C   UNL     1       1.982   1.182  -2.174  1.00  0.00     0.116 C 
BRANCH  23  24
ATOM     24  C   UNL     1       2.410   2.565  -2.658  1.00  0.00     0.023 C 
BRANCH  24  25
ATOM     25  C   UNL     1       3.908   2.728  -2.942  1.00  0.00     0.023 C 
BRANCH  25  26
ATOM     26  C   UNL     1       4.487   1.770  -3.979  1.00  0.00     0.116 C 
BRANCH  26  27
ATOM     27  N   UNL     1       3.923   1.976  -5.303  1.00  0.00    -0.352 N 
ATOM     28  C   UNL     1       4.549   2.265  -6.489  1.00  0.00     0.251 C 
ATOM     29  H   UNL     1       2.943   1.896  -5.356  1.00  0.00     0.163 HD
ATOM     30  O   UNL     1       3.876   2.577  -7.474  1.00  0.00    -0.269 OA
BRANCH  28  31
ATOM     31  C   UNL     1       6.024   2.232  -6.598  1.00  0.00     0.039 A 
ATOM     32  C   UNL     1       6.671   3.256  -7.295  1.00  0.00     0.014 A 
ATOM     33  C   UNL     1       6.770   1.189  -6.042  1.00  0.00     0.014 A 
ATOM     34  C   UNL     1       8.066   3.272  -7.376  1.00  0.00     0.010 A 
ATOM     35  C   UNL     1       8.164   1.242  -6.063  1.00  0.00     0.010 A 
ATOM     36  C   UNL     1       8.827   2.284  -6.729  1.00  0.00    -0.014 A 
BRANCH  36  37
ATOM     37  C   UNL     1      10.312   2.334  -6.728  1.00  0.00     0.031 A 
ATOM     38  C   UNL     1      11.115   1.250  -7.393  1.00  0.00     0.074 A 
ATOM     39  C   UNL     1      10.946   3.327  -6.071  1.00  0.00     0.049 A 
ATOM     40  N   UNL     1      12.414   1.093  -7.437  1.00  0.00    -0.248 NA
ATOM     41  C   UNL     1      10.358   0.192  -8.081  1.00  0.00     0.031 C 
ATOM     42  C   UNL     1      10.290   4.422  -5.354  1.00  0.00     0.029 A 
ATOM     43  N   UNL     1      12.286   3.569  -5.894  1.00  0.00    -0.354 N 
ATOM     44  C   UNL     1      12.629  -0.085  -8.142  1.00  0.00     0.074 A 
ATOM     45  C   UNL     1      11.327  -0.627  -8.464  1.00  0.00     0.031 C 
ATOM     46  C   UNL     1      11.228   5.229  -4.832  1.00  0.00     0.029 A 
ATOM     47  C   UNL     1      12.548   4.688  -5.141  1.00  0.00     0.049 A 
ATOM     48  H   UNL     1      12.991   2.994  -6.269  1.00  0.00     0.167 HD
ATOM     49  C   UNL     1      13.803  -0.657  -8.504  1.00  0.00     0.031 A 
ATOM     50  C   UNL     1      13.718   5.217  -4.735  1.00  0.00     0.031 A 
ATOM     51  C   UNL     1      15.101  -0.120  -8.190  1.00  0.00     0.049 A 
ATOM     52  C   UNL     1      15.006   4.552  -5.131  1.00  0.00     0.074 A 
ATOM     53  C   UNL     1      16.345  -0.603  -8.556  1.00  0.00     0.029 A 
ATOM     54  N   UNL     1      15.322   1.019  -7.432  1.00  0.00    -0.354 N 
ATOM     55  N   UNL     1      15.191   3.472  -5.851  1.00  0.00    -0.248 NA
ATOM     56  C   UNL     1      16.248   5.187  -4.668  1.00  0.00     0.031 C 
ATOM     57  C   UNL     1      17.321   0.215  -7.977  1.00  0.00     0.029 A 
ATOM     58  C   UNL     1      16.682   1.241  -7.299  1.00  0.00     0.049 A 
ATOM     59  H   UNL     1      14.616   1.586  -7.045  1.00  0.00     0.167 HD
ATOM     60  C   UNL     1      16.568   3.315  -5.949  1.00  0.00     0.074 A 
ATOM     61  C   UNL     1      17.170   4.418  -5.230  1.00  0.00     0.031 C 
ATOM     62  C   UNL     1      17.270   2.342  -6.581  1.00  0.00     0.031 A 
BRANCH  49  63
ATOM     63  C   UNL     1      13.734  -1.942  -9.282  1.00  0.00    -0.014 A 
ATOM     64  C   UNL     1      13.282  -1.964 -10.612  1.00  0.00     0.009 A 
ATOM     65  C   UNL     1      14.162  -3.142  -8.692  1.00  0.00     0.009 A 
ATOM     66  C   UNL     1      13.224  -3.166 -11.320  1.00  0.00     0.001 A 
ATOM     67  C   UNL     1      14.130  -4.337  -9.413  1.00  0.00     0.001 A 
ATOM     68  C   UNL     1      13.652  -4.350 -10.722  1.00  0.00     0.000 A 
ENDBRANCH  49  63
BRANCH  50  69
ATOM     69  C   UNL     1      13.728   6.451  -3.907  1.00  0.00    -0.014 A 
ATOM     70  C   UNL     1      14.181   7.666  -4.444  1.00  0.00     0.009 A 
ATOM     71  C   UNL     1      13.292   6.420  -2.573  1.00  0.00     0.009 A 
ATOM     72  C   UNL     1      14.223   8.817  -3.655  1.00  0.00     0.001 A 
ATOM     73  C   UNL     1      13.307   7.580  -1.795  1.00  0.00     0.001 A 
ATOM     74  C   UNL     1      13.782   8.774  -2.333  1.00  0.00     0.000 A 
ENDBRANCH  50  69
BRANCH  62  75
ATOM     75  C   UNL     1      18.769   2.447  -6.553  1.00  0.00    -0.014 A 
ATOM     76  C   UNL     1      19.498   2.193  -5.380  1.00  0.00     0.009 A 
ATOM     77  C   UNL     1      19.464   2.768  -7.730  1.00  0.00     0.009 A 
ATOM     78  C   UNL     1      20.891   2.292  -5.380  1.00  0.00     0.001 A 
ATOM     79  C   UNL     1      20.858   2.837  -7.733  1.00  0.00     0.001 A 
ATOM     80  C   UNL     1      21.569   2.609  -6.557  1.00  0.00     0.000 A 
ENDBRANCH  62  75
ENDBRANCH  36  37
ENDBRANCH  28  31
ENDBRANCH  26  27
ENDBRANCH  25  26
ENDBRANCH  24  25
ENDBRANCH  23  24
ENDBRANCH   3  23
TORSDOF 17
