REMARK SMILES O=C(NCCCCNC(=O)c1cccnc1Sc1cccc(C(F)(F)F)c1)c1ccc(-c2c3nc(c(-c4ccccc4)c4ccc([nH]4)c(-c4ccccc4)c4nc(c(-c5ccccc5)c5ccc2[nH]5)C=C4)C=C3)cc1
REMARK SMILES IDX 6 1 5 2 4 3 3 4 1 5 2 6 28 8 29 9 75 10 30 11 74 12 31 13
REMARK SMILES IDX 32 14 33 15 68 16 34 17 73 18 67 19 69 20 35 21 72 22 66 23
REMARK SMILES IDX 65 24 36 26 58 27 43 28 57 29 44 30 47 31 56 32 70 33 45 34
REMARK SMILES IDX 46 35 55 37 71 38 48 39 37 40 38 41 42 42 39 43 41 44 40 45
REMARK SMILES IDX 59 46 60 47 64 48 61 49 63 50 62 51 49 52 50 53 54 54 51 55
REMARK SMILES IDX 53 56 52 57 7 58 8 59 9 60 10 62 11 63 12 64 16 65 13 66
REMARK SMILES IDX 15 67 14 68 17 69 18 70 19 71 27 72 20 73 22 74 21 75 23 76
REMARK SMILES IDX 24 77 25 78 26 79
REMARK H PARENT 3 7 69 25 47 36 8 61
REMARK Flexibility Score: inf
ROOT
ATOM      1  C   UNL     1       4.257   3.774   0.405  1.00  0.00     0.023 C 
ENDROOT
BRANCH   1   2
ATOM      2  C   UNL     1       4.702   2.465  -0.230  1.00  0.00     0.023 C 
BRANCH   2   3
ATOM      3  C   UNL     1       4.301   1.199   0.505  1.00  0.00     0.116 C 
BRANCH   3   4
ATOM      4  N   UNL     1       2.875   0.932   0.452  1.00  0.00    -0.352 N 
ATOM      5  O   UNL     1       0.988  -0.143  -0.163  1.00  0.00    -0.269 OA
ATOM      6  C   UNL     1       2.214  -0.146  -0.091  1.00  0.00     0.251 C 
ATOM      7  H   UNL     1       2.300   1.618   0.862  1.00  0.00     0.163 HD
BRANCH   6   8
ATOM      8  C   UNL     1       2.981  -1.301  -0.611  1.00  0.00     0.039 A 
ATOM      9  C   UNL     1       4.063  -1.819   0.103  1.00  0.00     0.014 A 
ATOM     10  C   UNL     1       2.603  -1.885  -1.824  1.00  0.00     0.014 A 
ATOM     11  C   UNL     1       4.855  -2.812  -0.460  1.00  0.00     0.010 A 
ATOM     12  C   UNL     1       3.333  -2.963  -2.336  1.00  0.00     0.010 A 
ATOM     13  C   UNL     1       4.474  -3.427  -1.664  1.00  0.00    -0.014 A 
BRANCH  13  14
ATOM     14  C   UNL     1       5.206  -4.638  -2.113  1.00  0.00     0.031 A 
ATOM     15  C   UNL     1       5.959  -4.677  -3.412  1.00  0.00     0.074 A 
ATOM     16  C   UNL     1       5.184  -5.721  -1.308  1.00  0.00     0.049 A 
ATOM     17  N   UNL     1       6.641  -5.668  -3.932  1.00  0.00    -0.248 NA
ATOM     18  C   UNL     1       5.946  -3.461  -4.239  1.00  0.00     0.031 C 
ATOM     19  C   UNL     1       4.474  -5.805  -0.026  1.00  0.00     0.029 A 
ATOM     20  N   UNL     1       5.780  -6.949  -1.432  1.00  0.00    -0.354 N 
ATOM     21  C   UNL     1       7.119  -5.206  -5.151  1.00  0.00     0.074 A 
ATOM     22  C   UNL     1       6.637  -3.849  -5.304  1.00  0.00     0.031 C 
ATOM     23  C   UNL     1       4.716  -6.996   0.537  1.00  0.00     0.029 A 
ATOM     24  C   UNL     1       5.524  -7.791  -0.377  1.00  0.00     0.049 A 
ATOM     25  H   UNL     1       6.338  -7.202  -2.203  1.00  0.00     0.167 HD
ATOM     26  C   UNL     1       7.887  -5.859  -6.057  1.00  0.00     0.031 A 
ATOM     27  C   UNL     1       5.869  -9.075  -0.175  1.00  0.00     0.031 A 
ATOM     28  C   UNL     1       8.364  -7.209  -5.896  1.00  0.00     0.049 A 
ATOM     29  C   UNL     1       6.680  -9.778  -1.222  1.00  0.00     0.074 A 
ATOM     30  C   UNL     1       9.189  -7.936  -6.739  1.00  0.00     0.029 A 
ATOM     31  N   UNL     1       8.052  -8.040  -4.831  1.00  0.00    -0.354 N 
ATOM     32  N   UNL     1       7.171  -9.305  -2.341  1.00  0.00    -0.248 NA
ATOM     33  C   UNL     1       6.982 -11.194  -0.979  1.00  0.00     0.031 C 
ATOM     34  C   UNL     1       9.319  -9.227  -6.219  1.00  0.00     0.029 A 
ATOM     35  C   UNL     1       8.633  -9.284  -5.017  1.00  0.00     0.049 A 
ATOM     36  H   UNL     1       7.499  -7.784  -4.058  1.00  0.00     0.167 HD
ATOM     37  C   UNL     1       7.854 -10.360  -2.927  1.00  0.00     0.074 A 
ATOM     38  C   UNL     1       7.742 -11.487  -2.024  1.00  0.00     0.031 C 
ATOM     39  C   UNL     1       8.509 -10.396  -4.112  1.00  0.00     0.031 A 
BRANCH  26  40
ATOM     40  C   UNL     1       8.248  -5.144  -7.331  1.00  0.00    -0.014 A 
ATOM     41  C   UNL     1       9.195  -4.109  -7.347  1.00  0.00     0.009 A 
ATOM     42  C   UNL     1       7.706  -5.586  -8.550  1.00  0.00     0.009 A 
ATOM     43  C   UNL     1       9.581  -3.523  -8.556  1.00  0.00     0.001 A 
ATOM     44  C   UNL     1       8.113  -5.017  -9.758  1.00  0.00     0.001 A 
ATOM     45  C   UNL     1       9.047  -3.983  -9.760  1.00  0.00     0.000 A 
ENDBRANCH  26  40
BRANCH  27  46
ATOM     46  C   UNL     1       5.403  -9.793   1.040  1.00  0.00    -0.014 A 
ATOM     47  C   UNL     1       6.316 -10.246   2.003  1.00  0.00     0.009 A 
ATOM     48  C   UNL     1       4.035 -10.052   1.229  1.00  0.00     0.009 A 
ATOM     49  C   UNL     1       5.873 -10.978   3.107  1.00  0.00     0.001 A 
ATOM     50  C   UNL     1       3.591 -10.749   2.353  1.00  0.00     0.001 A 
ATOM     51  C   UNL     1       4.512 -11.225   3.283  1.00  0.00     0.000 A 
ENDBRANCH  27  46
BRANCH  39  52
ATOM     52  C   UNL     1       9.176 -11.691  -4.480  1.00  0.00    -0.014 A 
ATOM     53  C   UNL     1       8.425 -12.822  -4.835  1.00  0.00     0.009 A 
ATOM     54  C   UNL     1      10.577 -11.774  -4.489  1.00  0.00     0.009 A 
ATOM     55  C   UNL     1       9.064 -14.022  -5.153  1.00  0.00     0.001 A 
ATOM     56  C   UNL     1      11.213 -12.964  -4.841  1.00  0.00     0.001 A 
ATOM     57  C   UNL     1      10.457 -14.090  -5.161  1.00  0.00     0.000 A 
ENDBRANCH  39  52
ENDBRANCH  13  14
ENDBRANCH   6   8
ENDBRANCH   3   4
ENDBRANCH   2   3
ENDBRANCH   1   2
BRANCH   1  58
ATOM     58  C   UNL     1       4.629   3.942   1.873  1.00  0.00     0.116 C 
BRANCH  58  59
ATOM     59  N   UNL     1       6.046   3.748   2.154  1.00  0.00    -0.352 N 
ATOM     60  C   UNL     1       6.916   4.580   2.818  1.00  0.00     0.254 C 
ATOM     61  H   UNL     1       6.433   2.906   1.822  1.00  0.00     0.163 HD
ATOM     62  O   UNL     1       8.021   4.178   3.170  1.00  0.00    -0.269 OA
BRANCH  60  63
ATOM     63  C   UNL     1       6.472   5.923   3.193  1.00  0.00     0.072 A 
ATOM     64  C   UNL     1       5.504   5.976   4.214  1.00  0.00     0.018 A 
ATOM     65  C   UNL     1       6.924   7.106   2.611  1.00  0.00     0.113 A 
ATOM     66  C   UNL     1       4.950   7.189   4.586  1.00  0.00     0.021 A 
ATOM     67  N   UNL     1       6.372   8.296   2.996  1.00  0.00    -0.249 NA
ATOM     68  C   UNL     1       5.413   8.318   3.947  1.00  0.00     0.112 A 
BRANCH  65  69
ATOM     69  S   UNL     1       8.142   7.398   1.349  1.00  0.00    -0.069 SA
BRANCH  69  70
ATOM     70  C   UNL     1       8.852   5.873   0.809  1.00  0.00     0.014 A 
ATOM     71  C   UNL     1      10.126   5.498   1.251  1.00  0.00     0.015 A 
ATOM     72  C   UNL     1       8.213   5.095  -0.162  1.00  0.00     0.028 A 
ATOM     73  C   UNL     1      10.729   4.332   0.775  1.00  0.00     0.002 A 
ATOM     74  C   UNL     1       8.810   3.920  -0.651  1.00  0.00     0.057 A 
ATOM     75  C   UNL     1      10.070   3.542  -0.165  1.00  0.00     0.013 A 
BRANCH  74  76
ATOM     76  C   UNL     1       8.120   3.062  -1.679  1.00  0.00     0.416 C 
ATOM     77  F   UNL     1       8.861   2.881  -2.805  1.00  0.00    -0.166 F 
ATOM     78  F   UNL     1       7.847   1.812  -1.207  1.00  0.00    -0.166 F 
ATOM     79  F   UNL     1       6.926   3.568  -2.097  1.00  0.00    -0.166 F 
ENDBRANCH  74  76
ENDBRANCH  69  70
ENDBRANCH  65  69
ENDBRANCH  60  63
ENDBRANCH  58  59
ENDBRANCH   1  58
TORSDOF 14
