REMARK SMILES Cc1cc(Cl)c2c(c1)C=C(C(=O)NCCCCNC(=O)c1ccc(-c3c4nc(c(-c5ccccc5)c5ccc([nH]5)c(-c5ccccc5)c5nc(c(-c6ccccc6)c6ccc3[nH]6)C=C5)C=C4)cc1)[C@@H](C(F)(F)F)O2
REMARK SMILES IDX 16 1 15 2 14 3 13 4 11 5 12 6 10 8 1 9 2 10 3 11 8 12 4 13
REMARK SMILES IDX 7 14 5 15 6 16 9 17 74 18 69 19 70 20 71 21 72 22 73 23
REMARK SMILES IDX 17 24 18 25 19 26 20 28 21 29 22 30 68 31 23 32 67 33 24 34
REMARK SMILES IDX 25 35 26 36 61 37 27 38 66 39 60 40 62 41 28 42 65 43 59 44
REMARK SMILES IDX 58 45 29 47 51 48 36 49 50 50 37 51 40 52 49 53 63 54 38 55
REMARK SMILES IDX 39 56 48 58 64 59 41 60 30 61 31 62 35 63 32 64 34 65 33 66
REMARK SMILES IDX 52 67 53 68 57 69 54 70 56 71 55 72 42 73 43 74 47 75 44 76
REMARK SMILES IDX 46 77 45 78
REMARK H PARENT 13 7 18 27 62 46 40 57
REMARK Flexibility Score: inf
ROOT
ATOM      1  C   UNL     1       1.560   8.745   6.811  1.00  0.00     0.023 C 
ENDROOT
BRANCH   1   2
ATOM      2  C   UNL     1       1.110   7.325   6.461  1.00  0.00     0.023 C 
BRANCH   2   3
ATOM      3  C   UNL     1       0.043   7.259   5.373  1.00  0.00     0.116 C 
BRANCH   3   4
ATOM      4  N   UNL     1       0.622   7.286   4.042  1.00  0.00    -0.352 N 
ATOM      5  C   UNL     1       0.850   6.398   3.047  1.00  0.00     0.251 C 
ATOM      6  O   UNL     1       1.397   6.867   2.043  1.00  0.00    -0.270 OA
ATOM      7  H   UNL     1       0.930   8.189   3.799  1.00  0.00     0.163 HD
BRANCH   5   8
ATOM      8  C   UNL     1       0.499   4.946   3.086  1.00  0.00     0.067 C 
ATOM      9  C   UNL     1       1.111  -0.161  -0.357  1.00  0.00     0.044 C 
ATOM     10  C   UNL     1       0.725   0.647   0.846  1.00  0.00    -0.049 A 
ATOM     11  C   UNL     1       0.139   0.036   1.960  1.00  0.00     0.028 A 
ATOM     12  C   UNL     1       0.988   2.024   0.882  1.00  0.00     0.015 A 
ATOM     13  C   UNL     1      -0.189   0.793   3.087  1.00  0.00     0.084 A 
ATOM     14  C   UNL     1       0.659   2.786   2.010  1.00  0.00     0.019 A 
ATOM     15  Cl  UNL     1      -0.907  -0.009   4.437  1.00  0.00    -0.080 Cl
ATOM     16  C   UNL     1       0.063   2.168   3.111  1.00  0.00     0.146 A 
ATOM     17  C   UNL     1       0.976   4.208   2.066  1.00  0.00     0.025 C 
ATOM     18  O   UNL     1      -0.234   2.863   4.250  1.00  0.00    -0.474 OA
ATOM     19  C   UNL     1      -0.361   4.305   4.137  1.00  0.00     0.314 C 
BRANCH  19  20
ATOM     20  C   UNL     1      -1.850   4.672   3.991  1.00  0.00     0.429 C 
ATOM     21  F   UNL     1      -2.528   4.369   5.126  1.00  0.00    -0.167 F 
ATOM     22  F   UNL     1      -2.039   5.997   3.779  1.00  0.00    -0.167 F 
ATOM     23  F   UNL     1      -2.449   4.021   2.970  1.00  0.00    -0.167 F 
ENDBRANCH  19  20
ENDBRANCH   5   8
ENDBRANCH   3   4
ENDBRANCH   2   3
ENDBRANCH   1   2
BRANCH   1  24
ATOM     24  C   UNL     1       0.442   9.707   7.209  1.00  0.00     0.116 C 
BRANCH  24  25
ATOM     25  N   UNL     1      -0.441   9.189   8.244  1.00  0.00    -0.352 N 
ATOM     26  C   UNL     1      -1.086   9.888   9.236  1.00  0.00     0.251 C 
ATOM     27  H   UNL     1      -0.595   8.216   8.233  1.00  0.00     0.163 HD
ATOM     28  O   UNL     1      -1.748   9.309  10.089  1.00  0.00    -0.269 OA
BRANCH  26  29
ATOM     29  C   UNL     1      -0.928  11.352   9.282  1.00  0.00     0.039 A 
ATOM     30  C   UNL     1      -0.427  11.937  10.447  1.00  0.00     0.014 A 
ATOM     31  C   UNL     1      -1.199  12.126   8.150  1.00  0.00     0.014 A 
ATOM     32  C   UNL     1      -0.126  13.297  10.453  1.00  0.00     0.010 A 
ATOM     33  C   UNL     1      -0.841  13.469   8.139  1.00  0.00     0.010 A 
ATOM     34  C   UNL     1      -0.295  14.063   9.287  1.00  0.00    -0.014 A 
BRANCH  34  35
ATOM     35  C   UNL     1       0.099  15.490   9.250  1.00  0.00     0.031 A 
ATOM     36  C   UNL     1      -0.951  16.552   9.108  1.00  0.00     0.074 A 
ATOM     37  C   UNL     1       1.403  15.823   9.293  1.00  0.00     0.049 A 
ATOM     38  N   UNL     1      -0.803  17.848   9.013  1.00  0.00    -0.248 NA
ATOM     39  C   UNL     1      -2.350  16.098   9.045  1.00  0.00     0.031 C 
ATOM     40  C   UNL     1       2.518  14.879   9.399  1.00  0.00     0.029 A 
ATOM     41  N   UNL     1       2.010  17.052   9.255  1.00  0.00    -0.354 N 
ATOM     42  C   UNL     1      -2.084  18.361   8.868  1.00  0.00     0.074 A 
ATOM     43  C   UNL     1      -2.994  17.237   8.840  1.00  0.00     0.031 C 
ATOM     44  C   UNL     1       3.670  15.566   9.455  1.00  0.00     0.029 A 
ATOM     45  C   UNL     1       3.379  16.993   9.355  1.00  0.00     0.049 A 
ATOM     46  H   UNL     1       1.513  17.897   9.166  1.00  0.00     0.167 HD
ATOM     47  C   UNL     1      -2.472  19.655   8.790  1.00  0.00     0.031 A 
ATOM     48  C   UNL     1       4.295  17.979   9.368  1.00  0.00     0.031 A 
ATOM     49  C   UNL     1      -1.572  20.774   8.832  1.00  0.00     0.049 A 
ATOM     50  C   UNL     1       3.840  19.406   9.262  1.00  0.00     0.074 A 
ATOM     51  C   UNL     1      -1.873  22.124   8.801  1.00  0.00     0.029 A 
ATOM     52  N   UNL     1      -0.193  20.670   8.920  1.00  0.00    -0.354 N 
ATOM     53  N   UNL     1       2.621  19.878   9.167  1.00  0.00    -0.248 NA
ATOM     54  C   UNL     1       4.888  20.438   9.268  1.00  0.00     0.031 C 
ATOM     55  C   UNL     1      -0.671  22.838   8.835  1.00  0.00     0.029 A 
ATOM     56  C   UNL     1       0.373  21.933   8.929  1.00  0.00     0.049 A 
ATOM     57  H   UNL     1       0.309  19.825   8.969  1.00  0.00     0.167 HD
ATOM     58  C   UNL     1       2.752  21.259   9.121  1.00  0.00     0.074 A 
ATOM     59  C   UNL     1       4.168  21.550   9.212  1.00  0.00     0.031 C 
ATOM     60  C   UNL     1       1.785  22.201   9.015  1.00  0.00     0.031 A 
BRANCH  47  61
ATOM     61  C   UNL     1      -3.943  19.924   8.658  1.00  0.00    -0.014 A 
ATOM     62  C   UNL     1      -4.809  19.743   9.748  1.00  0.00     0.009 A 
ATOM     63  C   UNL     1      -4.465  20.392   7.442  1.00  0.00     0.009 A 
ATOM     64  C   UNL     1      -6.175  19.995   9.614  1.00  0.00     0.001 A 
ATOM     65  C   UNL     1      -5.828  20.666   7.319  1.00  0.00     0.001 A 
ATOM     66  C   UNL     1      -6.682  20.460   8.401  1.00  0.00     0.000 A 
ENDBRANCH  47  61
BRANCH  48  67
ATOM     67  C   UNL     1       5.734  17.650   9.523  1.00  0.00    -0.014 A 
ATOM     68  C   UNL     1       6.385  17.892  10.742  1.00  0.00     0.009 A 
ATOM     69  C   UNL     1       6.460  17.082   8.465  1.00  0.00     0.009 A 
ATOM     70  C   UNL     1       7.739  17.587  10.894  1.00  0.00     0.001 A 
ATOM     71  C   UNL     1       7.809  16.758   8.627  1.00  0.00     0.001 A 
ATOM     72  C   UNL     1       8.449  17.017   9.839  1.00  0.00     0.000 A 
ENDBRANCH  48  67
BRANCH  60  73
ATOM     73  C   UNL     1       2.219  23.637   9.005  1.00  0.00    -0.014 A 
ATOM     74  C   UNL     1       2.787  24.210   7.858  1.00  0.00     0.009 A 
ATOM     75  C   UNL     1       1.990  24.441  10.132  1.00  0.00     0.009 A 
ATOM     76  C   UNL     1       3.135  25.562   7.847  1.00  0.00     0.001 A 
ATOM     77  C   UNL     1       2.319  25.797  10.110  1.00  0.00     0.001 A 
ATOM     78  C   UNL     1       2.894  26.355   8.969  1.00  0.00     0.000 A 
ENDBRANCH  60  73
ENDBRANCH  34  35
ENDBRANCH  26  29
ENDBRANCH  24  25
ENDBRANCH   1  24
TORSDOF 12
