REMARK SMILES COc1cc(/C=C/C(=O)NCCCCNC(=O)c2ccc(-c3c4nc(c(-c5ccccc5)c5ccc([nH]5)c(-c5ccccc5)c5nc(c(-c6ccccc6)c6ccc3[nH]6)C=C5)C=C4)cc2)cc(OC)c1O
REMARK SMILES IDX 12 1 11 2 10 3 8 4 9 5 7 7 6 8 5 9 3 10 4 11 70 12 67 13
REMARK SMILES IDX 66 14 2 15 1 16 71 17 68 19 69 20 13 21 14 22 15 23 16 24
REMARK SMILES IDX 17 26 18 27 19 28 65 29 20 30 64 31 21 32 22 33 23 34 58 35
REMARK SMILES IDX 24 36 63 37 57 38 59 39 25 40 62 41 56 42 55 43 26 45 48 46
REMARK SMILES IDX 33 47 47 48 34 49 37 50 46 51 60 52 35 53 36 54 45 56 61 57
REMARK SMILES IDX 38 58 27 59 28 60 32 61 29 62 31 63 30 64 49 65 50 66 54 67
REMARK SMILES IDX 51 68 53 69 52 70 39 71 40 72 44 73 41 74 43 75 42 76
REMARK H PARENT 10 6 71 18 15 25 59 44 37 55
REMARK Flexibility Score: inf
ROOT
ATOM      1  C   UNL     1      -1.214  -3.322   8.444  1.00  0.00     0.023 C 
ENDROOT
BRANCH   1   2
ATOM      2  C   UNL     1      -2.312  -2.450   7.834  1.00  0.00     0.116 C 
BRANCH   2   3
ATOM      3  N   UNL     1      -2.067  -1.044   8.098  1.00  0.00    -0.353 N 
ATOM      4  C   UNL     1      -1.660  -0.046   7.270  1.00  0.00     0.243 C 
ATOM      5  O   UNL     1      -1.604   1.106   7.695  1.00  0.00    -0.270 OA
ATOM      6  H   UNL     1      -2.222  -0.768   9.031  1.00  0.00     0.163 HD
BRANCH   4   7
ATOM      7  C   UNL     1      -1.363  -0.303   5.842  1.00  0.00     0.072 C 
ATOM      8  C   UNL     1      -0.609  -1.316   5.393  1.00  0.00     0.014 C 
BRANCH   8   9
ATOM      9  C   UNL     1      -0.284  -1.540   3.979  1.00  0.00    -0.018 A 
ATOM     10  C   UNL     1       0.567  -0.775   1.833  1.00  0.00     0.165 A 
ATOM     11  C   UNL     1       0.149  -0.509   3.143  1.00  0.00     0.058 A 
ATOM     12  C   UNL     1       0.579  -2.099   1.363  1.00  0.00     0.200 A 
ATOM     13  C   UNL     1       0.107  -3.141   2.173  1.00  0.00     0.165 A 
ATOM     14  C   UNL     1      -0.311  -2.846   3.478  1.00  0.00     0.058 A 
BRANCH  10  15
ATOM     15  O   UNL     1       1.029   0.327   1.161  1.00  0.00    -0.493 OA
ATOM     16  C   UNL     1       0.800   0.382  -0.243  1.00  0.00     0.278 C 
ENDBRANCH  10  15
BRANCH  12  17
ATOM     17  O   UNL     1       1.150  -2.380   0.152  1.00  0.00    -0.502 OA
ATOM     18  H   UNL     1       1.466  -1.684  -0.390  1.00  0.00     0.293 HD
ENDBRANCH  12  17
BRANCH  13  19
ATOM     19  O   UNL     1       0.044  -4.480   1.893  1.00  0.00    -0.493 OA
ATOM     20  C   UNL     1       0.393  -4.921   0.589  1.00  0.00     0.278 C 
ENDBRANCH  13  19
ENDBRANCH   8   9
ENDBRANCH   4   7
ENDBRANCH   2   3
ENDBRANCH   1   2
BRANCH   1  21
ATOM     21  C   UNL     1      -1.319  -3.505   9.962  1.00  0.00     0.023 C 
BRANCH  21  22
ATOM     22  C   UNL     1      -2.598  -4.181  10.448  1.00  0.00     0.116 C 
BRANCH  22  23
ATOM     23  N   UNL     1      -2.823  -5.488   9.853  1.00  0.00    -0.352 N 
ATOM     24  C   UNL     1      -3.446  -6.585  10.399  1.00  0.00     0.251 C 
ATOM     25  H   UNL     1      -2.485  -5.603   8.936  1.00  0.00     0.163 HD
ATOM     26  O   UNL     1      -3.466  -7.650   9.797  1.00  0.00    -0.269 OA
BRANCH  24  27
ATOM     27  C   UNL     1      -4.054  -6.481  11.742  1.00  0.00     0.039 A 
ATOM     28  C   UNL     1      -3.754  -7.464  12.689  1.00  0.00     0.014 A 
ATOM     29  C   UNL     1      -4.894  -5.415  12.071  1.00  0.00     0.014 A 
ATOM     30  C   UNL     1      -4.247  -7.341  13.989  1.00  0.00     0.010 A 
ATOM     31  C   UNL     1      -5.331  -5.260  13.383  1.00  0.00     0.010 A 
ATOM     32  C   UNL     1      -5.010  -6.220  14.354  1.00  0.00    -0.014 A 
BRANCH  32  33
ATOM     33  C   UNL     1      -5.473  -6.033  15.751  1.00  0.00     0.031 A 
ATOM     34  C   UNL     1      -6.940  -6.061  16.073  1.00  0.00     0.074 A 
ATOM     35  C   UNL     1      -4.573  -5.775  16.720  1.00  0.00     0.049 A 
ATOM     36  N   UNL     1      -7.535  -5.875  17.224  1.00  0.00    -0.248 NA
ATOM     37  C   UNL     1      -7.861  -6.305  14.951  1.00  0.00     0.031 C 
ATOM     38  C   UNL     1      -3.124  -5.676  16.528  1.00  0.00     0.029 A 
ATOM     39  N   UNL     1      -4.747  -5.543  18.061  1.00  0.00    -0.354 N 
ATOM     40  C   UNL     1      -8.896  -5.962  16.962  1.00  0.00     0.074 A 
ATOM     41  C   UNL     1      -9.041  -6.170  15.538  1.00  0.00     0.031 C 
ATOM     42  C   UNL     1      -2.541  -5.431  17.712  1.00  0.00     0.029 A 
ATOM     43  C   UNL     1      -3.573  -5.323  18.738  1.00  0.00     0.049 A 
ATOM     44  H   UNL     1      -5.630  -5.536  18.496  1.00  0.00     0.167 HD
ATOM     45  C   UNL     1      -9.933  -5.893  17.831  1.00  0.00     0.031 A 
ATOM     46  C   UNL     1      -3.352  -5.062  20.040  1.00  0.00     0.031 A 
ATOM     47  C   UNL     1      -9.790  -5.699  19.248  1.00  0.00     0.049 A 
ATOM     48  C   UNL     1      -4.519  -4.994  20.984  1.00  0.00     0.074 A 
ATOM     49  C   UNL     1     -10.776  -5.675  20.220  1.00  0.00     0.029 A 
ATOM     50  N   UNL     1      -8.582  -5.495  19.898  1.00  0.00    -0.354 N 
ATOM     51  N   UNL     1      -5.796  -5.150  20.732  1.00  0.00    -0.248 NA
ATOM     52  C   UNL     1      -4.211  -4.727  22.396  1.00  0.00     0.031 C 
ATOM     53  C   UNL     1     -10.168  -5.414  21.452  1.00  0.00     0.029 A 
ATOM     54  C   UNL     1      -8.799  -5.324  21.254  1.00  0.00     0.049 A 
ATOM     55  H   UNL     1      -7.701  -5.474  19.459  1.00  0.00     0.167 HD
ATOM     56  C   UNL     1      -6.441  -5.027  21.955  1.00  0.00     0.074 A 
ATOM     57  C   UNL     1      -5.413  -4.798  22.950  1.00  0.00     0.031 C 
ATOM     58  C   UNL     1      -7.766  -5.097  22.230  1.00  0.00     0.031 A 
BRANCH  45  59
ATOM     59  C   UNL     1     -11.318  -6.027  17.263  1.00  0.00    -0.014 A 
ATOM     60  C   UNL     1     -11.787  -7.257  16.774  1.00  0.00     0.009 A 
ATOM     61  C   UNL     1     -12.175  -4.916  17.240  1.00  0.00     0.009 A 
ATOM     62  C   UNL     1     -13.073  -7.362  16.240  1.00  0.00     0.001 A 
ATOM     63  C   UNL     1     -13.470  -5.030  16.731  1.00  0.00     0.001 A 
ATOM     64  C   UNL     1     -13.914  -6.250  16.223  1.00  0.00     0.000 A 
ENDBRANCH  45  59
BRANCH  46  65
ATOM     65  C   UNL     1      -1.965  -4.871  20.535  1.00  0.00    -0.014 A 
ATOM     66  C   UNL     1      -1.353  -5.854  21.329  1.00  0.00     0.009 A 
ATOM     67  C   UNL     1      -1.248  -3.706  20.223  1.00  0.00     0.009 A 
ATOM     68  C   UNL     1      -0.060  -5.662  21.821  1.00  0.00     0.001 A 
ATOM     69  C   UNL     1       0.055  -3.529  20.695  1.00  0.00     0.001 A 
ATOM     70  C   UNL     1       0.643  -4.502  21.500  1.00  0.00     0.000 A 
ENDBRANCH  46  65
BRANCH  58  71
ATOM     71  C   UNL     1      -8.175  -4.958  23.668  1.00  0.00    -0.014 A 
ATOM     72  C   UNL     1      -8.137  -3.716  24.319  1.00  0.00     0.009 A 
ATOM     73  C   UNL     1      -8.639  -6.082  24.370  1.00  0.00     0.009 A 
ATOM     74  C   UNL     1      -8.527  -3.608  25.655  1.00  0.00     0.001 A 
ATOM     75  C   UNL     1      -9.053  -5.966  25.697  1.00  0.00     0.001 A 
ATOM     76  C   UNL     1      -8.989  -4.731  26.341  1.00  0.00     0.000 A 
ENDBRANCH  58  71
ENDBRANCH  32  33
ENDBRANCH  24  27
ENDBRANCH  22  23
ENDBRANCH  21  22
ENDBRANCH   1  21
TORSDOF 15
