REMARK SMILES COc1cc([N+](=O)[O-])cc([C@H]2[NH2+][C@H](C(=O)NCCCCNC(=O)c3ccc(-c4c5nc(c(-c6ccccc6)c6ccc([nH]6)c(-c6ccccc6)c6nc(c(-c7ccccc7)c7ccc4[nH]7)C=C6)C=C5)cc3)CS2)c1O
REMARK SMILES IDX 18 1 17 2 16 3 14 4 15 5 13 7 11 8 12 9 73 10 72 13 10 14
REMARK SMILES IDX 3 15 4 16 74 17 5 18 9 19 2 20 1 21 75 22 6 24 7 25 8 26
REMARK SMILES IDX 19 27 20 28 21 29 22 30 23 32 24 33 25 34 71 35 26 36 70 37
REMARK SMILES IDX 27 38 28 39 29 40 64 41 30 42 69 43 63 44 65 45 31 46 68 47
REMARK SMILES IDX 62 48 61 49 32 51 54 52 39 53 53 54 40 55 43 56 52 57 66 58
REMARK SMILES IDX 41 59 42 60 51 62 67 63 44 64 33 65 34 66 38 67 35 68 37 69
REMARK SMILES IDX 36 70 55 71 56 72 60 73 57 74 59 75 58 76 45 77 46 78 50 79
REMARK SMILES IDX 47 80 49 81 48 82
REMARK H PARENT 16 6 12 11 12 12 75 23 21 31 65 50 43 61
REMARK Flexibility Score: inf
ROOT
ATOM      1  C   UNL     1       2.464  -3.155   0.296  1.00  0.00     0.023 C 
ENDROOT
BRANCH   1   2
ATOM      2  C   UNL     1       2.398  -1.749  -0.300  1.00  0.00     0.116 C 
BRANCH   2   3
ATOM      3  N   UNL     1       3.392  -0.859   0.257  1.00  0.00    -0.351 N 
ATOM      4  C   UNL     1       4.656  -0.568  -0.164  1.00  0.00     0.279 C 
ATOM      5  O   UNL     1       5.289   0.261   0.498  1.00  0.00    -0.268 OA
ATOM      6  H   UNL     1       3.110  -0.386   1.073  1.00  0.00     0.163 HD
BRANCH   4   7
ATOM      7  C   UNL     1       5.284  -1.185  -1.425  1.00  0.00     0.283 C 
ATOM      8  C   UNL     1       4.642  -3.224  -2.571  1.00  0.00     0.278 C 
ATOM      9  N   UNL     1       5.293  -2.679  -1.373  1.00  0.00    -0.320 N 
ATOM     10  S   UNL     1       4.972  -2.019  -3.871  1.00  0.00    -0.087 SA
ATOM     11  H   UNL     1       6.256  -3.010  -1.331  1.00  0.00     0.348 HD
ATOM     12  H   UNL     1       4.785  -2.989  -0.545  1.00  0.00     0.348 HD
ATOM     13  C   UNL     1       4.703  -0.646  -2.727  1.00  0.00     0.151 C 
BRANCH   8  14
ATOM     14  C   UNL     1       4.962  -4.688  -2.852  1.00  0.00     0.073 A 
ATOM     15  C   UNL     1       4.816  -6.715  -4.248  1.00  0.00     0.167 A 
ATOM     16  C   UNL     1       5.221  -7.498  -3.162  1.00  0.00     0.136 A 
ATOM     17  C   UNL     1       4.688  -5.320  -4.089  1.00  0.00     0.168 A 
ATOM     18  C   UNL     1       5.478  -6.903  -1.929  1.00  0.00     0.273 A 
ATOM     19  C   UNL     1       5.346  -5.517  -1.771  1.00  0.00     0.100 A 
BRANCH  15  20
ATOM     20  O   UNL     1       4.580  -7.473  -5.364  1.00  0.00    -0.493 OA
ATOM     21  C   UNL     1       4.079  -6.843  -6.533  1.00  0.00     0.278 C 
ENDBRANCH  15  20
BRANCH  17  22
ATOM     22  O   UNL     1       4.243  -4.581  -5.152  1.00  0.00    -0.504 OA
ATOM     23  H   UNL     1       4.061  -5.000  -5.971  1.00  0.00     0.293 HD
ENDBRANCH  17  22
BRANCH  18  24
ATOM     24  N   UNL     1       5.844  -7.739  -0.778  1.00  0.00     0.062 N 
ATOM     25  O   UNL     1       5.970  -8.957  -0.963  1.00  0.00    -0.258 OA
ATOM     26  O   UNL     1       6.003  -7.174   0.314  1.00  0.00    -0.258 OA
ENDBRANCH  18  24
ENDBRANCH   8  14
ENDBRANCH   4   7
ENDBRANCH   2   3
ENDBRANCH   1   2
BRANCH   1  27
ATOM     27  C   UNL     1       1.812  -3.296   1.673  1.00  0.00     0.023 C 
BRANCH  27  28
ATOM     28  C   UNL     1       0.328  -2.952   1.726  1.00  0.00     0.116 C 
BRANCH  28  29
ATOM     29  N   UNL     1      -0.485  -3.730   0.804  1.00  0.00    -0.352 N 
ATOM     30  C   UNL     1      -1.806  -4.089   0.927  1.00  0.00     0.251 C 
ATOM     31  H   UNL     1      -0.031  -4.039  -0.013  1.00  0.00     0.163 HD
ATOM     32  O   UNL     1      -2.326  -4.833   0.102  1.00  0.00    -0.269 OA
BRANCH  30  33
ATOM     33  C   UNL     1      -2.585  -3.611   2.088  1.00  0.00     0.039 A 
ATOM     34  C   UNL     1      -3.333  -4.536   2.819  1.00  0.00     0.014 A 
ATOM     35  C   UNL     1      -2.557  -2.267   2.470  1.00  0.00     0.014 A 
ATOM     36  C   UNL     1      -4.003  -4.124   3.972  1.00  0.00     0.010 A 
ATOM     37  C   UNL     1      -3.166  -1.872   3.658  1.00  0.00     0.010 A 
ATOM     38  C   UNL     1      -3.896  -2.796   4.420  1.00  0.00    -0.014 A 
BRANCH  38  39
ATOM     39  C   UNL     1      -4.544  -2.366   5.684  1.00  0.00     0.031 A 
ATOM     40  C   UNL     1      -5.662  -1.362   5.661  1.00  0.00     0.074 A 
ATOM     41  C   UNL     1      -4.100  -2.857   6.858  1.00  0.00     0.049 A 
ATOM     42  N   UNL     1      -6.348  -0.868   6.662  1.00  0.00    -0.248 NA
ATOM     43  C   UNL     1      -6.050  -0.825   4.346  1.00  0.00     0.031 C 
ATOM     44  C   UNL     1      -2.995  -3.805   7.019  1.00  0.00     0.029 A 
ATOM     45  N   UNL     1      -4.531  -2.630   8.140  1.00  0.00    -0.354 N 
ATOM     46  C   UNL     1      -7.241   0.034   6.098  1.00  0.00     0.074 A 
ATOM     47  C   UNL     1      -6.972   0.066   4.678  1.00  0.00     0.031 C 
ATOM     48  C   UNL     1      -2.863  -4.109   8.320  1.00  0.00     0.029 A 
ATOM     49  C   UNL     1      -3.848  -3.354   9.087  1.00  0.00     0.049 A 
ATOM     50  H   UNL     1      -5.261  -2.007   8.361  1.00  0.00     0.167 HD
ATOM     51  C   UNL     1      -8.217   0.752   6.703  1.00  0.00     0.031 A 
ATOM     52  C   UNL     1      -4.004  -3.409  10.423  1.00  0.00     0.031 A 
ATOM     53  C   UNL     1      -8.491   0.719   8.115  1.00  0.00     0.049 A 
ATOM     54  C   UNL     1      -5.083  -2.586  11.070  1.00  0.00     0.074 A 
ATOM     55  C   UNL     1      -9.480   1.385   8.818  1.00  0.00     0.029 A 
ATOM     56  N   UNL     1      -7.773  -0.024   9.039  1.00  0.00    -0.354 N 
ATOM     57  N   UNL     1      -5.960  -1.786  10.514  1.00  0.00    -0.248 NA
ATOM     58  C   UNL     1      -5.202  -2.689  12.532  1.00  0.00     0.031 C 
ATOM     59  C   UNL     1      -9.335   1.076  10.174  1.00  0.00     0.029 A 
ATOM     60  C   UNL     1      -8.289   0.178  10.308  1.00  0.00     0.049 A 
ATOM     61  H   UNL     1      -7.010  -0.608   8.825  1.00  0.00     0.167 HD
ATOM     62  C   UNL     1      -6.753  -1.316  11.552  1.00  0.00     0.074 A 
ATOM     63  C   UNL     1      -6.266  -1.935  12.767  1.00  0.00     0.031 C 
ATOM     64  C   UNL     1      -7.794  -0.449  11.505  1.00  0.00     0.031 A 
BRANCH  51  65
ATOM     65  C   UNL     1      -9.070   1.629   5.830  1.00  0.00    -0.014 A 
ATOM     66  C   UNL     1     -10.003   1.073   4.940  1.00  0.00     0.009 A 
ATOM     67  C   UNL     1      -8.969   3.026   5.923  1.00  0.00     0.009 A 
ATOM     68  C   UNL     1     -10.794   1.896   4.137  1.00  0.00     0.001 A 
ATOM     69  C   UNL     1      -9.782   3.847   5.140  1.00  0.00     0.001 A 
ATOM     70  C   UNL     1     -10.687   3.282   4.242  1.00  0.00     0.000 A 
ENDBRANCH  51  65
BRANCH  52  71
ATOM     71  C   UNL     1      -3.139  -4.295  11.246  1.00  0.00    -0.014 A 
ATOM     72  C   UNL     1      -3.675  -5.435  11.865  1.00  0.00     0.009 A 
ATOM     73  C   UNL     1      -1.783  -3.991  11.443  1.00  0.00     0.009 A 
ATOM     74  C   UNL     1      -2.882  -6.231  12.693  1.00  0.00     0.001 A 
ATOM     75  C   UNL     1      -0.985  -4.806  12.248  1.00  0.00     0.001 A 
ATOM     76  C   UNL     1      -1.537  -5.918  12.882  1.00  0.00     0.000 A 
ENDBRANCH  52  71
BRANCH  64  77
ATOM     77  C   UNL     1      -8.497  -0.155  12.799  1.00  0.00    -0.014 A 
ATOM     78  C   UNL     1      -7.896   0.631  13.794  1.00  0.00     0.009 A 
ATOM     79  C   UNL     1      -9.791  -0.655  13.015  1.00  0.00     0.009 A 
ATOM     80  C   UNL     1      -8.562   0.878  14.996  1.00  0.00     0.001 A 
ATOM     81  C   UNL     1     -10.466  -0.382  14.205  1.00  0.00     0.001 A 
ATOM     82  C   UNL     1      -9.847   0.374  15.199  1.00  0.00     0.000 A 
ENDBRANCH  64  77
ENDBRANCH  38  39
ENDBRANCH  30  33
ENDBRANCH  28  29
ENDBRANCH  27  28
ENDBRANCH   1  27
TORSDOF 15
