REMARK SMILES C[C@@H]1CC[C@@]1(SC1CCCCC1)C(=O)NCCCCNC(=O)c1ccc(-c2c3nc(c(-c4ccccc4)c4ccc([nH]4)c(-c4ccccc4)c4nc(c(-c5ccccc5)c5ccc2[nH]5)C=C4)C=C3)cc1
REMARK SMILES IDX 17 1 16 2 15 3 13 4 14 5 5 7 1 8 2 9 3 10 4 11 6 12 7 13
REMARK SMILES IDX 8 14 12 15 9 16 11 17 10 18 18 19 19 20 20 21 21 22 22 24
REMARK SMILES IDX 23 25 24 26 70 27 25 28 69 29 26 30 27 31 28 32 63 33 29 34
REMARK SMILES IDX 68 35 62 36 64 37 30 38 67 39 61 40 60 41 31 43 53 44 38 45
REMARK SMILES IDX 52 46 39 47 42 48 51 49 65 50 40 51 41 52 50 54 66 55 43 56
REMARK SMILES IDX 32 57 33 58 37 59 34 60 36 61 35 62 54 63 55 64 59 65 56 66
REMARK SMILES IDX 58 67 57 68 44 69 45 70 49 71 46 72 48 73 47 74
REMARK H PARENT 15 6 20 23 64 42 42 53
REMARK Flexibility Score: inf
ROOT
ATOM      1  C   UNL     1       1.166   1.163  -3.839  1.00  0.00     0.023 C 
ENDROOT
BRANCH   1   2
ATOM      2  C   UNL     1       1.646   1.867  -2.577  1.00  0.00     0.116 C 
BRANCH   2   3
ATOM      3  N   UNL     1       0.540   2.461  -1.860  1.00  0.00    -0.355 N 
ATOM      4  C   UNL     1       0.037   2.194  -0.607  1.00  0.00     0.236 C 
ATOM      5  O   UNL     1      -0.864   2.965  -0.240  1.00  0.00    -0.273 OA
ATOM      6  H   UNL     1       0.068   3.174  -2.348  1.00  0.00     0.163 HD
BRANCH   4   7
ATOM      7  C   UNL     1       0.556   0.985   0.266  1.00  0.00     0.097 C 
ATOM      8  C   UNL     1      -1.413   0.150   2.020  1.00  0.00     0.009 C 
ATOM      9  C   UNL     1      -0.678   0.047   0.695  1.00  0.00     0.012 C 
ATOM     10  C   UNL     1       0.246  -1.174   0.553  1.00  0.00     0.007 C 
ATOM     11  C   UNL     1       1.155  -0.324  -0.339  1.00  0.00     0.028 C 
BRANCH   7  12
ATOM     12  S   UNL     1       1.469   1.556   1.802  1.00  0.00    -0.141 SA
BRANCH  12  13
ATOM     13  C   UNL     1       2.970   2.441   1.245  1.00  0.00     0.047 C 
ATOM     14  C   UNL     1       4.017   1.510   0.628  1.00  0.00     0.014 C 
ATOM     15  C   UNL     1       2.742   3.716   0.428  1.00  0.00     0.014 C 
ATOM     16  C   UNL     1       5.311   2.256   0.305  1.00  0.00     0.001 C 
ATOM     17  C   UNL     1       4.049   4.414   0.042  1.00  0.00     0.001 C 
ATOM     18  C   UNL     1       5.041   3.450  -0.603  1.00  0.00     0.000 C 
ENDBRANCH  12  13
ENDBRANCH   7  12
ENDBRANCH   4   7
ENDBRANCH   2   3
ENDBRANCH   1   2
BRANCH   1  19
ATOM     19  C   UNL     1       0.668   2.120  -4.925  1.00  0.00     0.023 C 
BRANCH  19  20
ATOM     20  C   UNL     1       1.686   3.162  -5.376  1.00  0.00     0.116 C 
BRANCH  20  21
ATOM     21  N   UNL     1       2.910   2.567  -5.888  1.00  0.00    -0.352 N 
ATOM     22  C   UNL     1       3.642   2.928  -6.989  1.00  0.00     0.251 C 
ATOM     23  H   UNL     1       3.260   1.803  -5.375  1.00  0.00     0.163 HD
ATOM     24  O   UNL     1       4.570   2.219  -7.373  1.00  0.00    -0.269 OA
BRANCH  22  25
ATOM     25  C   UNL     1       3.297   4.159  -7.727  1.00  0.00     0.039 A 
ATOM     26  C   UNL     1       3.248   4.118  -9.121  1.00  0.00     0.014 A 
ATOM     27  C   UNL     1       3.026   5.350  -7.046  1.00  0.00     0.014 A 
ATOM     28  C   UNL     1       2.892   5.264  -9.833  1.00  0.00     0.010 A 
ATOM     29  C   UNL     1       2.592   6.468  -7.753  1.00  0.00     0.010 A 
ATOM     30  C   UNL     1       2.543   6.444  -9.154  1.00  0.00    -0.014 A 
BRANCH  30  31
ATOM     31  C   UNL     1       2.164   7.669  -9.904  1.00  0.00     0.031 A 
ATOM     32  C   UNL     1       3.020   8.905  -9.807  1.00  0.00     0.074 A 
ATOM     33  C   UNL     1       1.039   7.680 -10.645  1.00  0.00     0.049 A 
ATOM     34  N   UNL     1       2.856  10.068 -10.387  1.00  0.00    -0.248 NA
ATOM     35  C   UNL     1       4.200   8.839  -8.928  1.00  0.00     0.031 C 
ATOM     36  C   UNL     1       0.099   6.565 -10.783  1.00  0.00     0.029 A 
ATOM     37  N   UNL     1       0.495   8.668 -11.427  1.00  0.00    -0.354 N 
ATOM     38  C   UNL     1       3.893  10.870  -9.925  1.00  0.00     0.074 A 
ATOM     39  C   UNL     1       4.653  10.082  -8.983  1.00  0.00     0.031 C 
ATOM     40  C   UNL     1      -0.886   6.920 -11.625  1.00  0.00     0.029 A 
ATOM     41  C   UNL     1      -0.668   8.296 -12.057  1.00  0.00     0.049 A 
ATOM     42  H   UNL     1       0.900   9.560 -11.527  1.00  0.00     0.167 HD
ATOM     43  C   UNL     1       4.198  12.143 -10.270  1.00  0.00     0.031 A 
ATOM     44  C   UNL     1      -1.468   8.988 -12.891  1.00  0.00     0.031 A 
ATOM     45  C   UNL     1       3.460  12.919 -11.230  1.00  0.00     0.049 A 
ATOM     46  C   UNL     1      -1.091  10.396 -13.267  1.00  0.00     0.074 A 
ATOM     47  C   UNL     1       3.735  14.191 -11.702  1.00  0.00     0.029 A 
ATOM     48  N   UNL     1       2.303  12.497 -11.864  1.00  0.00    -0.354 N 
ATOM     49  N   UNL     1      -0.054  11.105 -12.893  1.00  0.00    -0.248 NA
ATOM     50  C   UNL     1      -1.987  11.090 -14.203  1.00  0.00     0.031 C 
ATOM     51  C   UNL     1       2.712  14.561 -12.579  1.00  0.00     0.029 A 
ATOM     52  C   UNL     1       1.839  13.493 -12.706  1.00  0.00     0.049 A 
ATOM     53  H   UNL     1       1.875  11.620 -11.736  1.00  0.00     0.167 HD
ATOM     54  C   UNL     1      -0.150  12.308 -13.582  1.00  0.00     0.074 A 
ATOM     55  C   UNL     1      -1.334  12.223 -14.410  1.00  0.00     0.031 C 
ATOM     56  C   UNL     1       0.668  13.388 -13.535  1.00  0.00     0.031 A 
BRANCH  43  57
ATOM     57  C   UNL     1       5.382  12.788  -9.605  1.00  0.00    -0.014 A 
ATOM     58  C   UNL     1       6.695  12.392  -9.904  1.00  0.00     0.009 A 
ATOM     59  C   UNL     1       5.182  13.861  -8.722  1.00  0.00     0.009 A 
ATOM     60  C   UNL     1       7.782  13.041  -9.315  1.00  0.00     0.001 A 
ATOM     61  C   UNL     1       6.271  14.528  -8.157  1.00  0.00     0.001 A 
ATOM     62  C   UNL     1       7.569  14.114  -8.450  1.00  0.00     0.000 A 
ENDBRANCH  43  57
BRANCH  44  63
ATOM     63  C   UNL     1      -2.704   8.371 -13.445  1.00  0.00    -0.014 A 
ATOM     64  C   UNL     1      -2.822   8.110 -14.820  1.00  0.00     0.009 A 
ATOM     65  C   UNL     1      -3.799   8.099 -12.611  1.00  0.00     0.009 A 
ATOM     66  C   UNL     1      -4.026   7.644 -15.354  1.00  0.00     0.001 A 
ATOM     67  C   UNL     1      -4.989   7.596 -13.141  1.00  0.00     0.001 A 
ATOM     68  C   UNL     1      -5.108   7.387 -14.514  1.00  0.00     0.000 A 
ENDBRANCH  44  63
BRANCH  56  69
ATOM     69  C   UNL     1       0.348  14.533 -14.457  1.00  0.00    -0.014 A 
ATOM     70  C   UNL     1      -0.786  15.337 -14.269  1.00  0.00     0.009 A 
ATOM     71  C   UNL     1       1.212  14.815 -15.527  1.00  0.00     0.009 A 
ATOM     72  C   UNL     1      -1.077  16.366 -15.168  1.00  0.00     0.001 A 
ATOM     73  C   UNL     1       0.939  15.868 -16.401  1.00  0.00     0.001 A 
ATOM     74  C   UNL     1      -0.214  16.632 -16.230  1.00  0.00     0.000 A 
ENDBRANCH  56  69
ENDBRANCH  30  31
ENDBRANCH  22  25
ENDBRANCH  20  21
ENDBRANCH  19  20
ENDBRANCH   1  19
TORSDOF 13
