REMARK SMILES O=C(NCCCCNC(=O)c1cc2c(c(S(=O)(=O)Nc3cc(C(F)(F)F)ccc3-n3cccn3)c1)CCC2)c1ccc(-c2c3nc(c(-c4ccccc4)c4ccc([nH]4)c(-c4ccccc4)c4nc(c(-c5ccccc5)c5ccc2[nH]5)C=C4)C=C3)cc1
REMARK SMILES IDX 6 1 5 2 4 3 3 4 1 5 2 6 39 8 40 9 86 10 41 11 85 12 42 13
REMARK SMILES IDX 43 14 44 15 79 16 45 17 84 18 78 19 80 20 46 21 83 22 77 23
REMARK SMILES IDX 76 24 47 26 69 27 54 28 68 29 55 30 58 31 67 32 81 33 56 34
REMARK SMILES IDX 57 35 66 37 82 38 59 39 48 40 49 41 53 42 50 43 52 44 51 45
REMARK SMILES IDX 70 46 71 47 75 48 72 49 74 50 73 51 60 52 61 53 65 54 62 55
REMARK SMILES IDX 64 56 63 57 7 58 8 59 9 60 10 62 11 63 12 64 35 65 13 66
REMARK SMILES IDX 15 67 14 68 38 69 36 70 37 71 16 72 17 73 18 74 19 75 20 77
REMARK SMILES IDX 21 78 29 79 22 80 28 81 27 82 30 83 31 84 34 85 32 86 33 87
REMARK SMILES IDX 23 88 24 89 25 90 26 91
REMARK H PARENT 3 7 80 25 58 36 8 61 19 76
REMARK Flexibility Score: inf
ROOT
ATOM      1  C   UNL     1       4.644  -2.828   1.949  1.00  0.00     0.023 C 
ENDROOT
BRANCH   1   2
ATOM      2  C   UNL     1       5.126  -1.441   1.532  1.00  0.00     0.023 C 
BRANCH   2   3
ATOM      3  C   UNL     1       4.825  -1.036   0.088  1.00  0.00     0.116 C 
BRANCH   3   4
ATOM      4  N   UNL     1       3.424  -1.054  -0.290  1.00  0.00    -0.352 N 
ATOM      5  O   UNL     1       1.330  -0.469  -0.710  1.00  0.00    -0.269 OA
ATOM      6  C   UNL     1       2.359  -0.222  -0.076  1.00  0.00     0.251 C 
ATOM      7  H   UNL     1       3.186  -1.847  -0.824  1.00  0.00     0.163 HD
BRANCH   6   8
ATOM      8  C   UNL     1       2.338   0.901   0.900  1.00  0.00     0.039 A 
ATOM      9  C   UNL     1       3.464   1.495   1.468  1.00  0.00     0.014 A 
ATOM     10  C   UNL     1       1.068   1.387   1.265  1.00  0.00     0.014 A 
ATOM     11  C   UNL     1       3.330   2.478   2.444  1.00  0.00     0.010 A 
ATOM     12  C   UNL     1       0.927   2.396   2.215  1.00  0.00     0.010 A 
ATOM     13  C   UNL     1       2.063   2.924   2.823  1.00  0.00    -0.014 A 
BRANCH  13  14
ATOM     14  C   UNL     1       1.994   4.080   3.713  1.00  0.00     0.031 A 
ATOM     15  C   UNL     1       2.525   5.349   3.139  1.00  0.00     0.074 A 
ATOM     16  C   UNL     1       1.354   4.098   4.898  1.00  0.00     0.049 A 
ATOM     17  N   UNL     1       3.461   6.113   3.603  1.00  0.00    -0.248 NA
ATOM     18  C   UNL     1       1.980   5.784   1.842  1.00  0.00     0.031 C 
ATOM     19  C   UNL     1       0.509   3.049   5.468  1.00  0.00     0.029 A 
ATOM     20  N   UNL     1       1.229   5.127   5.791  1.00  0.00    -0.354 N 
ATOM     21  C   UNL     1       3.505   7.218   2.756  1.00  0.00     0.074 A 
ATOM     22  C   UNL     1       2.667   6.904   1.626  1.00  0.00     0.031 C 
ATOM     23  C   UNL     1      -0.215   3.571   6.483  1.00  0.00     0.029 A 
ATOM     24  C   UNL     1       0.200   4.948   6.704  1.00  0.00     0.049 A 
ATOM     25  H   UNL     1       1.813   5.919   5.786  1.00  0.00     0.167 HD
ATOM     26  C   UNL     1       4.032   8.411   3.148  1.00  0.00     0.031 A 
ATOM     27  C   UNL     1      -0.328   5.879   7.535  1.00  0.00     0.031 A 
ATOM     28  C   UNL     1       4.915   8.280   4.275  1.00  0.00     0.049 A 
ATOM     29  C   UNL     1       0.627   7.001   7.652  1.00  0.00     0.074 A 
ATOM     30  C   UNL     1       6.060   7.559   4.550  1.00  0.00     0.029 A 
ATOM     31  N   UNL     1       4.474   8.752   5.486  1.00  0.00    -0.354 N 
ATOM     32  N   UNL     1       1.750   6.939   8.306  1.00  0.00    -0.248 NA
ATOM     33  C   UNL     1       0.493   8.134   6.751  1.00  0.00     0.031 C 
ATOM     34  C   UNL     1       5.978   7.245   5.939  1.00  0.00     0.029 A 
ATOM     35  C   UNL     1       4.805   7.819   6.431  1.00  0.00     0.049 A 
ATOM     36  H   UNL     1       4.007   9.604   5.645  1.00  0.00     0.167 HD
ATOM     37  C   UNL     1       2.618   7.748   7.590  1.00  0.00     0.074 A 
ATOM     38  C   UNL     1       1.757   8.563   6.740  1.00  0.00     0.031 C 
ATOM     39  C   UNL     1       3.956   7.477   7.548  1.00  0.00     0.031 A 
BRANCH  26  40
ATOM     40  C   UNL     1       3.399   9.736   2.781  1.00  0.00    -0.014 A 
ATOM     41  C   UNL     1       4.012  10.926   3.218  1.00  0.00     0.009 A 
ATOM     42  C   UNL     1       2.078   9.848   2.305  1.00  0.00     0.009 A 
ATOM     43  C   UNL     1       3.305  12.134   3.269  1.00  0.00     0.001 A 
ATOM     44  C   UNL     1       1.387  11.062   2.307  1.00  0.00     0.001 A 
ATOM     45  C   UNL     1       1.989  12.199   2.823  1.00  0.00     0.000 A 
ENDBRANCH  26  40
BRANCH  27  46
ATOM     46  C   UNL     1      -1.696   5.966   8.087  1.00  0.00    -0.014 A 
ATOM     47  C   UNL     1      -1.974   6.794   9.187  1.00  0.00     0.009 A 
ATOM     48  C   UNL     1      -2.787   5.429   7.381  1.00  0.00     0.009 A 
ATOM     49  C   UNL     1      -3.294   7.099   9.543  1.00  0.00     0.001 A 
ATOM     50  C   UNL     1      -4.104   5.724   7.742  1.00  0.00     0.001 A 
ATOM     51  C   UNL     1      -4.357   6.572   8.814  1.00  0.00     0.000 A 
ENDBRANCH  27  46
BRANCH  39  52
ATOM     52  C   UNL     1       4.518   6.508   8.556  1.00  0.00    -0.014 A 
ATOM     53  C   UNL     1       4.053   5.189   8.694  1.00  0.00     0.009 A 
ATOM     54  C   UNL     1       5.635   6.901   9.308  1.00  0.00     0.009 A 
ATOM     55  C   UNL     1       4.656   4.307   9.596  1.00  0.00     0.001 A 
ATOM     56  C   UNL     1       6.255   6.012  10.189  1.00  0.00     0.001 A 
ATOM     57  C   UNL     1       5.758   4.720  10.340  1.00  0.00     0.000 A 
ENDBRANCH  39  52
ENDBRANCH  13  14
ENDBRANCH   6   8
ENDBRANCH   3   4
ENDBRANCH   2   3
ENDBRANCH   1   2
BRANCH   1  58
ATOM     58  C   UNL     1       5.108  -3.989   1.077  1.00  0.00     0.116 C 
BRANCH  58  59
ATOM     59  N   UNL     1       6.553  -4.202   1.081  1.00  0.00    -0.352 N 
ATOM     60  C   UNL     1       7.261  -5.390   1.183  1.00  0.00     0.251 C 
ATOM     61  H   UNL     1       7.101  -3.388   0.999  1.00  0.00     0.163 HD
ATOM     62  O   UNL     1       8.480  -5.391   1.230  1.00  0.00    -0.269 OA
BRANCH  60  63
ATOM     63  C   UNL     1       6.508  -6.666   1.275  1.00  0.00     0.041 A 
ATOM     64  C   UNL     1       5.508  -6.917   0.337  1.00  0.00     0.018 A 
ATOM     65  C   UNL     1       6.691  -7.507   2.396  1.00  0.00     0.036 A 
ATOM     66  C   UNL     1       4.543  -7.839   0.677  1.00  0.00    -0.043 A 
ATOM     67  C   UNL     1       5.737  -8.501   2.696  1.00  0.00     0.092 A 
ATOM     68  C   UNL     1       4.609  -8.562   1.883  1.00  0.00    -0.024 A 
ATOM     69  C   UNL     1       3.243  -8.059  -0.035  1.00  0.00     0.036 C 
ATOM     70  C   UNL     1       3.256  -9.153   2.132  1.00  0.00     0.037 C 
ATOM     71  C   UNL     1       2.725  -9.291   0.704  1.00  0.00     0.010 C 
BRANCH  67  72
ATOM     72  S   UNL     1       5.863  -9.394   4.235  1.00  0.00     0.262 S 
ATOM     73  O   UNL     1       7.085  -8.981   4.877  1.00  0.00    -0.201 OA
ATOM     74  O   UNL     1       4.595  -9.244   4.935  1.00  0.00    -0.201 OA
BRANCH  72  75
ATOM     75  N   UNL     1       6.080 -11.068   3.962  1.00  0.00    -0.277 N 
ATOM     76  H   UNL     1       6.823 -11.536   4.408  1.00  0.00     0.180 HD
BRANCH  75  77
ATOM     77  C   UNL     1       5.204 -11.807   3.098  1.00  0.00     0.075 A 
ATOM     78  C   UNL     1       3.979 -12.273   3.604  1.00  0.00     0.042 A 
ATOM     79  C   UNL     1       5.477 -11.938   1.726  1.00  0.00     0.089 A 
ATOM     80  C   UNL     1       2.999 -12.810   2.742  1.00  0.00     0.058 A 
ATOM     81  C   UNL     1       4.517 -12.499   0.870  1.00  0.00     0.031 A 
ATOM     82  C   UNL     1       3.290 -12.937   1.376  1.00  0.00     0.015 A 
BRANCH  79  83
ATOM     83  N   UNL     1       6.686 -11.457   1.166  1.00  0.00    -0.239 N 
ATOM     84  C   UNL     1       7.926 -11.375   1.761  1.00  0.00     0.115 A 
ATOM     85  N   UNL     1       6.700 -10.908  -0.076  1.00  0.00    -0.177 NA
ATOM     86  C   UNL     1       8.697 -10.564   0.967  1.00  0.00     0.042 A 
ATOM     87  C   UNL     1       7.878 -10.280  -0.135  1.00  0.00     0.135 A 
ENDBRANCH  79  83
BRANCH  80  88
ATOM     88  C   UNL     1       1.625 -13.163   3.270  1.00  0.00     0.416 C 
ATOM     89  F   UNL     1       1.629 -14.290   4.030  1.00  0.00    -0.166 F 
ATOM     90  F   UNL     1       1.103 -12.178   4.053  1.00  0.00    -0.166 F 
ATOM     91  F   UNL     1       0.706 -13.374   2.285  1.00  0.00    -0.166 F 
ENDBRANCH  80  88
ENDBRANCH  75  77
ENDBRANCH  72  75
ENDBRANCH  67  72
ENDBRANCH  60  63
ENDBRANCH  58  59
ENDBRANCH   1  58
TORSDOF 16
