REMARK SMILES CO[C@@H]1C[C@@H](C(=O)NCCCCNC(=O)c2ccc(-c3c4nc(c(-c5ccccc5)c5ccc([nH]5)c(-c5ccccc5)c5nc(c(-c6ccccc6)c6ccc3[nH]6)C=C5)C=C4)cc2)N(S(=O)(=O)/C=C/c2ccccc2)C1
REMARK SMILES IDX 10 1 9 2 8 3 6 4 7 5 5 7 3 8 4 9 76 10 64 11 2 12 1 13 65 14
REMARK SMILES IDX 66 15 67 16 68 17 69 18 70 19 71 20 75 21 72 22 74 23 73 24
REMARK SMILES IDX 11 25 12 26 13 27 14 28 15 30 16 31 17 32 63 33 18 34 62 35
REMARK SMILES IDX 19 36 20 37 21 38 56 39 22 40 61 41 55 42 57 43 23 44 60 45
REMARK SMILES IDX 54 46 53 47 24 49 46 50 31 51 45 52 32 53 35 54 44 55 58 56
REMARK SMILES IDX 33 57 34 58 43 60 59 61 36 62 25 63 26 64 30 65 27 66 29 67
REMARK SMILES IDX 28 68 47 69 48 70 52 71 49 72 51 73 50 74 37 75 38 76 42 77
REMARK SMILES IDX 39 78 41 79 40 80
REMARK H PARENT 8 6 13 29 57 48 35 59
REMARK Flexibility Score: inf
ROOT
ATOM      1  C   UNL     1       5.532  -0.045   2.431  1.00  0.00     0.023 C 
ENDROOT
BRANCH   1   2
ATOM      2  C   UNL     1       4.814   0.457   1.191  1.00  0.00     0.116 C 
BRANCH   2   3
ATOM      3  N   UNL     1       4.883  -0.484   0.103  1.00  0.00    -0.355 N 
ATOM      4  C   UNL     1       3.868  -1.085  -0.555  1.00  0.00     0.238 C 
ATOM      5  O   UNL     1       4.056  -1.248  -1.765  1.00  0.00    -0.273 OA
ATOM      6  H   UNL     1       5.789  -0.721  -0.201  1.00  0.00     0.163 HD
BRANCH   4   7
ATOM      7  C   UNL     1       2.540  -1.494   0.047  1.00  0.00     0.165 C 
ATOM      8  C   UNL     1       0.760  -1.783   1.594  1.00  0.00     0.135 C 
ATOM      9  C   UNL     1       2.141  -1.157   1.476  1.00  0.00     0.064 C 
ATOM     10  C   UNL     1       0.800  -3.011   0.667  1.00  0.00     0.135 C 
ATOM     11  N   UNL     1       2.086  -2.917  -0.132  1.00  0.00    -0.183 NA
BRANCH   8  12
ATOM     12  O   UNL     1      -0.318  -0.869   1.351  1.00  0.00    -0.380 OA
ATOM     13  C   UNL     1      -0.278  -0.049   0.192  1.00  0.00     0.195 C 
ENDBRANCH   8  12
BRANCH  11  14
ATOM     14  S   UNL     1       3.195  -4.175   0.244  1.00  0.00     0.237 S 
ATOM     15  O   UNL     1       3.765  -3.830   1.526  1.00  0.00    -0.207 OA
ATOM     16  O   UNL     1       2.441  -5.415   0.117  1.00  0.00    -0.207 OA
BRANCH  14  17
ATOM     17  C   UNL     1       4.481  -4.249  -0.908  1.00  0.00     0.123 C 
ATOM     18  C   UNL     1       4.264  -4.042  -2.214  1.00  0.00     0.021 C 
BRANCH  18  19
ATOM     19  C   UNL     1       5.367  -4.054  -3.181  1.00  0.00    -0.025 A 
ATOM     20  C   UNL     1       5.798  -2.857  -3.768  1.00  0.00     0.008 A 
ATOM     21  C   UNL     1       6.001  -5.247  -3.538  1.00  0.00     0.008 A 
ATOM     22  C   UNL     1       6.850  -2.844  -4.684  1.00  0.00     0.001 A 
ATOM     23  C   UNL     1       7.045  -5.237  -4.468  1.00  0.00     0.001 A 
ATOM     24  C   UNL     1       7.471  -4.037  -5.037  1.00  0.00     0.000 A 
ENDBRANCH  18  19
ENDBRANCH  14  17
ENDBRANCH  11  14
ENDBRANCH   4   7
ENDBRANCH   2   3
ENDBRANCH   1   2
BRANCH   1  25
ATOM     25  C   UNL     1       7.054  -0.079   2.285  1.00  0.00     0.023 C 
BRANCH  25  26
ATOM     26  C   UNL     1       7.682   1.213   1.769  1.00  0.00     0.116 C 
BRANCH  26  27
ATOM     27  N   UNL     1       7.262   2.392   2.517  1.00  0.00    -0.352 N 
ATOM     28  C   UNL     1       8.024   3.458   2.927  1.00  0.00     0.251 C 
ATOM     29  H   UNL     1       6.309   2.429   2.759  1.00  0.00     0.163 HD
ATOM     30  O   UNL     1       7.557   4.332   3.646  1.00  0.00    -0.269 OA
BRANCH  28  31
ATOM     31  C   UNL     1       9.437   3.501   2.514  1.00  0.00     0.039 A 
ATOM     32  C   UNL     1      10.423   3.530   3.499  1.00  0.00     0.014 A 
ATOM     33  C   UNL     1       9.768   3.393   1.161  1.00  0.00     0.014 A 
ATOM     34  C   UNL     1      11.756   3.358   3.131  1.00  0.00     0.010 A 
ATOM     35  C   UNL     1      11.090   3.157   0.803  1.00  0.00     0.010 A 
ATOM     36  C   UNL     1      12.091   3.115   1.788  1.00  0.00    -0.014 A 
BRANCH  36  37
ATOM     37  C   UNL     1      13.473   2.749   1.398  1.00  0.00     0.031 A 
ATOM     38  C   UNL     1      14.265   3.644   0.490  1.00  0.00     0.074 A 
ATOM     39  C   UNL     1      13.974   1.561   1.792  1.00  0.00     0.049 A 
ATOM     40  N   UNL     1      15.451   3.449  -0.025  1.00  0.00    -0.248 NA
ATOM     41  C   UNL     1      13.634   4.912   0.090  1.00  0.00     0.031 C 
ATOM     42  C   UNL     1      13.279   0.584   2.635  1.00  0.00     0.029 A 
ATOM     43  N   UNL     1      15.179   0.963   1.519  1.00  0.00    -0.354 N 
ATOM     44  C   UNL     1      15.701   4.557  -0.822  1.00  0.00     0.074 A 
ATOM     45  C   UNL     1      14.530   5.403  -0.754  1.00  0.00     0.031 C 
ATOM     46  C   UNL     1      14.074  -0.482   2.821  1.00  0.00     0.029 A 
ATOM     47  C   UNL     1      15.312  -0.287   2.074  1.00  0.00     0.049 A 
ATOM     48  H   UNL     1      15.882   1.389   0.978  1.00  0.00     0.167 HD
ATOM     49  C   UNL     1      16.814   4.847  -1.536  1.00  0.00     0.031 A 
ATOM     50  C   UNL     1      16.308  -1.188   1.974  1.00  0.00     0.031 A 
ATOM     51  C   UNL     1      17.979   4.006  -1.592  1.00  0.00     0.049 A 
ATOM     52  C   UNL     1      17.519  -0.849   1.150  1.00  0.00     0.074 A 
ATOM     53  C   UNL     1      19.187   4.254  -2.220  1.00  0.00     0.029 A 
ATOM     54  N   UNL     1      18.077   2.752  -1.013  1.00  0.00    -0.354 N 
ATOM     55  N   UNL     1      17.783   0.250   0.485  1.00  0.00    -0.248 NA
ATOM     56  C   UNL     1      18.569  -1.874   1.062  1.00  0.00     0.031 C 
ATOM     57  C   UNL     1      19.991   3.119  -2.080  1.00  0.00     0.029 A 
ATOM     58  C   UNL     1      19.307   2.191  -1.311  1.00  0.00     0.049 A 
ATOM     59  H   UNL     1      17.377   2.323  -0.470  1.00  0.00     0.167 HD
ATOM     60  C   UNL     1      19.032   0.054  -0.087  1.00  0.00     0.074 A 
ATOM     61  C   UNL     1      19.486  -1.256   0.331  1.00  0.00     0.031 C 
ATOM     62  C   UNL     1      19.738   0.883  -0.894  1.00  0.00     0.031 A 
BRANCH  49  63
ATOM     63  C   UNL     1      16.825   6.122  -2.331  1.00  0.00    -0.014 A 
ATOM     64  C   UNL     1      16.902   7.374  -1.701  1.00  0.00     0.009 A 
ATOM     65  C   UNL     1      16.827   6.066  -3.734  1.00  0.00     0.009 A 
ATOM     66  C   UNL     1      16.957   8.545  -2.461  1.00  0.00     0.001 A 
ATOM     67  C   UNL     1      16.909   7.235  -4.490  1.00  0.00     0.001 A 
ATOM     68  C   UNL     1      16.968   8.474  -3.854  1.00  0.00     0.000 A 
ENDBRANCH  49  63
BRANCH  50  69
ATOM     69  C   UNL     1      16.194  -2.510   2.646  1.00  0.00    -0.014 A 
ATOM     70  C   UNL     1      17.032  -2.844   3.720  1.00  0.00     0.009 A 
ATOM     71  C   UNL     1      15.256  -3.456   2.201  1.00  0.00     0.009 A 
ATOM     72  C   UNL     1      16.957  -4.107   4.312  1.00  0.00     0.001 A 
ATOM     73  C   UNL     1      15.160  -4.706   2.816  1.00  0.00     0.001 A 
ATOM     74  C   UNL     1      16.018  -5.035   3.862  1.00  0.00     0.000 A 
ENDBRANCH  50  69
BRANCH  62  75
ATOM     75  C   UNL     1      21.078   0.401  -1.373  1.00  0.00    -0.014 A 
ATOM     76  C   UNL     1      21.179  -0.607  -2.344  1.00  0.00     0.009 A 
ATOM     77  C   UNL     1      22.251   1.004  -0.891  1.00  0.00     0.009 A 
ATOM     78  C   UNL     1      22.430  -1.018  -2.806  1.00  0.00     0.001 A 
ATOM     79  C   UNL     1      23.499   0.611  -1.377  1.00  0.00     0.001 A 
ATOM     80  C   UNL     1      23.588  -0.404  -2.328  1.00  0.00     0.000 A 
ENDBRANCH  62  75
ENDBRANCH  36  37
ENDBRANCH  28  31
ENDBRANCH  26  27
ENDBRANCH  25  26
ENDBRANCH   1  25
TORSDOF 15
