REMARK SMILES Cc1ccc(S(=O)(=O)n2cc(C(=O)C(=O)N[C@@H](Cc3cnc[nH]3)C(=O)NCCCCNC(=O)c3ccc(-c4c5nc(c(-c6ccccc6)c6ccc([nH]6)c(-c6ccccc6)c6nc(c(-c7ccccc7)c7ccc4[nH]7)C=C6)C=C5)cc3)c3ccccc32)cc1
REMARK SMILES IDX 27 1 26 2 24 3 25 4 17 6 16 7 14 8 15 9 12 11 13 12 11 13
REMARK SMILES IDX 9 14 10 15 87 16 82 17 86 18 83 19 85 20 84 21 6 22 7 23
REMARK SMILES IDX 8 24 5 25 1 26 2 27 3 28 89 29 4 30 88 31 18 32 19 33 20 34
REMARK SMILES IDX 23 35 21 36 22 37 28 39 29 40 30 41 31 42 32 43 33 45 34 46
REMARK SMILES IDX 35 47 81 48 36 49 80 50 37 51 38 52 39 53 74 54 40 55 79 56
REMARK SMILES IDX 73 57 75 58 41 59 78 60 72 61 71 62 42 64 64 65 49 66 63 67
REMARK SMILES IDX 50 68 53 69 62 70 76 71 51 72 52 73 61 75 77 76 54 77 43 78
REMARK SMILES IDX 44 79 48 80 45 81 47 82 46 83 65 84 66 85 70 86 67 87 69 88
REMARK SMILES IDX 68 89 55 90 56 91 60 92 57 93 59 94 58 95
REMARK H PARENT 26 5 16 10 23 38 31 44 75 63 53 74
REMARK Flexibility Score: inf
ROOT
ATOM      1  C   UNL     1      -8.246   6.028   6.011  1.00  0.00     0.116 C 
ENDROOT
BRANCH   1   2
ATOM      2  N   UNL     1      -7.283   6.878   5.345  1.00  0.00    -0.354 N 
ATOM      3  C   UNL     1      -7.249   7.239   4.024  1.00  0.00     0.242 C 
ATOM      4  O   UNL     1      -6.797   8.362   3.772  1.00  0.00    -0.273 OA
ATOM      5  H   UNL     1      -6.564   7.241   5.911  1.00  0.00     0.163 HD
BRANCH   3   6
ATOM      6  C   UNL     1      -7.830   6.358   2.885  1.00  0.00     0.177 C 
BRANCH   6   7
ATOM      7  N   UNL     1      -7.588   4.922   3.098  1.00  0.00    -0.337 N 
ATOM      8  C   UNL     1      -6.737   4.039   2.479  1.00  0.00     0.293 C 
ATOM      9  O   UNL     1      -6.579   2.940   3.002  1.00  0.00    -0.265 OA
ATOM     10  H   UNL     1      -8.134   4.522   3.812  1.00  0.00     0.164 HD
BRANCH   8  11
ATOM     11  C   UNL     1      -6.035   4.392   1.148  1.00  0.00     0.252 C 
ATOM     12  O   UNL     1      -6.237   5.497   0.656  1.00  0.00    -0.283 OA
BRANCH  11  13
ATOM     13  C   UNL     1      -5.184   3.430   0.438  1.00  0.00     0.054 A 
ATOM     14  N   UNL     1      -4.125   1.576  -0.208  1.00  0.00    -0.240 N 
ATOM     15  C   UNL     1      -4.897   2.123   0.784  1.00  0.00     0.117 A 
ATOM     16  C   UNL     1      -3.866   2.494  -1.204  1.00  0.00     0.065 A 
ATOM     17  C   UNL     1      -4.488   3.682  -0.798  1.00  0.00     0.012 A 
ATOM     18  C   UNL     1      -3.135   2.416  -2.403  1.00  0.00     0.028 A 
ATOM     19  C   UNL     1      -4.351   4.827  -1.613  1.00  0.00     0.011 A 
ATOM     20  C   UNL     1      -3.010   3.571  -3.180  1.00  0.00     0.002 A 
ATOM     21  C   UNL     1      -3.604   4.764  -2.790  1.00  0.00     0.001 A 
BRANCH  14  22
ATOM     22  S   UNL     1      -3.539  -0.021  -0.173  1.00  0.00     0.268 S 
ATOM     23  O   UNL     1      -3.851  -0.569  -1.472  1.00  0.00    -0.201 OA
ATOM     24  O   UNL     1      -4.056  -0.605   1.058  1.00  0.00    -0.201 OA
BRANCH  22  25
ATOM     25  C   UNL     1      -1.775   0.044  -0.015  1.00  0.00     0.088 A 
ATOM     26  C   UNL     1       2.523  -0.045   0.027  1.00  0.00     0.044 C 
ATOM     27  C   UNL     1       1.023  -0.009   0.040  1.00  0.00    -0.051 A 
ATOM     28  C   UNL     1       0.297  -1.203  -0.043  1.00  0.00     0.005 A 
ATOM     29  C   UNL     1       0.334   1.207   0.134  1.00  0.00     0.005 A 
ATOM     30  C   UNL     1      -1.097  -1.178  -0.077  1.00  0.00     0.022 A 
ATOM     31  C   UNL     1      -1.063   1.237   0.121  1.00  0.00     0.022 A 
ENDBRANCH  22  25
ENDBRANCH  14  22
ENDBRANCH  11  13
ENDBRANCH   8  11
ENDBRANCH   6   7
BRANCH   6  32
ATOM     32  C   UNL     1      -9.286   6.687   2.483  1.00  0.00     0.090 C 
BRANCH  32  33
ATOM     33  C   UNL     1     -10.310   6.251   3.471  1.00  0.00     0.037 A 
ATOM     34  C   UNL     1     -10.847   5.011   3.755  1.00  0.00     0.134 A 
ATOM     35  N   UNL     1     -10.883   7.097   4.390  1.00  0.00    -0.348 N 
ATOM     36  N   UNL     1     -11.546   5.051   4.931  1.00  0.00    -0.245 NA
ATOM     37  C   UNL     1     -11.512   6.307   5.309  1.00  0.00     0.196 A 
ATOM     38  H   UNL     1     -10.847   8.081   4.387  1.00  0.00     0.167 HD
ENDBRANCH  32  33
ENDBRANCH   6  32
ENDBRANCH   3   6
ENDBRANCH   1   2
BRANCH   1  39
ATOM     39  C   UNL     1      -7.686   5.031   7.014  1.00  0.00     0.023 C 
BRANCH  39  40
ATOM     40  C   UNL     1      -7.293   5.613   8.363  1.00  0.00     0.023 C 
BRANCH  40  41
ATOM     41  C   UNL     1      -8.404   6.330   9.111  1.00  0.00     0.116 C 
BRANCH  41  42
ATOM     42  N   UNL     1      -9.429   5.501   9.719  1.00  0.00    -0.352 N 
ATOM     43  C   UNL     1     -10.451   5.863  10.585  1.00  0.00     0.251 C 
ATOM     44  H   UNL     1      -9.394   4.546   9.484  1.00  0.00     0.163 HD
ATOM     45  O   UNL     1     -11.112   4.980  11.129  1.00  0.00    -0.269 OA
BRANCH  43  46
ATOM     46  C   UNL     1     -10.896   7.284  10.712  1.00  0.00     0.039 A 
ATOM     47  C   UNL     1     -12.255   7.508  10.984  1.00  0.00     0.014 A 
ATOM     48  C   UNL     1     -10.129   8.329  10.220  1.00  0.00     0.014 A 
ATOM     49  C   UNL     1     -12.883   8.625  10.445  1.00  0.00     0.010 A 
ATOM     50  C   UNL     1     -10.755   9.324   9.526  1.00  0.00     0.010 A 
ATOM     51  C   UNL     1     -12.137   9.427   9.592  1.00  0.00    -0.014 A 
BRANCH  51  52
ATOM     52  C   UNL     1     -12.665  10.466   8.745  1.00  0.00     0.031 A 
ATOM     53  C   UNL     1     -12.695  11.818   9.321  1.00  0.00     0.074 A 
ATOM     54  C   UNL     1     -12.919  10.168   7.449  1.00  0.00     0.049 A 
ATOM     55  N   UNL     1     -13.584  12.699   9.040  1.00  0.00    -0.248 NA
ATOM     56  C   UNL     1     -11.733  12.271  10.334  1.00  0.00     0.031 C 
ATOM     57  C   UNL     1     -13.193  11.079   6.344  1.00  0.00     0.029 A 
ATOM     58  N   UNL     1     -13.118   8.910   6.871  1.00  0.00    -0.354 N 
ATOM     59  C   UNL     1     -13.097  13.896   9.514  1.00  0.00     0.074 A 
ATOM     60  C   UNL     1     -12.049  13.564  10.446  1.00  0.00     0.031 C 
ATOM     61  C   UNL     1     -13.834  10.396   5.374  1.00  0.00     0.029 A 
ATOM     62  C   UNL     1     -14.128   9.075   5.911  1.00  0.00     0.049 A 
ATOM     63  H   UNL     1     -12.645   8.076   7.093  1.00  0.00     0.167 HD
ATOM     64  C   UNL     1     -13.462  15.045   8.887  1.00  0.00     0.031 A 
ATOM     65  C   UNL     1     -15.385   8.544   6.037  1.00  0.00     0.031 A 
ATOM     66  C   UNL     1     -14.314  14.747   7.741  1.00  0.00     0.049 A 
ATOM     67  C   UNL     1     -16.438   9.636   6.097  1.00  0.00     0.074 A 
ATOM     68  C   UNL     1     -14.019  14.602   6.395  1.00  0.00     0.029 A 
ATOM     69  N   UNL     1     -15.548  14.148   7.946  1.00  0.00    -0.354 N 
ATOM     70  N   UNL     1     -16.192  10.838   6.545  1.00  0.00    -0.248 NA
ATOM     71  C   UNL     1     -17.822   9.477   5.657  1.00  0.00     0.031 C 
ATOM     72  C   UNL     1     -15.076  13.870   5.796  1.00  0.00     0.029 A 
ATOM     73  C   UNL     1     -16.014  13.588   6.774  1.00  0.00     0.049 A 
ATOM     74  H   UNL     1     -16.025  14.126   8.807  1.00  0.00     0.167 HD
ATOM     75  C   UNL     1     -17.311  11.615   6.408  1.00  0.00     0.074 A 
ATOM     76  C   UNL     1     -18.313  10.713   5.871  1.00  0.00     0.031 C 
ATOM     77  C   UNL     1     -17.316  12.941   6.735  1.00  0.00     0.031 A 
BRANCH  64  78
ATOM     78  C   UNL     1     -12.774  16.364   9.090  1.00  0.00    -0.014 A 
ATOM     79  C   UNL     1     -12.714  17.274   8.018  1.00  0.00     0.009 A 
ATOM     80  C   UNL     1     -12.176  16.774  10.294  1.00  0.00     0.009 A 
ATOM     81  C   UNL     1     -12.050  18.499   8.119  1.00  0.00     0.001 A 
ATOM     82  C   UNL     1     -11.485  17.990  10.394  1.00  0.00     0.001 A 
ATOM     83  C   UNL     1     -11.421  18.852   9.305  1.00  0.00     0.000 A 
ENDBRANCH  64  78
BRANCH  65  84
ATOM     84  C   UNL     1     -15.437   7.291   6.848  1.00  0.00    -0.014 A 
ATOM     85  C   UNL     1     -14.865   6.125   6.306  1.00  0.00     0.009 A 
ATOM     86  C   UNL     1     -15.618   7.363   8.237  1.00  0.00     0.009 A 
ATOM     87  C   UNL     1     -14.309   5.150   7.143  1.00  0.00     0.001 A 
ATOM     88  C   UNL     1     -15.075   6.374   9.068  1.00  0.00     0.001 A 
ATOM     89  C   UNL     1     -14.368   5.303   8.524  1.00  0.00     0.000 A 
ENDBRANCH  65  84
BRANCH  77  90
ATOM     90  C   UNL     1     -18.535  13.800   6.973  1.00  0.00    -0.014 A 
ATOM     91  C   UNL     1     -19.827  13.300   7.157  1.00  0.00     0.009 A 
ATOM     92  C   UNL     1     -18.364  15.192   7.174  1.00  0.00     0.009 A 
ATOM     93  C   UNL     1     -20.897  14.147   7.475  1.00  0.00     0.001 A 
ATOM     94  C   UNL     1     -19.412  16.029   7.556  1.00  0.00     0.001 A 
ATOM     95  C   UNL     1     -20.687  15.506   7.689  1.00  0.00     0.000 A 
ENDBRANCH  77  90
ENDBRANCH  51  52
ENDBRANCH  43  46
ENDBRANCH  41  42
ENDBRANCH  40  41
ENDBRANCH  39  40
ENDBRANCH   1  39
TORSDOF 18
