REMARK SMILES CCNC(=O)NC(=O)[C@@H](C)[N@H+](C)CC(=O)NCCCCNC(=O)c1ccc(-c2c3nc(c(-c4ccccc4)c4ccc([nH]4)c(-c4ccccc4)c4nc(c(-c5ccccc5)c5ccc2[nH]5)C=C4)C=C3)cc1
REMARK SMILES IDX 17 1 16 2 14 3 15 4 13 6 11 7 12 8 9 10 10 11 7 12 3 13 4 14
REMARK SMILES IDX 5 16 6 17 8 19 2 20 1 21 18 22 19 23 20 24 21 25 22 26 23 28
REMARK SMILES IDX 24 29 25 30 71 31 26 32 70 33 27 34 28 35 29 36 64 37 30 38
REMARK SMILES IDX 69 39 63 40 65 41 31 42 68 43 62 44 61 45 32 47 54 48 39 49
REMARK SMILES IDX 53 50 40 51 43 52 52 53 66 54 41 55 42 56 51 58 67 59 44 60
REMARK SMILES IDX 33 61 34 62 38 63 35 64 37 65 36 66 55 67 56 68 60 69 57 70
REMARK SMILES IDX 59 71 58 72 45 73 46 74 50 75 47 76 49 77 48 78
REMARK H PARENT 16 5 11 9 3 15 6 18 21 27 65 46 43 57
REMARK Flexibility Score: inf
ROOT
ATOM      1  C   UNL     1       3.133  -1.135  -2.582  1.00  0.00     0.116 C 
ENDROOT
BRANCH   1   2
ATOM      2  N   UNL     1       2.974  -2.056  -1.481  1.00  0.00    -0.351 N 
ATOM      3  C   UNL     1       1.970  -2.943  -1.207  1.00  0.00     0.275 C 
ATOM      4  O   UNL     1       2.237  -3.818  -0.376  1.00  0.00    -0.269 OA
ATOM      5  H   UNL     1       3.706  -2.042  -0.822  1.00  0.00     0.163 HD
BRANCH   3   6
ATOM      6  C   UNL     1       0.589  -2.921  -1.910  1.00  0.00     0.363 C 
BRANCH   6   7
ATOM      7  N   UNL     1      -0.077  -1.602  -1.789  1.00  0.00    -0.320 N 
ATOM      8  C   UNL     1      -0.190  -0.977  -3.129  1.00  0.00     0.333 C 
ATOM      9  H   UNL     1       0.526  -1.096  -1.141  1.00  0.00     0.348 HD
BRANCH   7  10
ATOM     10  C   UNL     1      -1.445  -1.580  -1.181  1.00  0.00     0.271 C 
ATOM     11  C   UNL     1      -1.871  -0.178  -0.711  1.00  0.00     0.086 C 
BRANCH  10  12
ATOM     12  C   UNL     1      -1.867  -2.627  -0.150  1.00  0.00     0.285 C 
ATOM     13  N   UNL     1       0.859  -2.086   1.700  1.00  0.00    -0.338 N 
ATOM     14  C   UNL     1      -0.051  -3.061   1.702  1.00  0.00     0.321 C 
ATOM     15  H   UNL     1       1.702  -2.325   2.150  1.00  0.00     0.165 HD
ATOM     16  O   UNL     1       0.156  -4.048   2.414  1.00  0.00    -0.248 OA
ATOM     17  N   UNL     1      -1.212  -3.045   0.986  1.00  0.00    -0.273 N 
ATOM     18  H   UNL     1      -1.869  -3.555   1.512  1.00  0.00     0.175 HD
ATOM     19  O   UNL     1      -2.976  -3.170  -0.320  1.00  0.00    -0.268 OA
BRANCH  13  20
ATOM     20  C   UNL     1       0.842  -0.755   1.166  1.00  0.00     0.114 C 
ATOM     21  C   UNL     1       1.592   0.231   2.036  1.00  0.00     0.027 C 
ENDBRANCH  13  20
ENDBRANCH  10  12
ENDBRANCH   7  10
ENDBRANCH   6   7
ENDBRANCH   3   6
ENDBRANCH   1   2
BRANCH   1  22
ATOM     22  C   UNL     1       2.707   0.304  -2.281  1.00  0.00     0.023 C 
BRANCH  22  23
ATOM     23  C   UNL     1       3.610   1.113  -1.354  1.00  0.00     0.023 C 
BRANCH  23  24
ATOM     24  C   UNL     1       5.096   1.063  -1.659  1.00  0.00     0.116 C 
BRANCH  24  25
ATOM     25  N   UNL     1       5.420   1.384  -3.040  1.00  0.00    -0.352 N 
ATOM     26  C   UNL     1       6.442   2.159  -3.538  1.00  0.00     0.251 C 
ATOM     27  H   UNL     1       4.822   0.991  -3.716  1.00  0.00     0.163 HD
ATOM     28  O   UNL     1       6.513   2.385  -4.737  1.00  0.00    -0.269 OA
BRANCH  26  29
ATOM     29  C   UNL     1       7.430   2.749  -2.609  1.00  0.00     0.039 A 
ATOM     30  C   UNL     1       7.811   4.080  -2.791  1.00  0.00     0.014 A 
ATOM     31  C   UNL     1       7.961   2.004  -1.554  1.00  0.00     0.014 A 
ATOM     32  C   UNL     1       8.683   4.678  -1.880  1.00  0.00     0.010 A 
ATOM     33  C   UNL     1       8.739   2.630  -0.589  1.00  0.00     0.010 A 
ATOM     34  C   UNL     1       9.130   3.966  -0.755  1.00  0.00    -0.014 A 
BRANCH  34  35
ATOM     35  C   UNL     1      10.052   4.582   0.231  1.00  0.00     0.031 A 
ATOM     36  C   UNL     1      11.423   3.996   0.438  1.00  0.00     0.074 A 
ATOM     37  C   UNL     1       9.645   5.636   0.966  1.00  0.00     0.049 A 
ATOM     38  N   UNL     1      12.363   4.365   1.271  1.00  0.00    -0.248 NA
ATOM     39  C   UNL     1      11.774   2.818  -0.375  1.00  0.00     0.031 C 
ATOM     40  C   UNL     1       8.326   6.268   0.889  1.00  0.00     0.029 A 
ATOM     41  N   UNL     1      10.306   6.364   1.922  1.00  0.00    -0.354 N 
ATOM     42  C   UNL     1      13.400   3.458   1.091  1.00  0.00     0.074 A 
ATOM     43  C   UNL     1      12.950   2.480   0.128  1.00  0.00     0.031 C 
ATOM     44  C   UNL     1       8.291   7.316   1.728  1.00  0.00     0.029 A 
ATOM     45  C   UNL     1       9.566   7.404   2.432  1.00  0.00     0.049 A 
ATOM     46  H   UNL     1      11.224   6.161   2.215  1.00  0.00     0.167 HD
ATOM     47  C   UNL     1      14.632   3.454   1.652  1.00  0.00     0.031 A 
ATOM     48  C   UNL     1       9.884   8.325   3.361  1.00  0.00     0.031 A 
ATOM     49  C   UNL     1      15.084   4.436   2.600  1.00  0.00     0.049 A 
ATOM     50  C   UNL     1      11.254   8.292   3.980  1.00  0.00     0.074 A 
ATOM     51  C   UNL     1      16.327   4.553   3.196  1.00  0.00     0.029 A 
ATOM     52  N   UNL     1      14.305   5.474   3.088  1.00  0.00    -0.354 N 
ATOM     53  N   UNL     1      12.248   7.467   3.751  1.00  0.00    -0.248 NA
ATOM     54  C   UNL     1      11.552   9.332   4.975  1.00  0.00     0.031 C 
ATOM     55  C   UNL     1      16.282   5.630   4.086  1.00  0.00     0.029 A 
ATOM     56  C   UNL     1      15.034   6.225   3.993  1.00  0.00     0.049 A 
ATOM     57  H   UNL     1      13.371   5.650   2.829  1.00  0.00     0.167 HD
ATOM     58  C   UNL     1      13.299   7.910   4.544  1.00  0.00     0.074 A 
ATOM     59  C   UNL     1      12.825   9.085   5.247  1.00  0.00     0.031 C 
ATOM     60  C   UNL     1      14.545   7.394   4.677  1.00  0.00     0.031 A 
BRANCH  47  61
ATOM     61  C   UNL     1      15.572   2.350   1.250  1.00  0.00    -0.014 A 
ATOM     62  C   UNL     1      16.091   2.273  -0.054  1.00  0.00     0.009 A 
ATOM     63  C   UNL     1      15.960   1.383   2.190  1.00  0.00     0.009 A 
ATOM     64  C   UNL     1      16.942   1.227  -0.418  1.00  0.00     0.001 A 
ATOM     65  C   UNL     1      16.838   0.358   1.832  1.00  0.00     0.001 A 
ATOM     66  C   UNL     1      17.319   0.274   0.526  1.00  0.00     0.000 A 
ENDBRANCH  47  61
BRANCH  48  67
ATOM     67  C   UNL     1       8.903   9.376   3.742  1.00  0.00    -0.014 A 
ATOM     68  C   UNL     1       9.129  10.720   3.405  1.00  0.00     0.009 A 
ATOM     69  C   UNL     1       7.743   9.047   4.461  1.00  0.00     0.009 A 
ATOM     70  C   UNL     1       8.235  11.714   3.809  1.00  0.00     0.001 A 
ATOM     71  C   UNL     1       6.834  10.039   4.836  1.00  0.00     0.001 A 
ATOM     72  C   UNL     1       7.087  11.373   4.521  1.00  0.00     0.000 A 
ENDBRANCH  48  67
BRANCH  60  73
ATOM     73  C   UNL     1      15.500   8.129   5.577  1.00  0.00    -0.014 A 
ATOM     74  C   UNL     1      15.337   8.140   6.970  1.00  0.00     0.009 A 
ATOM     75  C   UNL     1      16.603   8.793   5.015  1.00  0.00     0.009 A 
ATOM     76  C   UNL     1      16.236   8.839   7.779  1.00  0.00     0.001 A 
ATOM     77  C   UNL     1      17.519   9.460   5.828  1.00  0.00     0.001 A 
ATOM     78  C   UNL     1      17.328   9.493   7.208  1.00  0.00     0.000 A 
ENDBRANCH  60  73
ENDBRANCH  34  35
ENDBRANCH  26  29
ENDBRANCH  24  25
ENDBRANCH  23  24
ENDBRANCH  22  23
ENDBRANCH   1  22
TORSDOF 15
