REMARK SMILES COc1ccc2c(c1)c(CC(=O)NCCCCNC(=O)c1ccc(-c3c4nc(c(-c5ccccc5)c5ccc([nH]5)c(-c5ccccc5)c5nc(c(-c6ccccc6)c6ccc3[nH]6)C=C5)C=C4)cc1)c(C)n2C(=O)c1ccc(Cl)cc1
REMARK SMILES IDX 15 1 14 2 13 3 11 4 12 5 10 7 9 8 3 9 4 10 8 11 5 12 7 13
REMARK SMILES IDX 6 14 71 15 69 16 70 17 2 18 1 19 72 20 73 21 74 22 75 23
REMARK SMILES IDX 80 24 76 25 79 26 77 27 78 28 16 29 17 30 18 31 19 32 20 34
REMARK SMILES IDX 21 35 22 36 68 37 23 38 67 39 24 40 25 41 26 42 61 43 27 44
REMARK SMILES IDX 66 45 60 46 62 47 28 48 65 49 59 50 58 51 29 53 51 54 36 55
REMARK SMILES IDX 50 56 37 57 40 58 49 59 63 60 38 61 39 62 48 64 64 65 41 66
REMARK SMILES IDX 30 67 31 68 35 69 32 70 34 71 33 72 52 73 53 74 57 75 54 76
REMARK SMILES IDX 56 77 55 78 42 79 43 80 47 81 44 82 46 83 45 84
REMARK H PARENT 13 6 18 33 62 52 40 63
REMARK Flexibility Score: inf
ROOT
ATOM      1  C   UNL     1       0.480  -5.868   5.113  1.00  0.00     0.023 C 
ENDROOT
BRANCH   1   2
ATOM      2  C   UNL     1      -0.884  -6.354   4.628  1.00  0.00     0.116 C 
BRANCH   2   3
ATOM      3  N   UNL     1      -1.785  -5.256   4.350  1.00  0.00    -0.356 N 
ATOM      4  C   UNL     1      -2.304  -4.877   3.145  1.00  0.00     0.224 C 
ATOM      5  O   UNL     1      -3.083  -3.922   3.119  1.00  0.00    -0.275 OA
ATOM      6  H   UNL     1      -2.058  -4.716   5.126  1.00  0.00     0.163 HD
BRANCH   4   7
ATOM      7  C   UNL     1      -1.964  -5.664   1.887  1.00  0.00     0.138 C 
BRANCH   7   8
ATOM      8  C   UNL     1      -0.515  -5.573   1.495  1.00  0.00    -0.009 A 
ATOM      9  C   UNL     1       0.754  -2.023   0.899  1.00  0.00     0.119 A 
ATOM     10  C   UNL     1       2.019  -2.387   0.468  1.00  0.00     0.048 A 
ATOM     11  C   UNL     1      -0.152  -3.008   1.295  1.00  0.00     0.057 A 
ATOM     12  C   UNL     1       2.401  -3.732   0.422  1.00  0.00     0.031 A 
ATOM     13  C   UNL     1       0.208  -4.374   1.250  1.00  0.00     0.008 A 
ATOM     14  C   UNL     1       1.502  -4.728   0.857  1.00  0.00     0.057 A 
ATOM     15  N   UNL     1       1.636  -6.115   1.032  1.00  0.00    -0.280 N 
ATOM     16  C   UNL     1       0.348  -6.632   1.234  1.00  0.00     0.028 A 
ATOM     17  C   UNL     1       0.015  -8.092   1.213  1.00  0.00     0.065 C 
BRANCH   9  18
ATOM     18  O   UNL     1       0.303  -0.735   0.996  1.00  0.00    -0.497 OA
ATOM     19  C   UNL     1       0.816   0.156   0.011  1.00  0.00     0.278 C 
ENDBRANCH   9  18
BRANCH  15  20
ATOM     20  C   UNL     1       2.849  -6.868   1.024  1.00  0.00     0.262 C 
ATOM     21  O   UNL     1       2.809  -8.070   1.243  1.00  0.00    -0.268 OA
BRANCH  20  22
ATOM     22  C   UNL     1       4.189  -6.302   0.783  1.00  0.00     0.040 A 
ATOM     23  C   UNL     1       4.797  -5.473   1.732  1.00  0.00     0.015 A 
ATOM     24  C   UNL     1       4.822  -6.593  -0.430  1.00  0.00     0.015 A 
ATOM     25  C   UNL     1       6.017  -4.866   1.424  1.00  0.00     0.021 A 
ATOM     26  C   UNL     1       6.044  -5.989  -0.728  1.00  0.00     0.021 A 
ATOM     27  C   UNL     1       6.627  -5.116   0.192  1.00  0.00     0.041 A 
ATOM     28  Cl  UNL     1       8.100  -4.322  -0.207  1.00  0.00    -0.084 Cl
ENDBRANCH  20  22
ENDBRANCH  15  20
ENDBRANCH   7   8
ENDBRANCH   4   7
ENDBRANCH   2   3
ENDBRANCH   1   2
BRANCH   1  29
ATOM     29  C   UNL     1       0.476  -5.272   6.528  1.00  0.00     0.023 C 
BRANCH  29  30
ATOM     30  C   UNL     1      -0.242  -6.129   7.575  1.00  0.00     0.116 C 
BRANCH  30  31
ATOM     31  N   UNL     1       0.232  -7.498   7.614  1.00  0.00    -0.352 N 
ATOM     32  C   UNL     1       1.214  -8.163   8.289  1.00  0.00     0.251 C 
ATOM     33  H   UNL     1      -0.275  -8.089   7.010  1.00  0.00     0.163 HD
ATOM     34  O   UNL     1       1.268  -9.382   8.104  1.00  0.00    -0.269 OA
BRANCH  32  35
ATOM     35  C   UNL     1       2.228  -7.531   9.176  1.00  0.00     0.039 A 
ATOM     36  C   UNL     1       2.324  -6.169   9.458  1.00  0.00     0.014 A 
ATOM     37  C   UNL     1       3.199  -8.397   9.714  1.00  0.00     0.014 A 
ATOM     38  C   UNL     1       3.399  -5.670  10.184  1.00  0.00     0.010 A 
ATOM     39  C   UNL     1       4.272  -7.907  10.448  1.00  0.00     0.010 A 
ATOM     40  C   UNL     1       4.396  -6.534  10.637  1.00  0.00    -0.014 A 
BRANCH  40  41
ATOM     41  C   UNL     1       5.554  -5.936  11.290  1.00  0.00     0.031 A 
ATOM     42  C   UNL     1       5.321  -5.247  12.593  1.00  0.00     0.074 A 
ATOM     43  C   UNL     1       6.799  -6.065  10.793  1.00  0.00     0.049 A 
ATOM     44  N   UNL     1       5.634  -4.038  12.940  1.00  0.00    -0.248 NA
ATOM     45  C   UNL     1       4.612  -6.006  13.634  1.00  0.00     0.031 C 
ATOM     46  C   UNL     1       7.258  -6.945   9.713  1.00  0.00     0.029 A 
ATOM     47  N   UNL     1       7.951  -5.499  11.246  1.00  0.00    -0.354 N 
ATOM     48  C   UNL     1       5.270  -3.911  14.281  1.00  0.00     0.074 A 
ATOM     49  C   UNL     1       4.583  -5.128  14.636  1.00  0.00     0.031 C 
ATOM     50  C   UNL     1       8.606  -7.033   9.759  1.00  0.00     0.029 A 
ATOM     51  C   UNL     1       9.098  -6.101  10.758  1.00  0.00     0.049 A 
ATOM     52  H   UNL     1       7.967  -4.732  11.863  1.00  0.00     0.167 HD
ATOM     53  C   UNL     1       5.657  -2.867  15.066  1.00  0.00     0.031 A 
ATOM     54  C   UNL     1      10.360  -5.903  11.202  1.00  0.00     0.031 A 
ATOM     55  C   UNL     1       6.088  -1.733  14.302  1.00  0.00     0.049 A 
ATOM     56  C   UNL     1      10.392  -4.628  11.949  1.00  0.00     0.074 A 
ATOM     57  C   UNL     1       5.468  -0.844  13.448  1.00  0.00     0.029 A 
ATOM     58  N   UNL     1       7.435  -1.544  14.126  1.00  0.00    -0.354 N 
ATOM     59  N   UNL     1      10.227  -3.459  11.401  1.00  0.00    -0.248 NA
ATOM     60  C   UNL     1      10.235  -4.667  13.394  1.00  0.00     0.031 C 
ATOM     61  C   UNL     1       6.455  -0.519  12.474  1.00  0.00     0.029 A 
ATOM     62  C   UNL     1       7.622  -1.210  12.810  1.00  0.00     0.049 A 
ATOM     63  H   UNL     1       8.133  -1.631  14.815  1.00  0.00     0.167 HD
ATOM     64  C   UNL     1       9.556  -2.708  12.354  1.00  0.00     0.074 A 
ATOM     65  C   UNL     1       9.699  -3.461  13.596  1.00  0.00     0.031 C 
ATOM     66  C   UNL     1       8.719  -1.690  11.994  1.00  0.00     0.031 A 
BRANCH  53  67
ATOM     67  C   UNL     1       5.872  -2.958  16.554  1.00  0.00    -0.014 A 
ATOM     68  C   UNL     1       6.060  -4.181  17.224  1.00  0.00     0.009 A 
ATOM     69  C   UNL     1       6.139  -1.788  17.291  1.00  0.00     0.009 A 
ATOM     70  C   UNL     1       6.477  -4.241  18.558  1.00  0.00     0.001 A 
ATOM     71  C   UNL     1       6.598  -1.845  18.614  1.00  0.00     0.001 A 
ATOM     72  C   UNL     1       6.766  -3.072  19.247  1.00  0.00     0.000 A 
ENDBRANCH  53  67
BRANCH  54  73
ATOM     73  C   UNL     1      11.425  -6.917  11.320  1.00  0.00    -0.014 A 
ATOM     74  C   UNL     1      11.090  -8.248  11.633  1.00  0.00     0.009 A 
ATOM     75  C   UNL     1      12.773  -6.541  11.393  1.00  0.00     0.009 A 
ATOM     76  C   UNL     1      12.063  -9.166  12.034  1.00  0.00     0.001 A 
ATOM     77  C   UNL     1      13.749  -7.462  11.796  1.00  0.00     0.001 A 
ATOM     78  C   UNL     1      13.392  -8.768  12.129  1.00  0.00     0.000 A 
ENDBRANCH  54  73
BRANCH  66  79
ATOM     79  C   UNL     1       8.706  -1.253  10.546  1.00  0.00    -0.014 A 
ATOM     80  C   UNL     1       8.859   0.110  10.248  1.00  0.00     0.009 A 
ATOM     81  C   UNL     1       8.348  -2.124   9.501  1.00  0.00     0.009 A 
ATOM     82  C   UNL     1       8.648   0.589   8.952  1.00  0.00     0.001 A 
ATOM     83  C   UNL     1       8.162  -1.649   8.199  1.00  0.00     0.001 A 
ATOM     84  C   UNL     1       8.301  -0.290   7.928  1.00  0.00     0.000 A 
ENDBRANCH  66  79
ENDBRANCH  40  41
ENDBRANCH  32  35
ENDBRANCH  30  31
ENDBRANCH  29  30
ENDBRANCH   1  29
TORSDOF 15
