REMARK SMILES CC1(C)C[C@@H]([NH2+]C[C@@H]2CCCC[C@@H]2C(=O)NCCCCNC(=O)c2ccc(-c3c4nc(c(-c5ccccc5)c5ccc([nH]5)c(-c5ccccc5)c5nc(c(-c6ccccc6)c6ccc3[nH]6)C=C5)C=C4)cc2)C(C)(C)O1
REMARK SMILES IDX 18 1 17 2 16 3 14 4 15 5 13 7 8 8 9 9 10 10 12 11 11 12 7 13
REMARK SMILES IDX 6 14 5 17 1 18 2 19 3 20 4 21 75 22 72 23 73 24 74 25 19 26
REMARK SMILES IDX 20 27 21 28 22 29 23 31 24 32 25 33 71 34 26 35 70 36 27 37
REMARK SMILES IDX 28 38 29 39 64 40 30 41 69 42 63 43 65 44 31 45 68 46 62 47
REMARK SMILES IDX 61 48 32 50 54 51 39 52 53 53 40 54 43 55 52 56 66 57 41 58
REMARK SMILES IDX 42 59 51 61 67 62 44 63 33 64 34 65 38 66 35 67 37 68 36 69
REMARK SMILES IDX 55 70 56 71 60 72 57 73 59 74 58 75 45 76 46 77 50 78 47 79
REMARK SMILES IDX 49 80 48 81
REMARK H PARENT 16 6 6 15 6 16 21 30 65 49 43 60
REMARK Flexibility Score: inf
ROOT
ATOM      1  C   UNL     1       5.674  -1.469  -0.441  1.00  0.00     0.023 C 
ENDROOT
BRANCH   1   2
ATOM      2  C   UNL     1       5.019  -2.817  -0.753  1.00  0.00     0.116 C 
BRANCH   2   3
ATOM      3  N   UNL     1       3.595  -2.781  -0.480  1.00  0.00    -0.356 N 
ATOM      4  C   UNL     1       2.772  -1.983  -1.229  1.00  0.00     0.223 C 
ATOM      5  O   UNL     1       2.520  -0.855  -0.806  1.00  0.00    -0.275 OA
ATOM      6  H   UNL     1       3.220  -3.330   0.246  1.00  0.00     0.163 HD
BRANCH   4   7
ATOM      7  C   UNL     1       2.157  -2.499  -2.536  1.00  0.00     0.087 C 
ATOM      8  C   UNL     1       1.998  -4.013  -2.734  1.00  0.00     0.056 C 
ATOM      9  C   UNL     1       3.342  -4.681  -3.071  1.00  0.00     0.010 C 
ATOM     10  C   UNL     1       4.110  -3.949  -4.192  1.00  0.00     0.001 C 
ATOM     11  C   UNL     1       2.799  -1.818  -3.742  1.00  0.00     0.014 C 
ATOM     12  C   UNL     1       4.132  -2.420  -4.133  1.00  0.00     0.001 C 
BRANCH   8  13
ATOM     13  C   UNL     1       1.102  -4.775  -1.694  1.00  0.00     0.265 C 
BRANCH  13  14
ATOM     14  N   UNL     1       1.055  -4.370  -0.290  1.00  0.00    -0.341 N 
ATOM     15  H   UNL     1       1.221  -5.205   0.273  1.00  0.00     0.346 HD
ATOM     16  H   UNL     1       1.760  -3.637  -0.211  1.00  0.00     0.346 HD
BRANCH  14  17
ATOM     17  C   UNL     1      -0.191  -3.742   0.210  1.00  0.00     0.217 C 
ATOM     18  C   UNL     1      -0.033  -0.196   0.863  1.00  0.00     0.042 C 
ATOM     19  C   UNL     1      -0.907  -1.456   0.807  1.00  0.00     0.069 C 
ATOM     20  C   UNL     1      -2.374  -1.041   0.727  1.00  0.00     0.042 C 
ATOM     21  C   UNL     1      -0.517  -2.367  -0.350  1.00  0.00     0.103 C 
ATOM     22  O   UNL     1      -0.694  -2.174   2.021  1.00  0.00    -0.363 OA
ATOM     23  C   UNL     1      -0.282  -3.529   1.755  1.00  0.00     0.115 C 
ATOM     24  C   UNL     1       1.034  -3.732   2.511  1.00  0.00     0.048 C 
ATOM     25  C   UNL     1      -1.367  -4.419   2.370  1.00  0.00     0.048 C 
ENDBRANCH  14  17
ENDBRANCH  13  14
ENDBRANCH   8  13
ENDBRANCH   4   7
ENDBRANCH   2   3
ENDBRANCH   1   2
BRANCH   1  26
ATOM     26  C   UNL     1       5.858  -1.229   1.056  1.00  0.00     0.023 C 
BRANCH  26  27
ATOM     27  C   UNL     1       6.651  -2.320   1.766  1.00  0.00     0.116 C 
BRANCH  27  28
ATOM     28  N   UNL     1       7.818  -2.770   1.016  1.00  0.00    -0.352 N 
ATOM     29  C   UNL     1       9.028  -3.207   1.489  1.00  0.00     0.251 C 
ATOM     30  H   UNL     1       7.723  -2.760   0.036  1.00  0.00     0.163 HD
ATOM     31  O   UNL     1       9.935  -3.504   0.731  1.00  0.00    -0.269 OA
BRANCH  29  32
ATOM     32  C   UNL     1       9.213  -3.255   2.946  1.00  0.00     0.039 A 
ATOM     33  C   UNL     1      10.253  -2.512   3.503  1.00  0.00     0.014 A 
ATOM     34  C   UNL     1       8.292  -3.938   3.744  1.00  0.00     0.014 A 
ATOM     35  C   UNL     1      10.334  -2.400   4.886  1.00  0.00     0.010 A 
ATOM     36  C   UNL     1       8.330  -3.761   5.117  1.00  0.00     0.010 A 
ATOM     37  C   UNL     1       9.353  -2.994   5.696  1.00  0.00    -0.014 A 
BRANCH  37  38
ATOM     38  C   UNL     1       9.394  -2.837   7.164  1.00  0.00     0.031 A 
ATOM     39  C   UNL     1       9.650  -4.038   8.025  1.00  0.00     0.074 A 
ATOM     40  C   UNL     1       9.151  -1.631   7.708  1.00  0.00     0.049 A 
ATOM     41  N   UNL     1       9.698  -4.120   9.329  1.00  0.00    -0.248 NA
ATOM     42  C   UNL     1       9.848  -5.322   7.331  1.00  0.00     0.031 C 
ATOM     43  C   UNL     1       8.842  -0.407   6.962  1.00  0.00     0.029 A 
ATOM     44  N   UNL     1       9.130  -1.235   9.019  1.00  0.00    -0.354 N 
ATOM     45  C   UNL     1       9.906  -5.463   9.609  1.00  0.00     0.074 A 
ATOM     46  C   UNL     1       9.925  -6.168   8.347  1.00  0.00     0.031 C 
ATOM     47  C   UNL     1       8.699   0.610   7.828  1.00  0.00     0.029 A 
ATOM     48  C   UNL     1       8.876   0.105   9.184  1.00  0.00     0.049 A 
ATOM     49  H   UNL     1       9.283  -1.852   9.771  1.00  0.00     0.167 HD
ATOM     50  C   UNL     1      10.090  -6.054  10.812  1.00  0.00     0.031 A 
ATOM     51  C   UNL     1       8.803   0.839  10.309  1.00  0.00     0.031 A 
ATOM     52  C   UNL     1      10.098  -5.341  12.058  1.00  0.00     0.049 A 
ATOM     53  C   UNL     1       9.033   0.163  11.631  1.00  0.00     0.074 A 
ATOM     54  C   UNL     1      10.340  -5.828  13.329  1.00  0.00     0.029 A 
ATOM     55  N   UNL     1       9.856  -3.982  12.184  1.00  0.00    -0.354 N 
ATOM     56  N   UNL     1       9.303  -1.097  11.878  1.00  0.00    -0.248 NA
ATOM     57  C   UNL     1       8.961   1.012  12.828  1.00  0.00     0.031 C 
ATOM     58  C   UNL     1      10.209  -4.766  14.231  1.00  0.00     0.029 A 
ATOM     59  C   UNL     1       9.927  -3.613  13.515  1.00  0.00     0.049 A 
ATOM     60  H   UNL     1       9.662  -3.370  11.438  1.00  0.00     0.167 HD
ATOM     61  C   UNL     1       9.459  -1.187  13.254  1.00  0.00     0.074 A 
ATOM     62  C   UNL     1       9.268   0.148  13.786  1.00  0.00     0.031 C 
ATOM     63  C   UNL     1       9.736  -2.276  14.012  1.00  0.00     0.031 A 
BRANCH  50  64
ATOM     64  C   UNL     1      10.291  -7.542  10.822  1.00  0.00    -0.014 A 
ATOM     65  C   UNL     1      11.475  -8.118  10.332  1.00  0.00     0.009 A 
ATOM     66  C   UNL     1       9.287  -8.379  11.331  1.00  0.00     0.009 A 
ATOM     67  C   UNL     1      11.631  -9.506  10.315  1.00  0.00     0.001 A 
ATOM     68  C   UNL     1       9.458  -9.764  11.338  1.00  0.00     0.001 A 
ATOM     69  C   UNL     1      10.624 -10.327  10.821  1.00  0.00     0.000 A 
ENDBRANCH  50  64
BRANCH  51  70
ATOM     70  C   UNL     1       8.537   2.298  10.233  1.00  0.00    -0.014 A 
ATOM     71  C   UNL     1       9.560   3.220  10.505  1.00  0.00     0.009 A 
ATOM     72  C   UNL     1       7.264   2.779   9.892  1.00  0.00     0.009 A 
ATOM     73  C   UNL     1       9.307   4.593  10.463  1.00  0.00     0.001 A 
ATOM     74  C   UNL     1       7.020   4.153   9.827  1.00  0.00     0.001 A 
ATOM     75  C   UNL     1       8.038   5.058  10.121  1.00  0.00     0.000 A 
ENDBRANCH  51  70
BRANCH  63  76
ATOM     76  C   UNL     1       9.877  -2.058  15.490  1.00  0.00    -0.014 A 
ATOM     77  C   UNL     1       8.754  -1.837  16.301  1.00  0.00     0.009 A 
ATOM     78  C   UNL     1      11.149  -2.121  16.081  1.00  0.00     0.009 A 
ATOM     79  C   UNL     1       8.906  -1.655  17.676  1.00  0.00     0.001 A 
ATOM     80  C   UNL     1      11.294  -1.965  17.459  1.00  0.00     0.001 A 
ATOM     81  C   UNL     1      10.174  -1.725  18.254  1.00  0.00     0.000 A 
ENDBRANCH  63  76
ENDBRANCH  37  38
ENDBRANCH  29  32
ENDBRANCH  27  28
ENDBRANCH  26  27
ENDBRANCH   1  26
TORSDOF 14
