REMARK SMILES C=CC[C@]1(C(=O)NCCCCNC(=O)c2ccc(-c3c4nc(c(-c5ccccc5)c5ccc([nH]5)c(-c5ccccc5)c5nc(c(-c6ccccc6)c6ccc3[nH]6)C=C5)C=C4)cc2)c2ccccc2C(=O)N1Cc1ccc([N+](=O)[O-])cc1
REMARK SMILES IDX 9 1 8 2 7 3 5 4 6 5 4 7 63 8 71 9 64 10 68 11 69 12 65 13
REMARK SMILES IDX 67 14 70 15 66 16 3 17 2 18 1 19 72 20 73 21 74 22 81 23
REMARK SMILES IDX 75 24 80 25 76 26 77 27 78 28 79 29 10 30 11 31 12 32 13 33
REMARK SMILES IDX 14 35 15 36 16 37 62 38 17 39 61 40 18 41 19 42 20 43 55 44
REMARK SMILES IDX 21 45 60 46 54 47 56 48 22 49 59 50 53 51 52 52 23 54 45 55
REMARK SMILES IDX 30 56 44 57 31 58 34 59 43 60 57 61 32 62 33 63 42 65 58 66
REMARK SMILES IDX 35 67 24 68 25 69 29 70 26 71 28 72 27 73 46 74 47 75 51 76
REMARK SMILES IDX 48 77 50 78 49 79 36 80 37 81 41 82 38 83 40 84 39 85
REMARK H PARENT 7 6 12 34 56 53 34 64
REMARK Flexibility Score: inf
ROOT
ATOM      1  C   UNL     1       2.796   0.272  -0.819  1.00  0.00     0.023 C 
ENDROOT
BRANCH   1   2
ATOM      2  C   UNL     1       1.442  -0.218  -1.348  1.00  0.00     0.116 C 
BRANCH   2   3
ATOM      3  N   UNL     1       0.285  -0.226  -0.455  1.00  0.00    -0.354 N 
ATOM      4  C   UNL     1      -1.075  -0.337  -0.750  1.00  0.00     0.251 C 
ATOM      5  O   UNL     1      -1.790  -0.752   0.173  1.00  0.00    -0.272 OA
ATOM      6  H   UNL     1       0.497  -0.140   0.502  1.00  0.00     0.163 HD
BRANCH   4   7
ATOM      7  C   UNL     1      -1.751   0.281  -2.070  1.00  0.00     0.151 C 
ATOM      8  C   UNL     1      -1.937   1.763  -1.706  1.00  0.00     0.000 A 
ATOM      9  N   UNL     1      -0.856   0.379  -3.252  1.00  0.00    -0.315 N 
ATOM     10  C   UNL     1      -2.755   2.312  -0.715  1.00  0.00     0.007 A 
ATOM     11  C   UNL     1      -1.220   2.575  -2.564  1.00  0.00     0.046 A 
ATOM     12  C   UNL     1      -0.531   1.714  -3.543  1.00  0.00     0.255 C 
ATOM     13  C   UNL     1      -2.855   3.697  -0.620  1.00  0.00     0.000 A 
ATOM     14  C   UNL     1      -1.280   3.956  -2.466  1.00  0.00     0.014 A 
ATOM     15  O   UNL     1       0.168   2.129  -4.436  1.00  0.00    -0.269 OA
ATOM     16  C   UNL     1      -2.114   4.515  -1.485  1.00  0.00     0.001 A 
BRANCH   7  17
ATOM     17  C   UNL     1      -3.239  -0.123  -2.479  1.00  0.00     0.070 C 
BRANCH  17  18
ATOM     18  C   UNL     1      -3.766  -1.531  -2.534  1.00  0.00    -0.031 C 
ATOM     19  C   UNL     1      -4.361  -2.145  -1.502  1.00  0.00     0.004 C 
ENDBRANCH  17  18
ENDBRANCH   7  17
BRANCH   9  20
ATOM     20  C   UNL     1      -0.503  -0.729  -4.168  1.00  0.00     0.157 C 
BRANCH  20  21
ATOM     21  C   UNL     1       0.002  -2.028  -3.549  1.00  0.00    -0.028 A 
ATOM     22  C   UNL     1       1.279  -2.553  -3.818  1.00  0.00     0.012 A 
ATOM     23  C   UNL     1      -0.791  -2.742  -2.646  1.00  0.00     0.012 A 
ATOM     24  C   UNL     1       1.762  -3.668  -3.099  1.00  0.00     0.086 A 
ATOM     25  C   UNL     1      -0.342  -3.824  -1.909  1.00  0.00     0.086 A 
ATOM     26  C   UNL     1       0.947  -4.257  -2.126  1.00  0.00     0.269 A 
BRANCH  26  27
ATOM     27  N   UNL     1       1.442  -5.247  -1.199  1.00  0.00     0.062 N 
ATOM     28  O   UNL     1       2.102  -4.827  -0.240  1.00  0.00    -0.258 OA
ATOM     29  O   UNL     1       1.119  -6.423  -1.395  1.00  0.00    -0.258 OA
ENDBRANCH  26  27
ENDBRANCH  20  21
ENDBRANCH   9  20
ENDBRANCH   4   7
ENDBRANCH   2   3
ENDBRANCH   1   2
BRANCH   1  30
ATOM     30  C   UNL     1       3.659  -0.715  -0.014  1.00  0.00     0.023 C 
BRANCH  30  31
ATOM     31  C   UNL     1       4.025  -2.072  -0.638  1.00  0.00     0.116 C 
BRANCH  31  32
ATOM     32  N   UNL     1       4.832  -2.048  -1.852  1.00  0.00    -0.352 N 
ATOM     33  C   UNL     1       5.699  -3.029  -2.309  1.00  0.00     0.251 C 
ATOM     34  H   UNL     1       4.752  -1.242  -2.412  1.00  0.00     0.163 HD
ATOM     35  O   UNL     1       6.211  -2.951  -3.420  1.00  0.00    -0.269 OA
BRANCH  33  36
ATOM     36  C   UNL     1       6.025  -4.179  -1.434  1.00  0.00     0.039 A 
ATOM     37  C   UNL     1       7.292  -4.286  -0.865  1.00  0.00     0.014 A 
ATOM     38  C   UNL     1       5.055  -5.127  -1.129  1.00  0.00     0.014 A 
ATOM     39  C   UNL     1       7.537  -5.275   0.100  1.00  0.00     0.010 A 
ATOM     40  C   UNL     1       5.267  -6.049  -0.099  1.00  0.00     0.010 A 
ATOM     41  C   UNL     1       6.505  -6.120   0.554  1.00  0.00    -0.014 A 
BRANCH  41  42
ATOM     42  C   UNL     1       6.696  -7.001   1.751  1.00  0.00     0.031 A 
ATOM     43  C   UNL     1       6.478  -8.494   1.691  1.00  0.00     0.074 A 
ATOM     44  C   UNL     1       7.016  -6.445   2.940  1.00  0.00     0.049 A 
ATOM     45  N   UNL     1       6.621  -9.388   2.642  1.00  0.00    -0.248 NA
ATOM     46  C   UNL     1       6.020  -9.055   0.412  1.00  0.00     0.031 C 
ATOM     47  C   UNL     1       7.190  -5.011   3.187  1.00  0.00     0.029 A 
ATOM     48  N   UNL     1       7.266  -7.019   4.166  1.00  0.00    -0.354 N 
ATOM     49  C   UNL     1       6.259 -10.607   2.080  1.00  0.00     0.074 A 
ATOM     50  C   UNL     1       5.831 -10.329   0.726  1.00  0.00     0.031 C 
ATOM     51  C   UNL     1       7.584  -4.825   4.456  1.00  0.00     0.029 A 
ATOM     52  C   UNL     1       7.638  -6.116   5.134  1.00  0.00     0.049 A 
ATOM     53  H   UNL     1       7.186  -7.986   4.334  1.00  0.00     0.167 HD
ATOM     54  C   UNL     1       6.299 -11.851   2.622  1.00  0.00     0.031 A 
ATOM     55  C   UNL     1       7.989  -6.293   6.423  1.00  0.00     0.031 A 
ATOM     56  C   UNL     1       6.720 -12.148   3.967  1.00  0.00     0.049 A 
ATOM     57  C   UNL     1       8.008  -7.677   7.009  1.00  0.00     0.074 A 
ATOM     58  C   UNL     1       6.846 -13.385   4.579  1.00  0.00     0.029 A 
ATOM     59  N   UNL     1       7.074 -11.200   4.914  1.00  0.00    -0.354 N 
ATOM     60  N   UNL     1       7.749  -8.824   6.432  1.00  0.00    -0.248 NA
ATOM     61  C   UNL     1       8.381  -7.789   8.428  1.00  0.00     0.031 C 
ATOM     62  C   UNL     1       7.223 -13.181   5.910  1.00  0.00     0.029 A 
ATOM     63  C   UNL     1       7.396 -11.822   6.110  1.00  0.00     0.049 A 
ATOM     64  H   UNL     1       7.094 -10.227   4.759  1.00  0.00     0.167 HD
ATOM     65  C   UNL     1       7.960  -9.793   7.404  1.00  0.00     0.074 A 
ATOM     66  C   UNL     1       8.381  -9.103   8.605  1.00  0.00     0.031 C 
ATOM     67  C   UNL     1       7.819 -11.137   7.304  1.00  0.00     0.031 A 
BRANCH  54  68
ATOM     68  C   UNL     1       5.873 -12.999   1.743  1.00  0.00    -0.014 A 
ATOM     69  C   UNL     1       6.636 -13.382   0.628  1.00  0.00     0.009 A 
ATOM     70  C   UNL     1       4.711 -13.726   2.048  1.00  0.00     0.009 A 
ATOM     71  C   UNL     1       6.217 -14.431  -0.194  1.00  0.00     0.001 A 
ATOM     72  C   UNL     1       4.313 -14.797   1.245  1.00  0.00     0.001 A 
ATOM     73  C   UNL     1       5.058 -15.139   0.117  1.00  0.00     0.000 A 
ENDBRANCH  54  68
BRANCH  55  74
ATOM     74  C   UNL     1       8.391  -5.125   7.253  1.00  0.00    -0.014 A 
ATOM     75  C   UNL     1       9.726  -4.971   7.659  1.00  0.00     0.009 A 
ATOM     76  C   UNL     1       7.446  -4.168   7.655  1.00  0.00     0.009 A 
ATOM     77  C   UNL     1      10.101  -3.899   8.473  1.00  0.00     0.001 A 
ATOM     78  C   UNL     1       7.830  -3.080   8.442  1.00  0.00     0.001 A 
ATOM     79  C   UNL     1       9.154  -2.952   8.860  1.00  0.00     0.000 A 
ENDBRANCH  55  74
BRANCH  67  80
ATOM     80  C   UNL     1       8.169 -11.966   8.510  1.00  0.00    -0.014 A 
ATOM     81  C   UNL     1       7.364 -11.971   9.660  1.00  0.00     0.009 A 
ATOM     82  C   UNL     1       9.305 -12.791   8.476  1.00  0.00     0.009 A 
ATOM     83  C   UNL     1       7.705 -12.762  10.760  1.00  0.00     0.001 A 
ATOM     84  C   UNL     1       9.627 -13.604   9.564  1.00  0.00     0.001 A 
ATOM     85  C   UNL     1       8.832 -13.582  10.709  1.00  0.00     0.000 A 
ENDBRANCH  67  80
ENDBRANCH  41  42
ENDBRANCH  33  36
ENDBRANCH  31  32
ENDBRANCH  30  31
ENDBRANCH   1  30
TORSDOF 16
