REMARK SMILES CC[C@](C)(NS(=O)(=O)Cc1cc(C)on1)C(=O)NCCCCNC(=O)c1ccc(-c2c3nc(c(-c4ccccc4)c4ccc([nH]4)c(-c4ccccc4)c4nc(c(-c5ccccc5)c5ccc2[nH]5)C=C4)C=C3)cc1
REMARK SMILES IDX 19 1 18 2 16 3 17 4 3 6 4 7 2 8 1 9 5 10 6 12 7 13 8 14 9 15
REMARK SMILES IDX 10 16 11 17 15 18 12 19 14 20 13 21 20 22 21 23 22 24 23 25
REMARK SMILES IDX 24 26 25 28 26 29 27 30 73 31 28 32 72 33 29 34 30 35 31 36
REMARK SMILES IDX 66 37 32 38 71 39 65 40 67 41 33 42 70 43 64 44 63 45 34 47
REMARK SMILES IDX 56 48 41 49 55 50 42 51 45 52 54 53 68 54 43 55 44 56 53 58
REMARK SMILES IDX 69 59 46 60 35 61 36 62 40 63 37 64 39 65 38 66 57 67 58 68
REMARK SMILES IDX 62 69 59 70 61 71 60 72 47 73 48 74 52 75 49 76 51 77 50 78
REMARK H PARENT 18 5 5 11 23 27 67 46 45 57
REMARK Flexibility Score: inf
ROOT
ATOM      1  C   UNL     1       2.277  -0.321   4.913  1.00  0.00     0.116 C 
ENDROOT
BRANCH   1   2
ATOM      2  N   UNL     1       2.803  -0.594   3.585  1.00  0.00    -0.354 N 
ATOM      3  C   UNL     1       2.304  -0.836   2.345  1.00  0.00     0.240 C 
ATOM      4  O   UNL     1       3.197  -0.932   1.488  1.00  0.00    -0.273 OA
ATOM      5  H   UNL     1       3.787  -0.608   3.584  1.00  0.00     0.163 HD
BRANCH   3   6
ATOM      6  C   UNL     1       0.811  -1.076   1.954  1.00  0.00     0.108 C 
ATOM      7  C   UNL     1       0.744  -0.782   0.423  1.00  0.00     0.040 C 
BRANCH   6   8
ATOM      8  C   UNL     1      -0.163  -0.128   2.682  1.00  0.00     0.030 C 
ATOM      9  C   UNL     1      -1.595  -0.057   2.162  1.00  0.00     0.006 C 
ENDBRANCH   6   8
BRANCH   6  10
ATOM     10  N   UNL     1       0.390  -2.502   2.027  1.00  0.00    -0.200 NA
ATOM     11  H   UNL     1       0.911  -2.966   1.283  1.00  0.00     0.142 HD
BRANCH  10  12
ATOM     12  S   UNL     1       0.509  -3.519   3.322  1.00  0.00     0.218 S 
ATOM     13  O   UNL     1       0.053  -2.762   4.468  1.00  0.00    -0.212 OA
ATOM     14  O   UNL     1      -0.225  -4.707   2.943  1.00  0.00    -0.212 OA
BRANCH  12  15
ATOM     15  C   UNL     1       2.256  -3.936   3.500  1.00  0.00     0.213 C 
BRANCH  15  16
ATOM     16  C   UNL     1       2.699  -5.164   2.812  1.00  0.00     0.100 A 
ATOM     17  C   UNL     1       2.570  -6.496   3.264  1.00  0.00     0.073 A 
ATOM     18  N   UNL     1       3.463  -5.095   1.714  1.00  0.00    -0.084 NA
ATOM     19  C   UNL     1       3.311  -7.229   2.374  1.00  0.00     0.133 A 
ATOM     20  O   UNL     1       3.835  -6.399   1.434  1.00  0.00    -0.361 OA
ATOM     21  C   UNL     1       3.653  -8.655   2.259  1.00  0.00     0.091 C 
ENDBRANCH  15  16
ENDBRANCH  12  15
ENDBRANCH  10  12
ENDBRANCH   6  10
ENDBRANCH   3   6
ENDBRANCH   1   2
BRANCH   1  22
ATOM     22  C   UNL     1       2.460  -1.468   5.906  1.00  0.00     0.023 C 
BRANCH  22  23
ATOM     23  C   UNL     1       3.882  -2.000   6.063  1.00  0.00     0.023 C 
BRANCH  23  24
ATOM     24  C   UNL     1       4.763  -1.104   6.907  1.00  0.00     0.116 C 
BRANCH  24  25
ATOM     25  N   UNL     1       4.256  -0.979   8.268  1.00  0.00    -0.352 N 
ATOM     26  C   UNL     1       4.920  -1.124   9.458  1.00  0.00     0.251 C 
ATOM     27  H   UNL     1       3.299  -0.760   8.344  1.00  0.00     0.163 HD
ATOM     28  O   UNL     1       4.298  -1.193  10.512  1.00  0.00    -0.269 OA
BRANCH  26  29
ATOM     29  C   UNL     1       6.391  -1.204   9.453  1.00  0.00     0.039 A 
ATOM     30  C   UNL     1       7.027  -2.110  10.304  1.00  0.00     0.014 A 
ATOM     31  C   UNL     1       7.133  -0.382   8.602  1.00  0.00     0.014 A 
ATOM     32  C   UNL     1       8.416  -2.214  10.271  1.00  0.00     0.010 A 
ATOM     33  C   UNL     1       8.499  -0.567   8.489  1.00  0.00     0.010 A 
ATOM     34  C   UNL     1       9.155  -1.457   9.348  1.00  0.00    -0.014 A 
BRANCH  34  35
ATOM     35  C   UNL     1      10.630  -1.520   9.302  1.00  0.00     0.031 A 
ATOM     36  C   UNL     1      11.427  -0.284   9.615  1.00  0.00     0.074 A 
ATOM     37  C   UNL     1      11.235  -2.656   8.910  1.00  0.00     0.049 A 
ATOM     38  N   UNL     1      12.718  -0.095   9.550  1.00  0.00    -0.248 NA
ATOM     39  C   UNL     1      10.665   0.914  10.014  1.00  0.00     0.031 C 
ATOM     40  C   UNL     1      10.553  -3.895   8.530  1.00  0.00     0.029 A 
ATOM     41  N   UNL     1      12.565  -2.947   8.759  1.00  0.00    -0.354 N 
ATOM     42  C   UNL     1      12.916   1.243   9.869  1.00  0.00     0.074 A 
ATOM     43  C   UNL     1      11.613   1.835  10.062  1.00  0.00     0.031 C 
ATOM     44  C   UNL     1      11.472  -4.825   8.224  1.00  0.00     0.029 A 
ATOM     45  C   UNL     1      12.800  -4.236   8.348  1.00  0.00     0.049 A 
ATOM     46  H   UNL     1      13.283  -2.296   8.930  1.00  0.00     0.167 HD
ATOM     47  C   UNL     1      14.083   1.911  10.018  1.00  0.00     0.031 A 
ATOM     48  C   UNL     1      13.962  -4.866   8.100  1.00  0.00     0.031 A 
ATOM     49  C   UNL     1      15.373   1.302   9.853  1.00  0.00     0.049 A 
ATOM     50  C   UNL     1      15.246  -4.109   8.294  1.00  0.00     0.074 A 
ATOM     51  C   UNL     1      16.623   1.860  10.039  1.00  0.00     0.029 A 
ATOM     52  N   UNL     1      15.571  -0.016   9.467  1.00  0.00    -0.354 N 
ATOM     53  N   UNL     1      15.423  -2.863   8.663  1.00  0.00    -0.248 NA
ATOM     54  C   UNL     1      16.491  -4.851   8.053  1.00  0.00     0.031 C 
ATOM     55  C   UNL     1      17.581   0.891   9.724  1.00  0.00     0.029 A 
ATOM     56  C   UNL     1      16.925  -0.286   9.394  1.00  0.00     0.049 A 
ATOM     57  H   UNL     1      14.854  -0.663   9.274  1.00  0.00     0.167 HD
ATOM     58  C   UNL     1      16.797  -2.677   8.723  1.00  0.00     0.074 A 
ATOM     59  C   UNL     1      17.405  -3.945   8.371  1.00  0.00     0.031 C 
ATOM     60  C   UNL     1      17.497  -1.559   9.039  1.00  0.00     0.031 A 
BRANCH  47  61
ATOM     61  C   UNL     1      14.003   3.369  10.380  1.00  0.00    -0.014 A 
ATOM     62  C   UNL     1      13.535   3.783  11.638  1.00  0.00     0.009 A 
ATOM     63  C   UNL     1      14.407   4.343   9.455  1.00  0.00     0.009 A 
ATOM     64  C   UNL     1      13.430   5.141  11.945  1.00  0.00     0.001 A 
ATOM     65  C   UNL     1      14.332   5.700   9.776  1.00  0.00     0.001 A 
ATOM     66  C   UNL     1      13.834   6.098  11.015  1.00  0.00     0.000 A 
ENDBRANCH  47  61
BRANCH  48  67
ATOM     67  C   UNL     1      13.961  -6.290   7.677  1.00  0.00    -0.014 A 
ATOM     68  C   UNL     1      14.402  -7.292   8.554  1.00  0.00     0.009 A 
ATOM     69  C   UNL     1      13.507  -6.657   6.401  1.00  0.00     0.009 A 
ATOM     70  C   UNL     1      14.413  -8.630   8.153  1.00  0.00     0.001 A 
ATOM     71  C   UNL     1      13.492  -7.999   6.013  1.00  0.00     0.001 A 
ATOM     72  C   UNL     1      13.954  -8.983   6.886  1.00  0.00     0.000 A 
ENDBRANCH  48  67
BRANCH  60  73
ATOM     73  C   UNL     1      18.993  -1.673   9.047  1.00  0.00    -0.014 A 
ATOM     74  C   UNL     1      19.721  -1.767   7.852  1.00  0.00     0.009 A 
ATOM     75  C   UNL     1      19.683  -1.639  10.269  1.00  0.00     0.009 A 
ATOM     76  C   UNL     1      21.113  -1.859   7.883  1.00  0.00     0.001 A 
ATOM     77  C   UNL     1      21.076  -1.700  10.294  1.00  0.00     0.001 A 
ATOM     78  C   UNL     1      21.789  -1.819   9.102  1.00  0.00     0.000 A 
ENDBRANCH  60  73
ENDBRANCH  34  35
ENDBRANCH  26  29
ENDBRANCH  24  25
ENDBRANCH  23  24
ENDBRANCH  22  23
ENDBRANCH   1  22
TORSDOF 16
