REMARK SMILES CC1(C)C[C@](CC(=O)NCCCCNC(=O)c2ccc(-c3c4nc(c(-c5ccccc5)c5ccc([nH]5)c(-c5ccccc5)c5nc(c(-c6ccccc6)c6ccc3[nH]6)C=C5)C=C4)cc2)([NH+]2CCCC2)C(C)(C)O1
REMARK SMILES IDX 11 1 10 2 9 3 7 4 8 5 6 7 5 8 1 9 2 10 3 11 4 12 73 13 70 14
REMARK SMILES IDX 71 15 72 16 65 17 66 18 69 19 67 21 68 22 12 23 13 24 14 25
REMARK SMILES IDX 15 26 16 28 17 29 18 30 64 31 19 32 63 33 20 34 21 35 22 36
REMARK SMILES IDX 57 37 23 38 62 39 56 40 58 41 24 42 61 43 55 44 54 45 25 47
REMARK SMILES IDX 47 48 32 49 46 50 33 51 36 52 45 53 59 54 34 55 35 56 44 58
REMARK SMILES IDX 60 59 37 60 26 61 27 62 31 63 28 64 30 65 29 66 48 67 49 68
REMARK SMILES IDX 53 69 50 70 52 71 51 72 38 73 39 74 43 75 40 76 42 77 41 78
REMARK H PARENT 9 6 65 20 14 27 58 46 36 57
REMARK Flexibility Score: inf
ROOT
ATOM      1  C   UNL     1      -1.346   4.936  -4.099  1.00  0.00     0.023 C 
ENDROOT
BRANCH   1   2
ATOM      2  C   UNL     1      -2.458   4.212  -3.349  1.00  0.00     0.116 C 
BRANCH   2   3
ATOM      3  N   UNL     1      -3.121   3.225  -4.156  1.00  0.00    -0.356 N 
ATOM      4  C   UNL     1      -3.279   1.896  -3.948  1.00  0.00     0.226 C 
ATOM      5  O   UNL     1      -4.145   1.344  -4.638  1.00  0.00    -0.275 OA
ATOM      6  H   UNL     1      -3.523   3.568  -4.987  1.00  0.00     0.163 HD
BRANCH   4   7
ATOM      7  C   UNL     1      -2.507   1.094  -2.900  1.00  0.00     0.171 C 
BRANCH   7   8
ATOM      8  C   UNL     1      -0.955   0.761  -2.952  1.00  0.00     0.138 C 
ATOM      9  C   UNL     1       0.255  -0.523   0.264  1.00  0.00     0.042 C 
ATOM     10  C   UNL     1       0.508  -0.397  -1.249  1.00  0.00     0.070 C 
ATOM     11  C   UNL     1       1.570  -1.443  -1.598  1.00  0.00     0.042 C 
ATOM     12  C   UNL     1      -0.798  -0.514  -2.040  1.00  0.00     0.107 C 
ATOM     13  O   UNL     1       1.048   0.895  -1.539  1.00  0.00    -0.363 OA
ATOM     14  C   UNL     1       0.028   1.747  -2.145  1.00  0.00     0.118 C 
ATOM     15  C   UNL     1      -0.553   2.520  -0.928  1.00  0.00     0.049 C 
ATOM     16  C   UNL     1       0.836   2.709  -3.032  1.00  0.00     0.049 C 
BRANCH   8  17
ATOM     17  N   UNL     1      -0.529   0.334  -4.320  1.00  0.00    -0.327 N 
ATOM     18  C   UNL     1      -1.069   0.949  -5.526  1.00  0.00     0.263 C 
ATOM     19  C   UNL     1       0.830  -0.118  -4.595  1.00  0.00     0.263 C 
ATOM     20  H   UNL     1      -1.099  -0.487  -4.111  1.00  0.00     0.348 HD
ATOM     21  C   UNL     1      -0.209   0.434  -6.665  1.00  0.00     0.067 C 
ATOM     22  C   UNL     1       1.148   0.304  -6.023  1.00  0.00     0.067 C 
ENDBRANCH   8  17
ENDBRANCH   7   8
ENDBRANCH   4   7
ENDBRANCH   2   3
ENDBRANCH   1   2
BRANCH   1  23
ATOM     23  C   UNL     1      -1.733   6.275  -4.702  1.00  0.00     0.023 C 
BRANCH  23  24
ATOM     24  C   UNL     1      -2.285   7.273  -3.694  1.00  0.00     0.116 C 
BRANCH  24  25
ATOM     25  N   UNL     1      -1.362   7.592  -2.607  1.00  0.00    -0.352 N 
ATOM     26  C   UNL     1      -0.644   8.742  -2.349  1.00  0.00     0.251 C 
ATOM     27  H   UNL     1      -1.232   6.870  -1.951  1.00  0.00     0.163 HD
ATOM     28  O   UNL     1       0.155   8.786  -1.426  1.00  0.00    -0.269 OA
BRANCH  26  29
ATOM     29  C   UNL     1      -0.809   9.900  -3.249  1.00  0.00     0.039 A 
ATOM     30  C   UNL     1       0.321  10.499  -3.808  1.00  0.00     0.014 A 
ATOM     31  C   UNL     1      -2.084  10.298  -3.638  1.00  0.00     0.014 A 
ATOM     32  C   UNL     1       0.166  11.384  -4.876  1.00  0.00     0.010 A 
ATOM     33  C   UNL     1      -2.228  11.052  -4.791  1.00  0.00     0.010 A 
ATOM     34  C   UNL     1      -1.105  11.594  -5.435  1.00  0.00    -0.014 A 
BRANCH  34  35
ATOM     35  C   UNL     1      -1.306  12.348  -6.701  1.00  0.00     0.031 A 
ATOM     36  C   UNL     1      -2.281  13.494  -6.738  1.00  0.00     0.074 A 
ATOM     37  C   UNL     1      -0.721  11.928  -7.842  1.00  0.00     0.049 A 
ATOM     38  N   UNL     1      -2.754  14.146  -7.769  1.00  0.00    -0.248 NA
ATOM     39  C   UNL     1      -2.843  13.925  -5.446  1.00  0.00     0.031 C 
ATOM     40  C   UNL     1       0.201  10.796  -7.968  1.00  0.00     0.029 A 
ATOM     41  N   UNL     1      -0.826  12.408  -9.124  1.00  0.00    -0.354 N 
ATOM     42  C   UNL     1      -3.706  15.017  -7.254  1.00  0.00     0.074 A 
ATOM     43  C   UNL     1      -3.785  14.770  -5.832  1.00  0.00     0.031 C 
ATOM     44  C   UNL     1       0.616  10.702  -9.242  1.00  0.00     0.029 A 
ATOM     45  C   UNL     1      -0.054  11.726 -10.034  1.00  0.00     0.049 A 
ATOM     46  H   UNL     1      -1.400  13.169  -9.369  1.00  0.00     0.167 HD
ATOM     47  C   UNL     1      -4.431  15.960  -7.899  1.00  0.00     0.031 A 
ATOM     48  C   UNL     1       0.092  11.899 -11.361  1.00  0.00     0.031 A 
ATOM     49  C   UNL     1      -4.306  16.254  -9.299  1.00  0.00     0.049 A 
ATOM     50  C   UNL     1      -0.702  12.970 -12.053  1.00  0.00     0.074 A 
ATOM     51  C   UNL     1      -4.922  17.253 -10.029  1.00  0.00     0.029 A 
ATOM     52  N   UNL     1      -3.493  15.554 -10.177  1.00  0.00    -0.354 N 
ATOM     53  N   UNL     1      -1.560  13.819 -11.543  1.00  0.00    -0.248 NA
ATOM     54  C   UNL     1      -0.510  13.101 -13.505  1.00  0.00     0.031 C 
ATOM     55  C   UNL     1      -4.505  17.138 -11.360  1.00  0.00     0.029 A 
ATOM     56  C   UNL     1      -3.603  16.090 -11.447  1.00  0.00     0.049 A 
ATOM     57  H   UNL     1      -2.922  14.790  -9.932  1.00  0.00     0.167 HD
ATOM     58  C   UNL     1      -1.998  14.596 -12.607  1.00  0.00     0.074 A 
ATOM     59  C   UNL     1      -1.301  14.128 -13.787  1.00  0.00     0.031 C 
ATOM     60  C   UNL     1      -2.900  15.607 -12.606  1.00  0.00     0.031 A 
BRANCH  47  61
ATOM     61  C   UNL     1      -5.415  16.746  -7.078  1.00  0.00    -0.014 A 
ATOM     62  C   UNL     1      -4.983  17.671  -6.114  1.00  0.00     0.009 A 
ATOM     63  C   UNL     1      -6.792  16.553  -7.266  1.00  0.00     0.009 A 
ATOM     64  C   UNL     1      -5.908  18.346  -5.316  1.00  0.00     0.001 A 
ATOM     65  C   UNL     1      -7.716  17.254  -6.488  1.00  0.00     0.001 A 
ATOM     66  C   UNL     1      -7.273  18.139  -5.506  1.00  0.00     0.000 A 
ENDBRANCH  47  61
BRANCH  48  67
ATOM     67  C   UNL     1       1.048  11.055 -12.123  1.00  0.00    -0.014 A 
ATOM     68  C   UNL     1       2.261  11.600 -12.572  1.00  0.00     0.009 A 
ATOM     69  C   UNL     1       0.763   9.710 -12.405  1.00  0.00     0.009 A 
ATOM     70  C   UNL     1       3.161  10.822 -13.304  1.00  0.00     0.001 A 
ATOM     71  C   UNL     1       1.676   8.928 -13.117  1.00  0.00     0.001 A 
ATOM     72  C   UNL     1       2.869   9.486 -13.572  1.00  0.00     0.000 A 
ENDBRANCH  48  67
BRANCH  60  73
ATOM     73  C   UNL     1      -3.169  16.287 -13.916  1.00  0.00    -0.014 A 
ATOM     74  C   UNL     1      -3.974  15.680 -14.891  1.00  0.00     0.009 A 
ATOM     75  C   UNL     1      -2.659  17.573 -14.151  1.00  0.00     0.009 A 
ATOM     76  C   UNL     1      -4.250  16.343 -16.087  1.00  0.00     0.001 A 
ATOM     77  C   UNL     1      -2.955  18.242 -15.338  1.00  0.00     0.001 A 
ATOM     78  C   UNL     1      -3.745  17.625 -16.307  1.00  0.00     0.000 A 
ENDBRANCH  60  73
ENDBRANCH  34  35
ENDBRANCH  26  29
ENDBRANCH  24  25
ENDBRANCH  23  24
ENDBRANCH   1  23
TORSDOF 13
