REMARK SMILES Cc1ccc(NC(=O)NC2(C(=O)NCCCCNC(=O)c3ccc(-c4c5nc(c(-c6ccccc6)c6ccc([nH]6)c(-c6ccccc6)c6nc(c(-c7ccccc7)c7ccc4[nH]7)C=C6)C=C5)cc3)CC2)c(C)n1
REMARK SMILES IDX 15 1 14 2 13 3 11 4 12 5 10 7 69 8 70 9 9 10 6 11 7 12 8 14
REMARK SMILES IDX 5 16 1 17 2 18 3 19 73 20 4 21 71 22 72 23 16 24 17 25 18 26
REMARK SMILES IDX 19 27 20 29 21 30 22 31 68 32 23 33 67 34 24 35 25 36 26 37
REMARK SMILES IDX 61 38 27 39 66 40 60 41 62 42 28 43 65 44 59 45 58 46 29 48
REMARK SMILES IDX 51 49 36 50 50 51 37 52 40 53 49 54 63 55 38 56 39 57 48 59
REMARK SMILES IDX 64 60 41 61 30 62 31 63 35 64 32 65 34 66 33 67 52 68 53 69
REMARK SMILES IDX 57 70 54 71 56 72 55 73 42 74 43 75 47 76 44 77 46 78 45 79
REMARK H PARENT 13 6 6 13 9 15 18 28 62 47 40 58
REMARK Flexibility Score: inf
ROOT
ATOM      1  C   UNL     1      -0.171   0.883   2.655  1.00  0.00     0.023 C 
ENDROOT
BRANCH   1   2
ATOM      2  C   UNL     1       1.239   1.488   2.801  1.00  0.00     0.116 C 
BRANCH   2   3
ATOM      3  N   UNL     1       2.151   0.914   1.815  1.00  0.00    -0.354 N 
ATOM      4  C   UNL     1       3.102   1.630   1.103  1.00  0.00     0.245 C 
ATOM      5  O   UNL     1       3.484   2.748   1.428  1.00  0.00    -0.272 OA
ATOM      6  H   UNL     1       2.086  -0.053   1.643  1.00  0.00     0.163 HD
BRANCH   4   7
ATOM      7  C   UNL     1       3.611   0.951  -0.199  1.00  0.00     0.120 C 
ATOM      8  C   UNL     1       4.478   1.873  -1.068  1.00  0.00     0.041 C 
ATOM      9  C   UNL     1       3.288   1.256  -1.681  1.00  0.00     0.041 C 
BRANCH   7  10
ATOM     10  N   UNL     1       3.840  -0.434  -0.059  1.00  0.00    -0.323 N 
ATOM     11  N   UNL     1       1.622  -1.319  -0.295  1.00  0.00    -0.306 N 
ATOM     12  C   UNL     1       2.950  -1.416  -0.150  1.00  0.00     0.320 C 
ATOM     13  H   UNL     1       1.318  -2.254  -0.258  1.00  0.00     0.171 HD
ATOM     14  O   UNL     1       3.386  -2.570  -0.037  1.00  0.00    -0.248 OA
ATOM     15  H   UNL     1       4.768  -0.705   0.127  1.00  0.00     0.166 HD
BRANCH  11  16
ATOM     16  C   UNL     1       0.405  -0.578  -0.475  1.00  0.00     0.064 A 
ATOM     17  C   UNL     1      -3.707   0.712  -0.792  1.00  0.00     0.067 C 
ATOM     18  C   UNL     1      -2.326   0.162  -0.721  1.00  0.00     0.038 A 
ATOM     19  C   UNL     1      -2.028  -1.155  -0.535  1.00  0.00     0.025 A 
ATOM     20  N   UNL     1      -1.353   1.069  -0.788  1.00  0.00    -0.256 NA
ATOM     21  C   UNL     1      -0.681  -1.506  -0.436  1.00  0.00     0.030 A 
ATOM     22  C   UNL     1      -0.024   0.758  -0.634  1.00  0.00     0.061 A 
ATOM     23  C   UNL     1       0.592   2.110  -0.619  1.00  0.00     0.069 C 
ENDBRANCH  11  16
ENDBRANCH   7  10
ENDBRANCH   4   7
ENDBRANCH   2   3
ENDBRANCH   1   2
BRANCH   1  24
ATOM     24  C   UNL     1      -1.048   0.889   3.899  1.00  0.00     0.023 C 
BRANCH  24  25
ATOM     25  C   UNL     1      -1.408   2.261   4.443  1.00  0.00     0.116 C 
BRANCH  25  26
ATOM     26  N   UNL     1      -2.486   2.939   3.731  1.00  0.00    -0.352 N 
ATOM     27  C   UNL     1      -3.597   3.580   4.248  1.00  0.00     0.251 C 
ATOM     28  H   UNL     1      -2.412   2.941   2.750  1.00  0.00     0.163 HD
ATOM     29  O   UNL     1      -4.442   4.067   3.500  1.00  0.00    -0.269 OA
BRANCH  27  30
ATOM     30  C   UNL     1      -3.809   3.620   5.716  1.00  0.00     0.039 A 
ATOM     31  C   UNL     1      -5.061   3.279   6.236  1.00  0.00     0.014 A 
ATOM     32  C   UNL     1      -2.754   3.904   6.583  1.00  0.00     0.014 A 
ATOM     33  C   UNL     1      -5.215   3.098   7.615  1.00  0.00     0.010 A 
ATOM     34  C   UNL     1      -2.878   3.611   7.938  1.00  0.00     0.010 A 
ATOM     35  C   UNL     1      -4.106   3.194   8.472  1.00  0.00    -0.014 A 
BRANCH  35  36
ATOM     36  C   UNL     1      -4.199   2.848   9.917  1.00  0.00     0.031 A 
ATOM     37  C   UNL     1      -3.844   3.868  10.967  1.00  0.00     0.074 A 
ATOM     38  C   UNL     1      -4.509   1.589  10.290  1.00  0.00     0.049 A 
ATOM     39  N   UNL     1      -3.788   3.731  12.269  1.00  0.00    -0.248 NA
ATOM     40  C   UNL     1      -3.463   5.207  10.490  1.00  0.00     0.031 C 
ATOM     41  C   UNL     1      -4.805   0.478   9.381  1.00  0.00     0.029 A 
ATOM     42  N   UNL     1      -4.618   1.027  11.540  1.00  0.00    -0.354 N 
ATOM     43  C   UNL     1      -3.338   4.952  12.757  1.00  0.00     0.074 A 
ATOM     44  C   UNL     1      -3.077   5.794  11.612  1.00  0.00     0.031 C 
ATOM     45  C   UNL     1      -5.095  -0.617  10.101  1.00  0.00     0.029 A 
ATOM     46  C   UNL     1      -4.968  -0.303  11.520  1.00  0.00     0.049 A 
ATOM     47  H   UNL     1      -4.461   1.529  12.372  1.00  0.00     0.167 HD
ATOM     48  C   UNL     1      -3.181   5.350  14.042  1.00  0.00     0.031 A 
ATOM     49  C   UNL     1      -5.163  -1.174  12.529  1.00  0.00     0.031 A 
ATOM     50  C   UNL     1      -3.464   4.525  15.185  1.00  0.00     0.049 A 
ATOM     51  C   UNL     1      -5.008  -0.704  13.949  1.00  0.00     0.074 A 
ATOM     52  C   UNL     1      -3.412   4.862  16.526  1.00  0.00     0.029 A 
ATOM     53  N   UNL     1      -3.851   3.196  15.120  1.00  0.00    -0.354 N 
ATOM     54  N   UNL     1      -4.669   0.482  14.393  1.00  0.00    -0.248 NA
ATOM     55  C   UNL     1      -5.277  -1.689  15.006  1.00  0.00     0.031 C 
ATOM     56  C   UNL     1      -3.719   3.721  17.275  1.00  0.00     0.029 A 
ATOM     57  C   UNL     1      -4.019   2.691  16.398  1.00  0.00     0.049 A 
ATOM     58  H   UNL     1      -3.987   2.686  14.289  1.00  0.00     0.167 HD
ATOM     59  C   UNL     1      -4.710   0.393  15.779  1.00  0.00     0.074 A 
ATOM     60  C   UNL     1      -5.126  -0.957  16.100  1.00  0.00     0.031 C 
ATOM     61  C   UNL     1      -4.428   1.344  16.703  1.00  0.00     0.031 A 
BRANCH  48  62
ATOM     62  C   UNL     1      -2.675   6.749  14.272  1.00  0.00    -0.014 A 
ATOM     63  C   UNL     1      -3.460   7.870  13.955  1.00  0.00     0.009 A 
ATOM     64  C   UNL     1      -1.401   6.949  14.825  1.00  0.00     0.009 A 
ATOM     65  C   UNL     1      -2.960   9.161  14.139  1.00  0.00     0.001 A 
ATOM     66  C   UNL     1      -0.917   8.241  15.041  1.00  0.00     0.001 A 
ATOM     67  C   UNL     1      -1.690   9.345  14.685  1.00  0.00     0.000 A 
ENDBRANCH  48  62
BRANCH  49  68
ATOM     68  C   UNL     1      -5.554  -2.580  12.237  1.00  0.00    -0.014 A 
ATOM     69  C   UNL     1      -6.851  -3.034  12.528  1.00  0.00     0.009 A 
ATOM     70  C   UNL     1      -4.634  -3.477  11.673  1.00  0.00     0.009 A 
ATOM     71  C   UNL     1      -7.208  -4.363  12.286  1.00  0.00     0.001 A 
ATOM     72  C   UNL     1      -5.003  -4.797  11.404  1.00  0.00     0.001 A 
ATOM     73  C   UNL     1      -6.286  -5.242  11.720  1.00  0.00     0.000 A 
ENDBRANCH  49  68
BRANCH  61  74
ATOM     74  C   UNL     1      -4.591   0.967  18.149  1.00  0.00    -0.014 A 
ATOM     75  C   UNL     1      -3.697   0.087  18.780  1.00  0.00     0.009 A 
ATOM     76  C   UNL     1      -5.635   1.530  18.900  1.00  0.00     0.009 A 
ATOM     77  C   UNL     1      -3.870  -0.251  20.124  1.00  0.00     0.001 A 
ATOM     78  C   UNL     1      -5.786   1.215  20.251  1.00  0.00     0.001 A 
ATOM     79  C   UNL     1      -4.910   0.317  20.859  1.00  0.00     0.000 A 
ENDBRANCH  61  74
ENDBRANCH  35  36
ENDBRANCH  27  30
ENDBRANCH  25  26
ENDBRANCH  24  25
ENDBRANCH   1  24
TORSDOF 13
