REMARK SMILES C[C@@H]1SC[C@H](C(=O)NCCCCNC(=O)c2ccc(-c3c4nc(c(-c5ccccc5)c5ccc([nH]5)c(-c5ccccc5)c5nc(c(-c6ccccc6)c6ccc3[nH]6)C=C5)C=C4)cc2)N1C(=O)C[NH2+]CC(F)(F)F
REMARK SMILES IDX 9 1 8 2 6 3 7 4 5 6 1 7 2 8 3 9 64 10 4 11 65 12 66 13 67 14
REMARK SMILES IDX 68 15 69 18 70 19 71 20 72 21 73 22 10 23 11 24 12 25 13 26
REMARK SMILES IDX 14 27 15 29 16 30 17 31 63 32 18 33 62 34 19 35 20 36 21 37
REMARK SMILES IDX 56 38 22 39 61 40 55 41 57 42 23 43 60 44 54 45 53 46 24 48
REMARK SMILES IDX 46 49 31 50 45 51 32 52 35 53 44 54 58 55 33 56 34 57 43 59
REMARK SMILES IDX 59 60 36 61 25 62 26 63 30 64 27 65 29 66 28 67 47 68 48 69
REMARK SMILES IDX 52 70 49 71 51 72 50 73 37 74 38 75 42 76 39 77 41 78 40 79
REMARK H PARENT 8 5 68 16 68 17 13 28 57 47 35 58
REMARK Flexibility Score: inf
ROOT
ATOM      1  C   UNL     1       4.066   1.216   2.893  1.00  0.00     0.116 C 
ENDROOT
BRANCH   1   2
ATOM      2  N   UNL     1       3.591   0.826   4.204  1.00  0.00    -0.354 N 
ATOM      3  C   UNL     1       2.321   0.582   4.639  1.00  0.00     0.243 C 
ATOM      4  O   UNL     1       2.143   0.566   5.862  1.00  0.00    -0.273 OA
ATOM      5  H   UNL     1       4.292   0.720   4.886  1.00  0.00     0.163 HD
BRANCH   3   6
ATOM      6  C   UNL     1       1.121   0.542   3.671  1.00  0.00     0.185 C 
ATOM      7  C   UNL     1       1.144   0.519  -0.048  1.00  0.00     0.043 C 
ATOM      8  C   UNL     1       0.469   0.329   1.307  1.00  0.00     0.141 C 
ATOM      9  S   UNL     1      -0.187   1.949   1.843  1.00  0.00    -0.135 SA
ATOM     10  N   UNL     1       1.317  -0.168   2.393  1.00  0.00    -0.313 N 
ATOM     11  C   UNL     1       0.724   1.986   3.395  1.00  0.00     0.107 C 
BRANCH  10  12
ATOM     12  C   UNL     1       1.766  -1.482   2.483  1.00  0.00     0.279 C 
ATOM     13  O   UNL     1       2.026  -2.004   3.571  1.00  0.00    -0.268 OA
BRANCH  12  14
ATOM     14  C   UNL     1       2.003  -2.290   1.206  1.00  0.00     0.362 C 
BRANCH  14  15
ATOM     15  N   UNL     1       0.724  -2.826   0.715  1.00  0.00    -0.331 N 
ATOM     16  H   UNL     1       0.078  -2.052   0.558  1.00  0.00     0.346 HD
ATOM     17  H   UNL     1       0.355  -3.469   1.416  1.00  0.00     0.346 HD
BRANCH  15  18
ATOM     18  C   UNL     1       0.901  -3.574  -0.558  1.00  0.00     0.378 C 
BRANCH  18  19
ATOM     19  C   UNL     1       1.786  -4.837  -0.576  1.00  0.00     0.438 C 
ATOM     20  F   UNL     1       1.432  -5.689   0.411  1.00  0.00    -0.165 F 
ATOM     21  F   UNL     1       1.664  -5.491  -1.752  1.00  0.00    -0.165 F 
ATOM     22  F   UNL     1       3.090  -4.526  -0.413  1.00  0.00    -0.165 F 
ENDBRANCH  18  19
ENDBRANCH  15  18
ENDBRANCH  14  15
ENDBRANCH  12  14
ENDBRANCH  10  12
ENDBRANCH   3   6
ENDBRANCH   1   2
BRANCH   1  23
ATOM     23  C   UNL     1       4.754   2.578   2.943  1.00  0.00     0.023 C 
BRANCH  23  24
ATOM     24  C   UNL     1       6.041   2.612   3.768  1.00  0.00     0.023 C 
BRANCH  24  25
ATOM     25  C   UNL     1       7.098   1.597   3.351  1.00  0.00     0.116 C 
BRANCH  25  26
ATOM     26  N   UNL     1       7.512   1.753   1.964  1.00  0.00    -0.352 N 
ATOM     27  C   UNL     1       8.780   1.814   1.442  1.00  0.00     0.251 C 
ATOM     28  H   UNL     1       6.780   1.824   1.309  1.00  0.00     0.163 HD
ATOM     29  O   UNL     1       8.951   2.096   0.260  1.00  0.00    -0.269 OA
BRANCH  27  30
ATOM     30  C   UNL     1       9.942   1.570   2.322  1.00  0.00     0.039 A 
ATOM     31  C   UNL     1      11.018   2.459   2.281  1.00  0.00     0.014 A 
ATOM     32  C   UNL     1       9.955   0.485   3.202  1.00  0.00     0.014 A 
ATOM     33  C   UNL     1      12.078   2.299   3.175  1.00  0.00     0.010 A 
ATOM     34  C   UNL     1      10.972   0.374   4.145  1.00  0.00     0.010 A 
ATOM     35  C   UNL     1      12.044   1.279   4.141  1.00  0.00    -0.014 A 
BRANCH  35  36
ATOM     36  C   UNL     1      13.122   1.143   5.153  1.00  0.00     0.031 A 
ATOM     37  C   UNL     1      13.979  -0.093   5.180  1.00  0.00     0.074 A 
ATOM     38  C   UNL     1      13.296   2.106   6.080  1.00  0.00     0.049 A 
ATOM     39  N   UNL     1      14.929  -0.420   6.020  1.00  0.00    -0.248 NA
ATOM     40  C   UNL     1      13.723  -1.104   4.140  1.00  0.00     0.031 C 
ATOM     41  C   UNL     1      12.509   3.337   6.185  1.00  0.00     0.029 A 
ATOM     42  N   UNL     1      14.192   2.197   7.115  1.00  0.00    -0.354 N 
ATOM     43  C   UNL     1      15.378  -1.670   5.612  1.00  0.00     0.074 A 
ATOM     44  C   UNL     1      14.556  -2.071   4.491  1.00  0.00     0.031 C 
ATOM     45  C   UNL     1      12.976   4.071   7.208  1.00  0.00     0.029 A 
ATOM     46  C   UNL     1      14.062   3.346   7.858  1.00  0.00     0.049 A 
ATOM     47  H   UNL     1      14.864   1.504   7.308  1.00  0.00     0.167 HD
ATOM     48  C   UNL     1      16.401  -2.408   6.105  1.00  0.00     0.031 A 
ATOM     49  C   UNL     1      14.736   3.764   8.947  1.00  0.00     0.031 A 
ATOM     50  C   UNL     1      17.218  -2.014   7.221  1.00  0.00     0.049 A 
ATOM     51  C   UNL     1      15.838   2.902   9.501  1.00  0.00     0.074 A 
ATOM     52  C   UNL     1      18.293  -2.682   7.781  1.00  0.00     0.029 A 
ATOM     53  N   UNL     1      17.052  -0.844   7.945  1.00  0.00    -0.354 N 
ATOM     54  N   UNL     1      16.286   1.750   9.067  1.00  0.00    -0.248 NA
ATOM     55  C   UNL     1      16.536   3.410  10.692  1.00  0.00     0.031 C 
ATOM     56  C   UNL     1      18.748  -1.939   8.874  1.00  0.00     0.029 A 
ATOM     57  C   UNL     1      17.994  -0.779   8.957  1.00  0.00     0.049 A 
ATOM     58  H   UNL     1      16.366  -0.161   7.767  1.00  0.00     0.167 HD
ATOM     59  C   UNL     1      17.338   1.412   9.909  1.00  0.00     0.074 A 
ATOM     60  C   UNL     1      17.474   2.490  10.865  1.00  0.00     0.031 C 
ATOM     61  C   UNL     1      18.123   0.307   9.893  1.00  0.00     0.031 A 
BRANCH  48  62
ATOM     62  C   UNL     1      16.697  -3.718   5.430  1.00  0.00    -0.014 A 
ATOM     63  C   UNL     1      17.246  -3.755   4.137  1.00  0.00     0.009 A 
ATOM     64  C   UNL     1      16.467  -4.927   6.104  1.00  0.00     0.009 A 
ATOM     65  C   UNL     1      17.528  -4.976   3.522  1.00  0.00     0.001 A 
ATOM     66  C   UNL     1      16.778  -6.146   5.497  1.00  0.00     0.001 A 
ATOM     67  C   UNL     1      17.300  -6.169   4.205  1.00  0.00     0.000 A 
ENDBRANCH  48  62
BRANCH  49  68
ATOM     68  C   UNL     1      14.397   5.060   9.593  1.00  0.00    -0.014 A 
ATOM     69  C   UNL     1      15.307   6.129   9.570  1.00  0.00     0.009 A 
ATOM     70  C   UNL     1      13.181   5.222  10.274  1.00  0.00     0.009 A 
ATOM     71  C   UNL     1      15.025   7.316  10.251  1.00  0.00     0.001 A 
ATOM     72  C   UNL     1      12.886   6.422  10.925  1.00  0.00     0.001 A 
ATOM     73  C   UNL     1      13.814   7.462  10.926  1.00  0.00     0.000 A 
ENDBRANCH  49  68
BRANCH  61  74
ATOM     74  C   UNL     1      19.228   0.234  10.909  1.00  0.00    -0.014 A 
ATOM     75  C   UNL     1      18.959   0.026  12.271  1.00  0.00     0.009 A 
ATOM     76  C   UNL     1      20.563   0.340  10.488  1.00  0.00     0.009 A 
ATOM     77  C   UNL     1      20.005  -0.034  13.195  1.00  0.00     0.001 A 
ATOM     78  C   UNL     1      21.607   0.247  11.409  1.00  0.00     0.001 A 
ATOM     79  C   UNL     1      21.326   0.071  12.763  1.00  0.00     0.000 A 
ENDBRANCH  61  74
ENDBRANCH  35  36
ENDBRANCH  27  30
ENDBRANCH  25  26
ENDBRANCH  24  25
ENDBRANCH  23  24
ENDBRANCH   1  23
TORSDOF 16
