REMARK SMILES Cc1c(C(=O)NCCCCNC(=O)c2ccc(-c3c4nc(c(-c5ccccc5)c5ccc([nH]5)c(-c5ccccc5)c5nc(c(-c6ccccc6)c6ccc3[nH]6)C=C5)C=C4)cc2)oc2c1/C(=N/NC(=O)C(c1ccccc1)c1ccccc1)CCC2
REMARK SMILES IDX 8 1 7 2 6 3 4 4 5 5 3 7 1 8 2 9 64 10 62 11 63 12 65 13
REMARK SMILES IDX 85 14 66 15 83 16 84 17 67 18 68 19 69 21 70 22 71 23 72 24
REMARK SMILES IDX 76 25 73 26 75 27 74 28 77 29 78 30 82 31 79 32 81 33 80 34
REMARK SMILES IDX 9 35 10 36 11 37 12 38 13 40 14 41 15 42 61 43 16 44 60 45
REMARK SMILES IDX 17 46 18 47 19 48 54 49 20 50 59 51 53 52 55 53 21 54 58 55
REMARK SMILES IDX 52 56 51 57 22 59 44 60 29 61 43 62 30 63 33 64 42 65 56 66
REMARK SMILES IDX 31 67 32 68 41 70 57 71 34 72 23 73 24 74 28 75 25 76 27 77
REMARK SMILES IDX 26 78 45 79 46 80 50 81 47 82 49 83 48 84 35 85 36 86 40 87
REMARK SMILES IDX 37 88 39 89 38 90
REMARK H PARENT 6 6 67 20 11 39 55 58 33 69
REMARK Flexibility Score: inf
ROOT
ATOM      1  C   UNL     1       2.906  -6.255   0.219  1.00  0.00     0.023 C 
ENDROOT
BRANCH   1   2
ATOM      2  C   UNL     1       2.198  -5.475   1.343  1.00  0.00     0.116 C 
BRANCH   2   3
ATOM      3  N   UNL     1       2.910  -4.258   1.775  1.00  0.00    -0.349 N 
ATOM      4  C   UNL     1       2.768  -2.917   1.397  1.00  0.00     0.287 C 
ATOM      5  O   UNL     1       3.392  -2.075   2.041  1.00  0.00    -0.266 OA
ATOM      6  H   UNL     1       3.610  -4.416   2.449  1.00  0.00     0.163 HD
BRANCH   4   7
ATOM      7  C   UNL     1       1.862  -2.590   0.313  1.00  0.00     0.195 A 
ATOM      8  C   UNL     1       1.485  -0.025   0.195  1.00  0.00     0.049 C 
ATOM      9  C   UNL     1       1.248  -1.434  -0.210  1.00  0.00     0.010 A 
ATOM     10  C   UNL     1       0.221  -1.920  -1.099  1.00  0.00     0.043 A 
ATOM     11  O   UNL     1       1.417  -3.667  -0.363  1.00  0.00    -0.455 OA
ATOM     12  C   UNL     1       0.340  -3.295  -1.017  1.00  0.00     0.114 A 
ATOM     13  C   UNL     1      -0.912  -1.402  -1.877  1.00  0.00     0.072 C 
ATOM     14  C   UNL     1      -0.562  -4.386  -1.414  1.00  0.00     0.076 C 
ATOM     15  N   UNL     1      -0.990  -0.168  -2.276  1.00  0.00    -0.177 NA
ATOM     16  C   UNL     1      -1.934  -2.472  -2.056  1.00  0.00     0.059 C 
ATOM     17  C   UNL     1      -1.421  -3.829  -2.505  1.00  0.00     0.014 C 
BRANCH  15  18
ATOM     18  N   UNL     1      -1.967   0.499  -3.023  1.00  0.00    -0.246 N 
ATOM     19  C   UNL     1      -3.092   0.325  -3.817  1.00  0.00     0.252 C 
ATOM     20  H   UNL     1      -1.786   1.465  -2.962  1.00  0.00     0.193 HD
ATOM     21  O   UNL     1      -3.530   1.374  -4.331  1.00  0.00    -0.272 OA
BRANCH  19  22
ATOM     22  C   UNL     1      -3.880  -1.001  -4.136  1.00  0.00     0.140 C 
BRANCH  22  23
ATOM     23  C   UNL     1      -2.937  -1.934  -4.994  1.00  0.00    -0.031 A 
ATOM     24  C   UNL     1      -3.183  -3.287  -5.273  1.00  0.00     0.005 A 
ATOM     25  C   UNL     1      -1.701  -1.424  -5.474  1.00  0.00     0.005 A 
ATOM     26  C   UNL     1      -2.171  -4.115  -5.806  1.00  0.00     0.000 A 
ATOM     27  C   UNL     1      -0.689  -2.243  -5.982  1.00  0.00     0.000 A 
ATOM     28  C   UNL     1      -0.912  -3.601  -6.118  1.00  0.00     0.000 A 
ENDBRANCH  22  23
BRANCH  22  29
ATOM     29  C   UNL     1      -4.605  -1.444  -2.793  1.00  0.00    -0.031 A 
ATOM     30  C   UNL     1      -4.746  -0.475  -1.765  1.00  0.00     0.005 A 
ATOM     31  C   UNL     1      -4.929  -2.767  -2.440  1.00  0.00     0.005 A 
ATOM     32  C   UNL     1      -4.898  -0.834  -0.423  1.00  0.00     0.000 A 
ATOM     33  C   UNL     1      -5.112  -3.126  -1.087  1.00  0.00     0.000 A 
ATOM     34  C   UNL     1      -5.035  -2.168  -0.077  1.00  0.00     0.000 A 
ENDBRANCH  22  29
ENDBRANCH  19  22
ENDBRANCH  15  18
ENDBRANCH   4   7
ENDBRANCH   2   3
ENDBRANCH   1   2
BRANCH   1  35
ATOM     35  C   UNL     1       4.138  -7.057   0.666  1.00  0.00     0.023 C 
BRANCH  35  36
ATOM     36  C   UNL     1       3.850  -8.189   1.648  1.00  0.00     0.116 C 
BRANCH  36  37
ATOM     37  N   UNL     1       3.106  -9.308   1.065  1.00  0.00    -0.352 N 
ATOM     38  C   UNL     1       2.599 -10.421   1.728  1.00  0.00     0.251 C 
ATOM     39  H   UNL     1       2.947  -9.269   0.095  1.00  0.00     0.163 HD
ATOM     40  O   UNL     1       2.383 -11.467   1.149  1.00  0.00    -0.269 OA
BRANCH  38  41
ATOM     41  C   UNL     1       2.296 -10.285   3.166  1.00  0.00     0.039 A 
ATOM     42  C   UNL     1       2.604 -11.284   4.096  1.00  0.00     0.014 A 
ATOM     43  C   UNL     1       1.716  -9.087   3.567  1.00  0.00     0.014 A 
ATOM     44  C   UNL     1       2.394 -11.025   5.451  1.00  0.00     0.010 A 
ATOM     45  C   UNL     1       1.680  -8.770   4.896  1.00  0.00     0.010 A 
ATOM     46  C   UNL     1       1.943  -9.755   5.841  1.00  0.00    -0.014 A 
BRANCH  46  47
ATOM     47  C   UNL     1       1.841  -9.365   7.243  1.00  0.00     0.031 A 
ATOM     48  C   UNL     1       3.125  -9.417   7.992  1.00  0.00     0.074 A 
ATOM     49  C   UNL     1       0.747  -8.728   7.720  1.00  0.00     0.049 A 
ATOM     50  N   UNL     1       3.430 -10.175   8.992  1.00  0.00    -0.248 NA
ATOM     51  C   UNL     1       4.258  -8.623   7.481  1.00  0.00     0.031 C 
ATOM     52  C   UNL     1      -0.450  -8.309   6.974  1.00  0.00     0.029 A 
ATOM     53  N   UNL     1       0.531  -8.179   8.945  1.00  0.00    -0.354 N 
ATOM     54  C   UNL     1       4.713  -9.795   9.380  1.00  0.00     0.074 A 
ATOM     55  C   UNL     1       5.241  -9.007   8.297  1.00  0.00     0.031 C 
ATOM     56  C   UNL     1      -1.119  -7.369   7.677  1.00  0.00     0.029 A 
ATOM     57  C   UNL     1      -0.505  -7.249   8.985  1.00  0.00     0.049 A 
ATOM     58  H   UNL     1       1.064  -8.418   9.737  1.00  0.00     0.167 HD
ATOM     59  C   UNL     1       5.117  -9.904  10.678  1.00  0.00     0.031 A 
ATOM     60  C   UNL     1      -0.814  -6.412  10.008  1.00  0.00     0.031 A 
ATOM     61  C   UNL     1       4.230 -10.760  11.430  1.00  0.00     0.049 A 
ATOM     62  C   UNL     1      -0.159  -6.947  11.223  1.00  0.00     0.074 A 
ATOM     63  C   UNL     1       3.803 -12.068  11.317  1.00  0.00     0.029 A 
ATOM     64  N   UNL     1       3.320 -10.139  12.253  1.00  0.00    -0.354 N 
ATOM     65  N   UNL     1      -0.497  -8.074  11.780  1.00  0.00    -0.248 NA
ATOM     66  C   UNL     1       1.175  -6.465  11.541  1.00  0.00     0.031 C 
ATOM     67  C   UNL     1       2.419 -12.032  11.664  1.00  0.00     0.029 A 
ATOM     68  C   UNL     1       2.102 -10.729  12.054  1.00  0.00     0.049 A 
ATOM     69  H   UNL     1       3.511  -9.401  12.876  1.00  0.00     0.167 HD
ATOM     70  C   UNL     1       0.709  -8.664  12.128  1.00  0.00     0.074 A 
ATOM     71  C   UNL     1       1.694  -7.584  12.054  1.00  0.00     0.031 C 
ATOM     72  C   UNL     1       0.843 -10.024  12.152  1.00  0.00     0.031 A 
BRANCH  59  73
ATOM     73  C   UNL     1       5.992  -8.875  11.369  1.00  0.00    -0.014 A 
ATOM     74  C   UNL     1       6.247  -9.036  12.745  1.00  0.00     0.009 A 
ATOM     75  C   UNL     1       6.317  -7.621  10.819  1.00  0.00     0.009 A 
ATOM     76  C   UNL     1       6.673  -7.966  13.542  1.00  0.00     0.001 A 
ATOM     77  C   UNL     1       6.785  -6.562  11.603  1.00  0.00     0.001 A 
ATOM     78  C   UNL     1       6.926  -6.724  12.972  1.00  0.00     0.000 A 
ENDBRANCH  59  73
BRANCH  60  79
ATOM     79  C   UNL     1      -1.403  -5.055   9.973  1.00  0.00    -0.014 A 
ATOM     80  C   UNL     1      -1.959  -4.482  11.128  1.00  0.00     0.009 A 
ATOM     81  C   UNL     1      -1.164  -4.207   8.875  1.00  0.00     0.009 A 
ATOM     82  C   UNL     1      -2.224  -3.106  11.198  1.00  0.00     0.001 A 
ATOM     83  C   UNL     1      -1.429  -2.834   8.944  1.00  0.00     0.001 A 
ATOM     84  C   UNL     1      -1.944  -2.281  10.111  1.00  0.00     0.000 A 
ENDBRANCH  60  79
BRANCH  72  85
ATOM     85  C   UNL     1      -0.405 -10.863  12.026  1.00  0.00    -0.014 A 
ATOM     86  C   UNL     1      -1.245 -10.842  10.898  1.00  0.00     0.009 A 
ATOM     87  C   UNL     1      -0.653 -11.822  13.019  1.00  0.00     0.009 A 
ATOM     88  C   UNL     1      -2.316 -11.737  10.784  1.00  0.00     0.001 A 
ATOM     89  C   UNL     1      -1.708 -12.729  12.895  1.00  0.00     0.001 A 
ATOM     90  C   UNL     1      -2.542 -12.683  11.781  1.00  0.00     0.000 A 
ENDBRANCH  72  85
ENDBRANCH  46  47
ENDBRANCH  38  41
ENDBRANCH  36  37
ENDBRANCH  35  36
ENDBRANCH   1  35
TORSDOF 15
