REMARK SMILES CCS(=O)(=O)c1ccccc1NC[C@H]1CC[C@H](C(=O)NCCCCNC(=O)c2ccc(-c3c4nc(c(-c5ccccc5)c5ccc([nH]5)c(-c5ccccc5)c5nc(c(-c6ccccc6)c6ccc3[nH]6)C=C5)C=C4)cc2)O1
REMARK SMILES IDX 21 1 20 2 18 3 19 4 17 6 14 7 15 8 76 9 16 10 13 11 12 12
REMARK SMILES IDX 11 14 6 15 7 16 8 17 10 18 9 19 3 20 4 21 5 22 2 23 1 24
REMARK SMILES IDX 22 25 23 26 24 27 25 28 26 29 27 31 28 32 29 33 75 34 30 35
REMARK SMILES IDX 74 36 31 37 32 38 33 39 68 40 34 41 73 42 67 43 69 44 35 45
REMARK SMILES IDX 72 46 66 47 65 48 36 50 58 51 43 52 57 53 44 54 47 55 56 56
REMARK SMILES IDX 70 57 45 58 46 59 55 61 71 62 48 63 37 64 38 65 42 66 39 67
REMARK SMILES IDX 41 68 40 69 59 70 60 71 64 72 61 73 63 74 62 75 49 76 50 77
REMARK SMILES IDX 54 78 51 79 53 80 52 81
REMARK H PARENT 20 5 12 13 25 30 69 49 47 60
REMARK Flexibility Score: inf
ROOT
ATOM      1  C   UNL     1       5.188   3.691   0.605  1.00  0.00     0.116 C 
ENDROOT
BRANCH   1   2
ATOM      2  N   UNL     1       4.569   4.897   0.102  1.00  0.00    -0.354 N 
ATOM      3  C   UNL     1       3.700   5.060  -0.936  1.00  0.00     0.249 C 
ATOM      4  O   UNL     1       3.337   6.212  -1.196  1.00  0.00    -0.272 OA
ATOM      5  H   UNL     1       4.810   5.723   0.581  1.00  0.00     0.163 HD
BRANCH   3   6
ATOM      6  C   UNL     1       3.236   3.872  -1.815  1.00  0.00     0.207 C 
ATOM      7  C   UNL     1       3.393   1.525  -1.745  1.00  0.00     0.138 C 
ATOM      8  C   UNL     1       4.636   2.044  -2.447  1.00  0.00     0.037 C 
ATOM      9  O   UNL     1       2.803   2.692  -1.128  1.00  0.00    -0.363 OA
ATOM     10  C   UNL     1       4.284   3.457  -2.837  1.00  0.00     0.045 C 
BRANCH   7  11
ATOM     11  C   UNL     1       2.350   0.831  -2.644  1.00  0.00     0.145 C 
BRANCH  11  12
ATOM     12  N   UNL     1       2.938   0.251  -3.848  1.00  0.00    -0.381 N 
ATOM     13  H   UNL     1       3.077   0.878  -4.593  1.00  0.00     0.160 HD
BRANCH  12  14
ATOM     14  C   UNL     1       3.325  -1.048  -4.089  1.00  0.00     0.053 A 
ATOM     15  C   UNL     1       3.984  -1.487  -5.258  1.00  0.00     0.090 A 
ATOM     16  C   UNL     1       4.310  -2.857  -5.431  1.00  0.00     0.022 A 
ATOM     17  C   UNL     1       3.995  -3.809  -4.471  1.00  0.00     0.001 A 
ATOM     18  C   UNL     1       3.045  -2.047  -3.129  1.00  0.00     0.027 A 
ATOM     19  C   UNL     1       3.360  -3.400  -3.314  1.00  0.00     0.002 A 
BRANCH  15  20
ATOM     20  S   UNL     1       4.520  -0.513  -6.665  1.00  0.00     0.180 S 
ATOM     21  O   UNL     1       3.588  -0.810  -7.738  1.00  0.00    -0.224 OA
ATOM     22  O   UNL     1       5.931  -0.834  -6.827  1.00  0.00    -0.224 OA
BRANCH  20  23
ATOM     23  C   UNL     1       4.483   1.229  -6.390  1.00  0.00     0.139 C 
ATOM     24  C   UNL     1       3.152   1.893  -6.694  1.00  0.00     0.021 C 
ENDBRANCH  20  23
ENDBRANCH  15  20
ENDBRANCH  12  14
ENDBRANCH  11  12
ENDBRANCH   7  11
ENDBRANCH   3   6
ENDBRANCH   1   2
BRANCH   1  25
ATOM     25  C   UNL     1       6.575   3.478  -0.005  1.00  0.00     0.023 C 
BRANCH  25  26
ATOM     26  C   UNL     1       7.736   4.063   0.789  1.00  0.00     0.023 C 
BRANCH  26  27
ATOM     27  C   UNL     1       7.889   3.475   2.184  1.00  0.00     0.116 C 
BRANCH  27  28
ATOM     28  N   UNL     1       8.000   2.025   2.213  1.00  0.00    -0.352 N 
ATOM     29  C   UNL     1       8.513   1.238   3.222  1.00  0.00     0.251 C 
ATOM     30  H   UNL     1       7.670   1.549   1.417  1.00  0.00     0.163 HD
ATOM     31  O   UNL     1       8.621   0.034   3.087  1.00  0.00    -0.269 OA
BRANCH  29  32
ATOM     32  C   UNL     1       8.981   1.905   4.455  1.00  0.00     0.039 A 
ATOM     33  C   UNL     1      10.270   1.633   4.914  1.00  0.00     0.014 A 
ATOM     34  C   UNL     1       8.174   2.840   5.105  1.00  0.00     0.014 A 
ATOM     35  C   UNL     1      10.770   2.346   6.003  1.00  0.00     0.010 A 
ATOM     36  C   UNL     1       8.707   3.615   6.125  1.00  0.00     0.010 A 
ATOM     37  C   UNL     1      10.002   3.360   6.597  1.00  0.00    -0.014 A 
BRANCH  37  38
ATOM     38  C   UNL     1      10.518   4.133   7.750  1.00  0.00     0.031 A 
ATOM     39  C   UNL     1       9.839   4.021   9.086  1.00  0.00     0.074 A 
ATOM     40  C   UNL     1      11.560   4.969   7.583  1.00  0.00     0.049 A 
ATOM     41  N   UNL     1      10.133   4.615  10.214  1.00  0.00    -0.248 NA
ATOM     42  C   UNL     1       8.650   3.155   9.157  1.00  0.00     0.031 C 
ATOM     43  C   UNL     1      12.259   5.218   6.320  1.00  0.00     0.029 A 
ATOM     44  N   UNL     1      12.214   5.766   8.487  1.00  0.00    -0.354 N 
ATOM     45  C   UNL     1       9.154   4.215  11.114  1.00  0.00     0.074 A 
ATOM     46  C   UNL     1       8.224   3.379  10.390  1.00  0.00     0.031 C 
ATOM     47  C   UNL     1      13.268   6.076   6.539  1.00  0.00     0.029 A 
ATOM     48  C   UNL     1      13.273   6.453   7.948  1.00  0.00     0.049 A 
ATOM     49  H   UNL     1      11.949   5.838   9.433  1.00  0.00     0.167 HD
ATOM     50  C   UNL     1       9.051   4.493  12.435  1.00  0.00     0.031 A 
ATOM     51  C   UNL     1      14.159   7.281   8.533  1.00  0.00     0.031 A 
ATOM     52  C   UNL     1       9.994   5.298  13.161  1.00  0.00     0.049 A 
ATOM     53  C   UNL     1      14.061   7.530  10.011  1.00  0.00     0.074 A 
ATOM     54  C   UNL     1      10.025   5.585  14.513  1.00  0.00     0.029 A 
ATOM     55  N   UNL     1      11.081   5.939  12.588  1.00  0.00    -0.354 N 
ATOM     56  N   UNL     1      13.178   7.076  10.869  1.00  0.00    -0.248 NA
ATOM     57  C   UNL     1      15.098   8.384  10.606  1.00  0.00     0.031 C 
ATOM     58  C   UNL     1      11.114   6.429  14.754  1.00  0.00     0.029 A 
ATOM     59  C   UNL     1      11.786   6.629  13.558  1.00  0.00     0.049 A 
ATOM     60  H   UNL     1      11.317   5.908  11.632  1.00  0.00     0.167 HD
ATOM     61  C   UNL     1      13.570   7.564  12.108  1.00  0.00     0.074 A 
ATOM     62  C   UNL     1      14.777   8.336  11.892  1.00  0.00     0.031 C 
ATOM     63  C   UNL     1      12.985   7.389  13.319  1.00  0.00     0.031 A 
BRANCH  50  64
ATOM     64  C   UNL     1       7.874   3.913  13.167  1.00  0.00    -0.014 A 
ATOM     65  C   UNL     1       7.775   2.531  13.405  1.00  0.00     0.009 A 
ATOM     66  C   UNL     1       6.849   4.755  13.621  1.00  0.00     0.009 A 
ATOM     67  C   UNL     1       6.651   2.002  14.041  1.00  0.00     0.001 A 
ATOM     68  C   UNL     1       5.740   4.226  14.285  1.00  0.00     0.001 A 
ATOM     69  C   UNL     1       5.636   2.850  14.483  1.00  0.00     0.000 A 
ENDBRANCH  50  64
BRANCH  51  70
ATOM     70  C   UNL     1      15.251   7.886   7.729  1.00  0.00    -0.014 A 
ATOM     71  C   UNL     1      16.570   7.425   7.863  1.00  0.00     0.009 A 
ATOM     72  C   UNL     1      14.982   8.921   6.821  1.00  0.00     0.009 A 
ATOM     73  C   UNL     1      17.602   8.006   7.124  1.00  0.00     0.001 A 
ATOM     74  C   UNL     1      16.013   9.484   6.065  1.00  0.00     0.001 A 
ATOM     75  C   UNL     1      17.322   9.033   6.223  1.00  0.00     0.000 A 
ENDBRANCH  51  70
BRANCH  63  76
ATOM     76  C   UNL     1      13.666   8.013  14.502  1.00  0.00    -0.014 A 
ATOM     77  C   UNL     1      13.635   9.400  14.713  1.00  0.00     0.009 A 
ATOM     78  C   UNL     1      14.322   7.195  15.434  1.00  0.00     0.009 A 
ATOM     79  C   UNL     1      14.281   9.959  15.817  1.00  0.00     0.001 A 
ATOM     80  C   UNL     1      14.944   7.753  16.551  1.00  0.00     0.001 A 
ATOM     81  C   UNL     1      14.932   9.135  16.736  1.00  0.00     0.000 A 
ENDBRANCH  63  76
ENDBRANCH  37  38
ENDBRANCH  29  32
ENDBRANCH  27  28
ENDBRANCH  26  27
ENDBRANCH  25  26
ENDBRANCH   1  25
TORSDOF 16
