REMARK SMILES Cc1cc(C)n([C@@H](C(=O)NCCCCNC(=O)c2ccc(-c3c4nc(c(-c5ccccc5)c5ccc([nH]5)c(-c5ccccc5)c5nc(c(-c6ccccc6)c6ccc3[nH]6)C=C5)C=C4)cc2)C(C)C)n1
REMARK SMILES IDX 13 1 12 2 11 3 10 4 8 5 9 6 7 8 6 9 1 10 2 11 3 12 69 13
REMARK SMILES IDX 4 14 5 15 66 16 67 17 68 18 14 19 15 20 16 21 17 23 18 24
REMARK SMILES IDX 19 25 65 26 20 27 64 28 21 29 22 30 23 31 58 32 24 33 63 34
REMARK SMILES IDX 57 35 59 36 25 37 62 38 56 39 55 40 26 42 48 43 33 44 47 45
REMARK SMILES IDX 34 46 37 47 46 48 60 49 35 50 36 51 45 53 61 54 38 55 27 56
REMARK SMILES IDX 28 57 32 58 29 59 31 60 30 61 49 62 50 63 54 64 51 65 53 66
REMARK SMILES IDX 52 67 39 68 40 69 44 70 41 71 43 72 42 73
REMARK H PARENT 10 7 15 22 59 41 37 52
REMARK Flexibility Score: inf
ROOT
ATOM      1  C   UNL     1      -4.112  -2.558   0.705  1.00  0.00     0.023 C 
ENDROOT
BRANCH   1   2
ATOM      2  C   UNL     1      -2.976  -1.637   1.175  1.00  0.00     0.023 C 
BRANCH   2   3
ATOM      3  C   UNL     1      -3.020  -1.202   2.646  1.00  0.00     0.116 C 
BRANCH   3   4
ATOM      4  N   UNL     1      -2.886  -2.325   3.560  1.00  0.00    -0.354 N 
ATOM      5  C   UNL     1      -1.792  -2.754   4.266  1.00  0.00     0.245 C 
ATOM      6  O   UNL     1      -1.916  -3.815   4.885  1.00  0.00    -0.273 OA
ATOM      7  H   UNL     1      -3.704  -2.858   3.692  1.00  0.00     0.163 HD
BRANCH   5   8
ATOM      8  C   UNL     1      -0.499  -1.927   4.294  1.00  0.00     0.199 C 
BRANCH   8   9
ATOM      9  N   UNL     1       0.128  -1.946   2.968  1.00  0.00    -0.257 N 
ATOM     10  C   UNL     1       1.100  -0.020   0.148  1.00  0.00     0.069 C 
ATOM     11  C   UNL     1       0.815  -1.073   1.150  1.00  0.00     0.060 A 
ATOM     12  C   UNL     1       0.995  -2.464   1.019  1.00  0.00     0.048 A 
ATOM     13  N   UNL     1       0.313  -0.756   2.346  1.00  0.00    -0.177 NA
ATOM     14  C   UNL     1       0.552  -3.011   2.206  1.00  0.00     0.037 A 
ATOM     15  C   UNL     1       0.498  -4.436   2.617  1.00  0.00     0.066 C 
ENDBRANCH   8   9
BRANCH   8  16
ATOM     16  C   UNL     1       0.499  -2.329   5.421  1.00  0.00     0.017 C 
ATOM     17  C   UNL     1       1.753  -1.439   5.409  1.00  0.00     0.010 C 
ATOM     18  C   UNL     1      -0.124  -2.239   6.822  1.00  0.00     0.010 C 
ENDBRANCH   8  16
ENDBRANCH   5   8
ENDBRANCH   3   4
ENDBRANCH   2   3
ENDBRANCH   1   2
BRANCH   1  19
ATOM     19  C   UNL     1      -5.508  -1.965   0.824  1.00  0.00     0.116 C 
BRANCH  19  20
ATOM     20  N   UNL     1      -5.712  -0.789  -0.023  1.00  0.00    -0.352 N 
ATOM     21  C   UNL     1      -6.836   0.008  -0.099  1.00  0.00     0.251 C 
ATOM     22  H   UNL     1      -4.960  -0.536  -0.606  1.00  0.00     0.163 HD
ATOM     23  O   UNL     1      -7.062   0.698  -1.097  1.00  0.00    -0.269 OA
BRANCH  21  24
ATOM     24  C   UNL     1      -7.762   0.039   1.043  1.00  0.00     0.039 A 
ATOM     25  C   UNL     1      -9.151   0.050   0.876  1.00  0.00     0.014 A 
ATOM     26  C   UNL     1      -7.199   0.027   2.316  1.00  0.00     0.014 A 
ATOM     27  C   UNL     1      -9.963  -0.039   2.005  1.00  0.00     0.010 A 
ATOM     28  C   UNL     1      -7.987  -0.226   3.405  1.00  0.00     0.010 A 
ATOM     29  C   UNL     1      -9.370  -0.197   3.268  1.00  0.00    -0.014 A 
BRANCH  29  30
ATOM     30  C   UNL     1     -10.167  -0.493   4.455  1.00  0.00     0.031 A 
ATOM     31  C   UNL     1     -10.991  -1.726   4.324  1.00  0.00     0.074 A 
ATOM     32  C   UNL     1      -9.960   0.128   5.639  1.00  0.00     0.049 A 
ATOM     33  N   UNL     1     -12.278  -1.812   4.276  1.00  0.00    -0.248 NA
ATOM     34  C   UNL     1     -10.300  -3.001   4.050  1.00  0.00     0.031 C 
ATOM     35  C   UNL     1      -8.937   1.137   5.954  1.00  0.00     0.029 A 
ATOM     36  N   UNL     1     -10.521  -0.105   6.859  1.00  0.00    -0.354 N 
ATOM     37  C   UNL     1     -12.562  -3.173   4.219  1.00  0.00     0.074 A 
ATOM     38  C   UNL     1     -11.331  -3.825   3.854  1.00  0.00     0.031 C 
ATOM     39  C   UNL     1      -8.781   1.226   7.293  1.00  0.00     0.029 A 
ATOM     40  C   UNL     1      -9.802   0.419   7.933  1.00  0.00     0.049 A 
ATOM     41  H   UNL     1     -11.363  -0.601   6.972  1.00  0.00     0.167 HD
ATOM     42  C   UNL     1     -13.686  -3.673   4.806  1.00  0.00     0.031 A 
ATOM     43  C   UNL     1     -10.008   0.186   9.254  1.00  0.00     0.031 A 
ATOM     44  C   UNL     1     -14.622  -2.619   5.119  1.00  0.00     0.049 A 
ATOM     45  C   UNL     1     -11.376  -0.355   9.394  1.00  0.00     0.074 A 
ATOM     46  C   UNL     1     -15.294  -1.647   4.406  1.00  0.00     0.029 A 
ATOM     47  N   UNL     1     -14.659  -2.223   6.434  1.00  0.00    -0.354 N 
ATOM     48  N   UNL     1     -12.450   0.342   9.162  1.00  0.00    -0.248 NA
ATOM     49  C   UNL     1     -11.543  -1.798   9.359  1.00  0.00     0.031 C 
ATOM     50  C   UNL     1     -15.313  -0.506   5.264  1.00  0.00     0.029 A 
ATOM     51  C   UNL     1     -14.727  -0.861   6.481  1.00  0.00     0.049 A 
ATOM     52  H   UNL     1     -14.639  -2.824   7.213  1.00  0.00     0.167 HD
ATOM     53  C   UNL     1     -13.291  -0.535   8.495  1.00  0.00     0.074 A 
ATOM     54  C   UNL     1     -12.733  -1.863   8.754  1.00  0.00     0.031 C 
ATOM     55  C   UNL     1     -14.174  -0.073   7.560  1.00  0.00     0.031 A 
BRANCH  42  56
ATOM     56  C   UNL     1     -13.708  -4.982   5.577  1.00  0.00    -0.014 A 
ATOM     57  C   UNL     1     -14.903  -5.342   6.232  1.00  0.00     0.009 A 
ATOM     58  C   UNL     1     -12.550  -5.684   5.962  1.00  0.00     0.009 A 
ATOM     59  C   UNL     1     -14.909  -6.251   7.296  1.00  0.00     0.001 A 
ATOM     60  C   UNL     1     -12.561  -6.626   6.994  1.00  0.00     0.001 A 
ATOM     61  C   UNL     1     -13.733  -6.881   7.687  1.00  0.00     0.000 A 
ENDBRANCH  42  56
BRANCH  43  62
ATOM     62  C   UNL     1      -9.047   0.154  10.381  1.00  0.00    -0.014 A 
ATOM     63  C   UNL     1      -9.495   0.237  11.711  1.00  0.00     0.009 A 
ATOM     64  C   UNL     1      -7.717  -0.250  10.167  1.00  0.00     0.009 A 
ATOM     65  C   UNL     1      -8.658  -0.113  12.781  1.00  0.00     0.001 A 
ATOM     66  C   UNL     1      -6.881  -0.599  11.235  1.00  0.00     0.001 A 
ATOM     67  C   UNL     1      -7.357  -0.545  12.541  1.00  0.00     0.000 A 
ENDBRANCH  43  62
BRANCH  55  68
ATOM     68  C   UNL     1     -14.433   1.411   7.504  1.00  0.00    -0.014 A 
ATOM     69  C   UNL     1     -13.449   2.367   7.197  1.00  0.00     0.009 A 
ATOM     70  C   UNL     1     -15.762   1.839   7.632  1.00  0.00     0.009 A 
ATOM     71  C   UNL     1     -13.788   3.717   7.049  1.00  0.00     0.001 A 
ATOM     72  C   UNL     1     -16.103   3.181   7.463  1.00  0.00     0.001 A 
ATOM     73  C   UNL     1     -15.116   4.121   7.177  1.00  0.00     0.000 A 
ENDBRANCH  55  68
ENDBRANCH  29  30
ENDBRANCH  21  24
ENDBRANCH  19  20
ENDBRANCH   1  19
TORSDOF 13
