REMARK SMILES Cc1nc(-c2ccccc2F)sc1C(=O)NCc1ccc(C(=O)NCCCCNC(=O)c2ccc(-c3c4nc(c(-c5ccccc5)c5ccc([nH]5)c(-c5ccccc5)c5nc(c(-c6ccccc6)c6ccc3[nH]6)C=C5)C=C4)cc2)cc1
REMARK SMILES IDX 25 1 24 2 22 3 23 4 21 6 18 7 19 8 81 9 20 10 80 11 17 12
REMARK SMILES IDX 16 13 14 14 15 15 13 17 1 18 2 19 3 20 4 21 12 22 5 23 6 24
REMARK SMILES IDX 10 25 7 26 9 27 11 28 8 29 26 30 27 31 28 32 29 33 30 34
REMARK SMILES IDX 31 36 32 37 33 38 79 39 34 40 78 41 35 42 36 43 37 44 72 45
REMARK SMILES IDX 38 46 77 47 71 48 73 49 39 50 76 51 70 52 69 53 40 55 62 56
REMARK SMILES IDX 47 57 61 58 48 59 51 60 60 61 74 62 49 63 50 64 59 66 75 67
REMARK SMILES IDX 52 68 41 69 42 70 46 71 43 72 45 73 44 74 63 75 64 76 68 77
REMARK SMILES IDX 65 78 67 79 66 80 53 81 54 82 58 83 55 84 57 85 56 86
REMARK H PARENT 24 5 16 16 29 35 73 54 51 65
REMARK Flexibility Score: inf
ROOT
ATOM      1  C   UNL     1      -5.619  -5.696  -4.844  1.00  0.00     0.116 C 
ENDROOT
BRANCH   1   2
ATOM      2  N   UNL     1      -6.312  -4.436  -5.019  1.00  0.00    -0.352 N 
ATOM      3  C   UNL     1      -6.271  -3.288  -4.267  1.00  0.00     0.251 C 
ATOM      4  O   UNL     1      -6.900  -2.307  -4.660  1.00  0.00    -0.269 OA
ATOM      5  H   UNL     1      -6.908  -4.397  -5.802  1.00  0.00     0.163 HD
BRANCH   3   6
ATOM      6  C   UNL     1      -5.451  -3.178  -3.030  1.00  0.00     0.039 A 
ATOM      7  C   UNL     1      -3.836  -2.828  -0.730  1.00  0.00    -0.029 A 
ATOM      8  C   UNL     1      -4.008  -1.791  -1.657  1.00  0.00     0.006 A 
ATOM      9  C   UNL     1      -4.492  -4.039  -0.968  1.00  0.00     0.006 A 
ATOM     10  C   UNL     1      -4.819  -1.957  -2.785  1.00  0.00     0.014 A 
ATOM     11  C   UNL     1      -5.304  -4.202  -2.093  1.00  0.00     0.014 A 
BRANCH   7  12
ATOM     12  C   UNL     1      -2.917  -2.712   0.459  1.00  0.00     0.152 C 
BRANCH  12  13
ATOM     13  N   UNL     1      -1.555  -2.875   0.045  1.00  0.00    -0.347 N 
ATOM     14  C   UNL     1      -0.468  -2.079  -0.147  1.00  0.00     0.263 C 
ATOM     15  O   UNL     1       0.510  -2.758  -0.499  1.00  0.00    -0.268 OA
ATOM     16  H   UNL     1      -1.351  -3.817  -0.154  1.00  0.00     0.164 HD
BRANCH  14  17
ATOM     17  C   UNL     1      -0.378  -0.630   0.033  1.00  0.00     0.115 A 
ATOM     18  C   UNL     1      -2.642   0.740   0.379  1.00  0.00     0.068 C 
ATOM     19  C   UNL     1      -1.185   0.489   0.254  1.00  0.00     0.062 A 
ATOM     20  N   UNL     1      -0.497   1.699   0.330  1.00  0.00    -0.240 NA
ATOM     21  C   UNL     1       0.780   1.562   0.087  1.00  0.00     0.127 A 
ATOM     22  S   UNL     1       1.285  -0.042  -0.111  1.00  0.00    -0.108 S 
BRANCH  21  23
ATOM     23  C   UNL     1       1.702   2.692   0.060  1.00  0.00     0.046 A 
ATOM     24  C   UNL     1       1.599   3.665   1.067  1.00  0.00     0.014 A 
ATOM     25  C   UNL     1       2.610   2.903  -0.980  1.00  0.00     0.133 A 
ATOM     26  C   UNL     1       2.386   4.817   1.031  1.00  0.00     0.001 A 
ATOM     27  C   UNL     1       3.395   4.055  -1.025  1.00  0.00     0.040 A 
ATOM     28  F   UNL     1       2.717   2.027  -1.990  1.00  0.00    -0.206 F 
ATOM     29  C   UNL     1       3.281   5.015  -0.019  1.00  0.00     0.003 A 
ENDBRANCH  21  23
ENDBRANCH  14  17
ENDBRANCH  12  13
ENDBRANCH   7  12
ENDBRANCH   3   6
ENDBRANCH   1   2
BRANCH   1  30
ATOM     30  C   UNL     1      -6.507  -6.711  -4.122  1.00  0.00     0.023 C 
BRANCH  30  31
ATOM     31  C   UNL     1      -7.526  -7.418  -5.010  1.00  0.00     0.023 C 
BRANCH  31  32
ATOM     32  C   UNL     1      -6.921  -8.284  -6.102  1.00  0.00     0.116 C 
BRANCH  32  33
ATOM     33  N   UNL     1      -6.018  -9.307  -5.599  1.00  0.00    -0.352 N 
ATOM     34  C   UNL     1      -5.768 -10.552  -6.134  1.00  0.00     0.251 C 
ATOM     35  H   UNL     1      -5.526  -9.083  -4.776  1.00  0.00     0.163 HD
ATOM     36  O   UNL     1      -5.053 -11.353  -5.562  1.00  0.00    -0.269 OA
BRANCH  34  37
ATOM     37  C   UNL     1      -6.437 -10.908  -7.402  1.00  0.00     0.039 A 
ATOM     38  C   UNL     1      -7.204 -12.072  -7.451  1.00  0.00     0.014 A 
ATOM     39  C   UNL     1      -6.371 -10.045  -8.498  1.00  0.00     0.014 A 
ATOM     40  C   UNL     1      -7.971 -12.337  -8.586  1.00  0.00     0.010 A 
ATOM     41  C   UNL     1      -7.192 -10.271  -9.595  1.00  0.00     0.010 A 
ATOM     42  C   UNL     1      -7.999 -11.418  -9.647  1.00  0.00    -0.014 A 
BRANCH  42  43
ATOM     43  C   UNL     1      -8.866 -11.634 -10.829  1.00  0.00     0.031 A 
ATOM     44  C   UNL     1      -8.247 -11.847 -12.180  1.00  0.00     0.074 A 
ATOM     45  C   UNL     1     -10.205 -11.564 -10.697  1.00  0.00     0.049 A 
ATOM     46  N   UNL     1      -8.831 -11.980 -13.343  1.00  0.00    -0.248 NA
ATOM     47  C   UNL     1      -6.776 -11.885 -12.236  1.00  0.00     0.031 C 
ATOM     48  C   UNL     1     -10.925 -11.317  -9.445  1.00  0.00     0.029 A 
ATOM     49  N   UNL     1     -11.200 -11.686 -11.633  1.00  0.00    -0.354 N 
ATOM     50  C   UNL     1      -7.801 -12.096 -14.268  1.00  0.00     0.074 A 
ATOM     51  C   UNL     1      -6.558 -11.969 -13.540  1.00  0.00     0.031 C 
ATOM     52  C   UNL     1     -12.246 -11.332  -9.688  1.00  0.00     0.029 A 
ATOM     53  C   UNL     1     -12.464 -11.551 -11.114  1.00  0.00     0.049 A 
ATOM     54  H   UNL     1     -11.024 -11.854 -12.587  1.00  0.00     0.167 HD
ATOM     55  C   UNL     1      -7.883 -12.310 -15.601  1.00  0.00     0.031 A 
ATOM     56  C   UNL     1     -13.664 -11.597 -11.721  1.00  0.00     0.031 A 
ATOM     57  C   UNL     1      -9.118 -12.455 -16.322  1.00  0.00     0.049 A 
ATOM     58  C   UNL     1     -13.728 -11.837 -13.203  1.00  0.00     0.074 A 
ATOM     59  C   UNL     1      -9.306 -12.735 -17.663  1.00  0.00     0.029 A 
ATOM     60  N   UNL     1     -10.377 -12.331 -15.756  1.00  0.00    -0.354 N 
ATOM     61  N   UNL     1     -12.746 -12.014 -14.054  1.00  0.00    -0.248 NA
ATOM     62  C   UNL     1     -15.067 -11.894 -13.807  1.00  0.00     0.031 C 
ATOM     63  C   UNL     1     -10.681 -12.740 -17.919  1.00  0.00     0.029 A 
ATOM     64  C   UNL     1     -11.348 -12.510 -16.726  1.00  0.00     0.049 A 
ATOM     65  H   UNL     1     -10.554 -12.143 -14.806  1.00  0.00     0.167 HD
ATOM     66  C   UNL     1     -13.347 -12.229 -15.286  1.00  0.00     0.074 A 
ATOM     67  C   UNL     1     -14.779 -12.174 -15.070  1.00  0.00     0.031 C 
ATOM     68  C   UNL     1     -12.767 -12.454 -16.490  1.00  0.00     0.031 A 
BRANCH  55  69
ATOM     69  C   UNL     1      -6.591 -12.397 -16.364  1.00  0.00    -0.014 A 
ATOM     70  C   UNL     1      -5.736 -13.502 -16.220  1.00  0.00     0.009 A 
ATOM     71  C   UNL     1      -6.235 -11.373 -17.254  1.00  0.00     0.009 A 
ATOM     72  C   UNL     1      -4.532 -13.561 -16.924  1.00  0.00     0.001 A 
ATOM     73  C   UNL     1      -5.043 -11.448 -17.978  1.00  0.00     0.001 A 
ATOM     74  C   UNL     1      -4.189 -12.536 -17.805  1.00  0.00     0.000 A 
ENDBRANCH  55  69
BRANCH  56  75
ATOM     75  C   UNL     1     -14.908 -11.433 -10.926  1.00  0.00    -0.014 A 
ATOM     76  C   UNL     1     -15.747 -12.533 -10.687  1.00  0.00     0.009 A 
ATOM     77  C   UNL     1     -15.266 -10.180 -10.406  1.00  0.00     0.009 A 
ATOM     78  C   UNL     1     -16.933 -12.375  -9.966  1.00  0.00     0.001 A 
ATOM     79  C   UNL     1     -16.440 -10.031  -9.663  1.00  0.00     0.001 A 
ATOM     80  C   UNL     1     -17.276 -11.126  -9.451  1.00  0.00     0.000 A 
ENDBRANCH  56  75
BRANCH  68  81
ATOM     81  C   UNL     1     -13.680 -12.691 -17.658  1.00  0.00    -0.014 A 
ATOM     82  C   UNL     1     -14.394 -11.638 -18.248  1.00  0.00     0.009 A 
ATOM     83  C   UNL     1     -13.788 -13.980 -18.202  1.00  0.00     0.009 A 
ATOM     84  C   UNL     1     -15.223 -11.878 -19.346  1.00  0.00     0.001 A 
ATOM     85  C   UNL     1     -14.597 -14.212 -19.315  1.00  0.00     0.001 A 
ATOM     86  C   UNL     1     -15.319 -13.162 -19.881  1.00  0.00     0.000 A 
ENDBRANCH  68  81
ENDBRANCH  42  43
ENDBRANCH  34  37
ENDBRANCH  32  33
ENDBRANCH  31  32
ENDBRANCH  30  31
ENDBRANCH   1  30
TORSDOF 15
