REMARK SMILES COc1cc(OC)cc(-c2ccc([C@@H](C)C(=O)NCCCCNC(=O)c3ccc(-c4c5nc(c(-c6ccccc6)c6ccc([nH]6)c(-c6ccccc6)c6nc(c(-c7ccccc7)c7ccc4[nH]7)C=C6)C=C5)cc3)cc2F)c1
REMARK SMILES IDX 20 1 19 2 18 3 16 4 17 5 14 7 15 8 13 9 10 10 11 11 75 12
REMARK SMILES IDX 12 13 74 14 76 15 9 16 3 17 4 18 77 19 5 20 8 21 2 22 1 23
REMARK SMILES IDX 6 24 7 25 21 26 22 27 23 28 24 29 25 31 26 32 27 33 73 34
REMARK SMILES IDX 28 35 72 36 29 37 30 38 31 39 66 40 32 41 71 42 65 43 67 44
REMARK SMILES IDX 33 45 70 46 64 47 63 48 34 50 56 51 41 52 55 53 42 54 45 55
REMARK SMILES IDX 54 56 68 57 43 58 44 59 53 61 69 62 46 63 35 64 36 65 40 66
REMARK SMILES IDX 37 67 39 68 38 69 57 70 58 71 62 72 59 73 61 74 60 75 47 76
REMARK SMILES IDX 48 77 52 78 49 79 51 80 50 81
REMARK H PARENT 18 6 23 30 67 49 45 60
REMARK Flexibility Score: inf
ROOT
ATOM      1  C   UNL     1       5.976   3.071   6.170  1.00  0.00     0.023 C 
ENDROOT
BRANCH   1   2
ATOM      2  C   UNL     1       7.377   3.686   6.163  1.00  0.00     0.116 C 
BRANCH   2   3
ATOM      3  N   UNL     1       8.296   2.939   5.330  1.00  0.00    -0.356 N 
ATOM      4  C   UNL     1       8.684   3.104   4.035  1.00  0.00     0.227 C 
ATOM      5  O   UNL     1       9.443   2.240   3.578  1.00  0.00    -0.274 OA
ATOM      6  H   UNL     1       8.717   2.172   5.782  1.00  0.00     0.163 HD
BRANCH   4   7
ATOM      7  C   UNL     1       8.243   4.281   3.149  1.00  0.00     0.105 C 
ATOM      8  C   UNL     1       8.699   5.647   3.663  1.00  0.00     0.023 C 
BRANCH   7   9
ATOM      9  C   UNL     1       6.792   4.186   2.705  1.00  0.00    -0.033 A 
ATOM     10  C   UNL     1       4.064   3.789   1.925  1.00  0.00     0.018 A 
ATOM     11  C   UNL     1       4.412   4.524   3.072  1.00  0.00     0.012 A 
ATOM     12  C   UNL     1       5.128   3.283   1.165  1.00  0.00     0.131 A 
ATOM     13  C   UNL     1       5.744   4.760   3.425  1.00  0.00     0.005 A 
ATOM     14  C   UNL     1       6.462   3.457   1.553  1.00  0.00     0.044 A 
ATOM     15  F   UNL     1       4.894   2.615   0.025  1.00  0.00    -0.206 F 
BRANCH  10  16
ATOM     16  C   UNL     1       2.640   3.611   1.556  1.00  0.00    -0.008 A 
ATOM     17  C   UNL     1       0.795   2.295   0.640  1.00  0.00     0.123 A 
ATOM     18  C   UNL     1      -0.082   3.352   0.893  1.00  0.00     0.092 A 
ATOM     19  C   UNL     1       2.147   2.425   0.978  1.00  0.00     0.055 A 
ATOM     20  C   UNL     1       0.370   4.534   1.473  1.00  0.00     0.123 A 
ATOM     21  C   UNL     1       1.721   4.656   1.790  1.00  0.00     0.055 A 
BRANCH  17  22
ATOM     22  O   UNL     1       0.211   1.212   0.042  1.00  0.00    -0.497 OA
ATOM     23  C   UNL     1       0.972   0.013  -0.021  1.00  0.00     0.278 C 
ENDBRANCH  17  22
BRANCH  20  24
ATOM     24  O   UNL     1      -0.585   5.492   1.679  1.00  0.00    -0.497 OA
ATOM     25  C   UNL     1      -0.141   6.732   2.220  1.00  0.00     0.278 C 
ENDBRANCH  20  24
ENDBRANCH  10  16
ENDBRANCH   7   9
ENDBRANCH   4   7
ENDBRANCH   2   3
ENDBRANCH   1   2
BRANCH   1  26
ATOM     26  C   UNL     1       5.745   1.991   7.223  1.00  0.00     0.023 C 
BRANCH  26  27
ATOM     27  C   UNL     1       5.921   2.445   8.666  1.00  0.00     0.116 C 
BRANCH  27  28
ATOM     28  N   UNL     1       5.091   3.580   9.039  1.00  0.00    -0.352 N 
ATOM     29  C   UNL     1       4.576   3.894  10.277  1.00  0.00     0.251 C 
ATOM     30  H   UNL     1       4.868   4.205   8.312  1.00  0.00     0.163 HD
ATOM     31  O   UNL     1       3.822   4.848  10.409  1.00  0.00    -0.269 OA
BRANCH  29  32
ATOM     32  C   UNL     1       4.903   3.036  11.437  1.00  0.00     0.039 A 
ATOM     33  C   UNL     1       3.868   2.628  12.281  1.00  0.00     0.014 A 
ATOM     34  C   UNL     1       6.211   2.604  11.669  1.00  0.00     0.014 A 
ATOM     35  C   UNL     1       4.138   1.734  13.318  1.00  0.00     0.010 A 
ATOM     36  C   UNL     1       6.461   1.643  12.641  1.00  0.00     0.010 A 
ATOM     37  C   UNL     1       5.430   1.205  13.483  1.00  0.00    -0.014 A 
BRANCH  37  38
ATOM     38  C   UNL     1       5.705   0.194  14.533  1.00  0.00     0.031 A 
ATOM     39  C   UNL     1       6.659   0.498  15.655  1.00  0.00     0.074 A 
ATOM     40  C   UNL     1       5.126  -1.020  14.451  1.00  0.00     0.049 A 
ATOM     41  N   UNL     1       6.981  -0.242  16.686  1.00  0.00    -0.248 NA
ATOM     42  C   UNL     1       7.368   1.787  15.600  1.00  0.00     0.031 C 
ATOM     43  C   UNL     1       4.247  -1.468  13.368  1.00  0.00     0.029 A 
ATOM     44  N   UNL     1       5.185  -2.097  15.298  1.00  0.00    -0.354 N 
ATOM     45  C   UNL     1       7.938   0.482  17.386  1.00  0.00     0.074 A 
ATOM     46  C   UNL     1       8.189   1.690  16.634  1.00  0.00     0.031 C 
ATOM     47  C   UNL     1       3.814  -2.709  13.640  1.00  0.00     0.029 A 
ATOM     48  C   UNL     1       4.402  -3.153  14.899  1.00  0.00     0.049 A 
ATOM     49  H   UNL     1       5.736  -2.112  16.114  1.00  0.00     0.167 HD
ATOM     50  C   UNL     1       8.535   0.182  18.564  1.00  0.00     0.031 A 
ATOM     51  C   UNL     1       4.170  -4.340  15.490  1.00  0.00     0.031 A 
ATOM     52  C   UNL     1       8.273  -1.014  19.318  1.00  0.00     0.049 A 
ATOM     53  C   UNL     1       4.806  -4.632  16.819  1.00  0.00     0.074 A 
ATOM     54  C   UNL     1       8.765  -1.377  20.559  1.00  0.00     0.029 A 
ATOM     55  N   UNL     1       7.448  -2.046  18.896  1.00  0.00    -0.354 N 
ATOM     56  N   UNL     1       5.625  -3.890  17.524  1.00  0.00    -0.248 NA
ATOM     57  C   UNL     1       4.463  -5.916  17.446  1.00  0.00     0.031 C 
ATOM     58  C   UNL     1       8.277  -2.652  20.866  1.00  0.00     0.029 A 
ATOM     59  C   UNL     1       7.434  -3.056  19.842  1.00  0.00     0.049 A 
ATOM     60  H   UNL     1       6.946  -2.057  18.049  1.00  0.00     0.167 HD
ATOM     61  C   UNL     1       5.875  -4.602  18.689  1.00  0.00     0.074 A 
ATOM     62  C   UNL     1       5.105  -5.827  18.603  1.00  0.00     0.031 C 
ATOM     63  C   UNL     1       6.668  -4.272  19.737  1.00  0.00     0.031 A 
BRANCH  50  64
ATOM     64  C   UNL     1       9.537   1.168  19.100  1.00  0.00    -0.014 A 
ATOM     65  C   UNL     1       9.142   2.435  19.561  1.00  0.00     0.009 A 
ATOM     66  C   UNL     1      10.895   0.819  19.163  1.00  0.00     0.009 A 
ATOM     67  C   UNL     1      10.090   3.347  20.029  1.00  0.00     0.001 A 
ATOM     68  C   UNL     1      11.837   1.721  19.661  1.00  0.00     0.001 A 
ATOM     69  C   UNL     1      11.435   2.988  20.082  1.00  0.00     0.000 A 
ENDBRANCH  50  64
BRANCH  51  70
ATOM     70  C   UNL     1       3.254  -5.318  14.847  1.00  0.00    -0.014 A 
ATOM     71  C   UNL     1       1.981  -5.563  15.384  1.00  0.00     0.009 A 
ATOM     72  C   UNL     1       3.641  -5.999  13.683  1.00  0.00     0.009 A 
ATOM     73  C   UNL     1       1.124  -6.487  14.782  1.00  0.00     0.001 A 
ATOM     74  C   UNL     1       2.772  -6.901  13.067  1.00  0.00     0.001 A 
ATOM     75  C   UNL     1       1.518  -7.151  13.621  1.00  0.00     0.000 A 
ENDBRANCH  51  70
BRANCH  63  76
ATOM     76  C   UNL     1       6.717  -5.236  20.889  1.00  0.00    -0.014 A 
ATOM     77  C   UNL     1       7.365  -6.476  20.779  1.00  0.00     0.009 A 
ATOM     78  C   UNL     1       6.128  -4.882  22.113  1.00  0.00     0.009 A 
ATOM     79  C   UNL     1       7.386  -7.359  21.860  1.00  0.00     0.001 A 
ATOM     80  C   UNL     1       6.177  -5.754  23.201  1.00  0.00     0.001 A 
ATOM     81  C   UNL     1       6.795  -6.996  23.071  1.00  0.00     0.000 A 
ENDBRANCH  63  76
ENDBRANCH  37  38
ENDBRANCH  29  32
ENDBRANCH  27  28
ENDBRANCH  26  27
ENDBRANCH   1  26
TORSDOF 15
