REMARK SMILES O=C(NCCCCNC(=O)c1cccc(OS(=O)(=O)c2cccc([N+](=O)[O-])c2)c1)c1ccc(-c2c3nc(c(-c4ccccc4)c4ccc([nH]4)c(-c4ccccc4)c4nc(c(-c5ccccc5)c5ccc2[nH]5)C=C4)C=C3)cc1
REMARK SMILES IDX 6 1 5 2 4 3 3 4 1 5 2 6 30 8 31 9 77 10 32 11 76 12 33 13
REMARK SMILES IDX 34 14 35 15 70 16 36 17 75 18 69 19 71 20 37 21 74 22 68 23
REMARK SMILES IDX 67 24 38 26 60 27 45 28 59 29 46 30 49 31 58 32 72 33 47 34
REMARK SMILES IDX 48 35 57 37 73 38 50 39 39 40 40 41 44 42 41 43 43 44 42 45
REMARK SMILES IDX 61 46 62 47 66 48 63 49 65 50 64 51 51 52 52 53 56 54 53 55
REMARK SMILES IDX 55 56 54 57 7 58 8 59 9 60 10 62 11 63 12 64 29 65 13 66
REMARK SMILES IDX 15 67 14 68 16 69 17 70 18 71 19 72 20 73 21 74 28 75 22 76
REMARK SMILES IDX 24 77 23 78 25 79 26 80 27 81
REMARK H PARENT 3 7 71 25 49 36 8 61
REMARK Flexibility Score: inf
ROOT
ATOM      1  C   UNL     1       4.518   2.849   2.474  1.00  0.00     0.023 C 
ENDROOT
BRANCH   1   2
ATOM      2  C   UNL     1       4.972   2.206   1.167  1.00  0.00     0.023 C 
BRANCH   2   3
ATOM      3  C   UNL     1       4.627   0.730   1.027  1.00  0.00     0.116 C 
BRANCH   3   4
ATOM      4  N   UNL     1       3.192   0.493   0.975  1.00  0.00    -0.352 N 
ATOM      5  O   UNL     1       1.219  -0.047   0.018  1.00  0.00    -0.269 OA
ATOM      6  C   UNL     1       2.445  -0.078  -0.026  1.00  0.00     0.251 C 
ATOM      7  H   UNL     1       2.686   0.783   1.769  1.00  0.00     0.163 HD
BRANCH   6   8
ATOM      8  C   UNL     1       3.125  -0.718  -1.171  1.00  0.00     0.039 A 
ATOM      9  C   UNL     1       4.201  -1.585  -0.963  1.00  0.00     0.014 A 
ATOM     10  C   UNL     1       2.670  -0.461  -2.467  1.00  0.00     0.014 A 
ATOM     11  C   UNL     1       4.900  -2.095  -2.051  1.00  0.00     0.010 A 
ATOM     12  C   UNL     1       3.321  -1.043  -3.558  1.00  0.00     0.010 A 
ATOM     13  C   UNL     1       4.450  -1.853  -3.358  1.00  0.00    -0.014 A 
BRANCH  13  14
ATOM     14  C   UNL     1       5.102  -2.549  -4.493  1.00  0.00     0.031 A 
ATOM     15  C   UNL     1       5.839  -1.792  -5.560  1.00  0.00     0.074 A 
ATOM     16  C   UNL     1       5.005  -3.892  -4.555  1.00  0.00     0.049 A 
ATOM     17  N   UNL     1       6.433  -2.256  -6.631  1.00  0.00    -0.248 NA
ATOM     18  C   UNL     1       5.917  -0.330  -5.415  1.00  0.00     0.031 C 
ATOM     19  C   UNL     1       4.304  -4.733  -3.579  1.00  0.00     0.029 A 
ATOM     20  N   UNL     1       5.494  -4.787  -5.471  1.00  0.00    -0.354 N 
ATOM     21  C   UNL     1       6.934  -1.146  -7.300  1.00  0.00     0.074 A 
ATOM     22  C   UNL     1       6.565   0.017  -6.521  1.00  0.00     0.031 C 
ATOM     23  C   UNL     1       4.430  -6.019  -3.934  1.00  0.00     0.029 A 
ATOM     24  C   UNL     1       5.157  -6.090  -5.194  1.00  0.00     0.049 A 
ATOM     25  H   UNL     1       6.034  -4.522  -6.250  1.00  0.00     0.167 HD
ATOM     26  C   UNL     1       7.633  -1.107  -8.459  1.00  0.00     0.031 A 
ATOM     27  C   UNL     1       5.373  -7.218  -5.895  1.00  0.00     0.031 A 
ATOM     28  C   UNL     1       8.002  -2.271  -9.223  1.00  0.00     0.049 A 
ATOM     29  C   UNL     1       6.110  -7.133  -7.198  1.00  0.00     0.074 A 
ATOM     30  C   UNL     1       8.771  -2.337 -10.373  1.00  0.00     0.029 A 
ATOM     31  N   UNL     1       7.616  -3.568  -8.925  1.00  0.00    -0.354 N 
ATOM     32  N   UNL     1       6.638  -6.083  -7.779  1.00  0.00    -0.248 NA
ATOM     33  C   UNL     1       6.275  -8.386  -7.946  1.00  0.00     0.031 C 
ATOM     34  C   UNL     1       8.793  -3.665 -10.808  1.00  0.00     0.029 A 
ATOM     35  C   UNL     1       8.088  -4.435  -9.897  1.00  0.00     0.049 A 
ATOM     36  H   UNL     1       7.085  -3.835  -8.140  1.00  0.00     0.167 HD
ATOM     37  C   UNL     1       7.206  -6.550  -8.955  1.00  0.00     0.074 A 
ATOM     38  C   UNL     1       6.983  -7.981  -8.991  1.00  0.00     0.031 C 
ATOM     39  C   UNL     1       7.850  -5.854  -9.922  1.00  0.00     0.031 A 
BRANCH  26  40
ATOM     40  C   UNL     1       8.026   0.238  -9.005  1.00  0.00    -0.014 A 
ATOM     41  C   UNL     1       9.056   0.993  -8.425  1.00  0.00     0.009 A 
ATOM     42  C   UNL     1       7.412   0.713 -10.176  1.00  0.00     0.009 A 
ATOM     43  C   UNL     1       9.449   2.207  -8.996  1.00  0.00     0.001 A 
ATOM     44  C   UNL     1       7.823   1.913 -10.757  1.00  0.00     0.001 A 
ATOM     45  C   UNL     1       8.838   2.662 -10.165  1.00  0.00     0.000 A 
ENDBRANCH  26  40
BRANCH  27  46
ATOM     46  C   UNL     1       4.836  -8.511  -5.401  1.00  0.00    -0.014 A 
ATOM     47  C   UNL     1       5.696  -9.529  -4.965  1.00  0.00     0.009 A 
ATOM     48  C   UNL     1       3.449  -8.733  -5.365  1.00  0.00     0.009 A 
ATOM     49  C   UNL     1       5.179 -10.752  -4.530  1.00  0.00     0.001 A 
ATOM     50  C   UNL     1       2.934  -9.943  -4.898  1.00  0.00     0.001 A 
ATOM     51  C   UNL     1       3.800 -10.955  -4.492  1.00  0.00     0.000 A 
ENDBRANCH  27  46
BRANCH  39  52
ATOM     52  C   UNL     1       8.367  -6.635 -11.095  1.00  0.00    -0.014 A 
ATOM     53  C   UNL     1       7.493  -7.138 -12.071  1.00  0.00     0.009 A 
ATOM     54  C   UNL     1       9.748  -6.835 -11.246  1.00  0.00     0.009 A 
ATOM     55  C   UNL     1       7.991  -7.849 -13.164  1.00  0.00     0.001 A 
ATOM     56  C   UNL     1      10.245  -7.521 -12.354  1.00  0.00     0.001 A 
ATOM     57  C   UNL     1       9.366  -8.034 -13.308  1.00  0.00     0.000 A 
ENDBRANCH  39  52
ENDBRANCH  13  14
ENDBRANCH   6   8
ENDBRANCH   3   4
ENDBRANCH   2   3
ENDBRANCH   1   2
BRANCH   1  58
ATOM     58  C   UNL     1       5.014   2.158   3.740  1.00  0.00     0.116 C 
BRANCH  58  59
ATOM     59  N   UNL     1       6.469   2.145   3.836  1.00  0.00    -0.352 N 
ATOM     60  C   UNL     1       7.267   2.533   4.887  1.00  0.00     0.251 C 
ATOM     61  H   UNL     1       6.945   1.813   3.041  1.00  0.00     0.163 HD
ATOM     62  O   UNL     1       8.483   2.615   4.754  1.00  0.00    -0.269 OA
BRANCH  60  63
ATOM     63  C   UNL     1       6.640   2.854   6.185  1.00  0.00     0.043 A 
ATOM     64  C   UNL     1       6.950   4.046   6.835  1.00  0.00     0.014 A 
ATOM     65  C   UNL     1       5.727   1.957   6.745  1.00  0.00     0.062 A 
ATOM     66  C   UNL     1       6.284   4.369   8.018  1.00  0.00     0.005 A 
ATOM     67  C   UNL     1       5.019   2.299   7.894  1.00  0.00     0.143 A 
ATOM     68  C   UNL     1       5.310   3.505   8.537  1.00  0.00     0.048 A 
BRANCH  67  69
ATOM     69  O   UNL     1       4.035   1.513   8.448  1.00  0.00    -0.379 OA
BRANCH  69  70
ATOM     70  S   UNL     1       3.270   0.380   7.546  1.00  0.00     0.339 S 
ATOM     71  O   UNL     1       2.529   1.033   6.487  1.00  0.00    -0.181 OA
ATOM     72  O   UNL     1       4.215  -0.683   7.245  1.00  0.00    -0.181 OA
BRANCH  70  73
ATOM     73  C   UNL     1       2.062  -0.331   8.638  1.00  0.00     0.112 A 
ATOM     74  C   UNL     1       1.181   0.500   9.335  1.00  0.00     0.024 A 
ATOM     75  C   UNL     1       2.000  -1.724   8.768  1.00  0.00     0.109 A 
ATOM     76  C   UNL     1       0.225  -0.071  10.179  1.00  0.00     0.009 A 
ATOM     77  C   UNL     1       1.040  -2.282   9.616  1.00  0.00     0.270 A 
ATOM     78  C   UNL     1       0.151  -1.460  10.324  1.00  0.00     0.086 A 
BRANCH  77  79
ATOM     79  N   UNL     1       0.963  -3.742   9.762  1.00  0.00     0.062 N 
ATOM     80  O   UNL     1       0.137  -4.197  10.564  1.00  0.00    -0.258 OA
ATOM     81  O   UNL     1       1.731  -4.429   9.074  1.00  0.00    -0.258 OA
ENDBRANCH  77  79
ENDBRANCH  70  73
ENDBRANCH  69  70
ENDBRANCH  67  69
ENDBRANCH  60  63
ENDBRANCH  58  59
ENDBRANCH   1  58
TORSDOF 15
