REMARK SMILES O=C(NCc1ccsc1)NC[C@H]1CC[C@@H](C(=O)NCCCCNC(=O)c2ccc(-c3c4nc(c(-c5ccccc5)c5ccc([nH]5)c(-c5ccccc5)c5nc(c(-c6ccccc6)c6ccc3[nH]6)C=C5)C=C4)cc2)CC1
REMARK SMILES IDX 19 1 18 2 16 3 17 4 15 6 12 7 13 8 75 9 14 10 74 11 11 12
REMARK SMILES IDX 10 13 1 14 2 15 3 16 4 19 5 20 6 21 9 22 7 23 8 24 20 25
REMARK SMILES IDX 21 26 22 27 23 28 24 29 25 31 26 32 27 33 73 34 28 35 72 36
REMARK SMILES IDX 29 37 30 38 31 39 66 40 32 41 71 42 65 43 67 44 33 45 70 46
REMARK SMILES IDX 64 47 63 48 34 50 56 51 41 52 55 53 42 54 45 55 54 56 68 57
REMARK SMILES IDX 43 58 44 59 53 61 69 62 46 63 35 64 36 65 40 66 37 67 39 68
REMARK SMILES IDX 38 69 57 70 58 71 62 72 59 73 61 74 60 75 47 76 48 77 52 78
REMARK SMILES IDX 49 79 51 80 50 81
REMARK H PARENT 18 5 3 17 10 18 23 30 67 49 45 60
REMARK Flexibility Score: inf
ROOT
ATOM      1  C   UNL     1      -0.140  -2.922   1.966  1.00  0.00     0.116 C 
ENDROOT
BRANCH   1   2
ATOM      2  N   UNL     1      -0.172  -4.343   2.225  1.00  0.00    -0.356 N 
ATOM      3  C   UNL     1       0.675  -5.184   2.863  1.00  0.00     0.223 C 
ATOM      4  O   UNL     1       0.283  -6.353   2.972  1.00  0.00    -0.275 OA
ATOM      5  H   UNL     1      -0.971  -4.790   1.865  1.00  0.00     0.163 HD
BRANCH   3   6
ATOM      6  C   UNL     1       2.058  -4.809   3.420  1.00  0.00     0.078 C 
ATOM      7  C   UNL     1       3.371  -2.091   3.169  1.00  0.00     0.008 C 
ATOM      8  C   UNL     1       2.412  -2.394   4.339  1.00  0.00     0.006 C 
ATOM      9  C   UNL     1       3.291  -3.073   1.992  1.00  0.00     0.006 C 
ATOM     10  C   UNL     1       2.109  -3.863   4.617  1.00  0.00     0.014 C 
ATOM     11  C   UNL     1       3.128  -4.532   2.374  1.00  0.00     0.014 C 
BRANCH   7  12
ATOM     12  C   UNL     1       3.139  -0.628   2.713  1.00  0.00     0.121 C 
BRANCH  12  13
ATOM     13  N   UNL     1       3.752  -0.300   1.439  1.00  0.00    -0.338 N 
ATOM     14  O   UNL     1       1.798   0.313   0.448  1.00  0.00    -0.249 OA
ATOM     15  C   UNL     1       3.014   0.153   0.391  1.00  0.00     0.315 C 
ATOM     16  N   UNL     1       3.645   0.403  -0.773  1.00  0.00    -0.334 N 
ATOM     17  H   UNL     1       3.060   0.750  -1.484  1.00  0.00     0.165 HD
ATOM     18  H   UNL     1       4.725  -0.407   1.331  1.00  0.00     0.165 HD
BRANCH  16  19
ATOM     19  C   UNL     1       5.026   0.250  -1.163  1.00  0.00     0.154 C 
BRANCH  19  20
ATOM     20  C   UNL     1       5.119  -0.825  -2.201  1.00  0.00    -0.018 A 
ATOM     21  C   UNL     1       4.704  -2.189  -2.017  1.00  0.00     0.017 A 
ATOM     22  C   UNL     1       5.638  -0.647  -3.472  1.00  0.00     0.070 A 
ATOM     23  C   UNL     1       4.932  -2.972  -3.126  1.00  0.00     0.065 A 
ATOM     24  S   UNL     1       5.637  -2.082  -4.402  1.00  0.00    -0.152 S 
ENDBRANCH  19  20
ENDBRANCH  16  19
ENDBRANCH  12  13
ENDBRANCH   7  12
ENDBRANCH   3   6
ENDBRANCH   1   2
BRANCH   1  25
ATOM     25  C   UNL     1       0.044  -2.598   0.484  1.00  0.00     0.023 C 
BRANCH  25  26
ATOM     26  C   UNL     1      -1.170  -2.013  -0.223  1.00  0.00     0.023 C 
BRANCH  26  27
ATOM     27  C   UNL     1      -1.812  -0.792   0.425  1.00  0.00     0.116 C 
BRANCH  27  28
ATOM     28  N   UNL     1      -0.963   0.380   0.586  1.00  0.00    -0.352 N 
ATOM     29  C   UNL     1      -1.354   1.704   0.586  1.00  0.00     0.251 C 
ATOM     30  H   UNL     1      -0.001   0.209   0.708  1.00  0.00     0.163 HD
ATOM     31  O   UNL     1      -0.568   2.627   0.773  1.00  0.00    -0.269 OA
BRANCH  29  32
ATOM     32  C   UNL     1      -2.757   2.010   0.246  1.00  0.00     0.039 A 
ATOM     33  C   UNL     1      -3.001   2.794  -0.884  1.00  0.00     0.014 A 
ATOM     34  C   UNL     1      -3.805   1.390   0.927  1.00  0.00     0.014 A 
ATOM     35  C   UNL     1      -4.293   2.866  -1.401  1.00  0.00     0.010 A 
ATOM     36  C   UNL     1      -5.071   1.385   0.356  1.00  0.00     0.010 A 
ATOM     37  C   UNL     1      -5.324   2.110  -0.821  1.00  0.00    -0.014 A 
BRANCH  37  38
ATOM     38  C   UNL     1      -6.674   2.052  -1.431  1.00  0.00     0.031 A 
ATOM     39  C   UNL     1      -7.860   2.552  -0.659  1.00  0.00     0.074 A 
ATOM     40  C   UNL     1      -6.844   1.477  -2.638  1.00  0.00     0.049 A 
ATOM     41  N   UNL     1      -9.130   2.507  -0.972  1.00  0.00    -0.248 NA
ATOM     42  C   UNL     1      -7.584   3.148   0.658  1.00  0.00     0.031 C 
ATOM     43  C   UNL     1      -5.781   0.909  -3.470  1.00  0.00     0.029 A 
ATOM     44  N   UNL     1      -7.985   1.272  -3.373  1.00  0.00    -0.354 N 
ATOM     45  C   UNL     1      -9.801   3.035   0.122  1.00  0.00     0.074 A 
ATOM     46  C   UNL     1      -8.806   3.343   1.126  1.00  0.00     0.031 C 
ATOM     47  C   UNL     1      -6.313   0.459  -4.618  1.00  0.00     0.029 A 
ATOM     48  C   UNL     1      -7.757   0.667  -4.586  1.00  0.00     0.049 A 
ATOM     49  H   UNL     1      -8.881   1.533  -3.062  1.00  0.00     0.167 HD
ATOM     50  C   UNL     1     -11.127   3.267   0.273  1.00  0.00     0.031 A 
ATOM     51  C   UNL     1      -8.616   0.323  -5.563  1.00  0.00     0.031 A 
ATOM     52  C   UNL     1     -12.112   2.988  -0.735  1.00  0.00     0.049 A 
ATOM     53  C   UNL     1     -10.082   0.599  -5.381  1.00  0.00     0.074 A 
ATOM     54  C   UNL     1     -13.470   3.246  -0.710  1.00  0.00     0.029 A 
ATOM     55  N   UNL     1     -11.838   2.389  -1.955  1.00  0.00    -0.354 N 
ATOM     56  N   UNL     1     -10.697   1.154  -4.365  1.00  0.00    -0.248 NA
ATOM     57  C   UNL     1     -10.969   0.208  -6.486  1.00  0.00     0.031 C 
ATOM     58  C   UNL     1     -14.026   2.768  -1.902  1.00  0.00     0.029 A 
ATOM     59  C   UNL     1     -13.005   2.254  -2.687  1.00  0.00     0.049 A 
ATOM     60  H   UNL     1     -10.946   2.102  -2.257  1.00  0.00     0.167 HD
ATOM     61  C   UNL     1     -12.040   1.202  -4.716  1.00  0.00     0.074 A 
ATOM     62  C   UNL     1     -12.146   0.630  -6.044  1.00  0.00     0.031 C 
ATOM     63  C   UNL     1     -13.089   1.680  -4.005  1.00  0.00     0.031 A 
BRANCH  50  64
ATOM     64  C   UNL     1     -11.569   3.844   1.588  1.00  0.00    -0.014 A 
ATOM     65  C   UNL     1     -11.243   5.161   1.951  1.00  0.00     0.009 A 
ATOM     66  C   UNL     1     -12.301   3.053   2.486  1.00  0.00     0.009 A 
ATOM     67  C   UNL     1     -11.593   5.655   3.209  1.00  0.00     0.001 A 
ATOM     68  C   UNL     1     -12.677   3.561   3.731  1.00  0.00     0.001 A 
ATOM     69  C   UNL     1     -12.310   4.855   4.097  1.00  0.00     0.000 A 
ENDBRANCH  50  64
BRANCH  51  70
ATOM     70  C   UNL     1      -8.107  -0.283  -6.821  1.00  0.00    -0.014 A 
ATOM     71  C   UNL     1      -8.067   0.476  -8.001  1.00  0.00     0.009 A 
ATOM     72  C   UNL     1      -7.650  -1.609  -6.850  1.00  0.00     0.009 A 
ATOM     73  C   UNL     1      -7.595  -0.086  -9.189  1.00  0.00     0.001 A 
ATOM     74  C   UNL     1      -7.157  -2.161  -8.035  1.00  0.00     0.001 A 
ATOM     75  C   UNL     1      -7.136  -1.402  -9.204  1.00  0.00     0.000 A 
ENDBRANCH  51  70
BRANCH  63  76
ATOM     76  C   UNL     1     -14.438   1.632  -4.661  1.00  0.00    -0.014 A 
ATOM     77  C   UNL     1     -15.142   0.425  -4.790  1.00  0.00     0.009 A 
ATOM     78  C   UNL     1     -15.031   2.820  -5.115  1.00  0.00     0.009 A 
ATOM     79  C   UNL     1     -16.403   0.406  -5.387  1.00  0.00     0.001 A 
ATOM     80  C   UNL     1     -16.303   2.801  -5.689  1.00  0.00     0.001 A 
ATOM     81  C   UNL     1     -16.984   1.594  -5.831  1.00  0.00     0.000 A 
ENDBRANCH  63  76
ENDBRANCH  37  38
ENDBRANCH  29  32
ENDBRANCH  27  28
ENDBRANCH  26  27
ENDBRANCH  25  26
ENDBRANCH   1  25
TORSDOF 15
