REMARK SMILES CC[C@@](C)([NH2+]CC(=O)N[C@]1(C)CCS(=O)(=O)C1)C(=O)NCCCCNC(=O)c1ccc(-c2c3nc(c(-c4ccccc4)c4ccc([nH]4)c(-c4ccccc4)c4nc(c(-c5ccccc5)c5ccc2[nH]5)C=C4)C=C3)cc1
REMARK SMILES IDX 21 1 20 2 18 3 19 4 3 6 4 7 2 8 1 9 5 10 6 13 7 14 8 15 9 16
REMARK SMILES IDX 10 18 12 19 17 20 11 21 13 22 14 23 15 24 16 25 22 26 23 27
REMARK SMILES IDX 24 28 25 29 26 30 27 32 28 33 29 34 75 35 30 36 74 37 31 38
REMARK SMILES IDX 32 39 33 40 68 41 34 42 73 43 67 44 69 45 35 46 72 47 66 48
REMARK SMILES IDX 65 49 36 51 58 52 43 53 57 54 44 55 47 56 56 57 70 58 45 59
REMARK SMILES IDX 46 60 55 62 71 63 48 64 37 65 38 66 42 67 39 68 41 69 40 70
REMARK SMILES IDX 59 71 60 72 64 73 61 74 63 75 62 76 49 77 50 78 54 79 51 80
REMARK SMILES IDX 53 81 52 82
REMARK H PARENT 20 5 5 11 5 12 9 17 25 31 69 50 47 61
REMARK Flexibility Score: inf
ROOT
ATOM      1  C   UNL     1      -0.830   0.607   3.033  1.00  0.00     0.116 C 
ENDROOT
BRANCH   1   2
ATOM      2  N   UNL     1      -0.008  -0.548   3.313  1.00  0.00    -0.351 N 
ATOM      3  C   UNL     1       1.231  -0.996   2.970  1.00  0.00     0.281 C 
ATOM      4  O   UNL     1       1.717  -1.629   3.923  1.00  0.00    -0.268 OA
ATOM      5  H   UNL     1      -0.466  -1.180   3.912  1.00  0.00     0.163 HD
BRANCH   3   6
ATOM      6  C   UNL     1       2.025  -0.893   1.536  1.00  0.00     0.172 C 
ATOM      7  C   UNL     1       3.105   0.070   0.996  1.00  0.00     0.090 C 
BRANCH   6   8
ATOM      8  C   UNL     1       2.840  -2.262   1.552  1.00  0.00     0.075 C 
ATOM      9  C   UNL     1       4.069  -2.251   2.509  1.00  0.00     0.011 C 
ENDBRANCH   6   8
BRANCH   6  10
ATOM     10  N   UNL     1       1.005  -0.837   0.488  1.00  0.00    -0.326 N 
ATOM     11  H   UNL     1       0.284  -1.510   0.751  1.00  0.00     0.347 HD
ATOM     12  H   UNL     1       1.550  -1.009  -0.357  1.00  0.00     0.347 HD
BRANCH  10  13
ATOM     13  C   UNL     1       0.300   0.422   0.159  1.00  0.00     0.362 C 
BRANCH  13  14
ATOM     14  C   UNL     1       0.806   1.899   0.224  1.00  0.00     0.275 C 
ATOM     15  O   UNL     1       0.603   2.555  -0.823  1.00  0.00    -0.268 OA
ATOM     16  N   UNL     1       1.321   2.732   1.162  1.00  0.00    -0.345 N 
ATOM     17  H   UNL     1       1.490   3.564   0.664  1.00  0.00     0.164 HD
BRANCH  16  18
ATOM     18  C   UNL     1       1.781   3.066   2.592  1.00  0.00     0.052 C 
ATOM     19  C   UNL     1       2.907   4.153   2.456  1.00  0.00     0.045 C 
ATOM     20  C   UNL     1       2.386   1.960   3.484  1.00  0.00     0.165 C 
ATOM     21  C   UNL     1       0.632   3.759   3.353  1.00  0.00     0.036 C 
ATOM     22  C   UNL     1       4.245   3.444   2.361  1.00  0.00     0.139 C 
ATOM     23  S   UNL     1       4.141   2.250   3.662  1.00  0.00     0.152 S 
ATOM     24  O   UNL     1       4.358   2.935   4.925  1.00  0.00    -0.229 OA
ATOM     25  O   UNL     1       4.898   1.081   3.295  1.00  0.00    -0.229 OA
ENDBRANCH  16  18
ENDBRANCH  13  14
ENDBRANCH  10  13
ENDBRANCH   6  10
ENDBRANCH   3   6
ENDBRANCH   1   2
BRANCH   1  26
ATOM     26  C   UNL     1      -2.225   0.301   2.474  1.00  0.00     0.023 C 
BRANCH  26  27
ATOM     27  C   UNL     1      -3.370   0.728   3.388  1.00  0.00     0.023 C 
BRANCH  27  28
ATOM     28  C   UNL     1      -3.442   2.230   3.657  1.00  0.00     0.116 C 
BRANCH  28  29
ATOM     29  N   UNL     1      -3.892   3.020   2.517  1.00  0.00    -0.352 N 
ATOM     30  C   UNL     1      -4.940   3.914   2.452  1.00  0.00     0.251 C 
ATOM     31  H   UNL     1      -3.380   2.899   1.684  1.00  0.00     0.163 HD
ATOM     32  O   UNL     1      -5.255   4.443   1.393  1.00  0.00    -0.269 OA
BRANCH  30  33
ATOM     33  C   UNL     1      -5.715   4.194   3.679  1.00  0.00     0.039 A 
ATOM     34  C   UNL     1      -7.099   4.021   3.663  1.00  0.00     0.014 A 
ATOM     35  C   UNL     1      -5.055   4.530   4.863  1.00  0.00     0.014 A 
ATOM     36  C   UNL     1      -7.812   4.090   4.862  1.00  0.00     0.010 A 
ATOM     37  C   UNL     1      -5.751   4.498   6.066  1.00  0.00     0.010 A 
ATOM     38  C   UNL     1      -7.137   4.276   6.080  1.00  0.00    -0.014 A 
BRANCH  38  39
ATOM     39  C   UNL     1      -7.860   4.239   7.378  1.00  0.00     0.031 A 
ATOM     40  C   UNL     1      -7.860   5.448   8.274  1.00  0.00     0.074 A 
ATOM     41  C   UNL     1      -8.462   3.101   7.782  1.00  0.00     0.049 A 
ATOM     42  N   UNL     1      -8.393   5.597   9.461  1.00  0.00    -0.248 NA
ATOM     43  C   UNL     1      -7.144   6.638   7.786  1.00  0.00     0.031 C 
ATOM     44  C   UNL     1      -8.498   1.844   7.030  1.00  0.00     0.029 A 
ATOM     45  N   UNL     1      -9.161   2.818   8.930  1.00  0.00    -0.354 N 
ATOM     46  C   UNL     1      -8.060   6.884   9.864  1.00  0.00     0.074 A 
ATOM     47  C   UNL     1      -7.229   7.452   8.826  1.00  0.00     0.031 C 
ATOM     48  C   UNL     1      -9.218   0.941   7.716  1.00  0.00     0.029 A 
ATOM     49  C   UNL     1      -9.653   1.535   8.975  1.00  0.00     0.049 A 
ATOM     50  H   UNL     1      -9.298   3.473   9.652  1.00  0.00     0.167 HD
ATOM     51  C   UNL     1      -8.431   7.545  10.985  1.00  0.00     0.031 A 
ATOM     52  C   UNL     1     -10.371   0.906   9.926  1.00  0.00     0.031 A 
ATOM     53  C   UNL     1      -9.267   6.985  12.012  1.00  0.00     0.049 A 
ATOM     54  C   UNL     1     -10.749   1.656  11.175  1.00  0.00     0.074 A 
ATOM     55  C   UNL     1      -9.749   7.595  13.157  1.00  0.00     0.029 A 
ATOM     56  N   UNL     1      -9.739   5.682  12.022  1.00  0.00    -0.354 N 
ATOM     57  N   UNL     1     -10.493   2.899  11.503  1.00  0.00    -0.248 NA
ATOM     58  C   UNL     1     -11.527   0.917  12.179  1.00  0.00     0.031 C 
ATOM     59  C   UNL     1     -10.459   6.641  13.892  1.00  0.00     0.029 A 
ATOM     60  C   UNL     1     -10.480   5.458  13.169  1.00  0.00     0.049 A 
ATOM     61  H   UNL     1      -9.572   5.015  11.317  1.00  0.00     0.167 HD
ATOM     62  C   UNL     1     -11.106   3.100  12.733  1.00  0.00     0.074 A 
ATOM     63  C   UNL     1     -11.760   1.857  13.084  1.00  0.00     0.031 C 
ATOM     64  C   UNL     1     -11.126   4.215  13.504  1.00  0.00     0.031 A 
BRANCH  51  65
ATOM     65  C   UNL     1      -7.923   8.951  11.162  1.00  0.00    -0.014 A 
ATOM     66  C   UNL     1      -8.360   9.996  10.332  1.00  0.00     0.009 A 
ATOM     67  C   UNL     1      -7.019   9.240  12.195  1.00  0.00     0.009 A 
ATOM     68  C   UNL     1      -7.870  11.292  10.507  1.00  0.00     0.001 A 
ATOM     69  C   UNL     1      -6.558  10.543  12.391  1.00  0.00     0.001 A 
ATOM     70  C   UNL     1      -6.975  11.566  11.540  1.00  0.00     0.000 A 
ENDBRANCH  51  65
BRANCH  52  71
ATOM     71  C   UNL     1     -10.797  -0.507   9.736  1.00  0.00    -0.014 A 
ATOM     72  C   UNL     1     -12.154  -0.828   9.569  1.00  0.00     0.009 A 
ATOM     73  C   UNL     1      -9.854  -1.547   9.742  1.00  0.00     0.009 A 
ATOM     74  C   UNL     1     -12.559  -2.159   9.447  1.00  0.00     0.001 A 
ATOM     75  C   UNL     1     -10.259  -2.875   9.586  1.00  0.00     0.001 A 
ATOM     76  C   UNL     1     -11.612  -3.181   9.451  1.00  0.00     0.000 A 
ENDBRANCH  52  71
BRANCH  64  77
ATOM     77  C   UNL     1     -11.917   4.158  14.782  1.00  0.00    -0.014 A 
ATOM     78  C   UNL     1     -11.488   3.391  15.877  1.00  0.00     0.009 A 
ATOM     79  C   UNL     1     -13.089   4.921  14.905  1.00  0.00     0.009 A 
ATOM     80  C   UNL     1     -12.238   3.362  17.055  1.00  0.00     0.001 A 
ATOM     81  C   UNL     1     -13.817   4.918  16.095  1.00  0.00     0.001 A 
ATOM     82  C   UNL     1     -13.397   4.130  17.165  1.00  0.00     0.000 A 
ENDBRANCH  64  77
ENDBRANCH  38  39
ENDBRANCH  30  33
ENDBRANCH  28  29
ENDBRANCH  27  28
ENDBRANCH  26  27
ENDBRANCH   1  26
TORSDOF 16
