REMARK SMILES CCCC[C@@H](C(=O)NCCCCNC(=O)c1ccc(-c2c3nc(c(-c4ccccc4)c4ccc([nH]4)c(-c4ccccc4)c4nc(c(-c5ccccc5)c5ccc2[nH]5)C=C4)C=C3)cc1)[C@]1(O)COc2cc(O)ccc21
REMARK SMILES IDX 10 1 9 2 8 3 6 4 7 5 5 7 4 8 3 9 2 10 1 11 64 12 66 13 74 14
REMARK SMILES IDX 67 15 68 16 73 17 69 18 72 19 70 20 65 21 71 23 11 25 12 26
REMARK SMILES IDX 13 27 14 28 15 30 16 31 17 32 63 33 18 34 62 35 19 36 20 37
REMARK SMILES IDX 21 38 56 39 22 40 61 41 55 42 57 43 23 44 60 45 54 46 53 47
REMARK SMILES IDX 24 49 46 50 31 51 45 52 32 53 35 54 44 55 58 56 33 57 34 58
REMARK SMILES IDX 43 60 59 61 36 62 25 63 26 64 30 65 27 66 29 67 28 68 47 69
REMARK SMILES IDX 48 70 52 71 49 72 51 73 50 74 37 75 38 76 42 77 39 78 41 79
REMARK SMILES IDX 40 80
REMARK H PARENT 8 6 65 22 71 24 13 29 57 48 35 59
REMARK Flexibility Score: inf
ROOT
ATOM      1  C   UNL     1       0.545   3.355   2.735  1.00  0.00     0.023 C 
ENDROOT
BRANCH   1   2
ATOM      2  C   UNL     1      -0.879   3.024   2.270  1.00  0.00     0.116 C 
BRANCH   2   3
ATOM      3  N   UNL     1      -1.402   4.133   1.502  1.00  0.00    -0.356 N 
ATOM      4  C   UNL     1      -1.095   4.378   0.187  1.00  0.00     0.226 C 
ATOM      5  O   UNL     1      -0.767   5.522  -0.116  1.00  0.00    -0.275 OA
ATOM      6  H   UNL     1      -2.020   4.754   1.952  1.00  0.00     0.163 HD
BRANCH   4   7
ATOM      7  C   UNL     1      -1.212   3.238  -0.826  1.00  0.00     0.118 C 
BRANCH   7   8
ATOM      8  C   UNL     1       0.173   2.768  -1.352  1.00  0.00     0.017 C 
BRANCH   8   9
ATOM      9  C   UNL     1       1.102   1.970  -0.435  1.00  0.00     0.001 C 
BRANCH   9  10
ATOM     10  C   UNL     1       0.595   0.603   0.025  1.00  0.00    -0.003 C 
ATOM     11  C   UNL     1       1.185  -0.535  -0.792  1.00  0.00     0.004 C 
ENDBRANCH   9  10
ENDBRANCH   8   9
ENDBRANCH   7   8
BRANCH   7  12
ATOM     12  C   UNL     1      -2.138   3.657  -2.026  1.00  0.00     0.139 C 
ATOM     13  C   UNL     1      -1.462   4.485  -3.155  1.00  0.00     0.270 C 
ATOM     14  C   UNL     1      -3.252   4.625  -1.742  1.00  0.00     0.030 A 
ATOM     15  O   UNL     1      -1.720   5.888  -2.944  1.00  0.00    -0.490 OA
ATOM     16  C   UNL     1      -2.905   5.875  -2.255  1.00  0.00     0.129 A 
ATOM     17  C   UNL     1      -4.460   4.464  -1.082  1.00  0.00     0.014 A 
ATOM     18  C   UNL     1      -3.679   7.000  -2.072  1.00  0.00     0.093 A 
ATOM     19  C   UNL     1      -5.290   5.585  -0.926  1.00  0.00     0.047 A 
ATOM     20  C   UNL     1      -4.883   6.841  -1.401  1.00  0.00     0.119 A 
BRANCH  12  21
ATOM     21  O   UNL     1      -2.655   2.438  -2.590  1.00  0.00    -0.381 OA
ATOM     22  H   UNL     1      -1.922   1.827  -2.766  1.00  0.00     0.212 HD
ENDBRANCH  12  21
BRANCH  20  23
ATOM     23  O   UNL     1      -5.657   7.952  -1.228  1.00  0.00    -0.508 OA
ATOM     24  H   UNL     1      -5.366   8.781  -1.553  1.00  0.00     0.293 HD
ENDBRANCH  20  23
ENDBRANCH   7  12
ENDBRANCH   4   7
ENDBRANCH   2   3
ENDBRANCH   1   2
BRANCH   1  25
ATOM     25  C   UNL     1       0.629   4.304   3.925  1.00  0.00     0.023 C 
BRANCH  25  26
ATOM     26  C   UNL     1       0.005   3.768   5.198  1.00  0.00     0.116 C 
BRANCH  26  27
ATOM     27  N   UNL     1       0.562   2.493   5.622  1.00  0.00    -0.352 N 
ATOM     28  C   UNL     1       0.714   2.019   6.904  1.00  0.00     0.251 C 
ATOM     29  H   UNL     1       0.869   1.896   4.903  1.00  0.00     0.163 HD
ATOM     30  O   UNL     1       1.293   0.966   7.118  1.00  0.00    -0.269 OA
BRANCH  28  31
ATOM     31  C   UNL     1       0.204   2.838   8.023  1.00  0.00     0.039 A 
ATOM     32  C   UNL     1       1.052   3.101   9.098  1.00  0.00     0.014 A 
ATOM     33  C   UNL     1      -1.076   3.395   7.971  1.00  0.00     0.014 A 
ATOM     34  C   UNL     1       0.632   3.976  10.098  1.00  0.00     0.010 A 
ATOM     35  C   UNL     1      -1.454   4.339   8.917  1.00  0.00     0.010 A 
ATOM     36  C   UNL     1      -0.609   4.627   9.997  1.00  0.00    -0.014 A 
BRANCH  36  37
ATOM     37  C   UNL     1      -1.033   5.604  11.027  1.00  0.00     0.031 A 
ATOM     38  C   UNL     1      -2.233   5.325  11.887  1.00  0.00     0.074 A 
ATOM     39  C   UNL     1      -0.351   6.758  11.164  1.00  0.00     0.049 A 
ATOM     40  N   UNL     1      -2.716   6.029  12.879  1.00  0.00    -0.248 NA
ATOM     41  C   UNL     1      -3.012   4.115  11.577  1.00  0.00     0.031 C 
ATOM     42  C   UNL     1       0.782   7.178  10.335  1.00  0.00     0.029 A 
ATOM     43  N   UNL     1      -0.504   7.783  12.061  1.00  0.00    -0.354 N 
ATOM     44  C   UNL     1      -3.855   5.354  13.299  1.00  0.00     0.074 A 
ATOM     45  C   UNL     1      -4.029   4.223  12.416  1.00  0.00     0.031 C 
ATOM     46  C   UNL     1       1.254   8.348  10.796  1.00  0.00     0.029 A 
ATOM     47  C   UNL     1       0.445   8.768  11.935  1.00  0.00     0.049 A 
ATOM     48  H   UNL     1      -1.225   7.810  12.731  1.00  0.00     0.167 HD
ATOM     49  C   UNL     1      -4.668   5.633  14.345  1.00  0.00     0.031 A 
ATOM     50  C   UNL     1       0.653   9.874  12.673  1.00  0.00     0.031 A 
ATOM     51  C   UNL     1      -4.483   6.750  15.231  1.00  0.00     0.049 A 
ATOM     52  C   UNL     1      -0.233  10.137  13.857  1.00  0.00     0.074 A 
ATOM     53  C   UNL     1      -5.210   7.088  16.358  1.00  0.00     0.029 A 
ATOM     54  N   UNL     1      -3.494   7.710  15.087  1.00  0.00    -0.354 N 
ATOM     55  N   UNL     1      -1.250   9.438  14.301  1.00  0.00    -0.248 NA
ATOM     56  C   UNL     1       0.076  11.329  14.658  1.00  0.00     0.031 C 
ATOM     57  C   UNL     1      -4.685   8.278  16.874  1.00  0.00     0.029 A 
ATOM     58  C   UNL     1      -3.600   8.651  16.097  1.00  0.00     0.049 A 
ATOM     59  H   UNL     1      -2.817   7.722  14.373  1.00  0.00     0.167 HD
ATOM     60  C   UNL     1      -1.686  10.090  15.446  1.00  0.00     0.074 A 
ATOM     61  C   UNL     1      -0.808  11.226  15.640  1.00  0.00     0.031 C 
ATOM     62  C   UNL     1      -2.720   9.778  16.266  1.00  0.00     0.031 A 
BRANCH  49  63
ATOM     63  C   UNL     1      -5.828   4.706  14.580  1.00  0.00    -0.014 A 
ATOM     64  C   UNL     1      -5.628   3.391  15.031  1.00  0.00     0.009 A 
ATOM     65  C   UNL     1      -7.139   5.156  14.362  1.00  0.00     0.009 A 
ATOM     66  C   UNL     1      -6.713   2.533  15.218  1.00  0.00     0.001 A 
ATOM     67  C   UNL     1      -8.225   4.305  14.579  1.00  0.00     0.001 A 
ATOM     68  C   UNL     1      -8.010   2.991  14.997  1.00  0.00     0.000 A 
ENDBRANCH  49  63
BRANCH  50  69
ATOM     69  C   UNL     1       1.783  10.783  12.348  1.00  0.00    -0.014 A 
ATOM     70  C   UNL     1       2.914  10.836  13.178  1.00  0.00     0.009 A 
ATOM     71  C   UNL     1       1.739  11.600  11.209  1.00  0.00     0.009 A 
ATOM     72  C   UNL     1       3.964  11.709  12.889  1.00  0.00     0.001 A 
ATOM     73  C   UNL     1       2.803  12.452  10.907  1.00  0.00     0.001 A 
ATOM     74  C   UNL     1       3.910  12.514  11.752  1.00  0.00     0.000 A 
ENDBRANCH  50  69
BRANCH  62  75
ATOM     75  C   UNL     1      -2.932  10.666  17.458  1.00  0.00    -0.014 A 
ATOM     76  C   UNL     1      -3.429  11.972  17.316  1.00  0.00     0.009 A 
ATOM     77  C   UNL     1      -2.645  10.182  18.744  1.00  0.00     0.009 A 
ATOM     78  C   UNL     1      -3.590  12.790  18.435  1.00  0.00     0.001 A 
ATOM     79  C   UNL     1      -2.836  10.992  19.863  1.00  0.00     0.001 A 
ATOM     80  C   UNL     1      -3.296  12.299  19.707  1.00  0.00     0.000 A 
ENDBRANCH  62  75
ENDBRANCH  36  37
ENDBRANCH  28  31
ENDBRANCH  26  27
ENDBRANCH  25  26
ENDBRANCH   1  25
TORSDOF 17
