REMARK SMILES Cc1cc2c(c(C)c1Br)C=C(C(=O)NCCCCNC(=O)c1ccc(-c3c4nc(c(-c5ccccc5)c5ccc([nH]5)c(-c5ccccc5)c5nc(c(-c6ccccc6)c6ccc3[nH]6)C=C5)C=C4)cc1)[C@@H](C(F)(F)F)O2
REMARK SMILES IDX 17 1 16 2 15 3 14 4 12 5 13 6 11 8 1 9 2 10 3 11 8 12 4 13
REMARK SMILES IDX 6 14 9 15 5 16 75 17 7 18 10 19 70 20 71 21 72 22 73 23
REMARK SMILES IDX 74 24 18 25 19 26 20 27 21 29 22 30 23 31 69 32 24 33 68 34
REMARK SMILES IDX 25 35 26 36 27 37 62 38 28 39 67 40 61 41 63 42 29 43 66 44
REMARK SMILES IDX 60 45 59 46 30 48 52 49 37 50 51 51 38 52 41 53 50 54 64 55
REMARK SMILES IDX 39 56 40 57 49 59 65 60 42 61 31 62 32 63 36 64 33 65 35 66
REMARK SMILES IDX 34 67 53 68 54 69 58 70 55 71 57 72 56 73 43 74 44 75 48 76
REMARK SMILES IDX 45 77 47 78 46 79
REMARK H PARENT 14 7 19 28 63 47 41 58
REMARK Flexibility Score: inf
ROOT
ATOM      1  C   UNL     1      -4.545   4.181  -8.676  1.00  0.00     0.023 C 
ENDROOT
BRANCH   1   2
ATOM      2  C   UNL     1      -3.862   3.311  -7.618  1.00  0.00     0.023 C 
BRANCH   2   3
ATOM      3  C   UNL     1      -2.337   3.369  -7.652  1.00  0.00     0.116 C 
BRANCH   3   4
ATOM      4  N   UNL     1      -1.823   4.496  -6.895  1.00  0.00    -0.352 N 
ATOM      5  C   UNL     1      -1.198   4.690  -5.710  1.00  0.00     0.251 C 
ATOM      6  O   UNL     1      -0.940   5.869  -5.444  1.00  0.00    -0.270 OA
ATOM      7  H   UNL     1      -1.967   5.346  -7.370  1.00  0.00     0.163 HD
BRANCH   5   8
ATOM      8  C   UNL     1      -0.813   3.615  -4.747  1.00  0.00     0.067 C 
ATOM      9  C   UNL     1       1.178  -0.070   0.241  1.00  0.00     0.046 C 
ATOM     10  C   UNL     1       0.826   1.050  -0.702  1.00  0.00    -0.033 A 
ATOM     11  C   UNL     1       0.131   0.730  -1.871  1.00  0.00     0.051 A 
ATOM     12  C   UNL     1       1.166   2.399  -0.460  1.00  0.00     0.024 A 
ATOM     13  C   UNL     1      -0.210   1.719  -2.786  1.00  0.00     0.128 A 
ATOM     14  C   UNL     1       0.813   3.420  -1.380  1.00  0.00    -0.026 A 
ATOM     15  Br  UNL     1       2.112   2.815   1.153  1.00  0.00    -0.050 Br
ATOM     16  C   UNL     1       0.110   3.060  -2.558  1.00  0.00     0.021 A 
ATOM     17  O   UNL     1      -0.909   1.288  -3.877  1.00  0.00    -0.475 OA
ATOM     18  C   UNL     1       1.155   4.874  -1.148  1.00  0.00     0.046 C 
ATOM     19  C   UNL     1      -0.340   4.036  -3.558  1.00  0.00     0.026 C 
ATOM     20  C   UNL     1      -0.883   2.148  -5.044  1.00  0.00     0.314 C 
BRANCH  20  21
ATOM     21  C   UNL     1       0.227   1.677  -6.002  1.00  0.00     0.429 C 
ATOM     22  F   UNL     1      -0.067   0.449  -6.498  1.00  0.00    -0.167 F 
ATOM     23  F   UNL     1       0.369   2.495  -7.072  1.00  0.00    -0.167 F 
ATOM     24  F   UNL     1       1.435   1.595  -5.404  1.00  0.00    -0.167 F 
ENDBRANCH  20  21
ENDBRANCH   5   8
ENDBRANCH   3   4
ENDBRANCH   2   3
ENDBRANCH   1   2
BRANCH   1  25
ATOM     25  C   UNL     1      -4.118   3.915 -10.119  1.00  0.00     0.116 C 
BRANCH  25  26
ATOM     26  N   UNL     1      -4.195   2.513 -10.505  1.00  0.00    -0.352 N 
ATOM     27  C   UNL     1      -4.461   1.989 -11.747  1.00  0.00     0.251 C 
ATOM     28  H   UNL     1      -4.037   1.859  -9.786  1.00  0.00     0.163 HD
ATOM     29  O   UNL     1      -4.576   0.779 -11.907  1.00  0.00    -0.269 OA
BRANCH  27  30
ATOM     30  C   UNL     1      -4.651   2.911 -12.882  1.00  0.00     0.039 A 
ATOM     31  C   UNL     1      -5.826   2.824 -13.630  1.00  0.00     0.014 A 
ATOM     32  C   UNL     1      -3.693   3.889 -13.163  1.00  0.00     0.014 A 
ATOM     33  C   UNL     1      -6.078   3.771 -14.623  1.00  0.00     0.010 A 
ATOM     34  C   UNL     1      -3.971   4.864 -14.114  1.00  0.00     0.010 A 
ATOM     35  C   UNL     1      -5.168   4.816 -14.846  1.00  0.00    -0.014 A 
BRANCH  35  36
ATOM     36  C   UNL     1      -5.441   5.878 -15.841  1.00  0.00     0.031 A 
ATOM     37  C   UNL     1      -4.581   5.992 -17.065  1.00  0.00     0.074 A 
ATOM     38  C   UNL     1      -6.410   6.782 -15.604  1.00  0.00     0.049 A 
ATOM     39  N   UNL     1      -4.583   6.915 -17.991  1.00  0.00    -0.248 NA
ATOM     40  C   UNL     1      -3.569   4.941 -17.260  1.00  0.00     0.031 C 
ATOM     41  C   UNL     1      -7.300   6.789 -14.441  1.00  0.00     0.029 A 
ATOM     42  N   UNL     1      -6.801   7.879 -16.329  1.00  0.00    -0.354 N 
ATOM     43  C   UNL     1      -3.564   6.568 -18.868  1.00  0.00     0.074 A 
ATOM     44  C   UNL     1      -2.940   5.373 -18.342  1.00  0.00     0.031 C 
ATOM     45  C   UNL     1      -8.147   7.826 -14.543  1.00  0.00     0.029 A 
ATOM     46  C   UNL     1      -7.833   8.579 -15.753  1.00  0.00     0.049 A 
ATOM     47  H   UNL     1      -6.381   8.140 -17.180  1.00  0.00     0.167 HD
ATOM     48  C   UNL     1      -3.192   7.180 -20.015  1.00  0.00     0.031 A 
ATOM     49  C   UNL     1      -8.451   9.706 -16.152  1.00  0.00     0.031 A 
ATOM     50  C   UNL     1      -3.818   8.363 -20.541  1.00  0.00     0.049 A 
ATOM     51  C   UNL     1      -8.008  10.378 -17.420  1.00  0.00     0.074 A 
ATOM     52  C   UNL     1      -3.533   9.040 -21.714  1.00  0.00     0.029 A 
ATOM     53  N   UNL     1      -4.861   9.040 -19.929  1.00  0.00    -0.354 N 
ATOM     54  N   UNL     1      -7.056  10.026 -18.251  1.00  0.00    -0.248 NA
ATOM     55  C   UNL     1      -8.726  11.600 -17.807  1.00  0.00     0.031 C 
ATOM     56  C   UNL     1      -4.380  10.151 -21.792  1.00  0.00     0.029 A 
ATOM     57  C   UNL     1      -5.223  10.136 -20.692  1.00  0.00     0.049 A 
ATOM     58  H   UNL     1      -5.281   8.780 -19.077  1.00  0.00     0.167 HD
ATOM     59  C   UNL     1      -7.074  10.970 -19.268  1.00  0.00     0.074 A 
ATOM     60  C   UNL     1      -8.140  11.902 -18.958  1.00  0.00     0.031 C 
ATOM     61  C   UNL     1      -6.280  11.056 -20.363  1.00  0.00     0.031 A 
BRANCH  48  62
ATOM     62  C   UNL     1      -2.045   6.578 -20.775  1.00  0.00    -0.014 A 
ATOM     63  C   UNL     1      -2.193   5.367 -21.470  1.00  0.00     0.009 A 
ATOM     64  C   UNL     1      -0.808   7.240 -20.818  1.00  0.00     0.009 A 
ATOM     65  C   UNL     1      -1.117   4.815 -22.166  1.00  0.00     0.001 A 
ATOM     66  C   UNL     1       0.259   6.699 -21.537  1.00  0.00     0.001 A 
ATOM     67  C   UNL     1       0.106   5.484 -22.203  1.00  0.00     0.000 A 
ENDBRANCH  48  62
BRANCH  49  68
ATOM     68  C   UNL     1      -9.574  10.254 -15.351  1.00  0.00    -0.014 A 
ATOM     69  C   UNL     1     -10.894  10.126 -15.806  1.00  0.00     0.009 A 
ATOM     70  C   UNL     1      -9.336  10.885 -14.120  1.00  0.00     0.009 A 
ATOM     71  C   UNL     1     -11.955  10.630 -15.051  1.00  0.00     0.001 A 
ATOM     72  C   UNL     1     -10.401  11.368 -13.356  1.00  0.00     0.001 A 
ATOM     73  C   UNL     1     -11.709  11.245 -13.824  1.00  0.00     0.000 A 
ENDBRANCH  49  68
BRANCH  61  74
ATOM     74  C   UNL     1      -6.548  12.183 -21.319  1.00  0.00    -0.014 A 
ATOM     75  C   UNL     1      -6.172  13.499 -21.011  1.00  0.00     0.009 A 
ATOM     76  C   UNL     1      -7.134  11.913 -22.565  1.00  0.00     0.009 A 
ATOM     77  C   UNL     1      -6.402  14.528 -21.926  1.00  0.00     0.001 A 
ATOM     78  C   UNL     1      -7.340  12.940 -23.486  1.00  0.00     0.001 A 
ATOM     79  C   UNL     1      -6.980  14.247 -23.164  1.00  0.00     0.000 A 
ENDBRANCH  61  74
ENDBRANCH  35  36
ENDBRANCH  27  30
ENDBRANCH  25  26
ENDBRANCH   1  25
TORSDOF 12
