REMARK SMILES CC[C@@H](CNC(=O)NCc1c(C)noc1C)C(=O)NCCCCNC(=O)c1ccc(-c2c3nc(c(-c4ccccc4)c4ccc([nH]4)c(-c4ccccc4)c4nc(c(-c5ccccc5)c5ccc2[nH]5)C=C4)C=C3)cc1
REMARK SMILES IDX 20 1 19 2 17 3 18 4 3 6 2 7 1 8 4 9 5 10 6 11 7 13 8 14 9 16
REMARK SMILES IDX 10 17 11 18 15 19 12 20 13 21 14 22 16 23 21 24 22 25 23 26
REMARK SMILES IDX 24 27 25 28 26 30 27 31 28 32 74 33 29 34 73 35 30 36 31 37
REMARK SMILES IDX 32 38 67 39 33 40 72 41 66 42 68 43 34 44 71 45 65 46 64 47
REMARK SMILES IDX 35 49 57 50 42 51 56 52 43 53 46 54 55 55 69 56 44 57 45 58
REMARK SMILES IDX 54 60 70 61 47 62 36 63 37 64 41 65 38 66 40 67 39 68 58 69
REMARK SMILES IDX 59 70 63 71 60 72 62 73 61 74 48 75 49 76 53 77 50 78 52 79
REMARK SMILES IDX 51 80
REMARK H PARENT 19 5 5 12 8 15 24 29 68 48 46 59
REMARK Flexibility Score: inf
ROOT
ATOM      1  C   UNL     1      -1.975   0.593   2.836  1.00  0.00     0.116 C 
ENDROOT
BRANCH   1   2
ATOM      2  N   UNL     1      -0.809   0.628   3.699  1.00  0.00    -0.356 N 
ATOM      3  C   UNL     1       0.500   0.855   3.404  1.00  0.00     0.224 C 
ATOM      4  O   UNL     1       1.263   1.079   4.350  1.00  0.00    -0.275 OA
ATOM      5  H   UNL     1      -0.994   0.460   4.651  1.00  0.00     0.163 HD
BRANCH   3   6
ATOM      6  C   UNL     1       1.040   0.865   1.976  1.00  0.00     0.097 C 
BRANCH   6   7
ATOM      7  C   UNL     1       0.674  -0.390   1.163  1.00  0.00     0.012 C 
ATOM      8  C   UNL     1       1.308  -0.441  -0.220  1.00  0.00     0.005 C 
ENDBRANCH   6   7
BRANCH   6   9
ATOM      9  C   UNL     1       0.906   2.232   1.287  1.00  0.00     0.131 C 
BRANCH   9  10
ATOM     10  N   UNL     1      -0.411   2.828   1.241  1.00  0.00    -0.337 N 
ATOM     11  C   UNL     1      -1.100   3.632   2.058  1.00  0.00     0.315 C 
ATOM     12  H   UNL     1      -0.912   2.588   0.428  1.00  0.00     0.165 HD
ATOM     13  O   UNL     1      -2.312   3.740   1.857  1.00  0.00    -0.249 OA
ATOM     14  N   UNL     1      -0.585   4.295   3.094  1.00  0.00    -0.334 N 
ATOM     15  H   UNL     1      -1.274   4.588   3.733  1.00  0.00     0.165 HD
BRANCH  14  16
ATOM     16  C   UNL     1       0.748   4.685   3.500  1.00  0.00     0.159 C 
BRANCH  16  17
ATOM     17  C   UNL     1       1.096   5.955   2.812  1.00  0.00     0.037 A 
ATOM     18  C   UNL     1       1.983   6.187   1.720  1.00  0.00     0.086 A 
ATOM     19  C   UNL     1       0.611   7.218   3.095  1.00  0.00     0.138 A 
ATOM     20  C   UNL     1       2.809   5.227   0.955  1.00  0.00     0.071 C 
ATOM     21  N   UNL     1       2.020   7.482   1.384  1.00  0.00    -0.085 NA
ATOM     22  O   UNL     1       1.157   8.122   2.245  1.00  0.00    -0.361 OA
ATOM     23  C   UNL     1      -0.348   7.750   4.082  1.00  0.00     0.091 C 
ENDBRANCH  16  17
ENDBRANCH  14  16
ENDBRANCH   9  10
ENDBRANCH   6   9
ENDBRANCH   3   6
ENDBRANCH   1   2
BRANCH   1  24
ATOM     24  C   UNL     1      -2.751  -0.713   2.940  1.00  0.00     0.023 C 
BRANCH  24  25
ATOM     25  C   UNL     1      -3.539  -0.879   4.238  1.00  0.00     0.023 C 
BRANCH  25  26
ATOM     26  C   UNL     1      -4.457   0.284   4.606  1.00  0.00     0.116 C 
BRANCH  26  27
ATOM     27  N   UNL     1      -5.386   0.652   3.547  1.00  0.00    -0.352 N 
ATOM     28  C   UNL     1      -6.732   0.927   3.631  1.00  0.00     0.251 C 
ATOM     29  H   UNL     1      -4.997   0.713   2.645  1.00  0.00     0.163 HD
ATOM     30  O   UNL     1      -7.395   1.118   2.622  1.00  0.00    -0.269 OA
BRANCH  28  31
ATOM     31  C   UNL     1      -7.380   0.948   4.958  1.00  0.00     0.039 A 
ATOM     32  C   UNL     1      -8.551   0.210   5.146  1.00  0.00     0.014 A 
ATOM     33  C   UNL     1      -6.811   1.657   6.019  1.00  0.00     0.014 A 
ATOM     34  C   UNL     1      -9.105   0.114   6.423  1.00  0.00     0.010 A 
ATOM     35  C   UNL     1      -7.322   1.501   7.302  1.00  0.00     0.010 A 
ATOM     36  C   UNL     1      -8.469   0.722   7.518  1.00  0.00    -0.014 A 
BRANCH  36  37
ATOM     37  C   UNL     1      -8.977   0.539   8.900  1.00  0.00     0.031 A 
ATOM     38  C   UNL     1      -9.481   1.718   9.684  1.00  0.00     0.074 A 
ATOM     39  C   UNL     1      -8.911  -0.677   9.478  1.00  0.00     0.049 A 
ATOM     40  N   UNL     1      -9.898   1.766  10.923  1.00  0.00    -0.248 NA
ATOM     41  C   UNL     1      -9.491   3.018   8.993  1.00  0.00     0.031 C 
ATOM     42  C   UNL     1      -8.394  -1.893   8.844  1.00  0.00     0.029 A 
ATOM     43  N   UNL     1      -9.274  -1.088  10.736  1.00  0.00    -0.354 N 
ATOM     44  C   UNL     1     -10.196   3.101  11.167  1.00  0.00     0.074 A 
ATOM     45  C   UNL     1      -9.872   3.835   9.964  1.00  0.00     0.031 C 
ATOM     46  C   UNL     1      -8.497  -2.916   9.708  1.00  0.00     0.029 A 
ATOM     47  C   UNL     1      -9.052  -2.424  10.964  1.00  0.00     0.049 A 
ATOM     48  H   UNL     1      -9.658  -0.482  11.411  1.00  0.00     0.167 HD
ATOM     49  C   UNL     1     -10.711   3.663  12.286  1.00  0.00     0.031 A 
ATOM     50  C   UNL     1      -9.268  -3.170  12.063  1.00  0.00     0.031 A 
ATOM     51  C   UNL     1     -11.055   2.932  13.476  1.00  0.00     0.049 A 
ATOM     52  C   UNL     1      -9.856  -2.526  13.287  1.00  0.00     0.074 A 
ATOM     53  C   UNL     1     -11.646   3.402  14.636  1.00  0.00     0.029 A 
ATOM     54  N   UNL     1     -10.840   1.575  13.656  1.00  0.00    -0.354 N 
ATOM     55  N   UNL     1     -10.199  -1.275  13.477  1.00  0.00    -0.248 NA
ATOM     56  C   UNL     1     -10.098  -3.401  14.443  1.00  0.00     0.031 C 
ATOM     57  C   UNL     1     -11.751   2.336  15.535  1.00  0.00     0.029 A 
ATOM     58  C   UNL     1     -11.269   1.194  14.917  1.00  0.00     0.049 A 
ATOM     59  H   UNL     1     -10.442   0.971  12.988  1.00  0.00     0.167 HD
ATOM     60  C   UNL     1     -10.719  -1.217  14.763  1.00  0.00     0.074 A 
ATOM     61  C   UNL     1     -10.661  -2.561  15.301  1.00  0.00     0.031 C 
ATOM     62  C   UNL     1     -11.203  -0.146  15.437  1.00  0.00     0.031 A 
BRANCH  49  63
ATOM     63  C   UNL     1     -10.932   5.149  12.272  1.00  0.00    -0.014 A 
ATOM     64  C   UNL     1     -11.954   5.725  11.501  1.00  0.00     0.009 A 
ATOM     65  C   UNL     1     -10.127   5.981  13.065  1.00  0.00     0.009 A 
ATOM     66  C   UNL     1     -12.141   7.108  11.495  1.00  0.00     0.001 A 
ATOM     67  C   UNL     1     -10.335   7.362  13.079  1.00  0.00     0.001 A 
ATOM     68  C   UNL     1     -11.335   7.925  12.287  1.00  0.00     0.000 A 
ENDBRANCH  49  63
BRANCH  50  69
ATOM     69  C   UNL     1      -8.947  -4.620  12.052  1.00  0.00    -0.014 A 
ATOM     70  C   UNL     1      -9.975  -5.575  12.019  1.00  0.00     0.009 A 
ATOM     71  C   UNL     1      -7.614  -5.058  12.074  1.00  0.00     0.009 A 
ATOM     72  C   UNL     1      -9.675  -6.939  12.035  1.00  0.00     0.001 A 
ATOM     73  C   UNL     1      -7.316  -6.422  12.064  1.00  0.00     0.001 A 
ATOM     74  C   UNL     1      -8.347  -7.361  12.054  1.00  0.00     0.000 A 
ENDBRANCH  50  69
BRANCH  62  75
ATOM     75  C   UNL     1     -11.736  -0.390  16.819  1.00  0.00    -0.014 A 
ATOM     76  C   UNL     1     -10.873  -0.632  17.899  1.00  0.00     0.009 A 
ATOM     77  C   UNL     1     -13.119  -0.336  17.050  1.00  0.00     0.009 A 
ATOM     78  C   UNL     1     -11.389  -0.845  19.179  1.00  0.00     0.001 A 
ATOM     79  C   UNL     1     -13.630  -0.523  18.334  1.00  0.00     0.001 A 
ATOM     80  C   UNL     1     -12.766  -0.785  19.396  1.00  0.00     0.000 A 
ENDBRANCH  62  75
ENDBRANCH  36  37
ENDBRANCH  28  31
ENDBRANCH  26  27
ENDBRANCH  25  26
ENDBRANCH  24  25
ENDBRANCH   1  24
TORSDOF 16
