REMARK SMILES CC1(C)[C@H](C(=O)NCCCCNC(=O)c2ccc(-c3c4nc(c(-c5ccccc5)c5ccc([nH]5)c(-c5ccccc5)c5nc(c(-c6ccccc6)c6ccc3[nH]6)C=C5)C=C4)cc2)[C@@H]1c1nc2ccc(F)cc2s1
REMARK SMILES IDX 10 1 9 2 8 3 7 4 5 5 6 6 4 8 1 9 2 10 3 11 63 12 64 13 65 14
REMARK SMILES IDX 73 15 66 16 72 17 67 18 71 19 68 20 69 21 70 22 11 23 12 24
REMARK SMILES IDX 13 25 14 27 15 28 16 29 62 30 17 31 61 32 18 33 19 34 20 35
REMARK SMILES IDX 55 36 21 37 60 38 54 39 56 40 22 41 59 42 53 43 52 44 23 46
REMARK SMILES IDX 45 47 30 48 44 49 31 50 34 51 43 52 57 53 32 54 33 55 42 57
REMARK SMILES IDX 58 58 35 59 24 60 25 61 29 62 26 63 28 64 27 65 46 66 47 67
REMARK SMILES IDX 51 68 48 69 50 70 49 71 36 72 37 73 41 74 38 75 40 76 39 77
REMARK H PARENT 7 7 12 26 56 45 34 56
REMARK Flexibility Score: inf
ROOT
ATOM      1  C   UNL     1      -0.476   5.228  -1.887  1.00  0.00     0.023 C 
ENDROOT
BRANCH   1   2
ATOM      2  C   UNL     1       0.048   4.038  -1.092  1.00  0.00     0.023 C 
BRANCH   2   3
ATOM      3  C   UNL     1      -1.028   3.095  -0.565  1.00  0.00     0.116 C 
BRANCH   3   4
ATOM      4  N   UNL     1      -1.463   2.131  -1.536  1.00  0.00    -0.356 N 
ATOM      5  C   UNL     1      -1.508   0.765  -1.546  1.00  0.00     0.224 C 
ATOM      6  O   UNL     1      -1.966   0.271  -2.579  1.00  0.00    -0.275 OA
ATOM      7  H   UNL     1      -1.799   2.538  -2.367  1.00  0.00     0.163 HD
BRANCH   5   8
ATOM      8  C   UNL     1      -1.071  -0.195  -0.494  1.00  0.00     0.095 C 
ATOM      9  C   UNL     1       0.947  -1.577   0.313  1.00  0.00     0.013 C 
ATOM     10  C   UNL     1       0.255  -0.227   0.285  1.00  0.00    -0.013 C 
ATOM     11  C   UNL     1       1.247   0.897   0.150  1.00  0.00     0.013 C 
ATOM     12  C   UNL     1      -1.086  -0.130   1.000  1.00  0.00     0.068 C 
BRANCH  12  13
ATOM     13  C   UNL     1      -1.754   0.986   1.781  1.00  0.00     0.098 A 
ATOM     14  N   UNL     1      -3.067   1.040   1.788  1.00  0.00    -0.241 NA
ATOM     15  S   UNL     1      -0.972   2.105   2.817  1.00  0.00    -0.118 S 
ATOM     16  C   UNL     1      -3.488   2.172   2.456  1.00  0.00     0.082 A 
ATOM     17  C   UNL     1      -2.468   2.944   3.021  1.00  0.00     0.057 A 
ATOM     18  C   UNL     1      -4.823   2.609   2.575  1.00  0.00     0.033 A 
ATOM     19  C   UNL     1      -2.729   4.176   3.639  1.00  0.00     0.060 A 
ATOM     20  C   UNL     1      -5.097   3.830   3.196  1.00  0.00     0.041 A 
ATOM     21  C   UNL     1      -4.057   4.600   3.698  1.00  0.00     0.124 A 
ATOM     22  F   UNL     1      -4.338   5.783   4.258  1.00  0.00    -0.207 F 
ENDBRANCH  12  13
ENDBRANCH   5   8
ENDBRANCH   3   4
ENDBRANCH   2   3
ENDBRANCH   1   2
BRANCH   1  23
ATOM     23  C   UNL     1      -1.492   6.104  -1.161  1.00  0.00     0.116 C 
BRANCH  23  24
ATOM     24  N   UNL     1      -1.046   6.572   0.145  1.00  0.00    -0.352 N 
ATOM     25  C   UNL     1      -1.116   7.840   0.682  1.00  0.00     0.251 C 
ATOM     26  H   UNL     1      -0.638   5.888   0.724  1.00  0.00     0.163 HD
ATOM     27  O   UNL     1      -0.633   8.089   1.773  1.00  0.00    -0.269 OA
BRANCH  25  28
ATOM     28  C   UNL     1      -1.744   8.908  -0.123  1.00  0.00     0.039 A 
ATOM     29  C   UNL     1      -0.995  10.047  -0.430  1.00  0.00     0.014 A 
ATOM     30  C   UNL     1      -3.018   8.723  -0.663  1.00  0.00     0.014 A 
ATOM     31  C   UNL     1      -1.480  10.948  -1.379  1.00  0.00     0.010 A 
ATOM     32  C   UNL     1      -3.467   9.584  -1.657  1.00  0.00     0.010 A 
ATOM     33  C   UNL     1      -2.688  10.686  -2.045  1.00  0.00    -0.014 A 
BRANCH  33  34
ATOM     34  C   UNL     1      -3.132  11.505  -3.199  1.00  0.00     0.031 A 
ATOM     35  C   UNL     1      -4.409  12.288  -3.123  1.00  0.00     0.074 A 
ATOM     36  C   UNL     1      -2.441  11.451  -4.355  1.00  0.00     0.049 A 
ATOM     37  N   UNL     1      -5.029  12.947  -4.068  1.00  0.00    -0.248 NA
ATOM     38  C   UNL     1      -5.093  12.311  -1.820  1.00  0.00     0.031 C 
ATOM     39  C   UNL     1      -1.205  10.695  -4.574  1.00  0.00     0.029 A 
ATOM     40  N   UNL     1      -2.694  12.031  -5.574  1.00  0.00    -0.354 N 
ATOM     41  C   UNL     1      -6.186  13.443  -3.482  1.00  0.00     0.074 A 
ATOM     42  C   UNL     1      -6.199  12.979  -2.111  1.00  0.00     0.031 C 
ATOM     43  C   UNL     1      -0.800  10.872  -5.842  1.00  0.00     0.029 A 
ATOM     44  C   UNL     1      -1.768  11.713  -6.537  1.00  0.00     0.049 A 
ATOM     45  H   UNL     1      -3.466  12.618  -5.741  1.00  0.00     0.167 HD
ATOM     46  C   UNL     1      -7.145  14.224  -4.032  1.00  0.00     0.031 A 
ATOM     47  C   UNL     1      -1.712  12.046  -7.840  1.00  0.00     0.031 A 
ATOM     48  C   UNL     1      -7.126  14.699  -5.388  1.00  0.00     0.049 A 
ATOM     49  C   UNL     1      -2.802  12.890  -8.434  1.00  0.00     0.074 A 
ATOM     50  C   UNL     1      -8.013  15.558  -6.013  1.00  0.00     0.029 A 
ATOM     51  N   UNL     1      -6.171  14.352  -6.331  1.00  0.00    -0.354 N 
ATOM     52  N   UNL     1      -3.859  13.400  -7.850  1.00  0.00    -0.248 NA
ATOM     53  C   UNL     1      -2.694  13.199  -9.867  1.00  0.00     0.031 C 
ATOM     54  C   UNL     1      -7.618  15.698  -7.348  1.00  0.00     0.029 A 
ATOM     55  C   UNL     1      -6.465  14.956  -7.542  1.00  0.00     0.049 A 
ATOM     56  H   UNL     1      -5.400  13.764  -6.165  1.00  0.00     0.167 HD
ATOM     57  C   UNL     1      -4.534  14.101  -8.839  1.00  0.00     0.074 A 
ATOM     58  C   UNL     1      -3.762  13.962 -10.057  1.00  0.00     0.031 C 
ATOM     59  C   UNL     1      -5.692  14.798  -8.746  1.00  0.00     0.031 A 
BRANCH  46  60
ATOM     60  C   UNL     1      -8.303  14.605  -3.157  1.00  0.00    -0.014 A 
ATOM     61  C   UNL     1      -8.152  15.546  -2.127  1.00  0.00     0.009 A 
ATOM     62  C   UNL     1      -9.564  14.034  -3.380  1.00  0.00     0.009 A 
ATOM     63  C   UNL     1      -9.236  15.881  -1.313  1.00  0.00     0.001 A 
ATOM     64  C   UNL     1     -10.652  14.388  -2.580  1.00  0.00     0.001 A 
ATOM     65  C   UNL     1     -10.484  15.304  -1.542  1.00  0.00     0.000 A 
ENDBRANCH  46  60
BRANCH  47  66
ATOM     66  C   UNL     1      -0.580  11.575  -8.678  1.00  0.00    -0.014 A 
ATOM     67  C   UNL     1       0.429  12.469  -9.068  1.00  0.00     0.009 A 
ATOM     68  C   UNL     1      -0.501  10.236  -9.089  1.00  0.00     0.009 A 
ATOM     69  C   UNL     1       1.488  12.033  -9.867  1.00  0.00     0.001 A 
ATOM     70  C   UNL     1       0.571   9.799  -9.870  1.00  0.00     0.001 A 
ATOM     71  C   UNL     1       1.560  10.698 -10.264  1.00  0.00     0.000 A 
ENDBRANCH  47  66
BRANCH  59  72
ATOM     72  C   UNL     1      -6.187  15.472  -9.991  1.00  0.00    -0.014 A 
ATOM     73  C   UNL     1      -6.816  14.737 -11.006  1.00  0.00     0.009 A 
ATOM     74  C   UNL     1      -6.064  16.863 -10.128  1.00  0.00     0.009 A 
ATOM     75  C   UNL     1      -7.296  15.382 -12.147  1.00  0.00     0.001 A 
ATOM     76  C   UNL     1      -6.564  17.507 -11.260  1.00  0.00     0.001 A 
ATOM     77  C   UNL     1      -7.175  16.766 -12.271  1.00  0.00     0.000 A 
ENDBRANCH  59  72
ENDBRANCH  33  34
ENDBRANCH  25  28
ENDBRANCH  23  24
ENDBRANCH   1  23
TORSDOF 12
