REMARK SMILES Cc1ccc(-c2c(C)sc(NC(=O)[C@H]3CC=CC[C@H]3C(=O)NCCCCNC(=O)c3ccc(-c4c5nc(c(-c6ccccc6)c6ccc([nH]6)c(-c6ccccc6)c6nc(c(-c7ccccc7)c7ccc4[nH]7)C=C6)C=C5)cc3)c2C(N)=O)cc1
REMARK SMILES IDX 24 1 23 2 22 3 20 4 21 5 19 7 14 8 15 9 16 10 18 11 17 12
REMARK SMILES IDX 12 13 11 14 13 16 10 17 6 18 7 19 78 20 8 21 9 22 5 23 1 24
REMARK SMILES IDX 2 25 3 26 83 27 4 28 82 29 79 30 80 31 81 32 25 35 26 36
REMARK SMILES IDX 27 37 28 38 29 40 30 41 31 42 77 43 32 44 76 45 33 46 34 47
REMARK SMILES IDX 35 48 70 49 36 50 75 51 69 52 71 53 37 54 74 55 68 56 67 57
REMARK SMILES IDX 38 59 60 60 45 61 59 62 46 63 49 64 58 65 72 66 47 67 48 68
REMARK SMILES IDX 57 70 73 71 50 72 39 73 40 74 44 75 41 76 43 77 42 78 61 79
REMARK SMILES IDX 62 80 66 81 63 82 65 83 64 84 51 85 52 86 56 87 53 88 55 89
REMARK SMILES IDX 54 90
REMARK H PARENT 22 6 11 15 80 33 80 34 27 39 71 58 49 69
REMARK Flexibility Score: inf
ROOT
ATOM      1  C   UNL     1      -8.601  -2.320   2.660  1.00  0.00     0.023 C 
ENDROOT
BRANCH   1   2
ATOM      2  C   UNL     1      -7.896  -2.877   1.417  1.00  0.00     0.116 C 
BRANCH   2   3
ATOM      3  N   UNL     1      -8.816  -2.997   0.319  1.00  0.00    -0.356 N 
ATOM      4  C   UNL     1      -9.139  -2.128  -0.659  1.00  0.00     0.224 C 
ATOM      5  O   UNL     1     -10.144  -2.419  -1.320  1.00  0.00    -0.275 OA
ATOM      6  H   UNL     1      -9.289  -3.859   0.274  1.00  0.00     0.163 HD
BRANCH   4   7
ATOM      7  C   UNL     1      -8.314  -0.904  -1.036  1.00  0.00     0.095 C 
ATOM      8  C   UNL     1      -8.311   0.383  -0.188  1.00  0.00     0.095 C 
ATOM      9  C   UNL     1      -8.000   1.572  -1.125  1.00  0.00     0.041 C 
ATOM     10  C   UNL     1      -7.024   1.245  -2.238  1.00  0.00    -0.030 C 
ATOM     11  C   UNL     1      -6.975  -1.204  -1.697  1.00  0.00     0.041 C 
ATOM     12  C   UNL     1      -6.523   0.015  -2.460  1.00  0.00    -0.030 C 
BRANCH   8  13
ATOM     13  C   UNL     1      -7.651   0.491   1.215  1.00  0.00     0.229 C 
ATOM     14  N   UNL     1      -6.378   0.196   1.607  1.00  0.00    -0.317 N 
ATOM     15  H   UNL     1      -6.318  -0.204   2.504  1.00  0.00     0.170 HD
ATOM     16  O   UNL     1      -8.391   0.820   2.160  1.00  0.00    -0.274 OA
BRANCH  14  17
ATOM     17  C   UNL     1      -5.157   0.354   0.980  1.00  0.00     0.109 A 
ATOM     18  C   UNL     1      -2.925   0.344   0.285  1.00  0.00     0.010 A 
ATOM     19  C   UNL     1      -3.527   1.202  -0.623  1.00  0.00     0.012 A 
ATOM     20  C   UNL     1      -3.893  -0.172   1.262  1.00  0.00     0.082 A 
ATOM     21  C   UNL     1      -3.059   1.775  -1.920  1.00  0.00     0.057 C 
ATOM     22  S   UNL     1      -4.994   1.745   0.025  1.00  0.00    -0.122 S 
BRANCH  18  23
ATOM     23  C   UNL     1      -1.480   0.133   0.208  1.00  0.00    -0.016 A 
ATOM     24  C   UNL     1       2.807  -0.259  -0.089  1.00  0.00     0.044 C 
ATOM     25  C   UNL     1       1.316  -0.121  -0.003  1.00  0.00    -0.051 A 
ATOM     26  C   UNL     1       0.484  -1.246  -0.109  1.00  0.00     0.004 A 
ATOM     27  C   UNL     1       0.740   1.130   0.223  1.00  0.00     0.004 A 
ATOM     28  C   UNL     1      -0.909  -1.121  -0.012  1.00  0.00     0.009 A 
ATOM     29  C   UNL     1      -0.642   1.252   0.338  1.00  0.00     0.009 A 
ENDBRANCH  18  23
BRANCH  20  30
ATOM     30  C   UNL     1      -3.539  -1.090   2.356  1.00  0.00     0.252 C 
ATOM     31  N   UNL     1      -4.564  -1.688   3.042  1.00  0.00    -0.365 N 
ATOM     32  O   UNL     1      -2.400  -1.353   2.693  1.00  0.00    -0.269 OA
ATOM     33  H   UNL     1      -5.498  -1.498   2.795  1.00  0.00     0.159 HD
ATOM     34  H   UNL     1      -4.366  -2.309   3.780  1.00  0.00     0.159 HD
ENDBRANCH  20  30
ENDBRANCH  14  17
ENDBRANCH   8  13
ENDBRANCH   4   7
ENDBRANCH   2   3
ENDBRANCH   1   2
BRANCH   1  35
ATOM     35  C   UNL     1      -9.735  -3.170   3.235  1.00  0.00     0.023 C 
BRANCH  35  36
ATOM     36  C   UNL     1      -9.290  -4.521   3.749  1.00  0.00     0.116 C 
BRANCH  36  37
ATOM     37  N   UNL     1      -8.729  -4.519   5.088  1.00  0.00    -0.352 N 
ATOM     38  C   UNL     1      -8.114  -5.542   5.788  1.00  0.00     0.251 C 
ATOM     39  H   UNL     1      -8.795  -3.663   5.570  1.00  0.00     0.163 HD
ATOM     40  O   UNL     1      -7.840  -5.369   6.974  1.00  0.00    -0.269 OA
BRANCH  38  41
ATOM     41  C   UNL     1      -7.629  -6.767   5.092  1.00  0.00     0.039 A 
ATOM     42  C   UNL     1      -6.440  -7.346   5.558  1.00  0.00     0.014 A 
ATOM     43  C   UNL     1      -8.153  -7.182   3.874  1.00  0.00     0.014 A 
ATOM     44  C   UNL     1      -5.643  -8.076   4.682  1.00  0.00     0.010 A 
ATOM     45  C   UNL     1      -7.313  -7.771   2.960  1.00  0.00     0.010 A 
ATOM     46  C   UNL     1      -6.030  -8.148   3.351  1.00  0.00    -0.014 A 
BRANCH  46  47
ATOM     47  C   UNL     1      -5.154  -8.545   2.267  1.00  0.00     0.031 A 
ATOM     48  C   UNL     1      -5.266  -9.896   1.709  1.00  0.00     0.074 A 
ATOM     49  C   UNL     1      -4.372  -7.609   1.691  1.00  0.00     0.049 A 
ATOM     50  N   UNL     1      -4.344 -10.471   1.021  1.00  0.00    -0.248 NA
ATOM     51  C   UNL     1      -6.436 -10.735   1.934  1.00  0.00     0.031 C 
ATOM     52  C   UNL     1      -3.668  -7.672   0.414  1.00  0.00     0.029 A 
ATOM     53  N   UNL     1      -3.887  -6.447   2.295  1.00  0.00    -0.354 N 
ATOM     54  C   UNL     1      -4.907 -11.586   0.450  1.00  0.00     0.074 A 
ATOM     55  C   UNL     1      -6.162 -11.772   1.140  1.00  0.00     0.031 C 
ATOM     56  C   UNL     1      -2.666  -6.775   0.430  1.00  0.00     0.029 A 
ATOM     57  C   UNL     1      -2.588  -6.254   1.786  1.00  0.00     0.049 A 
ATOM     58  H   UNL     1      -4.358  -5.878   2.945  1.00  0.00     0.167 HD
ATOM     59  C   UNL     1      -4.320 -12.124  -0.655  1.00  0.00     0.031 A 
ATOM     60  C   UNL     1      -1.506  -6.399   2.609  1.00  0.00     0.031 A 
ATOM     61  C   UNL     1      -3.055 -11.451  -0.970  1.00  0.00     0.049 A 
ATOM     62  C   UNL     1      -0.551  -7.505   2.195  1.00  0.00     0.074 A 
ATOM     63  C   UNL     1      -2.675 -10.524  -1.927  1.00  0.00     0.029 A 
ATOM     64  N   UNL     1      -2.036 -11.465  -0.025  1.00  0.00    -0.354 N 
ATOM     65  N   UNL     1      -0.813  -8.436   1.319  1.00  0.00    -0.248 NA
ATOM     66  C   UNL     1       0.750  -7.692   2.827  1.00  0.00     0.031 C 
ATOM     67  C   UNL     1      -1.423  -9.967  -1.534  1.00  0.00     0.029 A 
ATOM     68  C   UNL     1      -1.030 -10.576  -0.357  1.00  0.00     0.049 A 
ATOM     69  H   UNL     1      -2.031 -12.035   0.778  1.00  0.00     0.167 HD
ATOM     70  C   UNL     1       0.210  -9.354   1.290  1.00  0.00     0.074 A 
ATOM     71  C   UNL     1       1.164  -8.836   2.256  1.00  0.00     0.031 C 
ATOM     72  C   UNL     1       0.147 -10.477   0.506  1.00  0.00     0.031 A 
BRANCH  59  73
ATOM     73  C   UNL     1      -5.032 -13.063  -1.603  1.00  0.00    -0.014 A 
ATOM     74  C   UNL     1      -4.587 -13.173  -2.932  1.00  0.00     0.009 A 
ATOM     75  C   UNL     1      -6.174 -13.818  -1.281  1.00  0.00     0.009 A 
ATOM     76  C   UNL     1      -5.290 -13.913  -3.895  1.00  0.00     0.001 A 
ATOM     77  C   UNL     1      -6.902 -14.533  -2.242  1.00  0.00     0.001 A 
ATOM     78  C   UNL     1      -6.464 -14.572  -3.556  1.00  0.00     0.000 A 
ENDBRANCH  59  73
BRANCH  60  79
ATOM     79  C   UNL     1      -1.798  -6.052   4.035  1.00  0.00    -0.014 A 
ATOM     80  C   UNL     1      -2.210  -4.739   4.348  1.00  0.00     0.009 A 
ATOM     81  C   UNL     1      -2.023  -7.063   4.980  1.00  0.00     0.009 A 
ATOM     82  C   UNL     1      -2.950  -4.478   5.507  1.00  0.00     0.001 A 
ATOM     83  C   UNL     1      -2.743  -6.791   6.151  1.00  0.00     0.001 A 
ATOM     84  C   UNL     1      -3.245  -5.513   6.390  1.00  0.00     0.000 A 
ENDBRANCH  60  79
BRANCH  72  85
ATOM     85  C   UNL     1       1.135 -11.637   0.475  1.00  0.00    -0.014 A 
ATOM     86  C   UNL     1       2.411 -11.639   1.047  1.00  0.00     0.009 A 
ATOM     87  C   UNL     1       0.768 -12.832  -0.193  1.00  0.00     0.009 A 
ATOM     88  C   UNL     1       3.228 -12.783   1.033  1.00  0.00     0.001 A 
ATOM     89  C   UNL     1       1.574 -13.974  -0.215  1.00  0.00     0.001 A 
ATOM     90  C   UNL     1       2.804 -13.954   0.417  1.00  0.00     0.000 A 
ENDBRANCH  72  85
ENDBRANCH  46  47
ENDBRANCH  38  41
ENDBRANCH  36  37
ENDBRANCH  35  36
ENDBRANCH   1  35
TORSDOF 15
