REMARK SMILES Cc1nc2cc(SCC(=O)NCCCCNC(=O)c3ccc(-c4c5nc(c(-c6ccccc6)c6ccc([nH]6)c(-c6ccccc6)c6nc(c(-c7ccccc7)c7ccc4[nH]7)C=C6)C=C5)cc3)ccc2s1
REMARK SMILES IDX 13 1 12 2 11 3 9 4 10 5 8 7 7 8 6 9 1 10 2 11 3 12 70 13
REMARK SMILES IDX 4 14 69 15 5 16 68 17 67 18 14 19 15 20 16 21 17 22 18 24
REMARK SMILES IDX 19 25 20 26 66 27 21 28 65 29 22 30 23 31 24 32 59 33 25 34
REMARK SMILES IDX 64 35 58 36 60 37 26 38 63 39 57 40 56 41 27 43 49 44 34 45
REMARK SMILES IDX 48 46 35 47 38 48 47 49 61 50 36 51 37 52 46 54 62 55 39 56
REMARK SMILES IDX 28 57 29 58 33 59 30 60 32 61 31 62 50 63 51 64 55 65 52 66
REMARK SMILES IDX 54 67 53 68 40 69 41 70 45 71 42 72 44 73 43 74
REMARK H PARENT 11 6 16 23 60 42 38 53
REMARK Flexibility Score: inf
ROOT
ATOM      1  C   UNL     1       4.707   2.325   3.280  1.00  0.00     0.023 C 
ENDROOT
BRANCH   1   2
ATOM      2  C   UNL     1       5.961   1.784   2.593  1.00  0.00     0.116 C 
BRANCH   2   3
ATOM      3  N   UNL     1       5.856   0.359   2.348  1.00  0.00    -0.355 N 
ATOM      4  C   UNL     1       5.652  -0.308   1.178  1.00  0.00     0.230 C 
ATOM      5  O   UNL     1       5.556  -1.538   1.233  1.00  0.00    -0.274 OA
ATOM      6  H   UNL     1       5.947  -0.211   3.146  1.00  0.00     0.163 HD
BRANCH   4   7
ATOM      7  C   UNL     1       5.644   0.414  -0.156  1.00  0.00     0.174 C 
BRANCH   7   8
ATOM      8  S   UNL     1       4.274   1.590  -0.381  1.00  0.00    -0.116 SA
BRANCH   8   9
ATOM      9  C   UNL     1       2.777   0.629  -0.228  1.00  0.00     0.010 A 
ATOM     10  C   UNL     1      -3.306   0.768   0.059  1.00  0.00     0.079 C 
ATOM     11  C   UNL     1      -1.853   0.448   0.046  1.00  0.00     0.091 A 
ATOM     12  N   UNL     1      -0.897   1.350   0.016  1.00  0.00    -0.241 NA
ATOM     13  S   UNL     1      -1.335  -1.188   0.057  1.00  0.00    -0.119 S 
ATOM     14  C   UNL     1       0.337   0.725  -0.048  1.00  0.00     0.083 A 
ATOM     15  C   UNL     1       0.303  -0.669  -0.044  1.00  0.00     0.055 A 
ATOM     16  C   UNL     1       1.587   1.371  -0.129  1.00  0.00     0.045 A 
ATOM     17  C   UNL     1       1.475  -1.433  -0.126  1.00  0.00     0.022 A 
ATOM     18  C   UNL     1       2.703  -0.763  -0.237  1.00  0.00     0.016 A 
ENDBRANCH   8   9
ENDBRANCH   7   8
ENDBRANCH   4   7
ENDBRANCH   2   3
ENDBRANCH   1   2
BRANCH   1  19
ATOM     19  C   UNL     1       4.444   1.752   4.677  1.00  0.00     0.023 C 
BRANCH  19  20
ATOM     20  C   UNL     1       5.586   1.909   5.675  1.00  0.00     0.116 C 
BRANCH  20  21
ATOM     21  N   UNL     1       5.962   3.296   5.893  1.00  0.00    -0.352 N 
ATOM     22  C   UNL     1       6.196   3.962   7.070  1.00  0.00     0.251 C 
ATOM     23  H   UNL     1       6.062   3.837   5.077  1.00  0.00     0.163 HD
ATOM     24  O   UNL     1       6.373   5.179   7.060  1.00  0.00    -0.269 OA
BRANCH  22  25
ATOM     25  C   UNL     1       6.206   3.231   8.355  1.00  0.00     0.039 A 
ATOM     26  C   UNL     1       5.549   3.796   9.451  1.00  0.00     0.014 A 
ATOM     27  C   UNL     1       6.861   2.003   8.489  1.00  0.00     0.014 A 
ATOM     28  C   UNL     1       5.498   3.103  10.663  1.00  0.00     0.010 A 
ATOM     29  C   UNL     1       6.745   1.280   9.675  1.00  0.00     0.010 A 
ATOM     30  C   UNL     1       6.065   1.823  10.775  1.00  0.00    -0.014 A 
BRANCH  30  31
ATOM     31  C   UNL     1       5.947   1.045  12.035  1.00  0.00     0.031 A 
ATOM     32  C   UNL     1       7.172   0.686  12.831  1.00  0.00     0.074 A 
ATOM     33  C   UNL     1       4.734   0.623  12.444  1.00  0.00     0.049 A 
ATOM     34  N   UNL     1       7.261   0.004  13.946  1.00  0.00    -0.248 NA
ATOM     35  C   UNL     1       8.468   1.130  12.294  1.00  0.00     0.031 C 
ATOM     36  C   UNL     1       3.471   0.866  11.743  1.00  0.00     0.029 A 
ATOM     37  N   UNL     1       4.365  -0.100  13.551  1.00  0.00    -0.354 N 
ATOM     38  C   UNL     1       8.618  -0.070  14.236  1.00  0.00     0.074 A 
ATOM     39  C   UNL     1       9.318   0.587  13.153  1.00  0.00     0.031 C 
ATOM     40  C   UNL     1       2.464   0.334  12.455  1.00  0.00     0.029 A 
ATOM     41  C   UNL     1       3.012  -0.322  13.638  1.00  0.00     0.049 A 
ATOM     42  H   UNL     1       5.009  -0.428  14.220  1.00  0.00     0.167 HD
ATOM     43  C   UNL     1       9.228  -0.617  15.315  1.00  0.00     0.031 A 
ATOM     44  C   UNL     1       2.291  -0.981  14.565  1.00  0.00     0.031 A 
ATOM     45  C   UNL     1       8.534  -1.268  16.394  1.00  0.00     0.049 A 
ATOM     46  C   UNL     1       2.994  -1.597  15.742  1.00  0.00     0.074 A 
ATOM     47  C   UNL     1       9.060  -1.805  17.557  1.00  0.00     0.029 A 
ATOM     48  N   UNL     1       7.165  -1.479  16.441  1.00  0.00    -0.354 N 
ATOM     49  N   UNL     1       4.271  -1.591  16.040  1.00  0.00    -0.248 NA
ATOM     50  C   UNL     1       2.151  -2.300  16.719  1.00  0.00     0.031 C 
ATOM     51  C   UNL     1       8.016  -2.392  18.279  1.00  0.00     0.029 A 
ATOM     52  C   UNL     1       6.831  -2.164  17.598  1.00  0.00     0.049 A 
ATOM     53  H   UNL     1       6.525  -1.185  15.753  1.00  0.00     0.167 HD
ATOM     54  C   UNL     1       4.381  -2.265  17.249  1.00  0.00     0.074 A 
ATOM     55  C   UNL     1       3.039  -2.645  17.640  1.00  0.00     0.031 C 
ATOM     56  C   UNL     1       5.494  -2.545  17.971  1.00  0.00     0.031 A 
BRANCH  43  57
ATOM     57  C   UNL     1      10.729  -0.539  15.374  1.00  0.00    -0.014 A 
ATOM     58  C   UNL     1      11.389   0.686  15.569  1.00  0.00     0.009 A 
ATOM     59  C   UNL     1      11.495  -1.710  15.269  1.00  0.00     0.009 A 
ATOM     60  C   UNL     1      12.784   0.740  15.618  1.00  0.00     0.001 A 
ATOM     61  C   UNL     1      12.888  -1.657  15.350  1.00  0.00     0.001 A 
ATOM     62  C   UNL     1      13.531  -0.432  15.513  1.00  0.00     0.000 A 
ENDBRANCH  43  57
BRANCH  44  63
ATOM     63  C   UNL     1       0.814  -1.084  14.427  1.00  0.00    -0.014 A 
ATOM     64  C   UNL     1      -0.034  -0.402  15.313  1.00  0.00     0.009 A 
ATOM     65  C   UNL     1       0.244  -1.875  13.417  1.00  0.00     0.009 A 
ATOM     66  C   UNL     1      -1.421  -0.535  15.210  1.00  0.00     0.001 A 
ATOM     67  C   UNL     1      -1.143  -1.980  13.297  1.00  0.00     0.001 A 
ATOM     68  C   UNL     1      -1.974  -1.320  14.200  1.00  0.00     0.000 A 
ENDBRANCH  44  63
BRANCH  56  69
ATOM     69  C   UNL     1       5.301  -3.274  19.272  1.00  0.00    -0.014 A 
ATOM     70  C   UNL     1       4.916  -4.624  19.303  1.00  0.00     0.009 A 
ATOM     71  C   UNL     1       5.533  -2.606  20.485  1.00  0.00     0.009 A 
ATOM     72  C   UNL     1       4.726  -5.276  20.524  1.00  0.00     0.001 A 
ATOM     73  C   UNL     1       5.375  -3.270  21.702  1.00  0.00     0.001 A 
ATOM     74  C   UNL     1       4.961  -4.600  21.721  1.00  0.00     0.000 A 
ENDBRANCH  56  69
ENDBRANCH  30  31
ENDBRANCH  22  25
ENDBRANCH  20  21
ENDBRANCH  19  20
ENDBRANCH   1  19
TORSDOF 13
