REMARK SMILES CC(=O)Oc1cc(CCC(=O)NCCCCNC(=O)c2ccc(-c3c4nc(c(-c5ccccc5)c5ccc([nH]5)c(-c5ccccc5)c5nc(c(-c6ccccc6)c6ccc3[nH]6)C=C5)C=C4)cc2)c(OC(C)=O)c2c1C(=O)c1ccccc1C2=O
REMARK SMILES IDX 13 1 12 2 10 3 11 4 9 6 8 7 7 8 5 9 6 10 74 11 73 12 75 13
REMARK SMILES IDX 68 14 83 15 76 16 77 17 82 18 84 19 78 20 81 21 79 22 80 23
REMARK SMILES IDX 4 24 2 25 1 26 3 27 69 28 70 29 71 30 72 31 14 32 15 33
REMARK SMILES IDX 16 34 17 35 18 36 19 38 20 39 21 40 67 41 22 42 66 43 23 44
REMARK SMILES IDX 24 45 25 46 60 47 26 48 65 49 59 50 61 51 27 52 64 53 58 54
REMARK SMILES IDX 57 55 28 57 50 58 35 59 49 60 36 61 39 62 48 63 62 64 37 65
REMARK SMILES IDX 38 66 47 68 63 69 40 70 29 71 30 72 34 73 31 74 33 75 32 76
REMARK SMILES IDX 51 77 52 78 56 79 53 80 55 81 54 82 41 83 42 84 46 85 43 86
REMARK SMILES IDX 45 87 44 88
REMARK H PARENT 12 5 17 37 61 56 39 67
REMARK Flexibility Score: inf
ROOT
ATOM      1  C   UNL     1       0.192   2.806  -6.572  1.00  0.00     0.116 C 
ENDROOT
BRANCH   1   2
ATOM      2  N   UNL     1       0.662   4.048  -7.174  1.00  0.00    -0.356 N 
ATOM      3  C   UNL     1       1.460   5.012  -6.623  1.00  0.00     0.220 C 
ATOM      4  O   UNL     1       1.570   6.091  -7.208  1.00  0.00    -0.275 OA
ATOM      5  H   UNL     1       0.366   4.214  -8.098  1.00  0.00     0.163 HD
BRANCH   3   6
ATOM      6  C   UNL     1       2.216   4.751  -5.327  1.00  0.00     0.105 C 
BRANCH   6   7
ATOM      7  C   UNL     1       1.814   5.731  -4.200  1.00  0.00     0.049 C 
BRANCH   7   8
ATOM      8  C   UNL     1       0.840   5.122  -3.205  1.00  0.00    -0.000 A 
ATOM      9  C   UNL     1       0.419   3.366  -1.578  1.00  0.00     0.143 A 
ATOM     10  C   UNL     1       1.312   4.110  -2.357  1.00  0.00     0.055 A 
ATOM     11  C   UNL     1      -0.961   3.630  -1.588  1.00  0.00     0.080 A 
ATOM     12  C   UNL     1      -1.458   4.649  -2.404  1.00  0.00     0.081 A 
ATOM     13  C   UNL     1      -1.899   2.797  -0.797  1.00  0.00     0.198 C 
ATOM     14  C   UNL     1      -0.529   5.404  -3.167  1.00  0.00     0.146 A 
ATOM     15  C   UNL     1      -2.925   4.824  -2.526  1.00  0.00     0.198 C 
ATOM     16  O   UNL     1      -1.523   2.148   0.166  1.00  0.00    -0.288 OA
ATOM     17  C   UNL     1      -3.310   2.748  -1.215  1.00  0.00     0.034 A 
ATOM     18  C   UNL     1      -3.804   3.720  -2.078  1.00  0.00     0.034 A 
ATOM     19  O   UNL     1      -3.419   5.838  -2.976  1.00  0.00    -0.288 OA
ATOM     20  C   UNL     1      -4.145   1.729  -0.743  1.00  0.00     0.013 A 
ATOM     21  C   UNL     1      -5.139   3.664  -2.499  1.00  0.00     0.013 A 
ATOM     22  C   UNL     1      -5.478   1.681  -1.152  1.00  0.00     0.001 A 
ATOM     23  C   UNL     1      -5.971   2.640  -2.038  1.00  0.00     0.001 A 
BRANCH   9  24
ATOM     24  O   UNL     1       0.960   2.318  -0.824  1.00  0.00    -0.426 OA
BRANCH  24  25
ATOM     25  C   UNL     1       0.719   1.076  -1.409  1.00  0.00     0.308 C 
ATOM     26  C   UNL     1       1.090  -0.006  -0.438  1.00  0.00     0.139 C 
ATOM     27  O   UNL     1       0.314   0.889  -2.552  1.00  0.00    -0.252 OA
ENDBRANCH  24  25
ENDBRANCH   9  24
BRANCH  14  28
ATOM     28  O   UNL     1      -1.076   6.393  -4.161  1.00  0.00    -0.426 OA
BRANCH  28  29
ATOM     29  C   UNL     1      -1.533   7.378  -5.116  1.00  0.00     0.308 C 
ATOM     30  C   UNL     1      -0.476   8.403  -5.372  1.00  0.00     0.139 C 
ATOM     31  O   UNL     1      -2.634   7.321  -5.661  1.00  0.00    -0.252 OA
ENDBRANCH  28  29
ENDBRANCH  14  28
ENDBRANCH   7   8
ENDBRANCH   6   7
ENDBRANCH   3   6
ENDBRANCH   1   2
BRANCH   1  32
ATOM     32  C   UNL     1      -0.846   3.125  -5.505  1.00  0.00     0.023 C 
BRANCH  32  33
ATOM     33  C   UNL     1      -2.300   3.055  -5.937  1.00  0.00     0.023 C 
BRANCH  33  34
ATOM     34  C   UNL     1      -2.853   1.652  -6.101  1.00  0.00     0.116 C 
BRANCH  34  35
ATOM     35  N   UNL     1      -2.652   0.777  -4.952  1.00  0.00    -0.352 N 
ATOM     36  C   UNL     1      -3.502  -0.129  -4.359  1.00  0.00     0.251 C 
ATOM     37  H   UNL     1      -1.764   0.845  -4.532  1.00  0.00     0.163 HD
ATOM     38  O   UNL     1      -3.119  -0.765  -3.379  1.00  0.00    -0.269 OA
BRANCH  36  39
ATOM     39  C   UNL     1      -4.892  -0.310  -4.843  1.00  0.00     0.039 A 
ATOM     40  C   UNL     1      -5.897  -0.575  -3.904  1.00  0.00     0.014 A 
ATOM     41  C   UNL     1      -5.227  -0.209  -6.192  1.00  0.00     0.014 A 
ATOM     42  C   UNL     1      -7.237  -0.616  -4.299  1.00  0.00     0.010 A 
ATOM     43  C   UNL     1      -6.560  -0.146  -6.574  1.00  0.00     0.010 A 
ATOM     44  C   UNL     1      -7.577  -0.353  -5.632  1.00  0.00    -0.014 A 
BRANCH  44  45
ATOM     45  C   UNL     1      -8.978  -0.361  -6.112  1.00  0.00     0.031 A 
ATOM     46  C   UNL     1      -9.383  -1.385  -7.135  1.00  0.00     0.074 A 
ATOM     47  C   UNL     1      -9.835   0.602  -5.725  1.00  0.00     0.049 A 
ATOM     48  N   UNL     1     -10.474  -1.454  -7.851  1.00  0.00    -0.248 NA
ATOM     49  C   UNL     1      -8.403  -2.448  -7.422  1.00  0.00     0.031 C 
ATOM     50  C   UNL     1      -9.545   1.670  -4.765  1.00  0.00     0.029 A 
ATOM     51  N   UNL     1     -11.125   0.852  -6.119  1.00  0.00    -0.354 N 
ATOM     52  C   UNL     1     -10.295  -2.542  -8.696  1.00  0.00     0.074 A 
ATOM     53  C   UNL     1      -8.973  -3.070  -8.442  1.00  0.00     0.031 C 
ATOM     54  C   UNL     1     -10.629   2.454  -4.638  1.00  0.00     0.029 A 
ATOM     55  C   UNL     1     -11.673   1.969  -5.535  1.00  0.00     0.049 A 
ATOM     56  H   UNL     1     -11.612   0.285  -6.759  1.00  0.00     0.167 HD
ATOM     57  C   UNL     1     -11.164  -3.071  -9.588  1.00  0.00     0.031 A 
ATOM     58  C   UNL     1     -12.877   2.540  -5.720  1.00  0.00     0.031 A 
ATOM     59  C   UNL     1     -12.487  -2.562  -9.816  1.00  0.00     0.049 A 
ATOM     60  C   UNL     1     -13.831   1.923  -6.706  1.00  0.00     0.074 A 
ATOM     61  C   UNL     1     -13.462  -3.036 -10.675  1.00  0.00     0.029 A 
ATOM     62  N   UNL     1     -13.025  -1.468  -9.157  1.00  0.00    -0.354 N 
ATOM     63  N   UNL     1     -13.660   0.876  -7.478  1.00  0.00    -0.248 NA
ATOM     64  C   UNL     1     -15.149   2.561  -6.839  1.00  0.00     0.031 C 
ATOM     65  C   UNL     1     -14.589  -2.217 -10.543  1.00  0.00     0.029 A 
ATOM     66  C   UNL     1     -14.323  -1.255  -9.582  1.00  0.00     0.049 A 
ATOM     67  H   UNL     1     -12.553  -0.923  -8.486  1.00  0.00     0.167 HD
ATOM     68  C   UNL     1     -14.856   0.712  -8.163  1.00  0.00     0.074 A 
ATOM     69  C   UNL     1     -15.748   1.759  -7.708  1.00  0.00     0.031 C 
ATOM     70  C   UNL     1     -15.190  -0.219  -9.090  1.00  0.00     0.031 A 
BRANCH  57  71
ATOM     71  C   UNL     1     -10.699  -4.271 -10.362  1.00  0.00    -0.014 A 
ATOM     72  C   UNL     1     -10.546  -5.517  -9.730  1.00  0.00     0.009 A 
ATOM     73  C   UNL     1     -10.399  -4.157 -11.729  1.00  0.00     0.009 A 
ATOM     74  C   UNL     1     -10.061  -6.615 -10.442  1.00  0.00     0.001 A 
ATOM     75  C   UNL     1      -9.940  -5.264 -12.445  1.00  0.00     0.001 A 
ATOM     76  C   UNL     1      -9.761  -6.488 -11.799  1.00  0.00     0.000 A 
ENDBRANCH  57  71
BRANCH  58  77
ATOM     77  C   UNL     1     -13.269   3.750  -4.951  1.00  0.00    -0.014 A 
ATOM     78  C   UNL     1     -14.236   3.659  -3.935  1.00  0.00     0.009 A 
ATOM     79  C   UNL     1     -12.710   5.003  -5.247  1.00  0.00     0.009 A 
ATOM     80  C   UNL     1     -14.662   4.802  -3.254  1.00  0.00     0.001 A 
ATOM     81  C   UNL     1     -13.120   6.142  -4.548  1.00  0.00     0.001 A 
ATOM     82  C   UNL     1     -14.103   6.042  -3.561  1.00  0.00     0.000 A 
ENDBRANCH  58  77
BRANCH  70  83
ATOM     83  C   UNL     1     -16.590  -0.175  -9.626  1.00  0.00    -0.014 A 
ATOM     84  C   UNL     1     -16.975   0.790 -10.569  1.00  0.00     0.009 A 
ATOM     85  C   UNL     1     -17.517  -1.148  -9.217  1.00  0.00     0.009 A 
ATOM     86  C   UNL     1     -18.276   0.795 -11.074  1.00  0.00     0.001 A 
ATOM     87  C   UNL     1     -18.809  -1.154  -9.740  1.00  0.00     0.001 A 
ATOM     88  C   UNL     1     -19.189  -0.178 -10.663  1.00  0.00     0.000 A 
ENDBRANCH  70  83
ENDBRANCH  44  45
ENDBRANCH  36  39
ENDBRANCH  34  35
ENDBRANCH  33  34
ENDBRANCH  32  33
ENDBRANCH   1  32
TORSDOF 17
