REMARK SMILES O=C(CS[C@H](C(=O)Nc1ccc(C(F)(F)F)cc1)c1ccccc1)NCCCCNC(=O)c1ccc(-c2c3nc(c(-c4ccccc4)c4ccc([nH]4)c(-c4ccccc4)c4nc(c(-c5ccccc5)c5ccc2[nH]5)C=C4)C=C3)cc1
REMARK SMILES IDX 26 1 25 2 1 3 2 4 3 6 4 7 5 8 19 9 20 10 24 11 21 12 23 13
REMARK SMILES IDX 22 14 6 15 7 16 8 17 9 19 10 20 18 21 11 22 17 23 12 24
REMARK SMILES IDX 13 25 14 26 15 27 16 28 27 29 28 30 29 31 30 32 31 33 32 35
REMARK SMILES IDX 33 36 34 37 80 38 35 39 79 40 36 41 37 42 38 43 73 44 39 45
REMARK SMILES IDX 78 46 72 47 74 48 40 49 77 50 71 51 70 52 41 54 63 55 48 56
REMARK SMILES IDX 62 57 49 58 52 59 61 60 75 61 50 62 51 63 60 65 76 66 53 67
REMARK SMILES IDX 42 68 43 69 47 70 44 71 46 72 45 73 64 74 65 75 69 76 66 77
REMARK SMILES IDX 68 78 67 79 54 80 55 81 59 82 56 83 58 84 57 85
REMARK H PARENT 25 5 8 18 30 34 74 53 52 64
REMARK Flexibility Score: inf
ROOT
ATOM      1  C   UNL     1      -0.575  -0.718  -0.516  1.00  0.00     0.116 C 
ENDROOT
BRANCH   1   2
ATOM      2  N   UNL     1       0.189   0.000   0.493  1.00  0.00    -0.355 N 
ATOM      3  O   UNL     1      -1.081  -0.816   2.221  1.00  0.00    -0.274 OA
ATOM      4  C   UNL     1      -0.119  -0.151   1.842  1.00  0.00     0.230 C 
ATOM      5  H   UNL     1       0.926   0.594   0.221  1.00  0.00     0.163 HD
BRANCH   4   6
ATOM      6  C   UNL     1       0.810   0.563   2.810  1.00  0.00     0.170 C 
BRANCH   6   7
ATOM      7  S   UNL     1       1.687  -0.535   3.986  1.00  0.00    -0.134 SA
BRANCH   7   8
ATOM      8  C   UNL     1       2.779  -1.624   2.956  1.00  0.00     0.166 C 
BRANCH   8   9
ATOM      9  C   UNL     1       2.053  -2.885   2.511  1.00  0.00    -0.026 A 
ATOM     10  C   UNL     1       1.328  -2.931   1.323  1.00  0.00     0.005 A 
ATOM     11  C   UNL     1       2.138  -4.075   3.252  1.00  0.00     0.005 A 
ATOM     12  C   UNL     1       0.704  -4.094   0.868  1.00  0.00     0.000 A 
ATOM     13  C   UNL     1       1.544  -5.257   2.788  1.00  0.00     0.000 A 
ATOM     14  C   UNL     1       0.824  -5.265   1.597  1.00  0.00     0.000 A 
ENDBRANCH   8   9
BRANCH   8  15
ATOM     15  C   UNL     1       3.631  -0.840   1.907  1.00  0.00     0.242 C 
ATOM     16  O   UNL     1       3.256   0.193   1.346  1.00  0.00    -0.273 OA
ATOM     17  N   UNL     1       4.941  -1.247   1.697  1.00  0.00    -0.325 N 
ATOM     18  H   UNL     1       5.626  -0.540   1.661  1.00  0.00     0.169 HD
BRANCH  17  19
ATOM     19  C   UNL     1       5.383  -2.568   1.532  1.00  0.00     0.041 A 
ATOM     20  C   UNL     1       6.674  -2.951   1.880  1.00  0.00     0.027 A 
ATOM     21  C   UNL     1       4.551  -3.505   0.938  1.00  0.00     0.027 A 
ATOM     22  C   UNL     1       7.040  -4.306   1.798  1.00  0.00     0.015 A 
ATOM     23  C   UNL     1       4.879  -4.852   0.902  1.00  0.00     0.015 A 
ATOM     24  C   UNL     1       6.121  -5.277   1.362  1.00  0.00     0.056 A 
BRANCH  24  25
ATOM     25  C   UNL     1       6.456  -6.745   1.334  1.00  0.00     0.416 C 
ATOM     26  F   UNL     1       7.283  -7.062   0.306  1.00  0.00    -0.166 F 
ATOM     27  F   UNL     1       7.068  -7.173   2.469  1.00  0.00    -0.166 F 
ATOM     28  F   UNL     1       5.357  -7.539   1.179  1.00  0.00    -0.166 F 
ENDBRANCH  24  25
ENDBRANCH  17  19
ENDBRANCH   8  15
ENDBRANCH   7   8
ENDBRANCH   6   7
ENDBRANCH   4   6
ENDBRANCH   1   2
BRANCH   1  29
ATOM     29  C   UNL     1       0.019  -0.777  -1.933  1.00  0.00     0.023 C 
BRANCH  29  30
ATOM     30  C   UNL     1       1.530  -0.979  -2.138  1.00  0.00     0.023 C 
BRANCH  30  31
ATOM     31  C   UNL     1       2.124  -2.395  -2.193  1.00  0.00     0.116 C 
BRANCH  31  32
ATOM     32  N   UNL     1       1.550  -3.298  -3.174  1.00  0.00    -0.352 N 
ATOM     33  C   UNL     1       2.143  -4.306  -3.913  1.00  0.00     0.251 C 
ATOM     34  H   UNL     1       0.587  -3.173  -3.340  1.00  0.00     0.163 HD
ATOM     35  O   UNL     1       1.456  -4.968  -4.680  1.00  0.00    -0.269 OA
BRANCH  33  36
ATOM     36  C   UNL     1       3.605  -4.585  -3.833  1.00  0.00     0.039 A 
ATOM     37  C   UNL     1       4.316  -4.798  -5.020  1.00  0.00     0.014 A 
ATOM     38  C   UNL     1       4.281  -4.685  -2.619  1.00  0.00     0.014 A 
ATOM     39  C   UNL     1       5.705  -5.008  -4.992  1.00  0.00     0.010 A 
ATOM     40  C   UNL     1       5.673  -4.852  -2.591  1.00  0.00     0.010 A 
ATOM     41  C   UNL     1       6.408  -4.989  -3.777  1.00  0.00    -0.014 A 
BRANCH  41  42
ATOM     42  C   UNL     1       7.901  -4.988  -3.737  1.00  0.00     0.031 A 
ATOM     43  C   UNL     1       8.691  -6.119  -3.131  1.00  0.00     0.074 A 
ATOM     44  C   UNL     1       8.561  -3.895  -4.170  1.00  0.00     0.049 A 
ATOM     45  N   UNL     1       9.990  -6.227  -2.972  1.00  0.00    -0.248 NA
ATOM     46  C   UNL     1       7.928  -7.261  -2.615  1.00  0.00     0.031 C 
ATOM     47  C   UNL     1       7.934  -2.693  -4.723  1.00  0.00     0.029 A 
ATOM     48  N   UNL     1       9.906  -3.614  -4.206  1.00  0.00    -0.354 N 
ATOM     49  C   UNL     1      10.197  -7.430  -2.305  1.00  0.00     0.074 A 
ATOM     50  C   UNL     1       8.887  -8.002  -2.074  1.00  0.00     0.031 C 
ATOM     51  C   UNL     1       8.891  -1.821  -5.075  1.00  0.00     0.029 A 
ATOM     52  C   UNL     1      10.196  -2.382  -4.742  1.00  0.00     0.049 A 
ATOM     53  H   UNL     1      10.595  -4.235  -3.879  1.00  0.00     0.167 HD
ATOM     54  C   UNL     1      11.364  -8.007  -1.923  1.00  0.00     0.031 A 
ATOM     55  C   UNL     1      11.376  -1.767  -4.950  1.00  0.00     0.031 A 
ATOM     56  C   UNL     1      12.675  -7.464  -2.182  1.00  0.00     0.049 A 
ATOM     57  C   UNL     1      12.658  -2.453  -4.575  1.00  0.00     0.074 A 
ATOM     58  C   UNL     1      13.911  -8.035  -1.920  1.00  0.00     0.029 A 
ATOM     59  N   UNL     1      12.924  -6.232  -2.763  1.00  0.00    -0.354 N 
ATOM     60  N   UNL     1      12.834  -3.624  -4.017  1.00  0.00    -0.248 NA
ATOM     61  C   UNL     1      13.905  -1.733  -4.875  1.00  0.00     0.031 C 
ATOM     62  C   UNL     1      14.907  -7.129  -2.303  1.00  0.00     0.029 A 
ATOM     63  C   UNL     1      14.291  -6.017  -2.851  1.00  0.00     0.049 A 
ATOM     64  H   UNL     1      12.232  -5.601  -3.069  1.00  0.00     0.167 HD
ATOM     65  C   UNL     1      14.210  -3.795  -3.926  1.00  0.00     0.074 A 
ATOM     66  C   UNL     1      14.821  -2.613  -4.497  1.00  0.00     0.031 C 
ATOM     67  C   UNL     1      14.901  -4.842  -3.416  1.00  0.00     0.031 A 
BRANCH  54  68
ATOM     68  C   UNL     1      11.292  -9.313  -1.174  1.00  0.00    -0.014 A 
ATOM     69  C   UNL     1      10.896 -10.500  -1.810  1.00  0.00     0.009 A 
ATOM     70  C   UNL     1      11.702  -9.370   0.169  1.00  0.00     0.009 A 
ATOM     71  C   UNL     1      10.878 -11.708  -1.108  1.00  0.00     0.001 A 
ATOM     72  C   UNL     1      11.711 -10.584   0.860  1.00  0.00     0.001 A 
ATOM     73  C   UNL     1      11.290 -11.750   0.223  1.00  0.00     0.000 A 
ENDBRANCH  54  68
BRANCH  55  74
ATOM     74  C   UNL     1      11.403  -0.428  -5.593  1.00  0.00    -0.014 A 
ATOM     75  C   UNL     1      11.834  -0.294  -6.921  1.00  0.00     0.009 A 
ATOM     76  C   UNL     1      10.999   0.715  -4.888  1.00  0.00     0.009 A 
ATOM     77  C   UNL     1      11.884   0.964  -7.524  1.00  0.00     0.001 A 
ATOM     78  C   UNL     1      11.024   1.968  -5.503  1.00  0.00     0.001 A 
ATOM     79  C   UNL     1      11.474   2.093  -6.817  1.00  0.00     0.000 A 
ENDBRANCH  55  74
BRANCH  67  80
ATOM     80  C   UNL     1      16.401  -4.777  -3.482  1.00  0.00    -0.014 A 
ATOM     81  C   UNL     1      17.134  -3.918  -2.649  1.00  0.00     0.009 A 
ATOM     82  C   UNL     1      17.094  -5.611  -4.374  1.00  0.00     0.009 A 
ATOM     83  C   UNL     1      18.527  -3.870  -2.732  1.00  0.00     0.001 A 
ATOM     84  C   UNL     1      18.489  -5.580  -4.437  1.00  0.00     0.001 A 
ATOM     85  C   UNL     1      19.203  -4.704  -3.622  1.00  0.00     0.000 A 
ENDBRANCH  67  80
ENDBRANCH  41  42
ENDBRANCH  33  36
ENDBRANCH  31  32
ENDBRANCH  30  31
ENDBRANCH  29  30
ENDBRANCH   1  29
TORSDOF 17
