REMARK SMILES C[C@H](Sc1ccccn1)C(=O)N[C@H](C(=O)NCCCCNC(=O)c1ccc(-c2c3nc(c(-c4ccccc4)c4ccc([nH]4)c(-c4ccccc4)c4nc(c(-c5ccccc5)c5ccc2[nH]5)C=C4)C=C3)cc1)c1ccc(F)cc1
REMARK SMILES IDX 17 1 16 2 14 3 15 4 13 6 12 7 10 8 11 9 2 11 1 12 3 13 4 14
REMARK SMILES IDX 5 15 9 16 6 17 8 18 7 19 72 20 73 21 78 22 74 23 77 24 75 25
REMARK SMILES IDX 76 26 18 27 19 28 20 29 21 30 22 31 23 33 24 34 25 35 71 36
REMARK SMILES IDX 26 37 70 38 27 39 28 40 29 41 64 42 30 43 69 44 63 45 65 46
REMARK SMILES IDX 31 47 68 48 62 49 61 50 32 52 54 53 39 54 53 55 40 56 43 57
REMARK SMILES IDX 52 58 66 59 41 60 42 61 51 63 67 64 44 65 33 66 34 67 38 68
REMARK SMILES IDX 35 69 37 70 36 71 55 72 56 73 60 74 57 75 59 76 58 77 45 78
REMARK SMILES IDX 46 79 50 80 47 81 49 82 48 83
REMARK H PARENT 16 5 12 10 21 32 65 51 43 62
REMARK Flexibility Score: inf
ROOT
ATOM      1  C   UNL     1       0.381   0.043   0.498  1.00  0.00     0.116 C 
ENDROOT
BRANCH   1   2
ATOM      2  N   UNL     1      -0.983   0.527   0.451  1.00  0.00    -0.354 N 
ATOM      3  C   UNL     1      -1.745   0.993  -0.577  1.00  0.00     0.247 C 
ATOM      4  O   UNL     1      -2.891   1.350  -0.278  1.00  0.00    -0.272 OA
ATOM      5  H   UNL     1      -1.443   0.518   1.321  1.00  0.00     0.163 HD
BRANCH   3   6
ATOM      6  C   UNL     1      -1.253   0.992  -2.059  1.00  0.00     0.202 C 
BRANCH   6   7
ATOM      7  N   UNL     1      -2.343   0.291  -2.772  1.00  0.00    -0.340 N 
ATOM      8  C   UNL     1      -2.544  -0.268  -3.983  1.00  0.00     0.234 C 
ATOM      9  O   UNL     1      -3.172  -1.340  -3.940  1.00  0.00    -0.274 OA
ATOM     10  H   UNL     1      -3.143   0.209  -2.206  1.00  0.00     0.164 HD
BRANCH   8  11
ATOM     11  C   UNL     1      -2.222   0.333  -5.361  1.00  0.00     0.139 C 
ATOM     12  C   UNL     1      -0.865   0.950  -5.613  1.00  0.00     0.030 C 
BRANCH  11  13
ATOM     13  S   UNL     1      -3.778   1.131  -6.006  1.00  0.00    -0.093 SA
BRANCH  13  14
ATOM     14  C   UNL     1      -3.384   2.808  -6.421  1.00  0.00     0.097 A 
ATOM     15  C   UNL     1      -2.541   3.127  -7.476  1.00  0.00     0.035 A 
ATOM     16  N   UNL     1      -4.078   3.757  -5.746  1.00  0.00    -0.250 NA
ATOM     17  C   UNL     1      -2.359   4.468  -7.815  1.00  0.00     0.004 A 
ATOM     18  C   UNL     1      -3.911   5.048  -6.115  1.00  0.00     0.112 A 
ATOM     19  C   UNL     1      -3.054   5.452  -7.122  1.00  0.00     0.020 A 
ENDBRANCH  13  14
ENDBRANCH  11  13
ENDBRANCH   8  11
ENDBRANCH   6   7
BRANCH   6  20
ATOM     20  C   UNL     1      -0.904   2.402  -2.486  1.00  0.00    -0.016 A 
ATOM     21  C   UNL     1       0.309   2.976  -2.051  1.00  0.00     0.009 A 
ATOM     22  C   UNL     1      -1.740   3.182  -3.284  1.00  0.00     0.009 A 
ATOM     23  C   UNL     1       0.712   4.244  -2.477  1.00  0.00     0.039 A 
ATOM     24  C   UNL     1      -1.305   4.422  -3.762  1.00  0.00     0.039 A 
ATOM     25  C   UNL     1      -0.082   4.938  -3.369  1.00  0.00     0.123 A 
ATOM     26  F   UNL     1       0.330   6.114  -3.858  1.00  0.00    -0.207 F 
ENDBRANCH   6  20
ENDBRANCH   3   6
ENDBRANCH   1   2
BRANCH   1  27
ATOM     27  C   UNL     1       1.304   1.012   1.239  1.00  0.00     0.023 C 
BRANCH  27  28
ATOM     28  C   UNL     1       0.892   1.352   2.673  1.00  0.00     0.023 C 
BRANCH  28  29
ATOM     29  C   UNL     1       0.704   0.161   3.602  1.00  0.00     0.116 C 
BRANCH  29  30
ATOM     30  N   UNL     1       1.905  -0.644   3.747  1.00  0.00    -0.352 N 
ATOM     31  C   UNL     1       2.437  -1.198   4.891  1.00  0.00     0.251 C 
ATOM     32  H   UNL     1       2.405  -0.817   2.916  1.00  0.00     0.163 HD
ATOM     33  O   UNL     1       3.517  -1.757   4.869  1.00  0.00    -0.269 OA
BRANCH  31  34
ATOM     34  C   UNL     1       1.687  -1.068   6.160  1.00  0.00     0.039 A 
ATOM     35  C   UNL     1       2.347  -0.577   7.290  1.00  0.00     0.014 A 
ATOM     36  C   UNL     1       0.330  -1.393   6.215  1.00  0.00     0.014 A 
ATOM     37  C   UNL     1       1.625  -0.342   8.462  1.00  0.00     0.010 A 
ATOM     38  C   UNL     1      -0.400  -1.094   7.360  1.00  0.00     0.010 A 
ATOM     39  C   UNL     1       0.240  -0.565   8.493  1.00  0.00    -0.014 A 
BRANCH  39  40
ATOM     40  C   UNL     1      -0.577  -0.278   9.698  1.00  0.00     0.031 A 
ATOM     41  C   UNL     1      -1.281  -1.407  10.398  1.00  0.00     0.074 A 
ATOM     42  C   UNL     1      -0.770   0.993  10.099  1.00  0.00     0.049 A 
ATOM     43  N   UNL     1      -2.174  -1.360  11.352  1.00  0.00    -0.248 NA
ATOM     44  C   UNL     1      -0.959  -2.768   9.939  1.00  0.00     0.031 C 
ATOM     45  C   UNL     1      -0.160   2.179   9.495  1.00  0.00     0.029 A 
ATOM     46  N   UNL     1      -1.559   1.499  11.102  1.00  0.00    -0.354 N 
ATOM     47  C   UNL     1      -2.545  -2.679  11.582  1.00  0.00     0.074 A 
ATOM     48  C   UNL     1      -1.810  -3.498  10.644  1.00  0.00     0.031 C 
ATOM     49  C   UNL     1      -0.589   3.273  10.146  1.00  0.00     0.029 A 
ATOM     50  C   UNL     1      -1.540   2.871  11.178  1.00  0.00     0.049 A 
ATOM     51  H   UNL     1      -2.088   0.933  11.710  1.00  0.00     0.167 HD
ATOM     52  C   UNL     1      -3.413  -3.166  12.500  1.00  0.00     0.031 A 
ATOM     53  C   UNL     1      -2.228   3.711  11.975  1.00  0.00     0.031 A 
ATOM     54  C   UNL     1      -4.127  -2.353  13.446  1.00  0.00     0.049 A 
ATOM     55  C   UNL     1      -3.196   3.147  12.978  1.00  0.00     0.074 A 
ATOM     56  C   UNL     1      -4.990  -2.756  14.450  1.00  0.00     0.029 A 
ATOM     57  N   UNL     1      -4.056  -0.970  13.507  1.00  0.00    -0.354 N 
ATOM     58  N   UNL     1      -3.506   1.895  13.213  1.00  0.00    -0.248 NA
ATOM     59  C   UNL     1      -3.906   4.113  13.831  1.00  0.00     0.031 C 
ATOM     60  C   UNL     1      -5.474  -1.612  15.092  1.00  0.00     0.029 A 
ATOM     61  C   UNL     1      -4.870  -0.502  14.522  1.00  0.00     0.049 A 
ATOM     62  H   UNL     1      -3.507  -0.405  12.915  1.00  0.00     0.167 HD
ATOM     63  C   UNL     1      -4.414   1.920  14.263  1.00  0.00     0.074 A 
ATOM     64  C   UNL     1      -4.605   3.310  14.622  1.00  0.00     0.031 C 
ATOM     65  C   UNL     1      -5.030   0.883  14.879  1.00  0.00     0.031 A 
BRANCH  52  66
ATOM     66  C   UNL     1      -3.642  -4.651  12.514  1.00  0.00    -0.014 A 
ATOM     67  C   UNL     1      -2.646  -5.538  12.952  1.00  0.00     0.009 A 
ATOM     68  C   UNL     1      -4.883  -5.168  12.109  1.00  0.00     0.009 A 
ATOM     69  C   UNL     1      -2.875  -6.915  12.946  1.00  0.00     0.001 A 
ATOM     70  C   UNL     1      -5.119  -6.543  12.133  1.00  0.00     0.001 A 
ATOM     71  C   UNL     1      -4.111  -7.416  12.542  1.00  0.00     0.000 A 
ENDBRANCH  52  66
BRANCH  53  72
ATOM     72  C   UNL     1      -2.022   5.179  11.865  1.00  0.00    -0.014 A 
ATOM     73  C   UNL     1      -1.351   5.879  12.880  1.00  0.00     0.009 A 
ATOM     74  C   UNL     1      -2.499   5.890  10.753  1.00  0.00     0.009 A 
ATOM     75  C   UNL     1      -1.185   7.263  12.796  1.00  0.00     0.001 A 
ATOM     76  C   UNL     1      -2.307   7.270  10.659  1.00  0.00     0.001 A 
ATOM     77  C   UNL     1      -1.660   7.957  11.684  1.00  0.00     0.000 A 
ENDBRANCH  53  72
BRANCH  65  78
ATOM     78  C   UNL     1      -5.920   1.197  16.047  1.00  0.00    -0.014 A 
ATOM     79  C   UNL     1      -7.196   1.751  15.867  1.00  0.00     0.009 A 
ATOM     80  C   UNL     1      -5.499   0.858  17.343  1.00  0.00     0.009 A 
ATOM     81  C   UNL     1      -8.025   1.977  16.968  1.00  0.00     0.001 A 
ATOM     82  C   UNL     1      -6.339   1.061  18.437  1.00  0.00     0.001 A 
ATOM     83  C   UNL     1      -7.600   1.625  18.250  1.00  0.00     0.000 A 
ENDBRANCH  65  78
ENDBRANCH  39  40
ENDBRANCH  31  34
ENDBRANCH  29  30
ENDBRANCH  28  29
ENDBRANCH  27  28
ENDBRANCH   1  27
TORSDOF 16
