REMARK SMILES C[N@H+]1CCO[C@H](CNC(=O)N2CC[C@@](C)(C(=O)NCCCCNC(=O)c3ccc(-c4c5nc(c(-c6ccccc6)c6ccc([nH]6)c(-c6ccccc6)c6nc(c(-c7ccccc7)c7ccc4[nH]7)C=C6)C=C5)cc3)C2)C1
REMARK SMILES IDX 20 1 19 2 18 3 16 4 17 5 14 7 11 8 12 9 74 10 13 11 15 12
REMARK SMILES IDX 9 13 8 14 10 16 7 17 6 18 1 19 2 20 3 21 75 22 4 24 5 25
REMARK SMILES IDX 21 26 22 27 23 28 24 29 25 31 26 32 27 33 73 34 28 35 72 36
REMARK SMILES IDX 29 37 30 38 31 39 66 40 32 41 71 42 65 43 67 44 33 45 70 46
REMARK SMILES IDX 64 47 63 48 34 50 56 51 41 52 55 53 42 54 45 55 54 56 68 57
REMARK SMILES IDX 43 58 44 59 53 61 69 62 46 63 35 64 36 65 40 66 37 67 39 68
REMARK SMILES IDX 38 69 57 70 58 71 62 72 59 73 61 74 60 75 47 76 48 77 52 78
REMARK SMILES IDX 49 79 51 80 50 81
REMARK H PARENT 18 6 8 15 2 23 23 30 67 49 45 60
REMARK Flexibility Score: inf
ROOT
ATOM      1  C   UNL     1       5.972   3.173   0.457  1.00  0.00     0.023 C 
ENDROOT
BRANCH   1   2
ATOM      2  C   UNL     1       5.117   4.439   0.557  1.00  0.00     0.116 C 
BRANCH   2   3
ATOM      3  N   UNL     1       5.944   5.617   0.679  1.00  0.00    -0.356 N 
ATOM      4  C   UNL     1       6.537   6.434  -0.220  1.00  0.00     0.227 C 
ATOM      5  O   UNL     1       7.257   7.305   0.291  1.00  0.00    -0.274 OA
ATOM      6  H   UNL     1       6.112   5.880   1.613  1.00  0.00     0.163 HD
BRANCH   4   7
ATOM      7  C   UNL     1       6.337   6.426  -1.753  1.00  0.00     0.066 C 
ATOM      8  N   UNL     1       4.245   5.559  -2.554  1.00  0.00    -0.324 N 
ATOM      9  C   UNL     1       4.011   6.923  -2.111  1.00  0.00     0.122 C 
ATOM     10  C   UNL     1       5.673   5.238  -2.465  1.00  0.00     0.138 C 
ATOM     11  C   UNL     1       5.381   7.579  -2.116  1.00  0.00     0.040 C 
ATOM     12  C   UNL     1       7.730   6.681  -2.363  1.00  0.00     0.024 C 
BRANCH   8  13
ATOM     13  C   UNL     1       3.322   4.950  -3.362  1.00  0.00     0.317 C 
ATOM     14  N   UNL     1       3.304   3.600  -3.490  1.00  0.00    -0.335 N 
ATOM     15  H   UNL     1       3.015   3.259  -4.367  1.00  0.00     0.165 HD
ATOM     16  O   UNL     1       2.483   5.586  -4.001  1.00  0.00    -0.249 OA
BRANCH  14  17
ATOM     17  C   UNL     1       3.654   2.590  -2.506  1.00  0.00     0.155 C 
BRANCH  17  18
ATOM     18  C   UNL     1       2.498   2.143  -1.578  1.00  0.00     0.192 C 
ATOM     19  C   UNL     1       0.946  -0.220  -0.283  1.00  0.00     0.332 C 
ATOM     20  N   UNL     1       0.502   0.605  -1.411  1.00  0.00    -0.333 N 
ATOM     21  C   UNL     1      -0.257   1.787  -0.951  1.00  0.00     0.290 C 
ATOM     22  C   UNL     1       1.618   1.073  -2.255  1.00  0.00     0.296 C 
ATOM     23  H   UNL     1      -0.097  -0.003  -1.969  1.00  0.00     0.348 HD
ATOM     24  C   UNL     1       0.622   2.886  -0.318  1.00  0.00     0.222 C 
ATOM     25  O   UNL     1       1.718   3.275  -1.158  1.00  0.00    -0.365 OA
ENDBRANCH  17  18
ENDBRANCH  14  17
ENDBRANCH   8  13
ENDBRANCH   4   7
ENDBRANCH   2   3
ENDBRANCH   1   2
BRANCH   1  26
ATOM     26  C   UNL     1       6.443   2.609   1.799  1.00  0.00     0.023 C 
BRANCH  26  27
ATOM     27  C   UNL     1       5.322   2.183   2.741  1.00  0.00     0.116 C 
BRANCH  27  28
ATOM     28  N   UNL     1       4.408   1.212   2.159  1.00  0.00    -0.352 N 
ATOM     29  C   UNL     1       3.639   0.270   2.795  1.00  0.00     0.251 C 
ATOM     30  H   UNL     1       4.331   1.234   1.177  1.00  0.00     0.163 HD
ATOM     31  O   UNL     1       2.997  -0.545   2.139  1.00  0.00    -0.269 OA
BRANCH  29  32
ATOM     32  C   UNL     1       3.630   0.207   4.269  1.00  0.00     0.039 A 
ATOM     33  C   UNL     1       3.784  -1.038   4.882  1.00  0.00     0.014 A 
ATOM     34  C   UNL     1       3.506   1.365   5.041  1.00  0.00     0.014 A 
ATOM     35  C   UNL     1       3.885  -1.114   6.271  1.00  0.00     0.010 A 
ATOM     36  C   UNL     1       3.685   1.297   6.418  1.00  0.00     0.010 A 
ATOM     37  C   UNL     1       3.875   0.058   7.045  1.00  0.00    -0.014 A 
BRANCH  37  38
ATOM     38  C   UNL     1       4.071  -0.002   8.513  1.00  0.00     0.031 A 
ATOM     39  C   UNL     1       2.970   0.418   9.443  1.00  0.00     0.074 A 
ATOM     40  C   UNL     1       5.267  -0.381   9.004  1.00  0.00     0.049 A 
ATOM     41  N   UNL     1       2.960   0.442  10.751  1.00  0.00    -0.248 NA
ATOM     42  C   UNL     1       1.726   0.903   8.823  1.00  0.00     0.031 C 
ATOM     43  C   UNL     1       6.435  -0.750   8.200  1.00  0.00     0.029 A 
ATOM     44  N   UNL     1       5.698  -0.514  10.299  1.00  0.00    -0.354 N 
ATOM     45  C   UNL     1       1.721   0.957  11.109  1.00  0.00     0.074 A 
ATOM     46  C   UNL     1       1.028   1.284   9.882  1.00  0.00     0.031 C 
ATOM     47  C   UNL     1       7.440  -1.096   9.021  1.00  0.00     0.029 A 
ATOM     48  C   UNL     1       6.998  -0.945  10.403  1.00  0.00     0.049 A 
ATOM     49  H   UNL     1       5.130  -0.320  11.079  1.00  0.00     0.167 HD
ATOM     50  C   UNL     1       1.198   1.122  12.347  1.00  0.00     0.031 A 
ATOM     51  C   UNL     1       7.750  -1.194  11.491  1.00  0.00     0.031 A 
ATOM     52  C   UNL     1       1.886   0.787  13.564  1.00  0.00     0.049 A 
ATOM     53  C   UNL     1       7.141  -1.025  12.854  1.00  0.00     0.074 A 
ATOM     54  C   UNL     1       1.421   0.852  14.865  1.00  0.00     0.029 A 
ATOM     55  N   UNL     1       3.193   0.326  13.627  1.00  0.00    -0.354 N 
ATOM     56  N   UNL     1       5.934  -0.624  13.175  1.00  0.00    -0.248 NA
ATOM     57  C   UNL     1       7.992  -1.360  14.004  1.00  0.00     0.031 C 
ATOM     58  C   UNL     1       2.463   0.477  15.720  1.00  0.00     0.029 A 
ATOM     59  C   UNL     1       3.558   0.125  14.947  1.00  0.00     0.049 A 
ATOM     60  H   UNL     1       3.774   0.166  12.849  1.00  0.00     0.167 HD
ATOM     61  C   UNL     1       5.872  -0.682  14.560  1.00  0.00     0.074 A 
ATOM     62  C   UNL     1       7.157  -1.173  15.017  1.00  0.00     0.031 C 
ATOM     63  C   UNL     1       4.843  -0.359  15.382  1.00  0.00     0.031 A 
BRANCH  50  64
ATOM     64  C   UNL     1      -0.187   1.701  12.436  1.00  0.00    -0.014 A 
ATOM     65  C   UNL     1      -1.310   0.975  12.007  1.00  0.00     0.009 A 
ATOM     66  C   UNL     1      -0.374   2.986  12.968  1.00  0.00     0.009 A 
ATOM     67  C   UNL     1      -2.585   1.541  12.066  1.00  0.00     0.001 A 
ATOM     68  C   UNL     1      -1.654   3.538  13.054  1.00  0.00     0.001 A 
ATOM     69  C   UNL     1      -2.756   2.820  12.592  1.00  0.00     0.000 A 
ENDBRANCH  50  64
BRANCH  51  70
ATOM     70  C   UNL     1       9.151  -1.660  11.331  1.00  0.00    -0.014 A 
ATOM     71  C   UNL     1       9.500  -2.987  11.621  1.00  0.00     0.009 A 
ATOM     72  C   UNL     1      10.146  -0.781  10.873  1.00  0.00     0.009 A 
ATOM     73  C   UNL     1      10.821  -3.419  11.479  1.00  0.00     0.001 A 
ATOM     74  C   UNL     1      11.460  -1.223  10.705  1.00  0.00     0.001 A 
ATOM     75  C   UNL     1      11.798  -2.539  11.016  1.00  0.00     0.000 A 
ENDBRANCH  51  70
BRANCH  63  76
ATOM     76  C   UNL     1       5.057  -0.554  16.856  1.00  0.00    -0.014 A 
ATOM     77  C   UNL     1       5.893   0.300  17.591  1.00  0.00     0.009 A 
ATOM     78  C   UNL     1       4.380  -1.586  17.524  1.00  0.00     0.009 A 
ATOM     79  C   UNL     1       6.073   0.103  18.962  1.00  0.00     0.001 A 
ATOM     80  C   UNL     1       4.538  -1.763  18.899  1.00  0.00     0.001 A 
ATOM     81  C   UNL     1       5.392  -0.924  19.615  1.00  0.00     0.000 A 
ENDBRANCH  63  76
ENDBRANCH  37  38
ENDBRANCH  29  32
ENDBRANCH  27  28
ENDBRANCH  26  27
ENDBRANCH   1  26
TORSDOF 14
