REMARK SMILES Cc1nn(Cc2ccc(C(=O)NCCCCNC(=O)c3ccc(-c4c5nc(c(-c6ccccc6)c6ccc([nH]6)c(-c6ccccc6)c6nc(c(-c7ccccc7)c7ccc4[nH]7)C=C6)C=C5)cc3)o2)c(C)c1C
REMARK SMILES IDX 14 1 13 2 12 3 10 4 11 5 9 7 6 8 7 9 68 10 8 11 5 12 4 13
REMARK SMILES IDX 1 14 2 15 3 16 71 17 69 18 72 19 70 20 15 21 16 22 17 23
REMARK SMILES IDX 18 24 19 26 20 27 21 28 67 29 22 30 66 31 23 32 24 33 25 34
REMARK SMILES IDX 60 35 26 36 65 37 59 38 61 39 27 40 64 41 58 42 57 43 28 45
REMARK SMILES IDX 50 46 35 47 49 48 36 49 39 50 48 51 62 52 37 53 38 54 47 56
REMARK SMILES IDX 63 57 40 58 29 59 30 60 34 61 31 62 33 63 32 64 51 65 52 66
REMARK SMILES IDX 56 67 53 68 55 69 54 70 41 71 42 72 46 73 43 74 45 75 44 76
REMARK H PARENT 12 6 17 25 61 44 39 55
REMARK Flexibility Score: inf
ROOT
ATOM      1  C   UNL     1      -5.615   1.990   6.109  1.00  0.00     0.023 C 
ENDROOT
BRANCH   1   2
ATOM      2  C   UNL     1      -5.187   0.702   6.821  1.00  0.00     0.116 C 
BRANCH   2   3
ATOM      3  N   UNL     1      -5.942  -0.455   6.376  1.00  0.00    -0.349 N 
ATOM      4  C   UNL     1      -5.600  -1.546   5.610  1.00  0.00     0.286 C 
ATOM      5  O   UNL     1      -6.505  -2.366   5.427  1.00  0.00    -0.266 OA
ATOM      6  H   UNL     1      -6.878  -0.460   6.681  1.00  0.00     0.163 HD
BRANCH   4   7
ATOM      7  C   UNL     1      -4.269  -1.743   5.065  1.00  0.00     0.191 A 
ATOM      8  C   UNL     1      -2.131  -1.344   4.665  1.00  0.00     0.126 A 
ATOM      9  C   UNL     1      -2.422  -2.542   4.048  1.00  0.00     0.048 A 
ATOM     10  O   UNL     1      -3.251  -0.854   5.274  1.00  0.00    -0.454 OA
ATOM     11  C   UNL     1      -3.788  -2.797   4.303  1.00  0.00     0.056 A 
BRANCH   8  12
ATOM     12  C   UNL     1      -0.877  -0.566   4.837  1.00  0.00     0.219 C 
BRANCH  12  13
ATOM     13  N   UNL     1      -0.461   0.097   3.604  1.00  0.00    -0.262 N 
ATOM     14  C   UNL     1       0.776  -0.252   0.302  1.00  0.00     0.069 C 
ATOM     15  C   UNL     1       0.311   0.226   1.628  1.00  0.00     0.063 A 
ATOM     16  N   UNL     1      -0.074  -0.658   2.553  1.00  0.00    -0.177 NA
ATOM     17  C   UNL     1       0.235   1.560   2.108  1.00  0.00    -0.007 A 
ATOM     18  C   UNL     1      -0.263   1.443   3.396  1.00  0.00     0.039 A 
ATOM     19  C   UNL     1       0.620   2.807   1.401  1.00  0.00     0.048 C 
ATOM     20  C   UNL     1      -0.543   2.483   4.419  1.00  0.00     0.066 C 
ENDBRANCH  12  13
ENDBRANCH   8  12
ENDBRANCH   4   7
ENDBRANCH   2   3
ENDBRANCH   1   2
BRANCH   1  21
ATOM     21  C   UNL     1      -7.051   2.468   6.379  1.00  0.00     0.023 C 
BRANCH  21  22
ATOM     22  C   UNL     1      -7.369   2.758   7.840  1.00  0.00     0.116 C 
BRANCH  22  23
ATOM     23  N   UNL     1      -6.581   3.854   8.407  1.00  0.00    -0.352 N 
ATOM     24  C   UNL     1      -6.623   4.352   9.702  1.00  0.00     0.251 C 
ATOM     25  H   UNL     1      -5.946   4.292   7.795  1.00  0.00     0.163 HD
ATOM     26  O   UNL     1      -6.220   5.471   9.968  1.00  0.00    -0.269 OA
BRANCH  24  27
ATOM     27  C   UNL     1      -7.152   3.478  10.765  1.00  0.00     0.039 A 
ATOM     28  C   UNL     1      -7.988   3.954  11.780  1.00  0.00     0.014 A 
ATOM     29  C   UNL     1      -6.810   2.132  10.697  1.00  0.00     0.014 A 
ATOM     30  C   UNL     1      -8.540   3.039  12.677  1.00  0.00     0.010 A 
ATOM     31  C   UNL     1      -7.500   1.222  11.446  1.00  0.00     0.010 A 
ATOM     32  C   UNL     1      -8.301   1.670  12.489  1.00  0.00    -0.014 A 
BRANCH  32  33
ATOM     33  C   UNL     1      -8.956   0.653  13.302  1.00  0.00     0.031 A 
ATOM     34  C   UNL     1     -10.443   0.684  13.254  1.00  0.00     0.074 A 
ATOM     35  C   UNL     1      -8.268  -0.393  13.814  1.00  0.00     0.049 A 
ATOM     36  N   UNL     1     -11.257   0.881  14.236  1.00  0.00    -0.248 NA
ATOM     37  C   UNL     1     -11.108   0.607  11.940  1.00  0.00     0.031 C 
ATOM     38  C   UNL     1      -6.845  -0.717  13.638  1.00  0.00     0.029 A 
ATOM     39  N   UNL     1      -8.732  -1.490  14.468  1.00  0.00    -0.354 N 
ATOM     40  C   UNL     1     -12.539   0.755  13.709  1.00  0.00     0.074 A 
ATOM     41  C   UNL     1     -12.389   0.771  12.276  1.00  0.00     0.031 C 
ATOM     42  C   UNL     1      -6.642  -2.025  13.906  1.00  0.00     0.029 A 
ATOM     43  C   UNL     1      -7.874  -2.585  14.431  1.00  0.00     0.049 A 
ATOM     44  H   UNL     1      -9.602  -1.508  14.929  1.00  0.00     0.167 HD
ATOM     45  C   UNL     1     -13.592   0.386  14.491  1.00  0.00     0.031 A 
ATOM     46  C   UNL     1      -8.175  -3.870  14.749  1.00  0.00     0.031 A 
ATOM     47  C   UNL     1     -13.272   0.490  15.892  1.00  0.00     0.049 A 
ATOM     48  C   UNL     1      -9.418  -3.841  15.558  1.00  0.00     0.074 A 
ATOM     49  C   UNL     1     -12.839   1.514  16.713  1.00  0.00     0.029 A 
ATOM     50  N   UNL     1     -12.969  -0.677  16.556  1.00  0.00    -0.354 N 
ATOM     51  N   UNL     1      -9.480  -3.318  16.750  1.00  0.00    -0.248 NA
ATOM     52  C   UNL     1     -10.686  -3.931  14.849  1.00  0.00     0.031 C 
ATOM     53  C   UNL     1     -11.851   0.913  17.547  1.00  0.00     0.029 A 
ATOM     54  C   UNL     1     -11.814  -0.453  17.259  1.00  0.00     0.049 A 
ATOM     55  H   UNL     1     -13.486  -1.514  16.531  1.00  0.00     0.167 HD
ATOM     56  C   UNL     1     -10.669  -2.601  16.755  1.00  0.00     0.074 A 
ATOM     57  C   UNL     1     -11.411  -3.088  15.590  1.00  0.00     0.031 C 
ATOM     58  C   UNL     1     -10.816  -1.470  17.509  1.00  0.00     0.031 A 
BRANCH  45  59
ATOM     59  C   UNL     1     -14.736  -0.470  14.006  1.00  0.00    -0.014 A 
ATOM     60  C   UNL     1     -15.780  -0.765  14.902  1.00  0.00     0.009 A 
ATOM     61  C   UNL     1     -14.683  -1.233  12.824  1.00  0.00     0.009 A 
ATOM     62  C   UNL     1     -16.663  -1.825  14.668  1.00  0.00     0.001 A 
ATOM     63  C   UNL     1     -15.590  -2.264  12.567  1.00  0.00     0.001 A 
ATOM     64  C   UNL     1     -16.561  -2.581  13.505  1.00  0.00     0.000 A 
ENDBRANCH  45  59
BRANCH  46  65
ATOM     65  C   UNL     1      -7.635  -5.115  14.151  1.00  0.00    -0.014 A 
ATOM     66  C   UNL     1      -7.827  -6.362  14.768  1.00  0.00     0.009 A 
ATOM     67  C   UNL     1      -7.145  -5.117  12.831  1.00  0.00     0.009 A 
ATOM     68  C   UNL     1      -7.568  -7.559  14.081  1.00  0.00     0.001 A 
ATOM     69  C   UNL     1      -6.882  -6.309  12.145  1.00  0.00     0.001 A 
ATOM     70  C   UNL     1      -7.107  -7.531  12.766  1.00  0.00     0.000 A 
ENDBRANCH  46  65
BRANCH  58  71
ATOM     71  C   UNL     1      -9.737  -1.115  18.504  1.00  0.00    -0.014 A 
ATOM     72  C   UNL     1      -8.392  -0.901  18.151  1.00  0.00     0.009 A 
ATOM     73  C   UNL     1     -10.129  -0.815  19.817  1.00  0.00     0.009 A 
ATOM     74  C   UNL     1      -7.467  -0.432  19.092  1.00  0.00     0.001 A 
ATOM     75  C   UNL     1      -9.212  -0.326  20.750  1.00  0.00     0.001 A 
ATOM     76  C   UNL     1      -7.880  -0.141  20.390  1.00  0.00     0.000 A 
ENDBRANCH  58  71
ENDBRANCH  32  33
ENDBRANCH  24  27
ENDBRANCH  22  23
ENDBRANCH  21  22
ENDBRANCH   1  21
TORSDOF 13
