REMARK SMILES CC(C)[C@H](C(=O)NCCCCNC(=O)c1ccc(-c2c3nc(c(-c4ccccc4)c4ccc([nH]4)c(-c4ccccc4)c4nc(c(-c5ccccc5)c5ccc2[nH]5)C=C4)C=C3)cc1)[C@H](C)[C@@H](C)O
REMARK SMILES IDX 9 1 8 2 7 3 5 4 6 5 4 7 2 8 1 9 3 10 63 11 64 12 65 13 66 14
REMARK SMILES IDX 67 15 10 17 11 18 12 19 13 20 14 22 15 23 16 24 62 25 17 26
REMARK SMILES IDX 61 27 18 28 19 29 20 30 55 31 21 32 60 33 54 34 56 35 22 36
REMARK SMILES IDX 59 37 53 38 52 39 23 41 45 42 30 43 44 44 31 45 34 46 43 47
REMARK SMILES IDX 57 48 32 49 33 50 42 52 58 53 35 54 24 55 25 56 29 57 26 58
REMARK SMILES IDX 28 59 27 60 46 61 47 62 51 63 48 64 50 65 49 66 36 67 37 68
REMARK SMILES IDX 41 69 38 70 40 71 39 72
REMARK H PARENT 7 6 67 16 12 21 56 40 34 51
REMARK Flexibility Score: inf
ROOT
ATOM      1  C   UNL     1       0.369  -3.263  -6.366  1.00  0.00     0.023 C 
ENDROOT
BRANCH   1   2
ATOM      2  C   UNL     1      -0.000  -1.854  -5.902  1.00  0.00     0.116 C 
BRANCH   2   3
ATOM      3  N   UNL     1      -1.288  -1.821  -5.246  1.00  0.00    -0.356 N 
ATOM      4  C   UNL     1      -1.797  -0.964  -4.320  1.00  0.00     0.223 C 
ATOM      5  O   UNL     1      -2.889  -1.292  -3.856  1.00  0.00    -0.275 OA
ATOM      6  H   UNL     1      -1.902  -2.542  -5.515  1.00  0.00     0.163 HD
BRANCH   4   7
ATOM      7  C   UNL     1      -1.001   0.270  -3.843  1.00  0.00     0.086 C 
BRANCH   7   8
ATOM      8  C   UNL     1      -0.531   1.235  -4.988  1.00  0.00    -0.005 C 
ATOM      9  C   UNL     1      -1.511   1.466  -6.140  1.00  0.00     0.008 C 
ATOM     10  C   UNL     1       0.000   2.587  -4.494  1.00  0.00     0.008 C 
ENDBRANCH   7   8
BRANCH   7  11
ATOM     11  C   UNL     1      -1.627   0.949  -2.559  1.00  0.00     0.027 C 
ATOM     12  C   UNL     1      -1.234   0.132  -1.312  1.00  0.00     0.011 C 
BRANCH  11  13
ATOM     13  C   UNL     1      -3.153   1.227  -2.577  1.00  0.00     0.115 C 
ATOM     14  C   UNL     1      -3.621   2.145  -1.446  1.00  0.00     0.038 C 
BRANCH  13  15
ATOM     15  O   UNL     1      -3.533   1.839  -3.803  1.00  0.00    -0.393 OA
ATOM     16  H   UNL     1      -3.097   2.701  -3.883  1.00  0.00     0.210 HD
ENDBRANCH  13  15
ENDBRANCH  11  13
ENDBRANCH   7  11
ENDBRANCH   4   7
ENDBRANCH   2   3
ENDBRANCH   1   2
BRANCH   1  17
ATOM     17  C   UNL     1      -0.605  -3.915  -7.357  1.00  0.00     0.023 C 
BRANCH  17  18
ATOM     18  C   UNL     1      -0.920  -3.104  -8.611  1.00  0.00     0.116 C 
BRANCH  18  19
ATOM     19  N   UNL     1       0.264  -2.831  -9.409  1.00  0.00    -0.352 N 
ATOM     20  C   UNL     1       0.579  -3.188 -10.696  1.00  0.00     0.251 C 
ATOM     21  H   UNL     1       0.955  -2.302  -8.949  1.00  0.00     0.163 HD
ATOM     22  O   UNL     1       1.720  -2.993 -11.108  1.00  0.00    -0.269 OA
BRANCH  20  23
ATOM     23  C   UNL     1      -0.418  -3.821 -11.591  1.00  0.00     0.039 A 
ATOM     24  C   UNL     1       0.010  -4.847 -12.439  1.00  0.00     0.014 A 
ATOM     25  C   UNL     1      -1.746  -3.387 -11.650  1.00  0.00     0.014 A 
ATOM     26  C   UNL     1      -0.898  -5.471 -13.299  1.00  0.00     0.010 A 
ATOM     27  C   UNL     1      -2.668  -4.059 -12.455  1.00  0.00     0.010 A 
ATOM     28  C   UNL     1      -2.254  -5.104 -13.293  1.00  0.00    -0.014 A 
BRANCH  28  29
ATOM     29  C   UNL     1      -3.232  -5.826 -14.150  1.00  0.00     0.031 A 
ATOM     30  C   UNL     1      -3.945  -5.124 -15.274  1.00  0.00     0.074 A 
ATOM     31  C   UNL     1      -3.497  -7.124 -13.901  1.00  0.00     0.049 A 
ATOM     32  N   UNL     1      -4.787  -5.616 -16.150  1.00  0.00    -0.248 NA
ATOM     33  C   UNL     1      -3.699  -3.682 -15.424  1.00  0.00     0.031 C 
ATOM     34  C   UNL     1      -2.920  -7.912 -12.809  1.00  0.00     0.029 A 
ATOM     35  N   UNL     1      -4.313  -8.012 -14.556  1.00  0.00    -0.354 N 
ATOM     36  C   UNL     1      -5.176  -4.545 -16.945  1.00  0.00     0.074 A 
ATOM     37  C   UNL     1      -4.518  -3.369 -16.418  1.00  0.00     0.031 C 
ATOM     38  C   UNL     1      -3.366  -9.175 -12.896  1.00  0.00     0.029 A 
ATOM     39  C   UNL     1      -4.281  -9.280 -14.028  1.00  0.00     0.049 A 
ATOM     40  H   UNL     1      -4.868  -7.765 -15.330  1.00  0.00     0.167 HD
ATOM     41  C   UNL     1      -5.990  -4.540 -18.029  1.00  0.00     0.031 A 
ATOM     42  C   UNL     1      -4.906 -10.407 -14.416  1.00  0.00     0.031 A 
ATOM     43  C   UNL     1      -6.644  -5.707 -18.561  1.00  0.00     0.049 A 
ATOM     44  C   UNL     1      -5.790 -10.380 -15.631  1.00  0.00     0.074 A 
ATOM     45  C   UNL     1      -7.443  -5.810 -19.688  1.00  0.00     0.029 A 
ATOM     46  N   UNL     1      -6.579  -6.973 -18.002  1.00  0.00    -0.354 N 
ATOM     47  N   UNL     1      -6.080  -9.375 -16.420  1.00  0.00    -0.248 NA
ATOM     48  C   UNL     1      -6.415 -11.652 -16.018  1.00  0.00     0.031 C 
ATOM     49  C   UNL     1      -7.898  -7.130 -19.784  1.00  0.00     0.029 A 
ATOM     50  C   UNL     1      -7.338  -7.860 -18.748  1.00  0.00     0.049 A 
ATOM     51  H   UNL     1      -6.069  -7.207 -17.193  1.00  0.00     0.167 HD
ATOM     52  C   UNL     1      -6.898  -9.898 -17.413  1.00  0.00     0.074 A 
ATOM     53  C   UNL     1      -7.040 -11.313 -17.137  1.00  0.00     0.031 C 
ATOM     54  C   UNL     1      -7.480  -9.263 -18.460  1.00  0.00     0.031 A 
BRANCH  41  55
ATOM     55  C   UNL     1      -6.221  -3.220 -18.713  1.00  0.00    -0.014 A 
ATOM     56  C   UNL     1      -5.201  -2.593 -19.447  1.00  0.00     0.009 A 
ATOM     57  C   UNL     1      -7.485  -2.613 -18.656  1.00  0.00     0.009 A 
ATOM     58  C   UNL     1      -5.431  -1.367 -20.076  1.00  0.00     0.001 A 
ATOM     59  C   UNL     1      -7.721  -1.401 -19.310  1.00  0.00     0.001 A 
ATOM     60  C   UNL     1      -6.691  -0.775 -20.010  1.00  0.00     0.000 A 
ENDBRANCH  41  55
BRANCH  42  61
ATOM     61  C   UNL     1      -4.687 -11.673 -13.670  1.00  0.00    -0.014 A 
ATOM     62  C   UNL     1      -3.937 -12.714 -14.239  1.00  0.00     0.009 A 
ATOM     63  C   UNL     1      -5.231 -11.850 -12.388  1.00  0.00     0.009 A 
ATOM     64  C   UNL     1      -3.760 -13.917 -13.552  1.00  0.00     0.001 A 
ATOM     65  C   UNL     1      -5.028 -13.043 -11.692  1.00  0.00     0.001 A 
ATOM     66  C   UNL     1      -4.302 -14.079 -12.277  1.00  0.00     0.000 A 
ENDBRANCH  42  61
BRANCH  54  67
ATOM     67  C   UNL     1      -8.296 -10.106 -19.399  1.00  0.00    -0.014 A 
ATOM     68  C   UNL     1      -9.537 -10.638 -19.014  1.00  0.00     0.009 A 
ATOM     69  C   UNL     1      -7.818 -10.364 -20.694  1.00  0.00     0.009 A 
ATOM     70  C   UNL     1     -10.260 -11.450 -19.891  1.00  0.00     0.001 A 
ATOM     71  C   UNL     1      -8.557 -11.151 -21.578  1.00  0.00     0.001 A 
ATOM     72  C   UNL     1      -9.771 -11.704 -21.172  1.00  0.00     0.000 A 
ENDBRANCH  54  67
ENDBRANCH  28  29
ENDBRANCH  20  23
ENDBRANCH  18  19
ENDBRANCH  17  18
ENDBRANCH   1  17
TORSDOF 15
