REMARK SMILES O=C(/C=C/C(=O)NNC(=O)CSc1ccc2ccccc2n1)NCCCCNC(=O)c1ccc(-c2c3nc(c(-c4ccccc4)c4ccc([nH]4)c(-c4ccccc4)c4nc(c(-c5ccccc5)c5ccc2[nH]5)C=C4)C=C3)cc1
REMARK SMILES IDX 24 1 23 2 1 3 2 4 3 6 4 7 5 8 6 9 7 10 8 12 9 13 10 15 11 16
REMARK SMILES IDX 12 17 13 18 14 19 22 20 15 21 21 22 16 23 20 24 17 25 19 26
REMARK SMILES IDX 18 27 25 28 26 29 27 30 28 31 29 32 30 34 31 35 32 36 78 37
REMARK SMILES IDX 33 38 77 39 34 40 35 41 36 42 71 43 37 44 76 45 70 46 72 47
REMARK SMILES IDX 38 48 75 49 69 50 68 51 39 53 61 54 46 55 60 56 47 57 50 58
REMARK SMILES IDX 59 59 73 60 48 61 49 62 58 64 74 65 51 66 40 67 41 68 45 69
REMARK SMILES IDX 42 70 44 71 43 72 62 73 63 74 67 75 64 76 66 77 65 78 52 79
REMARK SMILES IDX 53 80 57 81 54 82 56 83 55 84
REMARK H PARENT 23 5 7 11 8 14 28 33 72 52 50 63
REMARK Flexibility Score: inf
ROOT
ATOM      1  C   UNL     1       2.131   2.133   1.367  1.00  0.00     0.116 C 
ENDROOT
BRANCH   1   2
ATOM      2  N   UNL     1       2.791   1.080   0.614  1.00  0.00    -0.353 N 
ATOM      3  O   UNL     1       0.869  -0.101   0.164  1.00  0.00    -0.270 OA
ATOM      4  C   UNL     1       2.078   0.051   0.053  1.00  0.00     0.244 C 
ATOM      5  H   UNL     1       3.769   1.106   0.503  1.00  0.00     0.163 HD
BRANCH   4   6
ATOM      6  C   UNL     1       2.840  -0.886  -0.807  1.00  0.00     0.077 C 
ATOM      7  C   UNL     1       4.057  -1.348  -0.498  1.00  0.00     0.078 C 
BRANCH   7   8
ATOM      8  C   UNL     1       4.838  -2.325  -1.297  1.00  0.00     0.262 C 
ATOM      9  O   UNL     1       6.051  -2.143  -1.403  1.00  0.00    -0.268 OA
ATOM     10  N   UNL     1       4.263  -3.446  -1.835  1.00  0.00    -0.264 N 
ATOM     11  H   UNL     1       4.865  -4.074  -2.297  1.00  0.00     0.191 HD
BRANCH  10  12
ATOM     12  N   UNL     1       2.917  -3.788  -1.797  1.00  0.00    -0.267 N 
ATOM     13  C   UNL     1       2.301  -4.674  -2.653  1.00  0.00     0.248 C 
ATOM     14  H   UNL     1       2.360  -3.365  -1.104  1.00  0.00     0.191 HD
ATOM     15  O   UNL     1       1.069  -4.742  -2.623  1.00  0.00    -0.272 OA
BRANCH  13  16
ATOM     16  C   UNL     1       3.117  -5.643  -3.492  1.00  0.00     0.178 C 
BRANCH  16  17
ATOM     17  S   UNL     1       4.306  -4.862  -4.612  1.00  0.00    -0.096 SA
BRANCH  17  18
ATOM     18  C   UNL     1       3.190  -4.030  -5.721  1.00  0.00     0.097 A 
ATOM     19  C   UNL     1       3.288  -2.654  -5.846  1.00  0.00     0.036 A 
ATOM     20  N   UNL     1       2.364  -4.790  -6.472  1.00  0.00    -0.241 NA
ATOM     21  C   UNL     1       2.500  -2.019  -6.796  1.00  0.00     0.013 A 
ATOM     22  C   UNL     1       1.612  -4.174  -7.408  1.00  0.00     0.072 A 
ATOM     23  C   UNL     1       1.652  -2.777  -7.609  1.00  0.00     0.000 A 
ATOM     24  C   UNL     1       0.774  -4.919  -8.232  1.00  0.00     0.029 A 
ATOM     25  C   UNL     1       0.873  -2.172  -8.610  1.00  0.00     0.010 A 
ATOM     26  C   UNL     1       0.000  -4.322  -9.235  1.00  0.00     0.002 A 
ATOM     27  C   UNL     1       0.051  -2.946  -9.425  1.00  0.00     0.001 A 
ENDBRANCH  17  18
ENDBRANCH  16  17
ENDBRANCH  13  16
ENDBRANCH  10  12
ENDBRANCH   7   8
ENDBRANCH   4   6
ENDBRANCH   1   2
BRANCH   1  28
ATOM     28  C   UNL     1       2.494   2.127   2.851  1.00  0.00     0.023 C 
BRANCH  28  29
ATOM     29  C   UNL     1       3.971   2.373   3.161  1.00  0.00     0.023 C 
BRANCH  29  30
ATOM     30  C   UNL     1       4.568   3.644   2.565  1.00  0.00     0.116 C 
BRANCH  30  31
ATOM     31  N   UNL     1       3.938   4.859   3.054  1.00  0.00    -0.352 N 
ATOM     32  C   UNL     1       4.520   6.006   3.544  1.00  0.00     0.251 C 
ATOM     33  H   UNL     1       2.954   4.863   3.030  1.00  0.00     0.163 HD
ATOM     34  O   UNL     1       3.827   6.889   4.033  1.00  0.00    -0.269 OA
BRANCH  32  35
ATOM     35  C   UNL     1       5.993   6.159   3.513  1.00  0.00     0.039 A 
ATOM     36  C   UNL     1       6.646   6.624   4.658  1.00  0.00     0.014 A 
ATOM     37  C   UNL     1       6.729   5.837   2.370  1.00  0.00     0.014 A 
ATOM     38  C   UNL     1       8.041   6.695   4.680  1.00  0.00     0.010 A 
ATOM     39  C   UNL     1       8.120   5.833   2.420  1.00  0.00     0.010 A 
ATOM     40  C   UNL     1       8.792   6.261   3.576  1.00  0.00    -0.014 A 
BRANCH  40  41
ATOM     41  C   UNL     1      10.278   6.235   3.617  1.00  0.00     0.031 A 
ATOM     42  C   UNL     1      11.080   7.090   2.673  1.00  0.00     0.074 A 
ATOM     43  C   UNL     1      10.908   5.396   4.462  1.00  0.00     0.049 A 
ATOM     44  N   UNL     1      12.380   7.163   2.528  1.00  0.00    -0.248 NA
ATOM     45  C   UNL     1      10.324   7.958   1.757  1.00  0.00     0.031 C 
ATOM     46  C   UNL     1      10.251   4.488   5.406  1.00  0.00     0.029 A 
ATOM     47  N   UNL     1      12.248   5.167   4.662  1.00  0.00    -0.354 N 
ATOM     48  C   UNL     1      12.594   8.069   1.496  1.00  0.00     0.074 A 
ATOM     49  C   UNL     1      11.292   8.481   1.018  1.00  0.00     0.031 C 
ATOM     50  C   UNL     1      11.187   3.827   6.105  1.00  0.00     0.029 A 
ATOM     51  C   UNL     1      12.508   4.226   5.630  1.00  0.00     0.049 A 
ATOM     52  H   UNL     1      12.955   5.632   4.160  1.00  0.00     0.167 HD
ATOM     53  C   UNL     1      13.767   8.532   1.002  1.00  0.00     0.031 A 
ATOM     54  C   UNL     1      13.677   3.733   6.081  1.00  0.00     0.031 A 
ATOM     55  C   UNL     1      15.063   8.129   1.481  1.00  0.00     0.049 A 
ATOM     56  C   UNL     1      14.965   4.241   5.493  1.00  0.00     0.074 A 
ATOM     57  C   UNL     1      16.308   8.586   1.084  1.00  0.00     0.029 A 
ATOM     58  N   UNL     1      15.282   7.169   2.457  1.00  0.00    -0.354 N 
ATOM     59  N   UNL     1      15.150   5.153   4.570  1.00  0.00    -0.248 NA
ATOM     60  C   UNL     1      16.207   3.657   6.020  1.00  0.00     0.031 C 
ATOM     61  C   UNL     1      17.281   7.857   1.774  1.00  0.00     0.029 A 
ATOM     62  C   UNL     1      16.642   6.996   2.651  1.00  0.00     0.049 A 
ATOM     63  H   UNL     1      14.575   6.682   2.940  1.00  0.00     0.167 HD
ATOM     64  C   UNL     1      16.526   5.275   4.429  1.00  0.00     0.074 A 
ATOM     65  C   UNL     1      17.128   4.357   5.374  1.00  0.00     0.031 C 
ATOM     66  C   UNL     1      17.229   6.079   3.594  1.00  0.00     0.031 A 
BRANCH  53  67
ATOM     67  C   UNL     1      13.704   9.521  -0.130  1.00  0.00    -0.014 A 
ATOM     68  C   UNL     1      13.227  10.827   0.066  1.00  0.00     0.009 A 
ATOM     69  C   UNL     1      14.168   9.153  -1.403  1.00  0.00     0.009 A 
ATOM     70  C   UNL     1      13.182  11.731  -0.998  1.00  0.00     0.001 A 
ATOM     71  C   UNL     1      14.152  10.069  -2.456  1.00  0.00     0.001 A 
ATOM     72  C   UNL     1      13.649  11.354  -2.256  1.00  0.00     0.000 A 
ENDBRANCH  53  67
BRANCH  54  73
ATOM     73  C   UNL     1      13.692   2.704   7.156  1.00  0.00    -0.014 A 
ATOM     74  C   UNL     1      14.188   3.015   8.431  1.00  0.00     0.009 A 
ATOM     75  C   UNL     1      13.230   1.402   6.908  1.00  0.00     0.009 A 
ATOM     76  C   UNL     1      14.251   2.036   9.426  1.00  0.00     0.001 A 
ATOM     77  C   UNL     1      13.263   0.434   7.914  1.00  0.00     0.001 A 
ATOM     78  C   UNL     1      13.785   0.748   9.168  1.00  0.00     0.000 A 
ENDBRANCH  54  73
BRANCH  66  79
ATOM     79  C   UNL     1      18.729   6.034   3.693  1.00  0.00    -0.014 A 
ATOM     80  C   UNL     1      19.461   4.920   3.251  1.00  0.00     0.009 A 
ATOM     81  C   UNL     1      19.423   7.144   4.200  1.00  0.00     0.009 A 
ATOM     82  C   UNL     1      20.854   4.906   3.351  1.00  0.00     0.001 A 
ATOM     83  C   UNL     1      20.817   7.140   4.267  1.00  0.00     0.001 A 
ATOM     84  C   UNL     1      21.530   6.017   3.852  1.00  0.00     0.000 A 
ENDBRANCH  66  79
ENDBRANCH  40  41
ENDBRANCH  32  35
ENDBRANCH  30  31
ENDBRANCH  29  30
ENDBRANCH  28  29
ENDBRANCH   1  28
TORSDOF 16
