REMARK SMILES C[C@H](NC(=O)c1c(C(=O)NCCCCNC(=O)c2ccc(-c3c4nc(c(-c5ccccc5)c5ccc([nH]5)c(-c5ccccc5)c5nc(c(-c6ccccc6)c6ccc3[nH]6)C=C5)C=C4)cc2)cnn1C)[C@]12C[C@H]3C[C@H](C[C@H](C3)C1)C2
REMARK SMILES IDX 12 1 11 2 10 3 8 4 9 5 7 7 6 8 68 9 66 10 67 11 69 12 4 13
REMARK SMILES IDX 3 14 5 16 2 17 1 18 70 19 71 20 78 21 79 22 72 23 76 24
REMARK SMILES IDX 74 25 73 26 77 27 75 28 13 29 14 30 15 31 16 32 17 34 18 35
REMARK SMILES IDX 19 36 65 37 20 38 64 39 21 40 22 41 23 42 58 43 24 44 63 45
REMARK SMILES IDX 57 46 59 47 25 48 62 49 56 50 55 51 26 53 48 54 33 55 47 56
REMARK SMILES IDX 34 57 37 58 46 59 60 60 35 61 36 62 45 64 61 65 38 66 27 67
REMARK SMILES IDX 28 68 32 69 29 70 31 71 30 72 49 73 50 74 54 75 51 76 53 77
REMARK SMILES IDX 52 78 39 79 40 80 44 81 41 82 43 83 42 84
REMARK H PARENT 10 6 3 15 15 33 59 52 37 63
REMARK Flexibility Score: inf
ROOT
ATOM      1  C   UNL     1       1.837   3.586   0.871  1.00  0.00     0.023 C 
ENDROOT
BRANCH   1   2
ATOM      2  C   UNL     1       2.580   2.298   0.535  1.00  0.00     0.116 C 
BRANCH   2   3
ATOM      3  N   UNL     1       3.989   2.308   0.832  1.00  0.00    -0.352 N 
ATOM      4  C   UNL     1       4.856   1.296   1.156  1.00  0.00     0.255 C 
ATOM      5  O   UNL     1       6.019   1.644   1.375  1.00  0.00    -0.269 OA
ATOM      6  H   UNL     1       4.404   3.200   0.796  1.00  0.00     0.163 HD
BRANCH   4   7
ATOM      7  C   UNL     1       4.476  -0.104   1.317  1.00  0.00     0.090 A 
ATOM      8  C   UNL     1       3.489  -0.921   0.761  1.00  0.00     0.138 A 
ATOM      9  N   UNL     1       3.756  -2.190   1.219  1.00  0.00    -0.262 N 
ATOM     10  C   UNL     1       5.205  -0.995   2.151  1.00  0.00     0.149 A 
ATOM     11  N   UNL     1       4.736  -2.241   2.135  1.00  0.00    -0.180 NA
ATOM     12  C   UNL     1       3.157  -3.437   0.800  1.00  0.00     0.174 C 
BRANCH   8  13
ATOM     13  C   UNL     1       2.478  -0.623  -0.204  1.00  0.00     0.270 C 
ATOM     14  N   UNL     1       1.157  -0.657   0.170  1.00  0.00    -0.348 N 
ATOM     15  H   UNL     1       0.547  -0.289  -0.510  1.00  0.00     0.164 HD
ATOM     16  O   UNL     1       2.740  -0.267  -1.350  1.00  0.00    -0.267 OA
BRANCH  14  17
ATOM     17  C   UNL     1       0.465  -1.134   1.385  1.00  0.00     0.085 C 
ATOM     18  C   UNL     1       0.950  -0.425   2.661  1.00  0.00     0.031 C 
BRANCH  17  19
ATOM     19  C   UNL     1      -1.103  -1.047   1.216  1.00  0.00    -0.009 C 
ATOM     20  C   UNL     1      -1.822  -1.778   2.390  1.00  0.00     0.012 C 
ATOM     21  C   UNL     1      -1.573  -1.743  -0.100  1.00  0.00     0.012 C 
ATOM     22  C   UNL     1      -1.606   0.425   1.189  1.00  0.00     0.012 C 
ATOM     23  C   UNL     1      -3.352  -1.715   2.240  1.00  0.00    -0.010 C 
ATOM     24  C   UNL     1      -3.102  -1.673  -0.257  1.00  0.00    -0.010 C 
ATOM     25  C   UNL     1      -3.136   0.486   1.036  1.00  0.00    -0.010 C 
ATOM     26  C   UNL     1      -3.794  -0.243   2.219  1.00  0.00     0.007 C 
ATOM     27  C   UNL     1      -3.765  -2.391   0.926  1.00  0.00     0.007 C 
ATOM     28  C   UNL     1      -3.544  -0.200  -0.275  1.00  0.00     0.007 C 
ENDBRANCH  17  19
ENDBRANCH  14  17
ENDBRANCH   8  13
ENDBRANCH   4   7
ENDBRANCH   2   3
ENDBRANCH   1   2
BRANCH   1  29
ATOM     29  C   UNL     1       2.356   4.869   0.226  1.00  0.00     0.023 C 
BRANCH  29  30
ATOM     30  C   UNL     1       2.714   4.801  -1.256  1.00  0.00     0.116 C 
BRANCH  30  31
ATOM     31  N   UNL     1       1.621   4.355  -2.103  1.00  0.00    -0.352 N 
ATOM     32  C   UNL     1       0.932   4.979  -3.113  1.00  0.00     0.251 C 
ATOM     33  H   UNL     1       1.319   3.436  -1.920  1.00  0.00     0.163 HD
ATOM     34  O   UNL     1      -0.028   4.403  -3.621  1.00  0.00    -0.269 OA
BRANCH  32  35
ATOM     35  C   UNL     1       1.286   6.341  -3.579  1.00  0.00     0.039 A 
ATOM     36  C   UNL     1       0.242   7.217  -3.901  1.00  0.00     0.014 A 
ATOM     37  C   UNL     1       2.607   6.758  -3.751  1.00  0.00     0.014 A 
ATOM     38  C   UNL     1       0.519   8.524  -4.309  1.00  0.00     0.010 A 
ATOM     39  C   UNL     1       2.885   8.084  -4.090  1.00  0.00     0.010 A 
ATOM     40  C   UNL     1       1.844   8.983  -4.364  1.00  0.00    -0.014 A 
BRANCH  40  41
ATOM     41  C   UNL     1       2.152  10.398  -4.691  1.00  0.00     0.031 A 
ATOM     42  C   UNL     1       2.911  10.748  -5.940  1.00  0.00     0.074 A 
ATOM     43  C   UNL     1       1.807  11.372  -3.827  1.00  0.00     0.049 A 
ATOM     44  N   UNL     1       3.365  11.914  -6.328  1.00  0.00    -0.248 NA
ATOM     45  C   UNL     1       3.226   9.643  -6.858  1.00  0.00     0.031 C 
ATOM     46  C   UNL     1       1.112  11.174  -2.553  1.00  0.00     0.029 A 
ATOM     47  N   UNL     1       2.002  12.729  -3.892  1.00  0.00    -0.354 N 
ATOM     48  C   UNL     1       4.068  11.673  -7.501  1.00  0.00     0.074 A 
ATOM     49  C   UNL     1       3.973  10.253  -7.767  1.00  0.00     0.031 C 
ATOM     50  C   UNL     1       0.915  12.368  -1.970  1.00  0.00     0.029 A 
ATOM     51  C   UNL     1       1.490  13.409  -2.815  1.00  0.00     0.049 A 
ATOM     52  H   UNL     1       2.465  13.172  -4.639  1.00  0.00     0.167 HD
ATOM     53  C   UNL     1       4.738  12.552  -8.284  1.00  0.00     0.031 A 
ATOM     54  C   UNL     1       1.480  14.725  -2.537  1.00  0.00     0.031 A 
ATOM     55  C   UNL     1       4.795  13.971  -8.062  1.00  0.00     0.049 A 
ATOM     56  C   UNL     1       2.109  15.693  -3.493  1.00  0.00     0.074 A 
ATOM     57  C   UNL     1       5.432  14.940  -8.819  1.00  0.00     0.029 A 
ATOM     58  N   UNL     1       4.167  14.627  -7.018  1.00  0.00    -0.354 N 
ATOM     59  N   UNL     1       2.770  15.447  -4.596  1.00  0.00    -0.248 NA
ATOM     60  C   UNL     1       1.979  17.122  -3.169  1.00  0.00     0.031 C 
ATOM     61  C   UNL     1       5.180  16.188  -8.234  1.00  0.00     0.029 A 
ATOM     62  C   UNL     1       4.380  15.990  -7.121  1.00  0.00     0.049 A 
ATOM     63  H   UNL     1       3.645  14.188  -6.307  1.00  0.00     0.167 HD
ATOM     64  C   UNL     1       3.127  16.687  -5.104  1.00  0.00     0.074 A 
ATOM     65  C   UNL     1       2.601  17.686  -4.196  1.00  0.00     0.031 C 
ATOM     66  C   UNL     1       3.835  16.970  -6.223  1.00  0.00     0.031 A 
BRANCH  53  67
ATOM     67  C   UNL     1       5.482  11.985  -9.454  1.00  0.00    -0.014 A 
ATOM     68  C   UNL     1       4.817  11.660 -10.646  1.00  0.00     0.009 A 
ATOM     69  C   UNL     1       6.868  11.782  -9.364  1.00  0.00     0.009 A 
ATOM     70  C   UNL     1       5.525  11.114 -11.718  1.00  0.00     0.001 A 
ATOM     71  C   UNL     1       7.574  11.250 -10.443  1.00  0.00     0.001 A 
ATOM     72  C   UNL     1       6.901  10.910 -11.616  1.00  0.00     0.000 A 
ENDBRANCH  53  67
BRANCH  54  73
ATOM     73  C   UNL     1       0.815  15.209  -1.306  1.00  0.00    -0.014 A 
ATOM     74  C   UNL     1      -0.503  15.686  -1.361  1.00  0.00     0.009 A 
ATOM     75  C   UNL     1       1.487  15.186  -0.076  1.00  0.00     0.009 A 
ATOM     76  C   UNL     1      -1.134  16.146  -0.204  1.00  0.00     0.001 A 
ATOM     77  C   UNL     1       0.849  15.637   1.081  1.00  0.00     0.001 A 
ATOM     78  C   UNL     1      -0.458  16.120   1.015  1.00  0.00     0.000 A 
ENDBRANCH  54  73
BRANCH  66  79
ATOM     79  C   UNL     1       4.050  18.417  -6.540  1.00  0.00    -0.014 A 
ATOM     80  C   UNL     1       5.094  19.136  -5.939  1.00  0.00     0.009 A 
ATOM     81  C   UNL     1       3.214  19.060  -7.464  1.00  0.00     0.009 A 
ATOM     82  C   UNL     1       5.284  20.484  -6.245  1.00  0.00     0.001 A 
ATOM     83  C   UNL     1       3.412  20.406  -7.773  1.00  0.00     0.001 A 
ATOM     84  C   UNL     1       4.444  21.117  -7.161  1.00  0.00     0.000 A 
ENDBRANCH  66  79
ENDBRANCH  40  41
ENDBRANCH  32  35
ENDBRANCH  30  31
ENDBRANCH  29  30
ENDBRANCH   1  29
TORSDOF 14
