REMARK SMILES Cc1cc(C[N@@H+]2CCCn3nc(CCC(=O)NCCCCNC(=O)c4ccc(-c5c6nc(c(-c7ccccc7)c7ccc([nH]7)c(-c7ccccc7)c7nc(c(-c8ccccc8)c8ccc5[nH]8)C=C7)C=C6)cc4)cc3C2)ccc1F
REMARK SMILES IDX 15 1 16 2 17 3 14 5 13 6 12 7 74 8 10 9 73 10 11 11 75 12
REMARK SMILES IDX 6 13 5 15 4 16 1 17 2 18 3 19 78 20 77 21 79 22 76 23 7 24
REMARK SMILES IDX 9 26 8 27 18 29 19 30 20 31 21 32 22 33 23 34 24 36 25 37
REMARK SMILES IDX 26 38 72 39 27 40 71 41 28 42 29 43 30 44 65 45 31 46 70 47
REMARK SMILES IDX 64 48 66 49 32 50 69 51 63 52 62 53 33 55 55 56 40 57 54 58
REMARK SMILES IDX 41 59 44 60 53 61 67 62 42 63 43 64 52 66 68 67 45 68 34 69
REMARK SMILES IDX 35 70 39 71 36 72 38 73 37 74 56 75 57 76 61 77 58 78 60 79
REMARK SMILES IDX 59 80 46 81 47 82 51 83 48 84 50 85 49 86
REMARK H PARENT 17 4 6 14 22 35 66 54 44 65
REMARK Flexibility Score: 90.00
ROOT
ATOM      1  C   UNL     1      -0.153   1.869  -6.221  1.00  0.00     0.220 C 
ATOM      2  O   UNL     1       1.078   1.944  -6.234  1.00  0.00    -0.275 OA
ATOM      3  N   UNL     1      -0.847   2.951  -5.752  1.00  0.00    -0.356 N 
ATOM      4  H   UNL     1      -0.319   3.773  -5.636  1.00  0.00     0.163 HD
ENDROOT
BRANCH   1   5
ATOM      5  C   UNL     1      -0.870   0.647  -6.778  1.00  0.00     0.106 C 
BRANCH   5   6
ATOM      6  C   UNL     1      -0.459  -0.675  -6.104  1.00  0.00     0.068 C 
BRANCH   6   7
ATOM      7  C   UNL     1      -1.350  -1.046  -4.953  1.00  0.00     0.063 A 
ATOM      8  C   UNL     1      -2.398  -0.819  -3.046  1.00  0.00     0.093 A 
ATOM      9  N   UNL     1      -3.156  -1.518  -3.937  1.00  0.00    -0.263 N 
ATOM     10  C   UNL     1      -1.125  -0.785  -3.579  1.00  0.00     0.055 A 
ATOM     11  N   UNL     1      -2.576  -1.555  -5.160  1.00  0.00    -0.178 NA
BRANCH   8  12
ATOM     12  C   UNL     1      -3.030   0.025  -2.013  1.00  0.00     0.319 C 
BRANCH  12  13
ATOM     13  N   UNL     1      -3.727  -0.597  -0.920  1.00  0.00    -0.326 N 
ATOM     14  H   UNL     1      -4.629  -0.121  -0.915  1.00  0.00     0.348 HD
BRANCH  13  15
ATOM     15  C   UNL     1      -3.251  -0.234   0.416  1.00  0.00     0.299 C 
BRANCH  15  16
ATOM     16  C   UNL     1      -1.755  -0.383   0.592  1.00  0.00     0.007 A 
ATOM     17  C   UNL     1       1.401   1.736   0.173  1.00  0.00     0.047 C 
ATOM     18  C   UNL     1       0.484   0.573   0.403  1.00  0.00    -0.015 A 
ATOM     19  C   UNL     1      -0.902   0.738   0.498  1.00  0.00     0.016 A 
ATOM     20  C   UNL     1       1.004  -0.721   0.462  1.00  0.00     0.126 A 
ATOM     21  C   UNL     1       0.179  -1.830   0.624  1.00  0.00     0.040 A 
ATOM     22  F   UNL     1       2.324  -0.913   0.332  1.00  0.00    -0.207 F 
ATOM     23  C   UNL     1      -1.200  -1.662   0.691  1.00  0.00     0.012 A 
ENDBRANCH  15  16
ENDBRANCH  13  15
BRANCH  13  24
ATOM     24  C   UNL     1      -4.225  -1.938  -1.144  1.00  0.00     0.264 CG0
ATOM     25  G   UNL     1      -5.142  -2.038  -2.378  1.00  0.00     0.000 G0
ENDBRANCH  13  24
ENDBRANCH  12  13
ENDBRANCH   8  12
BRANCH   9  26
ATOM     26  C   UNL     1      -4.561  -1.836  -3.795  1.00  0.00     0.150 C 
BRANCH  26  27
ATOM     27  C   UNL     1      -5.142  -2.038  -2.378  1.00  0.00     0.085 CG0
ATOM     28  G   UNL     1      -4.225  -1.938  -1.144  1.00  0.00     0.000 G0
ENDBRANCH  26  27
ENDBRANCH   9  26
ENDBRANCH   6   7
ENDBRANCH   5   6
ENDBRANCH   1   5
BRANCH   3  29
ATOM     29  C   UNL     1      -2.253   3.061  -5.401  1.00  0.00     0.116 C 
BRANCH  29  30
ATOM     30  C   UNL     1      -2.513   2.430  -4.038  1.00  0.00     0.023 C 
BRANCH  30  31
ATOM     31  C   UNL     1      -2.292   3.311  -2.797  1.00  0.00     0.023 C 
BRANCH  31  32
ATOM     32  C   UNL     1      -3.585   3.859  -2.191  1.00  0.00     0.116 C 
BRANCH  32  33
ATOM     33  N   UNL     1      -4.486   2.864  -1.589  1.00  0.00    -0.352 N 
ATOM     34  C   UNL     1      -5.856   2.943  -1.340  1.00  0.00     0.251 C 
ATOM     35  H   UNL     1      -4.059   2.017  -1.323  1.00  0.00     0.163 HD
ATOM     36  O   UNL     1      -6.436   2.161  -0.629  1.00  0.00    -0.269 OA
BRANCH  34  37
ATOM     37  C   UNL     1      -6.564   4.078  -1.958  1.00  0.00     0.039 A 
ATOM     38  C   UNL     1      -7.003   5.122  -1.146  1.00  0.00     0.014 A 
ATOM     39  C   UNL     1      -6.375   4.239  -3.320  1.00  0.00     0.014 A 
ATOM     40  C   UNL     1      -7.024   6.407  -1.681  1.00  0.00     0.010 A 
ATOM     41  C   UNL     1      -6.229   5.531  -3.781  1.00  0.00     0.010 A 
ATOM     42  C   UNL     1      -6.516   6.637  -2.972  1.00  0.00    -0.014 A 
BRANCH  42  43
ATOM     43  C   UNL     1      -6.143   8.004  -3.382  1.00  0.00     0.031 A 
ATOM     44  C   UNL     1      -5.726   8.959  -2.300  1.00  0.00     0.074 A 
ATOM     45  C   UNL     1      -5.990   8.454  -4.648  1.00  0.00     0.049 A 
ATOM     46  N   UNL     1      -6.423   9.941  -1.828  1.00  0.00    -0.248 NA
ATOM     47  C   UNL     1      -4.426   8.786  -1.634  1.00  0.00     0.031 C 
ATOM     48  C   UNL     1      -6.049   7.734  -5.925  1.00  0.00     0.029 A 
ATOM     49  N   UNL     1      -5.667   9.721  -5.043  1.00  0.00    -0.354 N 
ATOM     50  C   UNL     1      -5.609  10.618  -0.922  1.00  0.00     0.074 A 
ATOM     51  C   UNL     1      -4.434   9.796  -0.757  1.00  0.00     0.031 C 
ATOM     52  C   UNL     1      -5.540   8.500  -6.912  1.00  0.00     0.029 A 
ATOM     53  C   UNL     1      -5.351   9.833  -6.384  1.00  0.00     0.049 A 
ATOM     54  H   UNL     1      -5.659  10.488  -4.426  1.00  0.00     0.167 HD
ATOM     55  C   UNL     1      -5.888  11.892  -0.517  1.00  0.00     0.031 A 
ATOM     56  C   UNL     1      -5.038  10.950  -7.072  1.00  0.00     0.031 A 
ATOM     57  C   UNL     1      -7.214  12.300  -0.909  1.00  0.00     0.049 A 
ATOM     58  C   UNL     1      -5.626  12.092  -6.346  1.00  0.00     0.074 A 
ATOM     59  C   UNL     1      -8.497  11.854  -0.666  1.00  0.00     0.029 A 
ATOM     60  N   UNL     1      -7.311  13.132  -1.999  1.00  0.00    -0.354 N 
ATOM     61  N   UNL     1      -6.910  12.283  -6.234  1.00  0.00    -0.248 NA
ATOM     62  C   UNL     1      -4.802  12.841  -5.415  1.00  0.00     0.031 C 
ATOM     63  C   UNL     1      -9.187  12.036  -1.904  1.00  0.00     0.029 A 
ATOM     64  C   UNL     1      -8.296  12.625  -2.805  1.00  0.00     0.049 A 
ATOM     65  H   UNL     1      -6.774  13.939  -2.168  1.00  0.00     0.167 HD
ATOM     66  C   UNL     1      -7.080  12.820  -4.967  1.00  0.00     0.074 A 
ATOM     67  C   UNL     1      -5.748  13.273  -4.577  1.00  0.00     0.031 C 
ATOM     68  C   UNL     1      -8.223  12.598  -4.251  1.00  0.00     0.031 A 
BRANCH  55  69
ATOM     69  C   UNL     1      -4.863  12.917  -0.090  1.00  0.00    -0.014 A 
ATOM     70  C   UNL     1      -5.309  14.176   0.364  1.00  0.00     0.009 A 
ATOM     71  C   UNL     1      -3.492  12.804  -0.377  1.00  0.00     0.009 A 
ATOM     72  C   UNL     1      -4.446  15.276   0.449  1.00  0.00     0.001 A 
ATOM     73  C   UNL     1      -2.618  13.891  -0.253  1.00  0.00     0.001 A 
ATOM     74  C   UNL     1      -3.100  15.134   0.132  1.00  0.00     0.000 A 
ENDBRANCH  55  69
BRANCH  56  75
ATOM     75  C   UNL     1      -4.176  11.076  -8.255  1.00  0.00    -0.014 A 
ATOM     76  C   UNL     1      -4.277  12.178  -9.113  1.00  0.00     0.009 A 
ATOM     77  C   UNL     1      -3.068  10.218  -8.401  1.00  0.00     0.009 A 
ATOM     78  C   UNL     1      -3.275  12.439 -10.055  1.00  0.00     0.001 A 
ATOM     79  C   UNL     1      -2.070  10.478  -9.343  1.00  0.00     0.001 A 
ATOM     80  C   UNL     1      -2.166  11.601 -10.158  1.00  0.00     0.000 A 
ENDBRANCH  56  75
BRANCH  68  81
ATOM     81  C   UNL     1      -9.411  12.006  -4.973  1.00  0.00    -0.014 A 
ATOM     82  C   UNL     1      -9.373  10.753  -5.610  1.00  0.00     0.009 A 
ATOM     83  C   UNL     1     -10.645  12.667  -4.888  1.00  0.00     0.009 A 
ATOM     84  C   UNL     1     -10.525  10.199  -6.177  1.00  0.00     0.001 A 
ATOM     85  C   UNL     1     -11.802  12.103  -5.433  1.00  0.00     0.001 A 
ATOM     86  C   UNL     1     -11.740  10.873  -6.085  1.00  0.00     0.000 A 
ENDBRANCH  68  81
ENDBRANCH  42  43
ENDBRANCH  34  37
ENDBRANCH  32  33
ENDBRANCH  31  32
ENDBRANCH  30  31
ENDBRANCH  29  30
ENDBRANCH   3  29
TORSDOF 15
