REMARK SMILES COc1ccc(C(=O)NCCCCNC(=O)c2ccc(-c3c4nc(c(-c5ccccc5)c5ccc([nH]5)c(-c5ccccc5)c5nc(c(-c6ccccc6)c6ccc3[nH]6)C=C5)C=C4)cc2)cc1NC(=S)NC(=O)c1cccc(C)c1OC
REMARK SMILES IDX 10 1 9 2 7 3 8 4 6 6 3 7 4 8 66 9 5 10 65 11 2 12 1 13 67 14
REMARK SMILES IDX 68 16 69 17 70 18 71 19 72 21 73 22 74 23 79 24 75 25 77 26
REMARK SMILES IDX 76 27 78 28 80 29 81 30 11 31 12 32 13 33 14 34 15 35 16 37
REMARK SMILES IDX 17 38 18 39 64 40 19 41 63 42 20 43 21 44 22 45 57 46 23 47
REMARK SMILES IDX 62 48 56 49 58 50 24 51 61 52 55 53 54 54 25 56 47 57 32 58
REMARK SMILES IDX 46 59 33 60 36 61 45 62 59 63 34 64 35 65 44 67 60 68 37 69
REMARK SMILES IDX 26 70 27 71 31 72 28 73 30 74 29 75 48 76 49 77 53 78 50 79
REMARK SMILES IDX 52 80 51 81 38 82 39 83 43 84 40 85 42 86 41 87
REMARK H PARENT 9 5 67 15 70 20 14 36 58 55 36 66
REMARK Flexibility Score: inf
ROOT
ATOM      1  C   UNL     1       4.214  -6.486  -0.512  1.00  0.00     0.116 C 
ENDROOT
BRANCH   1   2
ATOM      2  N   UNL     1       2.788  -6.423  -0.112  1.00  0.00    -0.352 N 
ATOM      3  C   UNL     1       1.617  -5.600   0.336  1.00  0.00     0.251 C 
ATOM      4  O   UNL     1       0.902  -6.671   0.273  1.00  0.00    -0.269 OA
ATOM      5  H   UNL     1       2.457  -7.349  -0.164  1.00  0.00     0.163 HD
BRANCH   3   6
ATOM      6  C   UNL     1       1.234  -3.563   0.895  1.00  0.00     0.042 A 
ATOM      7  C   UNL     1       0.992  -0.602   1.692  1.00  0.00     0.142 A 
ATOM      8  C   UNL     1      -0.017  -1.493   1.995  1.00  0.00     0.049 A 
ATOM      9  C   UNL     1       2.147  -1.123   1.204  1.00  0.00     0.084 A 
ATOM     10  C   UNL     1       0.137  -2.889   1.692  1.00  0.00     0.018 A 
ATOM     11  C   UNL     1       2.028  -2.344   0.592  1.00  0.00     0.044 A 
BRANCH   7  12
ATOM     12  O   UNL     1       0.759   0.742   1.705  1.00  0.00    -0.495 OA
ATOM     13  C   UNL     1       0.720   1.202   0.337  1.00  0.00     0.278 C 
ENDBRANCH   7  12
BRANCH   9  14
ATOM     14  N   UNL     1       3.388  -0.480   1.094  1.00  0.00    -0.329 N 
ATOM     15  H   UNL     1       3.382   0.484   1.296  1.00  0.00     0.169 HD
BRANCH  14  16
ATOM     16  C   UNL     1       4.603  -0.994   0.747  1.00  0.00     0.177 C 
ATOM     17  S   UNL     1       5.838   0.085   0.399  1.00  0.00    -0.040 S 
BRANCH  16  18
ATOM     18  N   UNL     1       4.933  -2.345   0.712  1.00  0.00    -0.299 N 
ATOM     19  C   UNL     1       4.457  -3.565   1.230  1.00  0.00     0.261 C 
ATOM     20  H   UNL     1       5.736  -2.492   0.163  1.00  0.00     0.172 HD
ATOM     21  O   UNL     1       5.075  -4.061   2.175  1.00  0.00    -0.269 OA
BRANCH  19  22
ATOM     22  C   UNL     1       3.226  -4.299   0.728  1.00  0.00     0.082 A 
ATOM     23  C   UNL     1       2.300  -4.932   2.169  1.00  0.00     0.018 A 
ATOM     24  C   UNL     1       2.338  -4.131  -0.899  1.00  0.00     0.134 A 
ATOM     25  C   UNL     1       0.533  -5.294   2.059  1.00  0.00     0.001 A 
ATOM     26  C   UNL     1       0.536  -4.399  -0.962  1.00  0.00    -0.008 A 
ATOM     27  C   UNL     1      -0.372  -4.978   0.495  1.00  0.00     0.007 A 
ATOM     28  C   UNL     1      -0.281  -3.702  -2.018  1.00  0.00     0.048 C 
BRANCH  24  29
ATOM     29  O   UNL     1       2.753  -3.501  -2.051  1.00  0.00    -0.496 OA
ATOM     30  C   UNL     1       4.123  -3.407  -2.376  1.00  0.00     0.278 C 
ENDBRANCH  24  29
ENDBRANCH  19  22
ENDBRANCH  16  18
ENDBRANCH  14  16
ENDBRANCH   9  14
ENDBRANCH   3   6
ENDBRANCH   1   2
BRANCH   1  31
ATOM     31  C   UNL     1       5.202  -6.565   0.652  1.00  0.00     0.023 C 
BRANCH  31  32
ATOM     32  C   UNL     1       6.180  -7.726   0.641  1.00  0.00     0.023 C 
BRANCH  32  33
ATOM     33  C   UNL     1       7.027  -7.843  -0.613  1.00  0.00     0.116 C 
BRANCH  33  34
ATOM     34  N   UNL     1       7.896  -6.705  -0.891  1.00  0.00    -0.352 N 
ATOM     35  C   UNL     1       9.140  -6.732  -1.489  1.00  0.00     0.251 C 
ATOM     36  H   UNL     1       7.558  -5.821  -0.623  1.00  0.00     0.163 HD
ATOM     37  O   UNL     1       9.796  -5.709  -1.643  1.00  0.00    -0.269 OA
BRANCH  35  38
ATOM     38  C   UNL     1       9.693  -8.047  -1.883  1.00  0.00     0.039 A 
ATOM     39  C   UNL     1      10.930  -8.444  -1.371  1.00  0.00     0.014 A 
ATOM     40  C   UNL     1       8.908  -8.938  -2.617  1.00  0.00     0.014 A 
ATOM     41  C   UNL     1      11.331  -9.774  -1.511  1.00  0.00     0.010 A 
ATOM     42  C   UNL     1       9.254 -10.281  -2.649  1.00  0.00     0.010 A 
ATOM     43  C   UNL     1      10.469 -10.717  -2.097  1.00  0.00    -0.014 A 
BRANCH  43  44
ATOM     44  C   UNL     1      10.812 -12.162  -2.147  1.00  0.00     0.031 A 
ATOM     45  C   UNL     1      10.918 -12.859  -3.476  1.00  0.00     0.074 A 
ATOM     46  C   UNL     1      10.956 -12.862  -1.003  1.00  0.00     0.049 A 
ATOM     47  N   UNL     1      11.147 -14.123  -3.730  1.00  0.00    -0.248 NA
ATOM     48  C   UNL     1      10.704 -12.036  -4.679  1.00  0.00     0.031 C 
ATOM     49  C   UNL     1      10.825 -12.319   0.352  1.00  0.00     0.029 A 
ATOM     50  N   UNL     1      11.244 -14.190  -0.798  1.00  0.00    -0.354 N 
ATOM     51  C   UNL     1      11.087 -14.244  -5.113  1.00  0.00     0.074 A 
ATOM     52  C   UNL     1      10.731 -12.946  -5.639  1.00  0.00     0.031 C 
ATOM     53  C   UNL     1      11.072 -13.293   1.243  1.00  0.00     0.029 A 
ATOM     54  C   UNL     1      11.332 -14.539   0.529  1.00  0.00     0.049 A 
ATOM     55  H   UNL     1      11.375 -14.831  -1.533  1.00  0.00     0.167 HD
ATOM     56  C   UNL     1      11.334 -15.330  -5.882  1.00  0.00     0.031 A 
ATOM     57  C   UNL     1      11.589 -15.729   1.105  1.00  0.00     0.031 A 
ATOM     58  C   UNL     1      11.701 -16.618  -5.360  1.00  0.00     0.049 A 
ATOM     59  C   UNL     1      11.844 -16.925   0.229  1.00  0.00     0.074 A 
ATOM     60  C   UNL     1      12.028 -17.767  -6.056  1.00  0.00     0.029 A 
ATOM     61  N   UNL     1      11.786 -16.926  -4.011  1.00  0.00    -0.354 N 
ATOM     62  N   UNL     1      11.861 -17.004  -1.079  1.00  0.00    -0.248 NA
ATOM     63  C   UNL     1      12.128 -18.196   0.912  1.00  0.00     0.031 C 
ATOM     64  C   UNL     1      12.252 -18.788  -5.128  1.00  0.00     0.029 A 
ATOM     65  C   UNL     1      12.134 -18.256  -3.854  1.00  0.00     0.049 A 
ATOM     66  H   UNL     1      11.623 -16.293  -3.275  1.00  0.00     0.167 HD
ATOM     67  C   UNL     1      12.190 -18.321  -1.376  1.00  0.00     0.074 A 
ATOM     68  C   UNL     1      12.381 -19.000  -0.112  1.00  0.00     0.031 C 
ATOM     69  C   UNL     1      12.324 -18.915  -2.587  1.00  0.00     0.031 A 
BRANCH  56  70
ATOM     70  C   UNL     1      11.214 -15.165  -7.372  1.00  0.00    -0.014 A 
ATOM     71  C   UNL     1      12.120 -14.370  -8.094  1.00  0.00     0.009 A 
ATOM     72  C   UNL     1      10.198 -15.838  -8.069  1.00  0.00     0.009 A 
ATOM     73  C   UNL     1      11.986 -14.220  -9.476  1.00  0.00     0.001 A 
ATOM     74  C   UNL     1      10.088 -15.714  -9.455  1.00  0.00     0.001 A 
ATOM     75  C   UNL     1      10.975 -14.897 -10.156  1.00  0.00     0.000 A 
ENDBRANCH  56  70
BRANCH  57  76
ATOM     76  C   UNL     1      11.636 -15.853   2.588  1.00  0.00    -0.014 A 
ATOM     77  C   UNL     1      12.847 -16.124   3.245  1.00  0.00     0.009 A 
ATOM     78  C   UNL     1      10.467 -15.722   3.355  1.00  0.00     0.009 A 
ATOM     79  C   UNL     1      12.880 -16.294   4.632  1.00  0.00     0.001 A 
ATOM     80  C   UNL     1      10.509 -15.859   4.745  1.00  0.00     0.001 A 
ATOM     81  C   UNL     1      11.713 -16.157   5.381  1.00  0.00     0.000 A 
ENDBRANCH  57  76
BRANCH  69  82
ATOM     82  C   UNL     1      12.739 -20.360  -2.606  1.00  0.00    -0.014 A 
ATOM     83  C   UNL     1      11.868 -21.380  -2.193  1.00  0.00     0.009 A 
ATOM     84  C   UNL     1      14.010 -20.706  -3.093  1.00  0.00     0.009 A 
ATOM     85  C   UNL     1      12.277 -22.714  -2.233  1.00  0.00     0.001 A 
ATOM     86  C   UNL     1      14.402 -22.043  -3.164  1.00  0.00     0.001 A 
ATOM     87  C   UNL     1      13.540 -23.045  -2.724  1.00  0.00     0.000 A 
ENDBRANCH  69  82
ENDBRANCH  43  44
ENDBRANCH  35  38
ENDBRANCH  33  34
ENDBRANCH  32  33
ENDBRANCH  31  32
ENDBRANCH   1  31
TORSDOF 17
