REMARK SMILES O=C(CCSC1=[NH+][C@@H]2C=Cc3nsnc3[C@H]2N1)NCCCCNC(=O)c1ccc(-c2c3nc(c(-c4ccccc4)c4ccc([nH]4)c(-c4ccccc4)c4nc(c(-c5ccccc5)c5ccc2[nH]5)C=C4)C=C3)cc1
REMARK SMILES IDX 20 1 19 2 18 3 1 4 2 5 3 7 4 8 5 9 6 10 7 11 17 12 8 13
REMARK SMILES IDX 16 15 9 17 15 18 10 19 11 20 14 21 12 22 13 23 21 24 22 25
REMARK SMILES IDX 23 26 24 27 25 29 26 30 27 31 73 32 28 33 72 34 29 35 30 36
REMARK SMILES IDX 31 37 66 38 32 39 71 40 65 41 67 42 33 43 70 44 64 45 63 46
REMARK SMILES IDX 34 48 56 49 41 50 55 51 42 52 45 53 54 54 68 55 43 56 44 57
REMARK SMILES IDX 53 59 69 60 46 61 35 62 36 63 40 64 37 65 39 66 38 67 57 68
REMARK SMILES IDX 58 69 62 70 59 71 61 72 60 73 47 74 48 75 52 76 49 77 51 78
REMARK SMILES IDX 50 79
REMARK H PARENT 18 6 7 14 17 16 23 28 67 47 45 58
REMARK Flexibility Score: inf
ROOT
ATOM      1  C   UNL     1       1.785  -1.179   3.740  1.00  0.00     0.023 C 
ENDROOT
BRANCH   1   2
ATOM      2  C   UNL     1       1.639  -0.143   2.618  1.00  0.00     0.116 C 
BRANCH   2   3
ATOM      3  N   UNL     1       2.501  -0.363   1.470  1.00  0.00    -0.356 N 
ATOM      4  O   UNL     1       0.999   0.496  -0.043  1.00  0.00    -0.275 OA
ATOM      5  C   UNL     1       2.112   0.048   0.213  1.00  0.00     0.220 C 
ATOM      6  H   UNL     1       3.371  -0.809   1.591  1.00  0.00     0.163 HD
BRANCH   5   7
ATOM      7  C   UNL     1       3.181  -0.052  -0.848  1.00  0.00     0.111 C 
BRANCH   7   8
ATOM      8  C   UNL     1       3.909   1.281  -1.007  1.00  0.00     0.092 C 
BRANCH   8   9
ATOM      9  S   UNL     1       5.493   1.301  -0.119  1.00  0.00    -0.039 SA
BRANCH   9  10
ATOM     10  C   UNL     1       5.160   2.079   1.386  1.00  0.00     0.305 C 
ATOM     11  N   UNL     1       4.660   3.287   1.529  1.00  0.00    -0.258 N 
ATOM     12  N   UNL     1       5.598   1.446   2.515  1.00  0.00    -0.256 N 
ATOM     13  C   UNL     1       4.568   3.370   3.034  1.00  0.00     0.248 C 
ATOM     14  H   UNL     1       4.415   3.951   0.845  1.00  0.00     0.306 HD
ATOM     15  C   UNL     1       5.735   2.436   3.551  1.00  0.00     0.274 C 
ATOM     16  H   UNL     1       5.787   0.484   2.604  1.00  0.00     0.306 HD
ATOM     17  C   UNL     1       4.481   4.755   3.637  1.00  0.00     0.029 C 
ATOM     18  C   UNL     1       5.556   2.281   5.025  1.00  0.00     0.131 A 
ATOM     19  C   UNL     1       4.431   4.926   4.981  1.00  0.00     0.032 C 
ATOM     20  C   UNL     1       4.679   3.806   5.866  1.00  0.00     0.105 A 
ATOM     21  N   UNL     1       5.874   0.983   6.136  1.00  0.00    -0.173 NA
ATOM     22  N   UNL     1       4.367   3.632   7.503  1.00  0.00    -0.173 NA
ATOM     23  S   UNL     1       4.847   1.520   8.173  1.00  0.00     0.069 S 
ENDBRANCH   9  10
ENDBRANCH   8   9
ENDBRANCH   7   8
ENDBRANCH   5   7
ENDBRANCH   2   3
ENDBRANCH   1   2
BRANCH   1  24
ATOM     24  C   UNL     1       3.183  -1.383   4.327  1.00  0.00     0.023 C 
BRANCH  24  25
ATOM     25  C   UNL     1       3.929  -0.110   4.685  1.00  0.00     0.116 C 
BRANCH  25  26
ATOM     26  N   UNL     1       3.725   0.468   6.013  1.00  0.00    -0.352 N 
ATOM     27  C   UNL     1       4.195   1.962   6.295  1.00  0.00     0.251 C 
ATOM     28  H   UNL     1       3.301  -0.062   6.726  1.00  0.00     0.163 HD
ATOM     29  O   UNL     1       3.020   2.437   6.104  1.00  0.00    -0.269 OA
BRANCH  27  30
ATOM     30  C   UNL     1       6.149   2.751   6.890  1.00  0.00     0.039 A 
ATOM     31  C   UNL     1       7.217   2.237   7.876  1.00  0.00     0.014 A 
ATOM     32  C   UNL     1       6.964   3.914   6.307  1.00  0.00     0.014 A 
ATOM     33  C   UNL     1       8.339   2.918   8.429  1.00  0.00     0.010 A 
ATOM     34  C   UNL     1       8.116   4.574   6.783  1.00  0.00     0.010 A 
ATOM     35  C   UNL     1       8.757   4.125   7.910  1.00  0.00    -0.014 A 
BRANCH  35  36
ATOM     36  C   UNL     1      10.037   4.693   8.359  1.00  0.00     0.031 A 
ATOM     37  C   UNL     1      11.062   4.629   7.248  1.00  0.00     0.074 A 
ATOM     38  C   UNL     1      10.091   5.711   9.248  1.00  0.00     0.049 A 
ATOM     39  N   UNL     1      11.069   5.459   6.242  1.00  0.00    -0.248 NA
ATOM     40  C   UNL     1      11.867   3.431   7.006  1.00  0.00     0.031 C 
ATOM     41  C   UNL     1       9.091   6.777   9.389  1.00  0.00     0.029 A 
ATOM     42  N   UNL     1      11.113   6.099  10.091  1.00  0.00    -0.354 N 
ATOM     43  C   UNL     1      11.843   4.903   5.232  1.00  0.00     0.074 A 
ATOM     44  C   UNL     1      12.318   3.642   5.757  1.00  0.00     0.031 C 
ATOM     45  C   UNL     1       9.621   7.780  10.121  1.00  0.00     0.029 A 
ATOM     46  C   UNL     1      10.937   7.383  10.621  1.00  0.00     0.049 A 
ATOM     47  H   UNL     1      11.889   5.530  10.298  1.00  0.00     0.167 HD
ATOM     48  C   UNL     1      12.037   5.524   4.034  1.00  0.00     0.031 A 
ATOM     49  C   UNL     1      11.981   8.244  10.807  1.00  0.00     0.031 A 
ATOM     50  C   UNL     1      11.377   6.792   3.902  1.00  0.00     0.049 A 
ATOM     51  C   UNL     1      12.302   8.628   9.381  1.00  0.00     0.074 A 
ATOM     52  C   UNL     1      10.310   7.346   3.229  1.00  0.00     0.029 A 
ATOM     53  N   UNL     1      11.909   7.839   4.610  1.00  0.00    -0.354 N 
ATOM     54  N   UNL     1      11.617   9.455   8.637  1.00  0.00    -0.248 NA
ATOM     55  C   UNL     1      13.196   7.739   8.639  1.00  0.00     0.031 C 
ATOM     56  C   UNL     1       9.989   8.540   3.955  1.00  0.00     0.029 A 
ATOM     57  C   UNL     1      10.876   8.631   5.028  1.00  0.00     0.049 A 
ATOM     58  H   UNL     1      12.865   7.994   4.786  1.00  0.00     0.167 HD
ATOM     59  C   UNL     1      11.746   8.979   7.330  1.00  0.00     0.074 A 
ATOM     60  C   UNL     1      12.749   7.933   7.405  1.00  0.00     0.031 C 
ATOM     61  C   UNL     1      10.906   9.316   6.304  1.00  0.00     0.031 A 
BRANCH  48  62
ATOM     62  C   UNL     1      13.027   5.147   2.992  1.00  0.00    -0.014 A 
ATOM     63  C   UNL     1      14.191   5.937   2.926  1.00  0.00     0.009 A 
ATOM     64  C   UNL     1      12.761   4.259   1.945  1.00  0.00     0.009 A 
ATOM     65  C   UNL     1      15.042   5.888   1.825  1.00  0.00     0.001 A 
ATOM     66  C   UNL     1      13.632   4.196   0.845  1.00  0.00     0.001 A 
ATOM     67  C   UNL     1      14.758   5.021   0.778  1.00  0.00     0.000 A 
ENDBRANCH  48  62
BRANCH  49  68
ATOM     68  C   UNL     1      13.008   7.786  11.800  1.00  0.00    -0.014 A 
ATOM     69  C   UNL     1      12.547   7.418  13.081  1.00  0.00     0.009 A 
ATOM     70  C   UNL     1      14.385   7.663  11.560  1.00  0.00     0.009 A 
ATOM     71  C   UNL     1      13.391   6.827  14.025  1.00  0.00     0.001 A 
ATOM     72  C   UNL     1      15.229   7.046  12.495  1.00  0.00     0.001 A 
ATOM     73  C   UNL     1      14.728   6.608  13.717  1.00  0.00     0.000 A 
ENDBRANCH  49  68
BRANCH  61  74
ATOM     74  C   UNL     1       9.836  10.318   6.615  1.00  0.00    -0.014 A 
ATOM     75  C   UNL     1      10.173  11.621   7.002  1.00  0.00     0.009 A 
ATOM     76  C   UNL     1       8.476   9.989   6.472  1.00  0.00     0.009 A 
ATOM     77  C   UNL     1       9.180  12.577   7.218  1.00  0.00     0.001 A 
ATOM     78  C   UNL     1       7.483  10.953   6.665  1.00  0.00     0.001 A 
ATOM     79  C   UNL     1       7.838  12.248   7.035  1.00  0.00     0.000 A 
ENDBRANCH  61  74
ENDBRANCH  35  36
ENDBRANCH  27  30
ENDBRANCH  25  26
ENDBRANCH  24  25
ENDBRANCH   1  24
TORSDOF 14
