REMARK SMILES CC[C@@H]1CCCC[N@H+]1Cc1c(C(=O)NCCCCNC(=O)c2ccc(-c3c4nc(c(-c5ccccc5)c5ccc([nH]5)c(-c5ccccc5)c5nc(c(-c6ccccc6)c6ccc3[nH]6)C=C5)C=C4)cc2)oc2ccccc12
REMARK SMILES IDX 16 1 15 2 14 3 12 4 13 5 11 7 10 8 76 9 70 10 71 11 75 12
REMARK SMILES IDX 72 13 74 14 73 15 9 16 8 17 3 18 4 19 5 20 7 21 6 23 2 24
REMARK SMILES IDX 1 25 17 26 18 27 19 28 20 29 21 31 22 32 23 33 69 34 24 35
REMARK SMILES IDX 68 36 25 37 26 38 27 39 62 40 28 41 67 42 61 43 63 44 29 45
REMARK SMILES IDX 66 46 60 47 59 48 30 50 52 51 37 52 51 53 38 54 41 55 50 56
REMARK SMILES IDX 64 57 39 58 40 59 49 61 65 62 42 63 31 64 32 65 36 66 33 67
REMARK SMILES IDX 35 68 34 69 53 70 54 71 58 72 55 73 57 74 56 75 43 76 44 77
REMARK SMILES IDX 48 78 45 79 47 80 46 81
REMARK H PARENT 14 6 8 22 19 30 63 49 41 60
REMARK Flexibility Score: inf
ROOT
ATOM      1  C   UNL     1       1.719   6.632  -7.366  1.00  0.00     0.023 C 
ENDROOT
BRANCH   1   2
ATOM      2  C   UNL     1       1.976   5.141  -7.586  1.00  0.00     0.116 C 
BRANCH   2   3
ATOM      3  N   UNL     1       2.953   4.611  -6.650  1.00  0.00    -0.349 N 
ATOM      4  C   UNL     1       2.822   3.861  -5.499  1.00  0.00     0.287 C 
ATOM      5  O   UNL     1       3.881   3.596  -4.924  1.00  0.00    -0.266 OA
ATOM      6  H   UNL     1       3.885   4.829  -6.880  1.00  0.00     0.163 HD
BRANCH   4   7
ATOM      7  C   UNL     1       1.523   3.431  -5.001  1.00  0.00     0.201 A 
ATOM      8  C   UNL     1       1.147   2.723  -3.849  1.00  0.00     0.066 A 
ATOM      9  C   UNL     1      -0.298   2.703  -3.867  1.00  0.00     0.030 A 
ATOM     10  O   UNL     1       0.411   3.706  -5.739  1.00  0.00    -0.450 OA
ATOM     11  C   UNL     1      -0.671   3.247  -5.084  1.00  0.00     0.135 A 
ATOM     12  C   UNL     1      -1.339   2.268  -3.023  1.00  0.00     0.012 A 
ATOM     13  C   UNL     1      -1.977   3.322  -5.565  1.00  0.00     0.048 A 
ATOM     14  C   UNL     1      -2.667   2.311  -3.475  1.00  0.00     0.001 A 
ATOM     15  C   UNL     1      -2.978   2.817  -4.735  1.00  0.00     0.004 A 
BRANCH   8  16
ATOM     16  C   UNL     1       2.075   2.148  -2.804  1.00  0.00     0.304 C 
BRANCH  16  17
ATOM     17  N   UNL     1       2.205   0.666  -2.819  1.00  0.00    -0.329 N 
ATOM     18  C   UNL     1       1.046  -0.094  -2.307  1.00  0.00     0.184 C 
ATOM     19  C   UNL     1       1.261  -1.623  -2.392  1.00  0.00     0.065 C 
ATOM     20  C   UNL     1       1.662  -2.063  -3.789  1.00  0.00     0.012 C 
ATOM     21  C   UNL     1       2.689   0.195  -4.130  1.00  0.00     0.262 C 
ATOM     22  H   UNL     1       2.919   0.454  -2.122  1.00  0.00     0.348 HD
ATOM     23  C   UNL     1       2.919  -1.314  -4.195  1.00  0.00     0.062 C 
BRANCH  18  24
ATOM     24  C   UNL     1       0.637   0.270  -0.853  1.00  0.00     0.061 C 
ATOM     25  C   UNL     1       1.590  -0.182   0.245  1.00  0.00     0.010 C 
ENDBRANCH  18  24
ENDBRANCH  16  17
ENDBRANCH   8  16
ENDBRANCH   4   7
ENDBRANCH   2   3
ENDBRANCH   1   2
BRANCH   1  26
ATOM     26  C   UNL     1       2.865   7.545  -7.815  1.00  0.00     0.023 C 
BRANCH  26  27
ATOM     27  C   UNL     1       3.324   7.361  -9.260  1.00  0.00     0.116 C 
BRANCH  27  28
ATOM     28  N   UNL     1       2.253   7.512 -10.233  1.00  0.00    -0.352 N 
ATOM     29  C   UNL     1       2.298   8.095 -11.477  1.00  0.00     0.251 C 
ATOM     30  H   UNL     1       1.379   7.148  -9.965  1.00  0.00     0.163 HD
ATOM     31  O   UNL     1       1.273   8.231 -12.138  1.00  0.00    -0.269 OA
BRANCH  29  32
ATOM     32  C   UNL     1       3.586   8.594 -12.000  1.00  0.00     0.039 A 
ATOM     33  C   UNL     1       3.645   9.891 -12.517  1.00  0.00     0.014 A 
ATOM     34  C   UNL     1       4.734   7.800 -11.952  1.00  0.00     0.014 A 
ATOM     35  C   UNL     1       4.873  10.418 -12.919  1.00  0.00     0.010 A 
ATOM     36  C   UNL     1       5.967   8.350 -12.289  1.00  0.00     0.010 A 
ATOM     37  C   UNL     1       6.050   9.665 -12.771  1.00  0.00    -0.014 A 
BRANCH  37  38
ATOM     38  C   UNL     1       7.377  10.237 -13.109  1.00  0.00     0.031 A 
ATOM     39  C   UNL     1       8.193   9.644 -14.224  1.00  0.00     0.074 A 
ATOM     40  C   UNL     1       7.878  11.245 -12.369  1.00  0.00     0.049 A 
ATOM     41  N   UNL     1       9.404   9.952 -14.614  1.00  0.00    -0.248 NA
ATOM     42  C   UNL     1       7.577   8.544 -14.984  1.00  0.00     0.031 C 
ATOM     43  C   UNL     1       7.205  11.883 -11.235  1.00  0.00     0.029 A 
ATOM     44  N   UNL     1       9.079  11.904 -12.454  1.00  0.00    -0.354 N 
ATOM     45  C   UNL     1       9.697   9.079 -15.654  1.00  0.00     0.074 A 
ATOM     46  C   UNL     1       8.561   8.196 -15.800  1.00  0.00     0.031 C 
ATOM     47  C   UNL     1       7.996  12.850 -10.742  1.00  0.00     0.029 A 
ATOM     48  C   UNL     1       9.244  12.876 -11.497  1.00  0.00     0.049 A 
ATOM     49  H   UNL     1       9.759  11.700 -13.137  1.00  0.00     0.167 HD
ATOM     50  C   UNL     1      10.803   9.031 -16.435  1.00  0.00     0.031 A 
ATOM     51  C   UNL     1      10.287  13.689 -11.247  1.00  0.00     0.031 A 
ATOM     52  C   UNL     1      11.932   9.911 -16.296  1.00  0.00     0.049 A 
ATOM     53  C   UNL     1      11.510  13.605 -12.119  1.00  0.00     0.074 A 
ATOM     54  C   UNL     1      13.084   9.963 -17.061  1.00  0.00     0.029 A 
ATOM     55  N   UNL     1      12.050  10.895 -15.327  1.00  0.00    -0.354 N 
ATOM     56  N   UNL     1      11.747  12.812 -13.135  1.00  0.00    -0.248 NA
ATOM     57  C   UNL     1      12.604  14.540 -11.816  1.00  0.00     0.031 C 
ATOM     58  C   UNL     1      13.918  10.952 -16.529  1.00  0.00     0.029 A 
ATOM     59  C   UNL     1      13.261  11.550 -15.466  1.00  0.00     0.049 A 
ATOM     60  H   UNL     1      11.373  11.098 -14.642  1.00  0.00     0.167 HD
ATOM     61  C   UNL     1      13.003  13.169 -13.609  1.00  0.00     0.074 A 
ATOM     62  C   UNL     1      13.469  14.262 -12.781  1.00  0.00     0.031 C 
ATOM     63  C   UNL     1      13.707  12.639 -14.638  1.00  0.00     0.031 A 
BRANCH  50  64
ATOM     64  C   UNL     1      10.839   7.988 -17.516  1.00  0.00    -0.014 A 
ATOM     65  C   UNL     1      10.015   8.093 -18.649  1.00  0.00     0.009 A 
ATOM     66  C   UNL     1      11.731   6.909 -17.422  1.00  0.00     0.009 A 
ATOM     67  C   UNL     1      10.060   7.119 -19.649  1.00  0.00     0.001 A 
ATOM     68  C   UNL     1      11.793   5.952 -18.438  1.00  0.00     0.001 A 
ATOM     69  C   UNL     1      10.952   6.053 -19.545  1.00  0.00     0.000 A 
ENDBRANCH  50  64
BRANCH  51  70
ATOM     70  C   UNL     1      10.226  14.659 -10.122  1.00  0.00    -0.014 A 
ATOM     71  C   UNL     1      10.139  16.038 -10.371  1.00  0.00     0.009 A 
ATOM     72  C   UNL     1      10.273  14.211  -8.793  1.00  0.00     0.009 A 
ATOM     73  C   UNL     1      10.134  16.949  -9.312  1.00  0.00     0.001 A 
ATOM     74  C   UNL     1      10.237  15.123  -7.736  1.00  0.00     0.001 A 
ATOM     75  C   UNL     1      10.179  16.491  -7.996  1.00  0.00     0.000 A 
ENDBRANCH  51  70
BRANCH  63  76
ATOM     76  C   UNL     1      15.039  13.261 -14.951  1.00  0.00    -0.014 A 
ATOM     77  C   UNL     1      16.151  13.063 -14.118  1.00  0.00     0.009 A 
ATOM     78  C   UNL     1      15.191  14.020 -16.122  1.00  0.00     0.009 A 
ATOM     79  C   UNL     1      17.381  13.642 -14.436  1.00  0.00     0.001 A 
ATOM     80  C   UNL     1      16.428  14.574 -16.451  1.00  0.00     0.001 A 
ATOM     81  C   UNL     1      17.520  14.392 -15.604  1.00  0.00     0.000 A 
ENDBRANCH  63  76
ENDBRANCH  37  38
ENDBRANCH  29  32
ENDBRANCH  27  28
ENDBRANCH  26  27
ENDBRANCH   1  26
TORSDOF 14
