REMARK SMILES Cc1nc(C(=O)N[C@H](CCC(N)=O)C(=O)NCCCCNC(=O)c2ccc(-c3c4nc(c(-c5ccccc5)c5ccc([nH]5)c(-c5ccccc5)c5nc(c(-c6ccccc6)c6ccc3[nH]6)C=C5)C=C4)cc2)ccc1C#N
REMARK SMILES IDX 18 1 17 2 16 3 14 4 15 5 8 7 7 8 5 9 6 10 4 12 1 13 2 14
REMARK SMILES IDX 3 15 74 16 73 17 72 18 75 19 76 20 9 21 10 22 11 23 12 24
REMARK SMILES IDX 13 25 19 28 20 29 21 30 22 31 23 33 24 34 25 35 71 36 26 37
REMARK SMILES IDX 70 38 27 39 28 40 29 41 64 42 30 43 69 44 63 45 65 46 31 47
REMARK SMILES IDX 68 48 62 49 61 50 32 52 54 53 39 54 53 55 40 56 43 57 52 58
REMARK SMILES IDX 66 59 41 60 42 61 51 63 67 64 44 65 33 66 34 67 38 68 35 69
REMARK SMILES IDX 37 70 36 71 55 72 56 73 60 74 57 75 59 76 58 77 45 78 46 79
REMARK SMILES IDX 50 80 47 81 49 82 48 83
REMARK H PARENT 16 6 7 11 12 26 12 27 21 32 65 51 43 62
REMARK Flexibility Score: inf
ROOT
ATOM      1  C   UNL     1       2.715  -7.506   0.465  1.00  0.00     0.023 C 
ENDROOT
BRANCH   1   2
ATOM      2  C   UNL     1       3.142  -6.353  -0.421  1.00  0.00     0.116 C 
BRANCH   2   3
ATOM      3  N   UNL     1       2.022  -5.450  -0.606  1.00  0.00    -0.354 N 
ATOM      4  C   UNL     1       1.378  -4.625   0.274  1.00  0.00     0.242 C 
ATOM      5  O   UNL     1       0.247  -4.269  -0.086  1.00  0.00    -0.273 OA
ATOM      6  H   UNL     1       1.665  -5.426  -1.523  1.00  0.00     0.163 HD
BRANCH   4   7
ATOM      7  C   UNL     1       1.999  -4.025   1.587  1.00  0.00     0.172 C 
BRANCH   7   8
ATOM      8  N   UNL     1       3.334  -4.420   2.073  1.00  0.00    -0.339 N 
ATOM      9  C   UNL     1       3.815  -5.409   2.905  1.00  0.00     0.270 C 
ATOM     10  O   UNL     1       5.027  -5.398   3.138  1.00  0.00    -0.267 OA
ATOM     11  H   UNL     1       4.050  -3.842   1.721  1.00  0.00     0.164 HD
BRANCH   9  12
ATOM     12  C   UNL     1       2.985  -6.545   3.446  1.00  0.00     0.128 A 
ATOM     13  C   UNL     1      -0.436  -7.625   2.711  1.00  0.00     0.068 C 
ATOM     14  C   UNL     1       0.953  -7.711   3.284  1.00  0.00     0.056 A 
ATOM     15  N   UNL     1       1.656  -6.549   3.189  1.00  0.00    -0.247 NA
ATOM     16  C   UNL     1       1.558  -8.898   3.688  1.00  0.00     0.073 A 
ATOM     17  C   UNL     1       2.910  -8.859   4.056  1.00  0.00     0.024 A 
ATOM     18  C   UNL     1       3.636  -7.671   3.932  1.00  0.00     0.035 A 
BRANCH  16  19
ATOM     19  C   UNL     1       0.875 -10.156   3.621  1.00  0.00     0.101 C 
ATOM     20  N   UNL     1       0.310 -11.160   3.517  1.00  0.00    -0.192 NA
ENDBRANCH  16  19
ENDBRANCH   9  12
ENDBRANCH   7   8
BRANCH   7  21
ATOM     21  C   UNL     1       0.964  -3.910   2.738  1.00  0.00     0.045 C 
BRANCH  21  22
ATOM     22  C   UNL     1       0.649  -2.498   3.218  1.00  0.00     0.102 C 
BRANCH  22  23
ATOM     23  C   UNL     1      -0.550  -1.920   2.516  1.00  0.00     0.217 C 
ATOM     24  N   UNL     1      -1.751  -2.232   3.084  1.00  0.00    -0.370 N 
ATOM     25  O   UNL     1      -0.469  -1.224   1.513  1.00  0.00    -0.275 OA
ATOM     26  H   UNL     1      -1.783  -2.794   3.892  1.00  0.00     0.159 HD
ATOM     27  H   UNL     1      -2.586  -1.895   2.686  1.00  0.00     0.159 HD
ENDBRANCH  22  23
ENDBRANCH  21  22
ENDBRANCH   7  21
ENDBRANCH   4   7
ENDBRANCH   2   3
ENDBRANCH   1   2
BRANCH   1  28
ATOM     28  C   UNL     1       2.138  -8.756  -0.167  1.00  0.00     0.023 C 
BRANCH  28  29
ATOM     29  C   UNL     1       3.180  -9.836  -0.359  1.00  0.00     0.116 C 
BRANCH  29  30
ATOM     30  N   UNL     1       3.775 -10.313   0.894  1.00  0.00    -0.352 N 
ATOM     31  C   UNL     1       4.028 -11.609   1.288  1.00  0.00     0.251 C 
ATOM     32  H   UNL     1       4.027  -9.615   1.540  1.00  0.00     0.163 HD
ATOM     33  O   UNL     1       4.439 -11.857   2.415  1.00  0.00    -0.269 OA
BRANCH  31  34
ATOM     34  C   UNL     1       3.765 -12.684   0.315  1.00  0.00     0.039 A 
ATOM     35  C   UNL     1       3.005 -13.795   0.683  1.00  0.00     0.014 A 
ATOM     36  C   UNL     1       4.177 -12.499  -1.006  1.00  0.00     0.014 A 
ATOM     37  C   UNL     1       2.587 -14.686  -0.305  1.00  0.00     0.010 A 
ATOM     38  C   UNL     1       3.642 -13.294  -1.997  1.00  0.00     0.010 A 
ATOM     39  C   UNL     1       2.877 -14.416  -1.651  1.00  0.00    -0.014 A 
BRANCH  39  40
ATOM     40  C   UNL     1       2.526 -15.342  -2.744  1.00  0.00     0.031 A 
ATOM     41  C   UNL     1       3.653 -15.981  -3.506  1.00  0.00     0.074 A 
ATOM     42  C   UNL     1       1.246 -15.522  -3.110  1.00  0.00     0.049 A 
ATOM     43  N   UNL     1       3.611 -16.681  -4.606  1.00  0.00    -0.248 NA
ATOM     44  C   UNL     1       5.017 -15.763  -2.982  1.00  0.00     0.031 C 
ATOM     45  C   UNL     1       0.079 -14.934  -2.451  1.00  0.00     0.029 A 
ATOM     46  N   UNL     1       0.717 -16.247  -4.146  1.00  0.00    -0.354 N 
ATOM     47  C   UNL     1       4.934 -16.966  -4.910  1.00  0.00     0.074 A 
ATOM     48  C   UNL     1       5.762 -16.309  -3.929  1.00  0.00     0.031 C 
ATOM     49  C   UNL     1      -1.033 -15.346  -3.084  1.00  0.00     0.029 A 
ATOM     50  C   UNL     1      -0.652 -16.186  -4.217  1.00  0.00     0.049 A 
ATOM     51  H   UNL     1       1.267 -16.764  -4.778  1.00  0.00     0.167 HD
ATOM     52  C   UNL     1       5.415 -17.742  -5.904  1.00  0.00     0.031 A 
ATOM     53  C   UNL     1      -1.499 -16.743  -5.103  1.00  0.00     0.031 A 
ATOM     54  C   UNL     1       4.583 -18.423  -6.851  1.00  0.00     0.049 A 
ATOM     55  C   UNL     1      -0.939 -17.580  -6.218  1.00  0.00     0.074 A 
ATOM     56  C   UNL     1       4.967 -19.277  -7.867  1.00  0.00     0.029 A 
ATOM     57  N   UNL     1       3.201 -18.337  -6.888  1.00  0.00    -0.354 N 
ATOM     58  N   UNL     1       0.313 -17.875  -6.476  1.00  0.00    -0.248 NA
ATOM     59  C   UNL     1      -1.903 -18.164  -7.160  1.00  0.00     0.031 C 
ATOM     60  C   UNL     1       3.818 -19.666  -8.556  1.00  0.00     0.029 A 
ATOM     61  C   UNL     1       2.716 -19.101  -7.931  1.00  0.00     0.049 A 
ATOM     62  H   UNL     1       2.649 -17.811  -6.265  1.00  0.00     0.167 HD
ATOM     63  C   UNL     1       0.288 -18.689  -7.600  1.00  0.00     0.074 A 
ATOM     64  C   UNL     1      -1.105 -18.857  -7.963  1.00  0.00     0.031 C 
ATOM     65  C   UNL     1       1.325 -19.245  -8.273  1.00  0.00     0.031 A 
BRANCH  52  66
ATOM     66  C   UNL     1       6.900 -17.921  -6.000  1.00  0.00    -0.014 A 
ATOM     67  C   UNL     1       7.590 -18.714  -5.069  1.00  0.00     0.009 A 
ATOM     68  C   UNL     1       7.602 -17.368  -7.081  1.00  0.00     0.009 A 
ATOM     69  C   UNL     1       8.956 -18.952  -5.222  1.00  0.00     0.001 A 
ATOM     70  C   UNL     1       8.962 -17.629  -7.245  1.00  0.00     0.001 A 
ATOM     71  C   UNL     1       9.637 -18.421  -6.316  1.00  0.00     0.000 A 
ENDBRANCH  52  66
BRANCH  53  72
ATOM     72  C   UNL     1      -2.962 -16.549  -4.934  1.00  0.00    -0.014 A 
ATOM     73  C   UNL     1      -3.760 -17.600  -4.459  1.00  0.00     0.009 A 
ATOM     74  C   UNL     1      -3.556 -15.301  -5.178  1.00  0.00     0.009 A 
ATOM     75  C   UNL     1      -5.124 -17.404  -4.227  1.00  0.00     0.001 A 
ATOM     76  C   UNL     1      -4.915 -15.102  -4.923  1.00  0.00     0.001 A 
ATOM     77  C   UNL     1      -5.697 -16.153  -4.449  1.00  0.00     0.000 A 
ENDBRANCH  53  72
BRANCH  65  78
ATOM     78  C   UNL     1       1.006 -20.087  -9.474  1.00  0.00    -0.014 A 
ATOM     79  C   UNL     1       0.600 -19.493 -10.677  1.00  0.00     0.009 A 
ATOM     80  C   UNL     1       1.226 -21.473  -9.432  1.00  0.00     0.009 A 
ATOM     81  C   UNL     1       0.404 -20.276 -11.815  1.00  0.00     0.001 A 
ATOM     82  C   UNL     1       1.059 -22.248 -10.580  1.00  0.00     0.001 A 
ATOM     83  C   UNL     1       0.643 -21.650 -11.768  1.00  0.00     0.000 A 
ENDBRANCH  65  78
ENDBRANCH  39  40
ENDBRANCH  31  34
ENDBRANCH  29  30
ENDBRANCH  28  29
ENDBRANCH   1  28
TORSDOF 17
