REMARK SMILES C[C@@H](Oc1ccc(/C=C2\C(=O)[NH+]=C(NCCCCNC(=O)c3ccc(-c4c5nc(c(-c6ccccc6)c6ccc([nH]6)c(-c6ccccc6)c6nc(c(-c7ccccc7)c7ccc4[nH]7)C=C6)C=C5)cc3)N(c3ccc4c(c3)OCO4)C2=O)cc1)C(=O)[O-]
REMARK SMILES IDX 16 1 15 2 14 3 8 4 9 5 10 6 80 7 11 8 12 9 70 10 81 11 13 12
REMARK SMILES IDX 7 15 4 16 5 17 83 18 6 19 82 20 3 21 2 22 1 23 84 24 85 25
REMARK SMILES IDX 86 26 71 27 72 28 76 29 73 30 75 31 74 32 77 33 79 34 78 35
REMARK SMILES IDX 17 36 18 37 19 38 20 39 21 41 22 42 23 43 69 44 24 45 68 46
REMARK SMILES IDX 25 47 26 48 27 49 62 50 28 51 67 52 61 53 63 54 29 55 66 56
REMARK SMILES IDX 60 57 59 58 30 60 52 61 37 62 51 63 38 64 41 65 50 66 64 67
REMARK SMILES IDX 39 68 40 69 49 71 65 72 42 73 31 74 32 75 36 76 33 77 35 78
REMARK SMILES IDX 34 79 53 80 54 81 58 82 55 83 57 84 56 85 43 86 44 87 48 88
REMARK SMILES IDX 45 89 47 90 46 91
REMARK H PARENT 12 13 14 14 19 40 63 59 41 70
REMARK Flexibility Score: inf
ROOT
ATOM      1  C   UNL     1       7.947   1.069  10.094  1.00  0.00     0.039 C 
ENDROOT
BRANCH   1   2
ATOM      2  C   UNL     1       7.570   2.252   9.207  1.00  0.00     0.197 C 
BRANCH   2   3
ATOM      3  N   UNL     1       8.399   2.281   8.018  1.00  0.00    -0.277 N 
ATOM      4  C   UNL     1       6.306   1.558   3.195  1.00  0.00     0.031 C 
ATOM      5  C   UNL     1       6.967   1.300   4.338  1.00  0.00     0.138 C 
ATOM      6  C   UNL     1       6.424   0.641   5.537  1.00  0.00     0.321 C 
ATOM      7  C   UNL     1       8.377   1.727   4.404  1.00  0.00     0.328 C 
ATOM      8  O   UNL     1       5.625  -0.281   5.475  1.00  0.00    -0.250 OA
ATOM      9  N   UNL     1       6.871   1.161   6.717  1.00  0.00    -0.210 N 
ATOM     10  N   UNL     1       8.838   1.943   5.698  1.00  0.00    -0.162 N 
ATOM     11  O   UNL     1       9.041   1.887   3.380  1.00  0.00    -0.249 OA
ATOM     12  C   UNL     1       8.015   1.763   6.805  1.00  0.00     0.366 C 
ATOM     13  H   UNL     1       6.310   1.076   7.522  1.00  0.00     0.270 HD
ATOM     14  H   UNL     1       9.290   2.696   8.084  1.00  0.00     0.260 HD
BRANCH   4  15
ATOM     15  C   UNL     1       4.895   1.335   2.850  1.00  0.00    -0.024 A 
ATOM     16  C   UNL     1       2.228   1.037   2.012  1.00  0.00     0.120 A 
ATOM     17  C   UNL     1       2.514   1.304   3.348  1.00  0.00     0.047 A 
ATOM     18  C   UNL     1       3.261   0.971   1.085  1.00  0.00     0.047 A 
ATOM     19  C   UNL     1       3.841   1.465   3.762  1.00  0.00     0.012 A 
ATOM     20  C   UNL     1       4.586   1.105   1.503  1.00  0.00     0.012 A 
BRANCH  16  21
ATOM     21  O   UNL     1       0.915   0.999   1.637  1.00  0.00    -0.485 OA
BRANCH  21  22
ATOM     22  C   UNL     1       0.487  -0.261   1.100  1.00  0.00     0.216 C 
ATOM     23  C   UNL     1       0.692  -0.340  -0.411  1.00  0.00     0.059 C 
BRANCH  22  24
ATOM     24  C   UNL     1      -1.006  -0.405   1.367  1.00  0.00     0.082 C 
ATOM     25  O   UNL     1      -1.577  -1.431   1.710  1.00  0.00    -0.546 OA
ATOM     26  O   UNL     1      -1.724   0.709   1.109  1.00  0.00    -0.546 OA
ENDBRANCH  22  24
ENDBRANCH  21  22
ENDBRANCH  16  21
ENDBRANCH   4  15
BRANCH  10  27
ATOM     27  C   UNL     1      10.160   2.447   5.820  1.00  0.00     0.115 A 
ATOM     28  C   UNL     1      11.189   1.614   6.314  1.00  0.00     0.048 A 
ATOM     29  C   UNL     1      10.452   3.718   5.309  1.00  0.00     0.094 A 
ATOM     30  C   UNL     1      12.524   2.029   6.242  1.00  0.00     0.054 A 
ATOM     31  C   UNL     1      11.773   4.090   5.245  1.00  0.00     0.169 A 
ATOM     32  C   UNL     1      12.782   3.263   5.681  1.00  0.00     0.166 A 
ATOM     33  O   UNL     1      12.242   5.247   4.709  1.00  0.00    -0.453 OA
ATOM     34  O   UNL     1      14.012   3.796   5.447  1.00  0.00    -0.454 OA
ATOM     35  C   UNL     1      13.652   4.950   4.655  1.00  0.00     0.468 C 
ENDBRANCH  10  27
ENDBRANCH   2   3
ENDBRANCH   1   2
BRANCH   1  36
ATOM     36  C   UNL     1       9.379   1.115  10.632  1.00  0.00     0.024 C 
BRANCH  36  37
ATOM     37  C   UNL     1       9.749   2.386  11.389  1.00  0.00     0.116 C 
BRANCH  37  38
ATOM     38  N   UNL     1       8.915   2.615  12.558  1.00  0.00    -0.352 N 
ATOM     39  C   UNL     1       9.287   2.942  13.840  1.00  0.00     0.251 C 
ATOM     40  H   UNL     1       7.946   2.524  12.410  1.00  0.00     0.163 HD
ATOM     41  O   UNL     1       8.452   2.964  14.738  1.00  0.00    -0.269 OA
BRANCH  39  42
ATOM     42  C   UNL     1      10.705   3.233  14.143  1.00  0.00     0.039 A 
ATOM     43  C   UNL     1      11.286   2.644  15.269  1.00  0.00     0.014 A 
ATOM     44  C   UNL     1      11.462   4.067  13.317  1.00  0.00     0.014 A 
ATOM     45  C   UNL     1      12.645   2.836  15.526  1.00  0.00     0.010 A 
ATOM     46  C   UNL     1      12.832   4.193  13.530  1.00  0.00     0.010 A 
ATOM     47  C   UNL     1      13.439   3.578  14.636  1.00  0.00    -0.014 A 
BRANCH  47  48
ATOM     48  C   UNL     1      14.904   3.713  14.840  1.00  0.00     0.031 A 
ATOM     49  C   UNL     1      15.516   5.065  15.085  1.00  0.00     0.074 A 
ATOM     50  C   UNL     1      15.694   2.626  14.744  1.00  0.00     0.049 A 
ATOM     51  N   UNL     1      16.777   5.386  15.233  1.00  0.00    -0.248 NA
ATOM     52  C   UNL     1      14.594   6.210  15.148  1.00  0.00     0.031 C 
ATOM     53  C   UNL     1      15.232   1.262  14.475  1.00  0.00     0.029 A 
ATOM     54  N   UNL     1      17.056   2.497  14.858  1.00  0.00    -0.354 N 
ATOM     55  C   UNL     1      16.799   6.766  15.391  1.00  0.00     0.074 A 
ATOM     56  C   UNL     1      15.434   7.228  15.267  1.00  0.00     0.031 C 
ATOM     57  C   UNL     1      16.288   0.432  14.475  1.00  0.00     0.029 A 
ATOM     58  C   UNL     1      17.503   1.208  14.698  1.00  0.00     0.049 A 
ATOM     59  H   UNL     1      17.656   3.257  15.037  1.00  0.00     0.167 HD
ATOM     60  C   UNL     1      17.857   7.576  15.638  1.00  0.00     0.031 A 
ATOM     61  C   UNL     1      18.753   0.706  14.719  1.00  0.00     0.031 A 
ATOM     62  C   UNL     1      19.215   7.118  15.765  1.00  0.00     0.049 A 
ATOM     63  C   UNL     1      19.913   1.630  14.962  1.00  0.00     0.074 A 
ATOM     64  C   UNL     1      20.348   7.854  16.066  1.00  0.00     0.029 A 
ATOM     65  N   UNL     1      19.626   5.805  15.590  1.00  0.00    -0.354 N 
ATOM     66  N   UNL     1      19.909   2.923  15.181  1.00  0.00    -0.248 NA
ATOM     67  C   UNL     1      21.251   1.022  14.973  1.00  0.00     0.031 C 
ATOM     68  C   UNL     1      21.452   6.998  16.013  1.00  0.00     0.029 A 
ATOM     69  C   UNL     1      20.999   5.716  15.747  1.00  0.00     0.049 A 
ATOM     70  H   UNL     1      19.030   5.049  15.385  1.00  0.00     0.167 HD
ATOM     71  C   UNL     1      21.237   3.277  15.386  1.00  0.00     0.074 A 
ATOM     72  C   UNL     1      22.015   2.060  15.282  1.00  0.00     0.031 C 
ATOM     73  C   UNL     1      21.763   4.500  15.640  1.00  0.00     0.031 A 
BRANCH  60  74
ATOM     74  C   UNL     1      17.584   9.050  15.773  1.00  0.00    -0.014 A 
ATOM     75  C   UNL     1      16.873   9.563  16.870  1.00  0.00     0.009 A 
ATOM     76  C   UNL     1      18.074   9.942  14.806  1.00  0.00     0.009 A 
ATOM     77  C   UNL     1      16.623  10.933  16.974  1.00  0.00     0.001 A 
ATOM     78  C   UNL     1      17.852  11.315  14.930  1.00  0.00     0.001 A 
ATOM     79  C   UNL     1      17.117  11.808  16.007  1.00  0.00     0.000 A 
ENDBRANCH  60  74
BRANCH  61  80
ATOM     80  C   UNL     1      18.976  -0.751  14.514  1.00  0.00    -0.014 A 
ATOM     81  C   UNL     1      19.428  -1.558  15.569  1.00  0.00     0.009 A 
ATOM     82  C   UNL     1      18.753  -1.339  13.259  1.00  0.00     0.009 A 
ATOM     83  C   UNL     1      19.680  -2.917  15.364  1.00  0.00     0.001 A 
ATOM     84  C   UNL     1      18.975  -2.704  13.066  1.00  0.00     0.001 A 
ATOM     85  C   UNL     1      19.449  -3.489  14.115  1.00  0.00     0.000 A 
ENDBRANCH  61  80
BRANCH  73  86
ATOM     86  C   UNL     1      23.248   4.578  15.863  1.00  0.00    -0.014 A 
ATOM     87  C   UNL     1      24.160   4.395  14.812  1.00  0.00     0.009 A 
ATOM     88  C   UNL     1      23.740   4.880  17.143  1.00  0.00     0.009 A 
ATOM     89  C   UNL     1      25.534   4.477  15.046  1.00  0.00     0.001 A 
ATOM     90  C   UNL     1      25.113   4.994  17.368  1.00  0.00     0.001 A 
ATOM     91  C   UNL     1      26.009   4.782  16.322  1.00  0.00     0.000 A 
ENDBRANCH  73  86
ENDBRANCH  47  48
ENDBRANCH  39  42
ENDBRANCH  37  38
ENDBRANCH  36  37
ENDBRANCH   1  36
TORSDOF 15
