REMARK SMILES CN(CC(N)=O)c1ccc(S(N)(=O)=O)cc1C(=O)NCCCCNC(=O)c1ccc(-c2c3nc(c(-c4ccccc4)c4ccc([nH]4)c(-c4ccccc4)c4nc(c(-c5ccccc5)c5ccc2[nH]5)C=C4)C=C3)cc1
REMARK SMILES IDX 21 1 20 2 19 3 17 4 18 5 16 7 7 8 8 9 9 10 15 11 10 12 2 13
REMARK SMILES IDX 1 14 3 15 4 16 5 17 6 18 11 21 13 22 14 23 12 24 22 27 23 28
REMARK SMILES IDX 24 29 25 30 26 32 27 33 28 34 74 35 29 36 73 37 30 38 31 39
REMARK SMILES IDX 32 40 67 41 33 42 72 43 66 44 68 45 34 46 71 47 65 48 64 49
REMARK SMILES IDX 35 51 57 52 42 53 56 54 43 55 46 56 55 57 69 58 44 59 45 60
REMARK SMILES IDX 54 62 70 63 47 64 36 65 37 66 41 67 38 68 40 69 39 70 58 71
REMARK SMILES IDX 59 72 63 73 60 74 62 75 61 76 48 77 49 78 53 79 50 80 52 81
REMARK SMILES IDX 51 82
REMARK H PARENT 19 6 5 19 5 20 12 25 12 26 24 31 68 50 46 61
REMARK Flexibility Score: inf
ROOT
ATOM      1  C   UNL     1       2.279   2.508  -1.082  1.00  0.00     0.023 C 
ENDROOT
BRANCH   1   2
ATOM      2  C   UNL     1       1.904   1.502  -0.004  1.00  0.00     0.116 C 
BRANCH   2   3
ATOM      3  N   UNL     1       2.918   0.577   0.419  1.00  0.00    -0.352 N 
ATOM      4  C   UNL     1       2.937  -0.232   1.536  1.00  0.00     0.253 C 
ATOM      5  O   UNL     1       3.895  -1.007   1.625  1.00  0.00    -0.269 OA
ATOM      6  H   UNL     1       3.706   0.512  -0.167  1.00  0.00     0.163 HD
BRANCH   4   7
ATOM      7  C   UNL     1       1.947  -0.194   2.677  1.00  0.00     0.064 A 
ATOM      8  C   UNL     1       0.542   0.005   2.623  1.00  0.00     0.050 A 
ATOM      9  C   UNL     1      -0.196  -0.100   3.826  1.00  0.00     0.028 A 
ATOM     10  C   UNL     1       0.403  -0.373   5.052  1.00  0.00     0.024 A 
ATOM     11  C   UNL     1       2.542  -0.478   3.936  1.00  0.00     0.037 A 
ATOM     12  C   UNL     1       1.775  -0.559   5.103  1.00  0.00     0.083 A 
BRANCH   8  13
ATOM     13  N   UNL     1      -0.183   0.218   1.452  1.00  0.00    -0.365 N 
ATOM     14  C   UNL     1      -0.623  -0.980   0.744  1.00  0.00     0.144 C 
BRANCH  13  15
ATOM     15  C   UNL     1      -0.980   1.454   1.306  1.00  0.00     0.215 C 
BRANCH  15  16
ATOM     16  C   UNL     1      -2.378   1.407   1.915  1.00  0.00     0.236 C 
ATOM     17  N   UNL     1      -2.615   2.324   2.904  1.00  0.00    -0.368 N 
ATOM     18  O   UNL     1      -3.253   0.620   1.567  1.00  0.00    -0.273 OA
ATOM     19  H   UNL     1      -1.906   2.950   3.175  1.00  0.00     0.159 HD
ATOM     20  H   UNL     1      -3.495   2.357   3.343  1.00  0.00     0.159 HD
ENDBRANCH  15  16
ENDBRANCH  13  15
ENDBRANCH   8  13
BRANCH  12  21
ATOM     21  S   UNL     1       2.511  -0.971   6.655  1.00  0.00     0.238 S 
ATOM     22  O   UNL     1       1.720  -2.001   7.285  1.00  0.00    -0.207 OA
ATOM     23  O   UNL     1       3.945  -1.062   6.510  1.00  0.00    -0.207 OA
BRANCH  21  24
ATOM     24  N   UNL     1       2.244   0.427   7.552  1.00  0.00    -0.225 NA
ATOM     25  H   UNL     1       1.241   0.554   7.693  1.00  0.00     0.137 HD
ATOM     26  H   UNL     1       2.620   1.231   7.049  1.00  0.00     0.137 HD
ENDBRANCH  21  24
ENDBRANCH  12  21
ENDBRANCH   4   7
ENDBRANCH   2   3
ENDBRANCH   1   2
BRANCH   1  27
ATOM     27  C   UNL     1       2.650   1.940  -2.451  1.00  0.00     0.023 C 
BRANCH  27  28
ATOM     28  C   UNL     1       1.783   0.809  -3.001  1.00  0.00     0.116 C 
BRANCH  28  29
ATOM     29  N   UNL     1       0.398   1.180  -3.271  1.00  0.00    -0.352 N 
ATOM     30  C   UNL     1      -0.288   1.296  -4.460  1.00  0.00     0.251 C 
ATOM     31  H   UNL     1      -0.135   1.382  -2.469  1.00  0.00     0.163 HD
ATOM     32  O   UNL     1      -1.454   1.683  -4.456  1.00  0.00    -0.269 OA
BRANCH  30  33
ATOM     33  C   UNL     1       0.383   1.018  -5.750  1.00  0.00     0.039 A 
ATOM     34  C   UNL     1       0.251   1.942  -6.791  1.00  0.00     0.014 A 
ATOM     35  C   UNL     1       1.165  -0.122  -5.931  1.00  0.00     0.014 A 
ATOM     36  C   UNL     1       1.007   1.789  -7.957  1.00  0.00     0.010 A 
ATOM     37  C   UNL     1       1.988  -0.225  -7.050  1.00  0.00     0.010 A 
ATOM     38  C   UNL     1       1.936   0.742  -8.066  1.00  0.00    -0.014 A 
BRANCH  38  39
ATOM     39  C   UNL     1       2.892   0.665  -9.204  1.00  0.00     0.031 A 
ATOM     40  C   UNL     1       2.901  -0.530 -10.118  1.00  0.00     0.074 A 
ATOM     41  C   UNL     1       3.823   1.630  -9.357  1.00  0.00     0.049 A 
ATOM     42  N   UNL     1       3.721  -0.811 -11.101  1.00  0.00    -0.248 NA
ATOM     43  C   UNL     1       1.877  -1.559  -9.878  1.00  0.00     0.031 C 
ATOM     44  C   UNL     1       3.970   2.815  -8.508  1.00  0.00     0.029 A 
ATOM     45  N   UNL     1       4.837   1.758 -10.277  1.00  0.00    -0.354 N 
ATOM     46  C   UNL     1       3.330  -2.057 -11.573  1.00  0.00     0.074 A 
ATOM     47  C   UNL     1       2.229  -2.498 -10.744  1.00  0.00     0.031 C 
ATOM     48  C   UNL     1       4.992   3.559  -8.959  1.00  0.00     0.029 A 
ATOM     49  C   UNL     1       5.602   2.887 -10.101  1.00  0.00     0.049 A 
ATOM     50  H   UNL     1       4.999   1.104 -10.994  1.00  0.00     0.167 HD
ATOM     51  C   UNL     1       3.829  -2.766 -12.614  1.00  0.00     0.031 A 
ATOM     52  C   UNL     1       6.681   3.329 -10.774  1.00  0.00     0.031 A 
ATOM     53  C   UNL     1       4.906  -2.322 -13.458  1.00  0.00     0.049 A 
ATOM     54  C   UNL     1       7.207   2.530 -11.934  1.00  0.00     0.074 A 
ATOM     55  C   UNL     1       5.424  -2.934 -14.586  1.00  0.00     0.029 A 
ATOM     56  N   UNL     1       5.632  -1.158 -13.265  1.00  0.00    -0.354 N 
ATOM     57  N   UNL     1       6.767   1.396 -12.421  1.00  0.00    -0.248 NA
ATOM     58  C   UNL     1       8.372   3.080 -12.643  1.00  0.00     0.031 C 
ATOM     59  C   UNL     1       6.497  -2.165 -15.047  1.00  0.00     0.029 A 
ATOM     60  C   UNL     1       6.611  -1.046 -14.238  1.00  0.00     0.049 A 
ATOM     61  H   UNL     1       5.475  -0.506 -12.543  1.00  0.00     0.167 HD
ATOM     62  C   UNL     1       7.583   1.111 -13.509  1.00  0.00     0.074 A 
ATOM     63  C   UNL     1       8.532   2.198 -13.620  1.00  0.00     0.031 C 
ATOM     64  C   UNL     1       7.547   0.042 -14.341  1.00  0.00     0.031 A 
BRANCH  51  65
ATOM     65  C   UNL     1       3.214  -4.108 -12.898  1.00  0.00    -0.014 A 
ATOM     66  C   UNL     1       1.918  -4.219 -13.426  1.00  0.00     0.009 A 
ATOM     67  C   UNL     1       3.959  -5.277 -12.677  1.00  0.00     0.009 A 
ATOM     68  C   UNL     1       1.367  -5.474 -13.691  1.00  0.00     0.001 A 
ATOM     69  C   UNL     1       3.416  -6.530 -12.970  1.00  0.00     0.001 A 
ATOM     70  C   UNL     1       2.117  -6.627 -13.467  1.00  0.00     0.000 A 
ENDBRANCH  51  65
BRANCH  52  71
ATOM     71  C   UNL     1       7.340   4.603 -10.378  1.00  0.00    -0.014 A 
ATOM     72  C   UNL     1       7.245   5.738 -11.198  1.00  0.00     0.009 A 
ATOM     73  C   UNL     1       8.081   4.685  -9.189  1.00  0.00     0.009 A 
ATOM     74  C   UNL     1       7.905   6.920 -10.851  1.00  0.00     0.001 A 
ATOM     75  C   UNL     1       8.715   5.877  -8.830  1.00  0.00     0.001 A 
ATOM     76  C   UNL     1       8.636   6.989  -9.666  1.00  0.00     0.000 A 
ENDBRANCH  52  71
BRANCH  64  77
ATOM     77  C   UNL     1       8.540   0.013 -15.468  1.00  0.00    -0.014 A 
ATOM     78  C   UNL     1       9.900  -0.243 -15.236  1.00  0.00     0.009 A 
ATOM     79  C   UNL     1       8.097   0.201 -16.787  1.00  0.00     0.009 A 
ATOM     80  C   UNL     1      10.802  -0.279 -16.301  1.00  0.00     0.001 A 
ATOM     81  C   UNL     1       8.996   0.136 -17.852  1.00  0.00     0.001 A 
ATOM     82  C   UNL     1      10.349  -0.096 -17.607  1.00  0.00     0.000 A 
ENDBRANCH  64  77
ENDBRANCH  38  39
ENDBRANCH  30  33
ENDBRANCH  28  29
ENDBRANCH  27  28
ENDBRANCH   1  27
TORSDOF 16
