REMARK SMILES C[C@H](Oc1ccc(/C=C2/SC(=S)N(c3ccc(F)c(Cl)c3)C2=O)cc1)C(=O)NCCCCNC(=O)c1ccc(-c2c3nc(c(-c4ccccc4)c4ccc([nH]4)c(-c4ccccc4)c4nc(c(-c5ccccc5)c5ccc2[nH]5)C=C4)C=C3)cc1
REMARK SMILES IDX 29 1 28 2 26 3 27 4 2 6 1 7 3 8 4 9 5 10 25 11 6 12 24 13
REMARK SMILES IDX 7 14 8 15 9 16 10 17 22 18 11 19 13 20 23 21 12 22 14 23
REMARK SMILES IDX 15 24 21 25 16 26 19 27 17 28 20 29 18 30 30 31 31 32 32 33
REMARK SMILES IDX 33 34 34 35 35 37 36 38 37 39 83 40 38 41 82 42 39 43 40 44
REMARK SMILES IDX 41 45 76 46 42 47 81 48 75 49 77 50 43 51 80 52 74 53 73 54
REMARK SMILES IDX 44 56 66 57 51 58 65 59 52 60 55 61 64 62 78 63 53 64 54 65
REMARK SMILES IDX 63 67 79 68 56 69 45 70 46 71 50 72 47 73 49 74 48 75 67 76
REMARK SMILES IDX 68 77 72 78 69 79 71 80 70 81 57 82 58 83 62 84 59 85 61 86
REMARK SMILES IDX 60 87
REMARK H PARENT 28 5 33 36 77 55 55 66
REMARK Flexibility Score: inf
ROOT
ATOM      1  C   UNL     1      -0.959  -1.972  -0.093  1.00  0.00     0.116 C 
ENDROOT
BRANCH   1   2
ATOM      2  N   UNL     1      -1.507  -0.797  -0.751  1.00  0.00    -0.353 N 
ATOM      3  C   UNL     1      -0.873   0.135  -1.534  1.00  0.00     0.260 C 
ATOM      4  O   UNL     1      -1.560   1.026  -2.040  1.00  0.00    -0.271 OA
ATOM      5  H   UNL     1      -2.471  -0.649  -0.616  1.00  0.00     0.163 HD
BRANCH   3   6
ATOM      6  C   UNL     1       0.639   0.034  -1.811  1.00  0.00     0.258 C 
ATOM      7  C   UNL     1       0.883  -1.207  -2.672  1.00  0.00     0.064 C 
BRANCH   6   8
ATOM      8  O   UNL     1       1.233   0.132  -0.516  1.00  0.00    -0.481 OA
BRANCH   8   9
ATOM      9  C   UNL     1       2.465  -0.334  -0.201  1.00  0.00     0.120 A 
ATOM     10  C   UNL     1       3.493  -0.663  -1.072  1.00  0.00     0.047 A 
ATOM     11  C   UNL     1       2.661  -0.491   1.173  1.00  0.00     0.047 A 
ATOM     12  C   UNL     1       4.653  -1.283  -0.584  1.00  0.00     0.012 A 
ATOM     13  C   UNL     1       3.828  -1.070   1.666  1.00  0.00     0.012 A 
ATOM     14  C   UNL     1       4.804  -1.538   0.783  1.00  0.00    -0.024 A 
BRANCH  14  15
ATOM     15  C   UNL     1       5.985  -2.260   1.273  1.00  0.00     0.029 C 
ATOM     16  C   UNL     1       5.975  -3.347   2.064  1.00  0.00     0.081 C 
ATOM     17  S   UNL     1       7.421  -4.045   2.683  1.00  0.00    -0.054 SA
ATOM     18  C   UNL     1       4.792  -4.091   2.594  1.00  0.00     0.270 C 
ATOM     19  C   UNL     1       6.553  -5.141   3.759  1.00  0.00     0.152 C 
ATOM     20  N   UNL     1       5.184  -4.958   3.615  1.00  0.00    -0.261 N 
ATOM     21  O   UNL     1       3.653  -3.922   2.178  1.00  0.00    -0.268 OA
ATOM     22  S   UNL     1       7.393  -6.258   4.679  1.00  0.00    -0.051 S 
BRANCH  20  23
ATOM     23  C   UNL     1       4.185  -5.573   4.442  1.00  0.00     0.052 A 
ATOM     24  C   UNL     1       2.993  -6.075   3.890  1.00  0.00     0.030 A 
ATOM     25  C   UNL     1       4.327  -5.596   5.840  1.00  0.00     0.050 A 
ATOM     26  C   UNL     1       1.980  -6.594   4.703  1.00  0.00     0.043 A 
ATOM     27  C   UNL     1       3.310  -6.109   6.653  1.00  0.00     0.078 A 
ATOM     28  C   UNL     1       2.143  -6.605   6.082  1.00  0.00     0.141 A 
ATOM     29  Cl  UNL     1       3.505  -6.080   8.364  1.00  0.00    -0.081 Cl
ATOM     30  F   UNL     1       1.153  -7.084   6.848  1.00  0.00    -0.205 F 
ENDBRANCH  20  23
ENDBRANCH  14  15
ENDBRANCH   8   9
ENDBRANCH   6   8
ENDBRANCH   3   6
ENDBRANCH   1   2
BRANCH   1  31
ATOM     31  C   UNL     1      -1.336  -2.057   1.383  1.00  0.00     0.023 C 
BRANCH  31  32
ATOM     32  C   UNL     1      -2.820  -2.296   1.665  1.00  0.00     0.023 C 
BRANCH  32  33
ATOM     33  C   UNL     1      -3.430  -3.529   1.004  1.00  0.00     0.116 C 
BRANCH  33  34
ATOM     34  N   UNL     1      -2.780  -4.773   1.390  1.00  0.00    -0.352 N 
ATOM     35  C   UNL     1      -3.342  -5.967   1.774  1.00  0.00     0.251 C 
ATOM     36  H   UNL     1      -1.796  -4.756   1.375  1.00  0.00     0.163 HD
ATOM     37  O   UNL     1      -2.628  -6.884   2.170  1.00  0.00    -0.269 OA
BRANCH  35  38
ATOM     38  C   UNL     1      -4.812  -6.139   1.746  1.00  0.00     0.039 A 
ATOM     39  C   UNL     1      -5.446  -6.696   2.861  1.00  0.00     0.014 A 
ATOM     40  C   UNL     1      -5.566  -5.747   0.636  1.00  0.00     0.014 A 
ATOM     41  C   UNL     1      -6.840  -6.786   2.896  1.00  0.00     0.010 A 
ATOM     42  C   UNL     1      -6.958  -5.782   0.696  1.00  0.00     0.010 A 
ATOM     43  C   UNL     1      -7.609  -6.293   1.829  1.00  0.00    -0.014 A 
BRANCH  43  44
ATOM     44  C   UNL     1      -9.093  -6.284   1.888  1.00  0.00     0.031 A 
ATOM     45  C   UNL     1      -9.898  -7.123   0.936  1.00  0.00     0.074 A 
ATOM     46  C   UNL     1      -9.721  -5.459   2.749  1.00  0.00     0.049 A 
ATOM     47  N   UNL     1     -11.197  -7.185   0.786  1.00  0.00    -0.248 NA
ATOM     48  C   UNL     1      -9.144  -7.989   0.016  1.00  0.00     0.031 C 
ATOM     49  C   UNL     1      -9.062  -4.562   3.701  1.00  0.00     0.029 A 
ATOM     50  N   UNL     1     -11.060  -5.235   2.954  1.00  0.00    -0.354 N 
ATOM     51  C   UNL     1     -11.415  -8.074  -0.259  1.00  0.00     0.074 A 
ATOM     52  C   UNL     1     -10.114  -8.502  -0.727  1.00  0.00     0.031 C 
ATOM     53  C   UNL     1      -9.998  -3.903   4.403  1.00  0.00     0.029 A 
ATOM     54  C   UNL     1     -11.319  -4.302   3.928  1.00  0.00     0.049 A 
ATOM     55  H   UNL     1     -11.767  -5.699   2.450  1.00  0.00     0.167 HD
ATOM     56  C   UNL     1     -12.590  -8.506  -0.774  1.00  0.00     0.031 A 
ATOM     57  C   UNL     1     -12.488  -3.816   4.385  1.00  0.00     0.031 A 
ATOM     58  C   UNL     1     -13.886  -8.104  -0.298  1.00  0.00     0.049 A 
ATOM     59  C   UNL     1     -13.778  -4.316   3.800  1.00  0.00     0.074 A 
ATOM     60  C   UNL     1     -15.132  -8.542  -0.714  1.00  0.00     0.029 A 
ATOM     61  N   UNL     1     -14.104  -7.169   0.701  1.00  0.00    -0.354 N 
ATOM     62  N   UNL     1     -13.966  -5.203   2.854  1.00  0.00    -0.248 NA
ATOM     63  C   UNL     1     -15.017  -3.750   4.352  1.00  0.00     0.031 C 
ATOM     64  C   UNL     1     -16.105  -7.845   0.010  1.00  0.00     0.029 A 
ATOM     65  C   UNL     1     -15.464  -7.003   0.903  1.00  0.00     0.049 A 
ATOM     66  H   UNL     1     -13.397  -6.694   1.194  1.00  0.00     0.167 HD
ATOM     67  C   UNL     1     -15.342  -5.321   2.716  1.00  0.00     0.074 A 
ATOM     68  C   UNL     1     -15.942  -4.423   3.681  1.00  0.00     0.031 C 
ATOM     69  C   UNL     1     -16.046  -6.107   1.866  1.00  0.00     0.031 A 
BRANCH  56  70
ATOM     70  C   UNL     1     -12.525  -9.468  -1.925  1.00  0.00    -0.014 A 
ATOM     71  C   UNL     1     -12.144 -10.805  -1.732  1.00  0.00     0.009 A 
ATOM     72  C   UNL     1     -12.882  -9.040  -3.213  1.00  0.00     0.009 A 
ATOM     73  C   UNL     1     -12.088 -11.686  -2.814  1.00  0.00     0.001 A 
ATOM     74  C   UNL     1     -12.848  -9.930  -4.288  1.00  0.00     0.001 A 
ATOM     75  C   UNL     1     -12.444 -11.249  -4.090  1.00  0.00     0.000 A 
ENDBRANCH  56  70
BRANCH  57  76
ATOM     76  C   UNL     1     -12.498  -2.808   5.476  1.00  0.00    -0.014 A 
ATOM     77  C   UNL     1     -12.888  -3.175   6.772  1.00  0.00     0.009 A 
ATOM     78  C   UNL     1     -12.128  -1.479   5.226  1.00  0.00     0.009 A 
ATOM     79  C   UNL     1     -12.929  -2.224   7.794  1.00  0.00     0.001 A 
ATOM     80  C   UNL     1     -12.148  -0.535   6.255  1.00  0.00     0.001 A 
ATOM     81  C   UNL     1     -12.556  -0.906   7.535  1.00  0.00     0.000 A 
ENDBRANCH  57  76
BRANCH  69  82
ATOM     82  C   UNL     1     -17.542  -6.054   1.965  1.00  0.00    -0.014 A 
ATOM     83  C   UNL     1     -18.265  -4.966   1.453  1.00  0.00     0.009 A 
ATOM     84  C   UNL     1     -18.239  -7.125   2.546  1.00  0.00     0.009 A 
ATOM     85  C   UNL     1     -19.658  -4.940   1.547  1.00  0.00     0.001 A 
ATOM     86  C   UNL     1     -19.632  -7.106   2.618  1.00  0.00     0.001 A 
ATOM     87  C   UNL     1     -20.340  -6.011   2.125  1.00  0.00     0.000 A 
ENDBRANCH  69  82
ENDBRANCH  43  44
ENDBRANCH  35  38
ENDBRANCH  33  34
ENDBRANCH  32  33
ENDBRANCH  31  32
ENDBRANCH   1  31
TORSDOF 15
