REMARK SMILES Cc1nn([C@H]2CCS(=O)(=O)C2)c(C)c1/C=C(\CC(=O)NCCCCNC(=O)c1ccc(-c2c3nc(c(-c4ccccc4)c4ccc([nH]4)c(-c4ccccc4)c4nc(c(-c5ccccc5)c5ccc2[nH]5)C=C4)C=C3)cc1)c1nc2ccccc2s1
REMARK SMILES IDX 22 1 21 2 20 3 18 4 19 5 17 7 16 8 15 9 14 10 1 11 2 12 3 13
REMARK SMILES IDX 4 14 12 15 13 16 5 17 6 18 11 19 7 20 8 21 9 22 10 23 76 24
REMARK SMILES IDX 77 25 84 26 78 27 83 28 79 29 82 30 80 31 81 32 23 33 24 34
REMARK SMILES IDX 25 35 26 36 27 38 28 39 29 40 75 41 30 42 74 43 31 44 32 45
REMARK SMILES IDX 33 46 68 47 34 48 73 49 67 50 69 51 35 52 72 53 66 54 65 55
REMARK SMILES IDX 36 57 58 58 43 59 57 60 44 61 47 62 56 63 70 64 45 65 46 66
REMARK SMILES IDX 55 68 71 69 48 70 37 71 38 72 42 73 39 74 41 75 40 76 59 77
REMARK SMILES IDX 60 78 64 79 61 80 63 81 62 82 49 83 50 84 54 85 51 86 53 87
REMARK SMILES IDX 52 88
REMARK H PARENT 20 6 25 37 69 56 47 67
REMARK Flexibility Score: inf
ROOT
ATOM      1  C   UNL     1      -5.175   5.359  -7.980  1.00  0.00     0.023 C 
ENDROOT
BRANCH   1   2
ATOM      2  C   UNL     1      -4.556   5.791  -6.651  1.00  0.00     0.116 C 
BRANCH   2   3
ATOM      3  N   UNL     1      -5.504   6.543  -5.858  1.00  0.00    -0.356 N 
ATOM      4  C   UNL     1      -6.358   6.077  -4.900  1.00  0.00     0.224 C 
ATOM      5  O   UNL     1      -7.248   6.824  -4.491  1.00  0.00    -0.275 OA
ATOM      6  H   UNL     1      -5.538   7.511  -6.032  1.00  0.00     0.163 HD
BRANCH   4   7
ATOM      7  C   UNL     1      -6.055   4.747  -4.226  1.00  0.00     0.138 C 
BRANCH   7   8
ATOM      8  C   UNL     1      -6.302   3.452  -4.987  1.00  0.00    -0.002 C 
ATOM      9  C   UNL     1      -5.357   2.496  -5.183  1.00  0.00     0.019 C 
BRANCH   9  10
ATOM     10  C   UNL     1      -3.967   2.561  -4.820  1.00  0.00     0.019 A 
ATOM     11  C   UNL     1      -2.868   1.188  -6.761  1.00  0.00     0.069 C 
ATOM     12  C   UNL     1      -2.865   2.074  -5.568  1.00  0.00     0.067 A 
ATOM     13  N   UNL     1      -1.706   2.510  -5.059  1.00  0.00    -0.177 NA
ATOM     14  N   UNL     1      -2.061   3.208  -3.961  1.00  0.00    -0.265 N 
ATOM     15  C   UNL     1      -3.390   3.017  -3.643  1.00  0.00     0.043 A 
ATOM     16  C   UNL     1      -3.975   3.259  -2.296  1.00  0.00     0.067 C 
BRANCH  14  17
ATOM     17  C   UNL     1      -1.027   3.982  -3.277  1.00  0.00     0.123 C 
ATOM     18  C   UNL     1      -0.066   4.702  -4.257  1.00  0.00     0.044 C 
ATOM     19  C   UNL     1      -1.551   5.109  -2.392  1.00  0.00     0.164 C 
ATOM     20  C   UNL     1       0.842   5.604  -3.428  1.00  0.00     0.139 C 
ATOM     21  S   UNL     1      -0.137   6.114  -2.034  1.00  0.00     0.152 S 
ATOM     22  O   UNL     1       0.472   5.614  -0.828  1.00  0.00    -0.229 OA
ATOM     23  O   UNL     1      -0.515   7.508  -2.200  1.00  0.00    -0.229 OA
ENDBRANCH  14  17
ENDBRANCH   9  10
BRANCH   8  24
ATOM     24  C   UNL     1      -7.632   3.224  -5.483  1.00  0.00     0.121 A 
ATOM     25  N   UNL     1      -8.304   4.098  -6.204  1.00  0.00    -0.236 NA
ATOM     26  S   UNL     1      -8.594   1.910  -4.901  1.00  0.00    -0.114 S 
ATOM     27  C   UNL     1      -9.655   3.966  -5.951  1.00  0.00     0.082 A 
ATOM     28  C   UNL     1     -10.013   2.838  -5.212  1.00  0.00     0.055 A 
ATOM     29  C   UNL     1     -10.651   4.900  -6.296  1.00  0.00     0.030 A 
ATOM     30  C   UNL     1     -11.332   2.613  -4.791  1.00  0.00     0.021 A 
ATOM     31  C   UNL     1     -11.951   4.729  -5.810  1.00  0.00     0.002 A 
ATOM     32  C   UNL     1     -12.283   3.603  -5.063  1.00  0.00     0.002 A 
ENDBRANCH   8  24
ENDBRANCH   7   8
ENDBRANCH   4   7
ENDBRANCH   2   3
ENDBRANCH   1   2
BRANCH   1  33
ATOM     33  C   UNL     1      -5.617   6.526  -8.875  1.00  0.00     0.023 C 
BRANCH  33  34
ATOM     34  C   UNL     1      -4.480   7.441  -9.311  1.00  0.00     0.116 C 
BRANCH  34  35
ATOM     35  N   UNL     1      -3.521   6.751 -10.166  1.00  0.00    -0.352 N 
ATOM     36  C   UNL     1      -2.301   7.209 -10.611  1.00  0.00     0.251 C 
ATOM     37  H   UNL     1      -3.777   5.848 -10.462  1.00  0.00     0.163 HD
ATOM     38  O   UNL     1      -1.785   6.748 -11.622  1.00  0.00    -0.269 OA
BRANCH  36  39
ATOM     39  C   UNL     1      -1.615   8.263  -9.847  1.00  0.00     0.039 A 
ATOM     40  C   UNL     1      -1.033   9.348 -10.504  1.00  0.00     0.014 A 
ATOM     41  C   UNL     1      -1.573   8.162  -8.455  1.00  0.00     0.014 A 
ATOM     42  C   UNL     1      -0.486  10.377  -9.745  1.00  0.00     0.010 A 
ATOM     43  C   UNL     1      -1.120   9.224  -7.702  1.00  0.00     0.010 A 
ATOM     44  C   UNL     1      -0.559  10.327  -8.341  1.00  0.00    -0.014 A 
BRANCH  44  45
ATOM     45  C   UNL     1      -0.245  11.527  -7.562  1.00  0.00     0.031 A 
ATOM     46  C   UNL     1      -1.019  12.719  -8.002  1.00  0.00     0.074 A 
ATOM     47  C   UNL     1       0.480  11.540  -6.421  1.00  0.00     0.049 A 
ATOM     48  N   UNL     1      -0.573  13.764  -8.616  1.00  0.00    -0.248 NA
ATOM     49  C   UNL     1      -2.490  12.675  -7.896  1.00  0.00     0.031 C 
ATOM     50  C   UNL     1       1.001  10.373  -5.699  1.00  0.00     0.029 A 
ATOM     51  N   UNL     1       0.804  12.577  -5.589  1.00  0.00    -0.354 N 
ATOM     52  C   UNL     1      -1.663  14.625  -8.717  1.00  0.00     0.074 A 
ATOM     53  C   UNL     1      -2.833  13.822  -8.484  1.00  0.00     0.031 C 
ATOM     54  C   UNL     1       1.339  10.732  -4.442  1.00  0.00     0.029 A 
ATOM     55  C   UNL     1       1.239  12.175  -4.328  1.00  0.00     0.049 A 
ATOM     56  H   UNL     1       0.736  13.521  -5.857  1.00  0.00     0.167 HD
ATOM     57  C   UNL     1      -1.477  15.969  -8.578  1.00  0.00     0.031 A 
ATOM     58  C   UNL     1       1.504  12.956  -3.253  1.00  0.00     0.031 A 
ATOM     59  C   UNL     1      -0.081  16.308  -8.699  1.00  0.00     0.049 A 
ATOM     60  C   UNL     1       1.755  14.327  -3.735  1.00  0.00     0.074 A 
ATOM     61  C   UNL     1       0.868  16.413  -9.690  1.00  0.00     0.029 A 
ATOM     62  N   UNL     1       0.584  16.226  -7.507  1.00  0.00    -0.354 N 
ATOM     63  N   UNL     1       2.799  14.655  -4.440  1.00  0.00    -0.248 NA
ATOM     64  C   UNL     1       0.677  15.309  -3.712  1.00  0.00     0.031 C 
ATOM     65  C   UNL     1       2.137  16.278  -9.046  1.00  0.00     0.029 A 
ATOM     66  C   UNL     1       1.935  16.142  -7.675  1.00  0.00     0.049 A 
ATOM     67  H   UNL     1       0.139  16.227  -6.628  1.00  0.00     0.167 HD
ATOM     68  C   UNL     1       2.331  15.635  -5.290  1.00  0.00     0.074 A 
ATOM     69  C   UNL     1       1.104  16.128  -4.677  1.00  0.00     0.031 C 
ATOM     70  C   UNL     1       2.773  15.711  -6.578  1.00  0.00     0.031 A 
BRANCH  57  71
ATOM     71  C   UNL     1      -2.384  16.849  -7.723  1.00  0.00    -0.014 A 
ATOM     72  C   UNL     1      -1.993  18.188  -7.515  1.00  0.00     0.009 A 
ATOM     73  C   UNL     1      -3.384  16.356  -6.864  1.00  0.00     0.009 A 
ATOM     74  C   UNL     1      -2.498  18.947  -6.451  1.00  0.00     0.001 A 
ATOM     75  C   UNL     1      -3.913  17.120  -5.818  1.00  0.00     0.001 A 
ATOM     76  C   UNL     1      -3.448  18.406  -5.593  1.00  0.00     0.000 A 
ENDBRANCH  57  71
BRANCH  58  77
ATOM     77  C   UNL     1       1.444  12.652  -1.808  1.00  0.00    -0.014 A 
ATOM     78  C   UNL     1       2.152  13.434  -0.879  1.00  0.00     0.009 A 
ATOM     79  C   UNL     1       0.468  11.770  -1.313  1.00  0.00     0.009 A 
ATOM     80  C   UNL     1       1.854  13.376   0.489  1.00  0.00     0.001 A 
ATOM     81  C   UNL     1       0.172  11.712   0.054  1.00  0.00     0.001 A 
ATOM     82  C   UNL     1       0.852  12.529   0.952  1.00  0.00     0.000 A 
ENDBRANCH  58  77
BRANCH  70  83
ATOM     83  C   UNL     1       4.129  15.159  -6.890  1.00  0.00    -0.014 A 
ATOM     84  C   UNL     1       4.474  13.804  -6.776  1.00  0.00     0.009 A 
ATOM     85  C   UNL     1       5.086  16.059  -7.383  1.00  0.00     0.009 A 
ATOM     86  C   UNL     1       5.757  13.369  -7.128  1.00  0.00     0.001 A 
ATOM     87  C   UNL     1       6.357  15.622  -7.753  1.00  0.00     0.001 A 
ATOM     88  C   UNL     1       6.694  14.277  -7.620  1.00  0.00     0.000 A 
ENDBRANCH  70  83
ENDBRANCH  44  45
ENDBRANCH  36  39
ENDBRANCH  34  35
ENDBRANCH  33  34
ENDBRANCH   1  33
TORSDOF 15
