REMARK SMILES C=CCOC(=O)N[C@@H](Cc1ccccc1)C(=O)NCCCCNC(=O)c1ccc(-c2c3nc(c(-c4ccccc4)c4ccc([nH]4)c(-c4ccccc4)c4nc(c(-c5ccccc5)c5ccc2[nH]5)C=C4)C=C3)cc1
REMARK SMILES IDX 19 1 18 2 16 3 17 4 8 6 7 7 5 8 6 9 4 11 3 12 2 13 1 14 9 15
REMARK SMILES IDX 10 16 11 17 15 18 12 19 14 20 13 21 20 22 21 23 22 24 23 25
REMARK SMILES IDX 24 26 25 28 26 29 27 30 73 31 28 32 72 33 29 34 30 35 31 36
REMARK SMILES IDX 66 37 32 38 71 39 65 40 67 41 33 42 70 43 64 44 63 45 34 47
REMARK SMILES IDX 56 48 41 49 55 50 42 51 45 52 54 53 68 54 43 55 44 56 53 58
REMARK SMILES IDX 69 59 46 60 35 61 36 62 40 63 37 64 39 65 38 66 57 67 58 68
REMARK SMILES IDX 62 69 59 70 61 71 60 72 47 73 48 74 52 75 49 76 51 77 50 78
REMARK H PARENT 18 5 7 10 23 27 67 46 45 57
REMARK Flexibility Score: inf
ROOT
ATOM      1  C   UNL     1      -1.311   6.873  -0.123  1.00  0.00     0.116 C 
ENDROOT
BRANCH   1   2
ATOM      2  N   UNL     1      -1.189   6.407  -1.487  1.00  0.00    -0.354 N 
ATOM      3  C   UNL     1      -1.934   5.471  -2.150  1.00  0.00     0.243 C 
ATOM      4  O   UNL     1      -1.964   5.565  -3.383  1.00  0.00    -0.273 OA
ATOM      5  H   UNL     1      -0.468   6.823  -2.013  1.00  0.00     0.163 HD
BRANCH   3   6
ATOM      6  C   UNL     1      -2.828   4.431  -1.430  1.00  0.00     0.179 C 
BRANCH   6   7
ATOM      7  N   UNL     1      -2.237   3.834  -0.234  1.00  0.00    -0.309 N 
ATOM      8  C   UNL     1      -1.619   2.626  -0.122  1.00  0.00     0.408 C 
ATOM      9  O   UNL     1      -1.190   2.253   0.959  1.00  0.00    -0.225 OA
ATOM     10  H   UNL     1      -2.292   4.370   0.590  1.00  0.00     0.167 HD
BRANCH   8  11
ATOM     11  O   UNL     1      -1.603   1.913  -1.273  1.00  0.00    -0.445 OA
BRANCH  11  12
ATOM     12  C   UNL     1      -1.197   0.546  -1.129  1.00  0.00     0.262 C 
BRANCH  12  13
ATOM     13  C   UNL     1       0.294   0.428  -1.205  1.00  0.00     0.006 C 
ATOM     14  C   UNL     1       1.052  -0.080  -0.223  1.00  0.00     0.007 C 
ENDBRANCH  12  13
ENDBRANCH  11  12
ENDBRANCH   8  11
ENDBRANCH   6   7
BRANCH   6  15
ATOM     15  C   UNL     1      -4.277   4.918  -1.197  1.00  0.00     0.070 C 
BRANCH  15  16
ATOM     16  C   UNL     1      -4.463   6.130  -0.314  1.00  0.00    -0.045 A 
ATOM     17  C   UNL     1      -4.500   6.011   1.084  1.00  0.00     0.004 A 
ATOM     18  C   UNL     1      -4.567   7.409  -0.885  1.00  0.00     0.004 A 
ATOM     19  C   UNL     1      -4.574   7.149   1.891  1.00  0.00     0.000 A 
ATOM     20  C   UNL     1      -4.648   8.545  -0.076  1.00  0.00     0.000 A 
ATOM     21  C   UNL     1      -4.635   8.416   1.312  1.00  0.00     0.000 A 
ENDBRANCH  15  16
ENDBRANCH   6  15
ENDBRANCH   3   6
ENDBRANCH   1   2
BRANCH   1  22
ATOM     22  C   UNL     1      -0.003   7.299   0.520  1.00  0.00     0.023 C 
BRANCH  22  23
ATOM     23  C   UNL     1       0.550   8.626   0.009  1.00  0.00     0.023 C 
BRANCH  23  24
ATOM     24  C   UNL     1      -0.420   9.804   0.038  1.00  0.00     0.116 C 
BRANCH  24  25
ATOM     25  N   UNL     1      -0.948  10.103   1.364  1.00  0.00    -0.352 N 
ATOM     26  C   UNL     1      -0.988  11.320   2.008  1.00  0.00     0.251 C 
ATOM     27  H   UNL     1      -1.323   9.340   1.861  1.00  0.00     0.163 HD
ATOM     28  O   UNL     1      -1.385  11.421   3.162  1.00  0.00    -0.269 OA
BRANCH  26  29
ATOM     29  C   UNL     1      -0.509  12.508   1.276  1.00  0.00     0.039 A 
ATOM     30  C   UNL     1       0.554  13.251   1.792  1.00  0.00     0.014 A 
ATOM     31  C   UNL     1      -1.044  12.798   0.019  1.00  0.00     0.014 A 
ATOM     32  C   UNL     1       1.145  14.239   1.000  1.00  0.00     0.010 A 
ATOM     33  C   UNL     1      -0.403  13.722  -0.794  1.00  0.00     0.010 A 
ATOM     34  C   UNL     1       0.702  14.448  -0.316  1.00  0.00    -0.014 A 
BRANCH  34  35
ATOM     35  C   UNL     1       1.353  15.425  -1.226  1.00  0.00     0.031 A 
ATOM     36  C   UNL     1       0.550  16.578  -1.760  1.00  0.00     0.074 A 
ATOM     37  C   UNL     1       2.614  15.222  -1.657  1.00  0.00     0.049 A 
ATOM     38  N   UNL     1       0.861  17.441  -2.692  1.00  0.00    -0.248 NA
ATOM     39  C   UNL     1      -0.795  16.763  -1.190  1.00  0.00     0.031 C 
ATOM     40  C   UNL     1       3.496  14.134  -1.230  1.00  0.00     0.029 A 
ATOM     41  N   UNL     1       3.365  15.918  -2.573  1.00  0.00    -0.354 N 
ATOM     42  C   UNL     1      -0.260  18.249  -2.841  1.00  0.00     0.074 A 
ATOM     43  C   UNL     1      -1.272  17.744  -1.940  1.00  0.00     0.031 C 
ATOM     44  C   UNL     1       4.671  14.244  -1.873  1.00  0.00     0.029 A 
ATOM     45  C   UNL     1       4.607  15.372  -2.797  1.00  0.00     0.049 A 
ATOM     46  H   UNL     1       3.044  16.730  -3.026  1.00  0.00     0.167 HD
ATOM     47  C   UNL     1      -0.427  19.325  -3.645  1.00  0.00     0.031 A 
ATOM     48  C   UNL     1       5.575  15.727  -3.665  1.00  0.00     0.031 A 
ATOM     49  C   UNL     1       0.584  19.832  -4.531  1.00  0.00     0.049 A 
ATOM     50  C   UNL     1       5.352  16.903  -4.579  1.00  0.00     0.074 A 
ATOM     51  C   UNL     1       0.529  20.945  -5.350  1.00  0.00     0.029 A 
ATOM     52  N   UNL     1       1.832  19.257  -4.715  1.00  0.00    -0.354 N 
ATOM     53  N   UNL     1       4.306  17.688  -4.673  1.00  0.00    -0.248 NA
ATOM     54  C   UNL     1       6.443  17.245  -5.503  1.00  0.00     0.031 C 
ATOM     55  C   UNL     1       1.721  21.010  -6.076  1.00  0.00     0.029 A 
ATOM     56  C   UNL     1       2.546  19.980  -5.654  1.00  0.00     0.049 A 
ATOM     57  H   UNL     1       2.160  18.455  -4.248  1.00  0.00     0.167 HD
ATOM     58  C   UNL     1       4.631  18.641  -5.631  1.00  0.00     0.074 A 
ATOM     59  C   UNL     1       5.970  18.336  -6.089  1.00  0.00     0.031 C 
ATOM     60  C   UNL     1       3.888  19.679  -6.083  1.00  0.00     0.031 A 
BRANCH  47  61
ATOM     61  C   UNL     1      -1.762  20.014  -3.612  1.00  0.00    -0.014 A 
ATOM     62  C   UNL     1      -2.190  20.728  -2.481  1.00  0.00     0.009 A 
ATOM     63  C   UNL     1      -2.592  19.977  -4.743  1.00  0.00     0.009 A 
ATOM     64  C   UNL     1      -3.438  21.353  -2.468  1.00  0.00     0.001 A 
ATOM     65  C   UNL     1      -3.824  20.633  -4.741  1.00  0.00     0.001 A 
ATOM     66  C   UNL     1      -4.251  21.310  -3.600  1.00  0.00     0.000 A 
ENDBRANCH  47  61
BRANCH  48  67
ATOM     67  C   UNL     1       6.851  14.961  -3.718  1.00  0.00    -0.014 A 
ATOM     68  C   UNL     1       8.053  15.549  -3.294  1.00  0.00     0.009 A 
ATOM     69  C   UNL     1       6.879  13.646  -4.209  1.00  0.00     0.009 A 
ATOM     70  C   UNL     1       9.258  14.849  -3.389  1.00  0.00     0.001 A 
ATOM     71  C   UNL     1       8.081  12.937  -4.272  1.00  0.00     0.001 A 
ATOM     72  C   UNL     1       9.271  13.542  -3.873  1.00  0.00     0.000 A 
ENDBRANCH  48  67
BRANCH  60  73
ATOM     73  C   UNL     1       4.517  20.616  -7.075  1.00  0.00    -0.014 A 
ATOM     74  C   UNL     1       4.711  20.249  -8.415  1.00  0.00     0.009 A 
ATOM     75  C   UNL     1       4.826  21.927  -6.676  1.00  0.00     0.009 A 
ATOM     76  C   UNL     1       5.216  21.174  -9.332  1.00  0.00     0.001 A 
ATOM     77  C   UNL     1       5.301  22.858  -7.601  1.00  0.00     0.001 A 
ATOM     78  C   UNL     1       5.500  22.479  -8.927  1.00  0.00     0.000 A 
ENDBRANCH  60  73
ENDBRANCH  34  35
ENDBRANCH  26  29
ENDBRANCH  24  25
ENDBRANCH  23  24
ENDBRANCH  22  23
ENDBRANCH   1  22
TORSDOF 17
