REMARK SMILES CS(=O)(=O)c1ccc(-c2cc(Cl)cc3c2O[C@H](C(F)(F)F)C(C(=O)NCCCCNC(=O)c2ccc(-c4c5nc(c(-c6ccccc6)c6ccc([nH]6)c(-c6ccccc6)c6nc(c(-c7ccccc7)c7ccc4[nH]7)C=C6)C=C5)cc2)=C3)cc1
REMARK SMILES IDX 27 1 26 2 25 3 23 4 24 5 22 7 9 8 10 9 15 10 11 11 14 12
REMARK SMILES IDX 16 13 12 14 13 15 81 16 17 17 8 18 5 19 6 20 83 21 7 22
REMARK SMILES IDX 82 23 2 24 1 25 3 26 4 27 18 28 19 29 20 30 21 31 28 32
REMARK SMILES IDX 29 33 30 34 31 35 32 37 33 38 34 39 80 40 35 41 79 42 36 43
REMARK SMILES IDX 37 44 38 45 73 46 39 47 78 48 72 49 74 50 40 51 77 52 71 53
REMARK SMILES IDX 70 54 41 56 63 57 48 58 62 59 49 60 52 61 61 62 75 63 50 64
REMARK SMILES IDX 51 65 60 67 76 68 53 69 42 70 43 71 47 72 44 73 46 74 45 75
REMARK SMILES IDX 64 76 65 77 69 78 66 79 68 80 67 81 54 82 55 83 59 84 56 85
REMARK SMILES IDX 58 86 57 87
REMARK H PARENT 25 6 30 36 74 55 52 66
REMARK Flexibility Score: inf
ROOT
ATOM      1  C   UNL     1      -0.338  12.498   8.205  1.00  0.00     0.023 C 
ENDROOT
BRANCH   1   2
ATOM      2  C   UNL     1       0.038  12.449   6.716  1.00  0.00     0.116 C 
BRANCH   2   3
ATOM      3  N   UNL     1       1.117  11.505   6.521  1.00  0.00    -0.352 N 
ATOM      4  C   UNL     1       1.264  10.519   5.607  1.00  0.00     0.251 C 
ATOM      5  O   UNL     1       1.953   9.553   5.917  1.00  0.00    -0.270 OA
ATOM      6  H   UNL     1       1.864  11.594   7.155  1.00  0.00     0.163 HD
BRANCH   4   7
ATOM      7  C   UNL     1       0.694  10.707   4.239  1.00  0.00     0.067 C 
ATOM      8  C   UNL     1       1.398   6.972   2.756  1.00  0.00     0.026 A 
ATOM      9  C   UNL     1       2.742   6.655   3.095  1.00  0.00     0.033 A 
ATOM     10  C   UNL     1       1.024   8.324   2.908  1.00  0.00     0.135 A 
ATOM     11  C   UNL     1       3.694   7.623   3.403  1.00  0.00     0.042 A 
ATOM     12  C   UNL     1       2.038   9.301   3.096  1.00  0.00     0.019 A 
ATOM     13  O   UNL     1      -0.296   8.759   2.950  1.00  0.00    -0.475 OA
ATOM     14  Cl  UNL     1       5.279   7.147   3.862  1.00  0.00    -0.084 Cl
ATOM     15  C   UNL     1       3.367   8.960   3.327  1.00  0.00     0.032 A 
ATOM     16  C   UNL     1       1.627  10.712   3.268  1.00  0.00     0.025 C 
ATOM     17  C   UNL     1      -0.544   9.876   3.921  1.00  0.00     0.314 C 
BRANCH   8  18
ATOM     18  C   UNL     1       0.653   5.852   2.106  1.00  0.00    -0.015 A 
ATOM     19  C   UNL     1       0.270   3.535   0.495  1.00  0.00     0.067 A 
ATOM     20  C   UNL     1       0.543   3.393   1.851  1.00  0.00     0.021 A 
ATOM     21  C   UNL     1       0.093   4.816  -0.043  1.00  0.00     0.021 A 
ATOM     22  C   UNL     1       0.706   4.544   2.647  1.00  0.00     0.010 A 
ATOM     23  C   UNL     1       0.271   5.961   0.757  1.00  0.00     0.010 A 
BRANCH  19  24
ATOM     24  S   UNL     1       0.210   2.148  -0.627  1.00  0.00     0.175 S 
ATOM     25  C   UNL     1       0.936   0.739   0.166  1.00  0.00     0.163 C 
ATOM     26  O   UNL     1       1.072   2.483  -1.744  1.00  0.00    -0.224 OA
ATOM     27  O   UNL     1      -1.198   1.855  -0.832  1.00  0.00    -0.224 OA
ENDBRANCH  19  24
ENDBRANCH   8  18
BRANCH  17  28
ATOM     28  C   UNL     1      -1.645  10.845   3.427  1.00  0.00     0.429 C 
ATOM     29  F   UNL     1      -1.874  10.747   2.099  1.00  0.00    -0.167 F 
ATOM     30  F   UNL     1      -2.818  10.625   4.067  1.00  0.00    -0.167 F 
ATOM     31  F   UNL     1      -1.330  12.149   3.666  1.00  0.00    -0.167 F 
ENDBRANCH  17  28
ENDBRANCH   4   7
ENDBRANCH   2   3
ENDBRANCH   1   2
BRANCH   1  32
ATOM     32  C   UNL     1       0.799  12.899   9.157  1.00  0.00     0.023 C 
BRANCH  32  33
ATOM     33  C   UNL     1       1.474  14.225   8.831  1.00  0.00     0.116 C 
BRANCH  33  34
ATOM     34  N   UNL     1       0.565  15.348   8.983  1.00  0.00    -0.352 N 
ATOM     35  C   UNL     1       0.675  16.455   9.789  1.00  0.00     0.251 C 
ATOM     36  H   UNL     1      -0.248  15.311   8.428  1.00  0.00     0.163 HD
ATOM     37  O   UNL     1      -0.286  17.202   9.941  1.00  0.00    -0.269 OA
BRANCH  35  38
ATOM     38  C   UNL     1       1.945  16.733  10.495  1.00  0.00     0.039 A 
ATOM     39  C   UNL     1       1.902  17.108  11.840  1.00  0.00     0.014 A 
ATOM     40  C   UNL     1       3.173  16.629   9.836  1.00  0.00     0.014 A 
ATOM     41  C   UNL     1       3.093  17.314  12.541  1.00  0.00     0.010 A 
ATOM     42  C   UNL     1       4.359  16.759  10.555  1.00  0.00     0.010 A 
ATOM     43  C   UNL     1       4.333  17.104  11.915  1.00  0.00    -0.014 A 
BRANCH  43  44
ATOM     44  C   UNL     1       5.607  17.231  12.670  1.00  0.00     0.031 A 
ATOM     45  C   UNL     1       6.621  18.275  12.282  1.00  0.00     0.074 A 
ATOM     46  C   UNL     1       5.881  16.365  13.667  1.00  0.00     0.049 A 
ATOM     47  N   UNL     1       7.807  18.501  12.790  1.00  0.00    -0.248 NA
ATOM     48  C   UNL     1       6.269  19.168  11.165  1.00  0.00     0.031 C 
ATOM     49  C   UNL     1       5.004  15.280  14.115  1.00  0.00     0.029 A 
ATOM     50  N   UNL     1       6.982  16.254  14.480  1.00  0.00    -0.354 N 
ATOM     51  C   UNL     1       8.349  19.538  12.041  1.00  0.00     0.074 A 
ATOM     52  C   UNL     1       7.381  19.875  11.020  1.00  0.00     0.031 C 
ATOM     53  C   UNL     1       5.589  14.632  15.135  1.00  0.00     0.029 A 
ATOM     54  C   UNL     1       6.900  15.222  15.385  1.00  0.00     0.049 A 
ATOM     55  H   UNL     1       7.758  16.858  14.421  1.00  0.00     0.167 HD
ATOM     56  C   UNL     1       9.539  20.164  12.197  1.00  0.00     0.031 A 
ATOM     57  C   UNL     1       7.785  14.789  16.304  1.00  0.00     0.031 A 
ATOM     58  C   UNL     1      10.492  19.847  13.228  1.00  0.00     0.049 A 
ATOM     59  C   UNL     1       9.104  15.502  16.445  1.00  0.00     0.074 A 
ATOM     60  C   UNL     1      11.688  20.483  13.515  1.00  0.00     0.029 A 
ATOM     61  N   UNL     1      10.363  18.806  14.132  1.00  0.00    -0.354 N 
ATOM     62  N   UNL     1       9.555  16.544  15.792  1.00  0.00    -0.248 NA
ATOM     63  C   UNL     1      10.031  14.982  17.461  1.00  0.00     0.031 C 
ATOM     64  C   UNL     1      12.315  19.784  14.550  1.00  0.00     0.029 A 
ATOM     65  C   UNL     1      11.477  18.758  14.953  1.00  0.00     0.049 A 
ATOM     66  H   UNL     1       9.595  18.192  14.182  1.00  0.00     0.167 HD
ATOM     67  C   UNL     1      10.799  16.826  16.343  1.00  0.00     0.074 A 
ATOM     68  C   UNL     1      11.021  15.859  17.396  1.00  0.00     0.031 C 
ATOM     69  C   UNL     1      11.680  17.799  16.006  1.00  0.00     0.031 A 
BRANCH  56  70
ATOM     70  C   UNL     1       9.898  21.256  11.227  1.00  0.00    -0.014 A 
ATOM     71  C   UNL     1       9.252  22.501  11.255  1.00  0.00     0.009 A 
ATOM     72  C   UNL     1      10.960  21.062  10.330  1.00  0.00     0.009 A 
ATOM     73  C   UNL     1       9.650  23.523  10.390  1.00  0.00     0.001 A 
ATOM     74  C   UNL     1      11.375  22.094   9.487  1.00  0.00     0.001 A 
ATOM     75  C   UNL     1      10.716  23.322   9.514  1.00  0.00     0.000 A 
ENDBRANCH  56  70
BRANCH  57  76
ATOM     76  C   UNL     1       7.475  13.613  17.163  1.00  0.00    -0.014 A 
ATOM     77  C   UNL     1       7.322  13.759  18.551  1.00  0.00     0.009 A 
ATOM     78  C   UNL     1       7.389  12.327  16.606  1.00  0.00     0.009 A 
ATOM     79  C   UNL     1       7.141  12.639  19.366  1.00  0.00     0.001 A 
ATOM     80  C   UNL     1       7.170  11.213  17.419  1.00  0.00     0.001 A 
ATOM     81  C   UNL     1       7.063  11.368  18.800  1.00  0.00     0.000 A 
ENDBRANCH  57  76
BRANCH  69  82
ATOM     82  C   UNL     1      12.943  17.900  16.816  1.00  0.00    -0.014 A 
ATOM     83  C   UNL     1      13.955  16.932  16.723  1.00  0.00     0.009 A 
ATOM     84  C   UNL     1      13.136  19.008  17.657  1.00  0.00     0.009 A 
ATOM     85  C   UNL     1      15.118  17.053  17.486  1.00  0.00     0.001 A 
ATOM     86  C   UNL     1      14.315  19.144  18.391  1.00  0.00     0.001 A 
ATOM     87  C   UNL     1      15.300  18.161  18.314  1.00  0.00     0.000 A 
ENDBRANCH  69  82
ENDBRANCH  43  44
ENDBRANCH  35  38
ENDBRANCH  33  34
ENDBRANCH  32  33
ENDBRANCH   1  32
TORSDOF 14
