REMARK SMILES O=C(NCCCCNC(=O)[C@H]1CC[C@H](CNC(=O)c2ccccc2O)O1)c1ccc(-c2c3nc(c(-c4ccccc4)c4ccc([nH]4)c(-c4ccccc4)c4nc(c(-c5ccccc5)c5ccc2[nH]5)C=C4)C=C3)cc1
REMARK SMILES IDX 6 1 5 2 4 3 3 4 1 5 2 6 27 8 28 9 74 10 29 11 73 12 30 13
REMARK SMILES IDX 31 14 32 15 67 16 33 17 72 18 66 19 68 20 34 21 71 22 65 23
REMARK SMILES IDX 64 24 35 26 57 27 42 28 56 29 43 30 46 31 55 32 69 33 44 34
REMARK SMILES IDX 45 35 54 37 70 38 47 39 36 40 37 41 41 42 38 43 40 44 39 45
REMARK SMILES IDX 58 46 59 47 63 48 60 49 62 50 61 51 48 52 49 53 53 54 50 55
REMARK SMILES IDX 52 56 51 57 7 58 8 59 9 60 10 62 11 63 12 64 26 65 13 66
REMARK SMILES IDX 14 67 15 68 16 69 17 70 18 72 19 73 20 74 24 75 21 76 23 77
REMARK SMILES IDX 22 78 25 79
REMARK H PARENT 3 7 68 25 46 36 8 61 16 71 25 80
REMARK Flexibility Score: inf
ROOT
ATOM      1  C   UNL     1       9.359   0.584   5.581  1.00  0.00     0.023 C 
ENDROOT
BRANCH   1   2
ATOM      2  C   UNL     1      10.441   1.126   6.519  1.00  0.00     0.023 C 
BRANCH   2   3
ATOM      3  C   UNL     1      11.773   0.385   6.477  1.00  0.00     0.116 C 
BRANCH   3   4
ATOM      4  N   UNL     1      12.394   0.410   5.163  1.00  0.00    -0.352 N 
ATOM      5  O   UNL     1      14.020   0.813   3.650  1.00  0.00    -0.269 OA
ATOM      6  C   UNL     1      13.692   0.711   4.829  1.00  0.00     0.251 C 
ATOM      7  H   UNL     1      11.804   0.181   4.409  1.00  0.00     0.163 HD
BRANCH   6   8
ATOM      8  C   UNL     1      14.689   0.938   5.896  1.00  0.00     0.039 A 
ATOM      9  C   UNL     1      14.790   0.059   6.977  1.00  0.00     0.014 A 
ATOM     10  C   UNL     1      15.533   2.049   5.808  1.00  0.00     0.014 A 
ATOM     11  C   UNL     1      15.646   0.358   8.031  1.00  0.00     0.010 A 
ATOM     12  C   UNL     1      16.445   2.307   6.833  1.00  0.00     0.010 A 
ATOM     13  C   UNL     1      16.491   1.477   7.965  1.00  0.00    -0.014 A 
BRANCH  13  14
ATOM     14  C   UNL     1      17.464   1.727   9.055  1.00  0.00     0.031 A 
ATOM     15  C   UNL     1      17.358   2.941   9.932  1.00  0.00     0.074 A 
ATOM     16  C   UNL     1      18.459   0.840   9.246  1.00  0.00     0.049 A 
ATOM     17  N   UNL     1      18.133   3.311  10.921  1.00  0.00    -0.248 NA
ATOM     18  C   UNL     1      16.246   3.865   9.661  1.00  0.00     0.031 C 
ATOM     19  C   UNL     1      18.673  -0.370   8.448  1.00  0.00     0.029 A 
ATOM     20  N   UNL     1      19.472   0.815  10.169  1.00  0.00    -0.354 N 
ATOM     21  C   UNL     1      17.619   4.518  11.376  1.00  0.00     0.074 A 
ATOM     22  C   UNL     1      16.478   4.830  10.542  1.00  0.00     0.031 C 
ATOM     23  C   UNL     1      19.734  -1.032   8.931  1.00  0.00     0.029 A 
ATOM     24  C   UNL     1      20.307  -0.266  10.032  1.00  0.00     0.049 A 
ATOM     25  H   UNL     1      19.589   1.505  10.861  1.00  0.00     0.167 HD
ATOM     26  C   UNL     1      18.058   5.293  12.397  1.00  0.00     0.031 A 
ATOM     27  C   UNL     1      21.427  -0.597  10.699  1.00  0.00     0.031 A 
ATOM     28  C   UNL     1      19.197   4.980  13.222  1.00  0.00     0.049 A 
ATOM     29  C   UNL     1      21.908   0.291  11.807  1.00  0.00     0.074 A 
ATOM     30  C   UNL     1      19.691   5.678  14.311  1.00  0.00     0.029 A 
ATOM     31  N   UNL     1      20.027   3.884  13.040  1.00  0.00    -0.354 N 
ATOM     32  N   UNL     1      21.379   1.402  12.259  1.00  0.00    -0.248 NA
ATOM     33  C   UNL     1      23.137  -0.121  12.497  1.00  0.00     0.031 C 
ATOM     34  C   UNL     1      20.851   5.034  14.754  1.00  0.00     0.029 A 
ATOM     35  C   UNL     1      21.049   3.905  13.976  1.00  0.00     0.049 A 
ATOM     36  H   UNL     1      19.908   3.194  12.349  1.00  0.00     0.167 HD
ATOM     37  C   UNL     1      22.203   1.817  13.295  1.00  0.00     0.074 A 
ATOM     38  C   UNL     1      23.255   0.828  13.417  1.00  0.00     0.031 C 
ATOM     39  C   UNL     1      22.096   2.921  14.075  1.00  0.00     0.031 A 
BRANCH  26  40
ATOM     40  C   UNL     1      17.323   6.579  12.656  1.00  0.00    -0.014 A 
ATOM     41  C   UNL     1      16.033   6.588  13.210  1.00  0.00     0.009 A 
ATOM     42  C   UNL     1      17.947   7.805  12.371  1.00  0.00     0.009 A 
ATOM     43  C   UNL     1      15.369   7.797  13.437  1.00  0.00     0.001 A 
ATOM     44  C   UNL     1      17.291   9.011  12.624  1.00  0.00     0.001 A 
ATOM     45  C   UNL     1      15.999   9.006  13.147  1.00  0.00     0.000 A 
ENDBRANCH  26  40
BRANCH  27  46
ATOM     46  C   UNL     1      22.172  -1.819  10.306  1.00  0.00    -0.014 A 
ATOM     47  C   UNL     1      22.162  -2.958  11.123  1.00  0.00     0.009 A 
ATOM     48  C   UNL     1      22.860  -1.863   9.082  1.00  0.00     0.009 A 
ATOM     49  C   UNL     1      22.837  -4.115  10.725  1.00  0.00     0.001 A 
ATOM     50  C   UNL     1      23.508  -3.029   8.675  1.00  0.00     0.001 A 
ATOM     51  C   UNL     1      23.501  -4.152   9.499  1.00  0.00     0.000 A 
ENDBRANCH  27  46
BRANCH  39  52
ATOM     52  C   UNL     1      23.139   3.106  15.140  1.00  0.00    -0.014 A 
ATOM     53  C   UNL     1      24.445   3.501  14.816  1.00  0.00     0.009 A 
ATOM     54  C   UNL     1      22.797   2.916  16.488  1.00  0.00     0.009 A 
ATOM     55  C   UNL     1      25.398   3.677  15.821  1.00  0.00     0.001 A 
ATOM     56  C   UNL     1      23.745   3.118  17.492  1.00  0.00     0.001 A 
ATOM     57  C   UNL     1      25.046   3.490  17.158  1.00  0.00     0.000 A 
ENDBRANCH  39  52
ENDBRANCH  13  14
ENDBRANCH   6   8
ENDBRANCH   3   4
ENDBRANCH   2   3
ENDBRANCH   1   2
BRANCH   1  58
ATOM     58  C   UNL     1       9.090  -0.914   5.715  1.00  0.00     0.116 C 
BRANCH  58  59
ATOM     59  N   UNL     1       8.631  -1.262   7.046  1.00  0.00    -0.354 N 
ATOM     60  C   UNL     1       7.402  -1.663   7.481  1.00  0.00     0.249 C 
ATOM     61  H   UNL     1       9.317  -1.199   7.749  1.00  0.00     0.163 HD
ATOM     62  O   UNL     1       7.266  -1.872   8.690  1.00  0.00    -0.272 OA
BRANCH  60  63
ATOM     63  C   UNL     1       6.253  -1.870   6.484  1.00  0.00     0.207 C 
ATOM     64  C   UNL     1       5.848  -3.339   6.445  1.00  0.00     0.045 C 
ATOM     65  O   UNL     1       5.099  -1.113   6.880  1.00  0.00    -0.363 OA
ATOM     66  C   UNL     1       4.606  -3.375   7.305  1.00  0.00     0.037 C 
ATOM     67  C   UNL     1       3.987  -2.010   7.059  1.00  0.00     0.138 C 
BRANCH  67  68
ATOM     68  C   UNL     1       3.113  -1.939   5.797  1.00  0.00     0.148 C 
BRANCH  68  69
ATOM     69  N   UNL     1       1.860  -2.661   5.923  1.00  0.00    -0.349 N 
ATOM     70  C   UNL     1       0.579  -2.182   5.815  1.00  0.00     0.255 C 
ATOM     71  H   UNL     1       1.940  -3.624   6.112  1.00  0.00     0.163 HD
ATOM     72  O   UNL     1      -0.373  -2.927   6.041  1.00  0.00    -0.269 OA
BRANCH  70  73
ATOM     73  C   UNL     1       0.329  -0.758   5.510  1.00  0.00     0.081 A 
ATOM     74  C   UNL     1      -0.431  -0.032   6.437  1.00  0.00     0.018 A 
ATOM     75  C   UNL     1       0.771  -0.137   4.336  1.00  0.00     0.128 A 
ATOM     76  C   UNL     1      -0.702   1.318   6.215  1.00  0.00     0.001 A 
ATOM     77  C   UNL     1       0.506   1.217   4.119  1.00  0.00     0.047 A 
ATOM     78  C   UNL     1      -0.225   1.943   5.062  1.00  0.00     0.004 A 
BRANCH  75  79
ATOM     79  O   UNL     1       1.466  -0.844   3.394  1.00  0.00    -0.507 OA
ATOM     80  H   UNL     1       1.649  -1.753   3.531  1.00  0.00     0.293 HD
ENDBRANCH  75  79
ENDBRANCH  70  73
ENDBRANCH  68  69
ENDBRANCH  67  68
ENDBRANCH  60  63
ENDBRANCH  58  59
ENDBRANCH   1  58
TORSDOF 15
