REMARK SMILES O=C(NCCCCNC(=O)c1ccc(S(=O)(=O)NCC[NH+]2CCCC2)c(F)c1)c1ccc(-c2c3nc(c(-c4ccccc4)c4ccc([nH]4)c(-c4ccccc4)c4nc(c(-c5ccccc5)c5ccc2[nH]5)C=C4)C=C3)cc1
REMARK SMILES IDX 7 1 6 2 5 3 4 4 3 5 1 6 2 7 29 9 30 10 76 11 31 12 75 13
REMARK SMILES IDX 32 14 33 15 34 16 69 17 35 18 74 19 68 20 70 21 36 22 73 23
REMARK SMILES IDX 67 24 66 25 37 27 59 28 44 29 58 30 45 31 48 32 57 33 71 34
REMARK SMILES IDX 46 35 47 36 56 38 72 39 49 40 38 41 39 42 43 43 40 44 42 45
REMARK SMILES IDX 41 46 60 47 61 48 65 49 62 50 64 51 63 52 50 53 51 54 55 55
REMARK SMILES IDX 52 56 54 57 53 58 8 59 9 60 10 62 11 63 12 64 28 65 13 66
REMARK SMILES IDX 26 67 14 68 27 69 15 70 16 71 17 72 18 73 19 75 20 76 21 77
REMARK SMILES IDX 22 78 25 79 23 81 24 82
REMARK H PARENT 3 8 70 26 48 37 8 61 18 74 21 80
REMARK Flexibility Score: inf
ROOT
ATOM      1  C   UNL     1       4.782  -3.841  -2.235  1.00  0.00     0.116 C 
ENDROOT
BRANCH   1   2
ATOM      2  C   UNL     1       4.375  -3.870  -0.765  1.00  0.00     0.023 C 
BRANCH   2   3
ATOM      3  C   UNL     1       4.851  -2.691   0.080  1.00  0.00     0.023 C 
BRANCH   3   4
ATOM      4  C   UNL     1       4.550  -1.308  -0.484  1.00  0.00     0.116 C 
BRANCH   4   5
ATOM      5  N   UNL     1       3.127  -1.038  -0.630  1.00  0.00    -0.352 N 
ATOM      6  O   UNL     1       1.155   0.002  -0.284  1.00  0.00    -0.269 OA
ATOM      7  C   UNL     1       2.374   0.003  -0.137  1.00  0.00     0.251 C 
ATOM      8  H   UNL     1       2.628  -1.699  -1.162  1.00  0.00     0.163 HD
BRANCH   7   9
ATOM      9  C   UNL     1       3.023   1.103   0.611  1.00  0.00     0.039 A 
ATOM     10  C   UNL     1       4.203   1.689   0.150  1.00  0.00     0.014 A 
ATOM     11  C   UNL     1       2.449   1.538   1.810  1.00  0.00     0.014 A 
ATOM     12  C   UNL     1       4.902   2.568   0.971  1.00  0.00     0.010 A 
ATOM     13  C   UNL     1       3.110   2.490   2.593  1.00  0.00     0.010 A 
ATOM     14  C   UNL     1       4.370   2.970   2.207  1.00  0.00    -0.014 A 
BRANCH  14  15
ATOM     15  C   UNL     1       5.157   3.888   3.072  1.00  0.00     0.031 A 
ATOM     16  C   UNL     1       5.692   3.430   4.404  1.00  0.00     0.074 A 
ATOM     17  C   UNL     1       5.443   5.126   2.626  1.00  0.00     0.049 A 
ATOM     18  N   UNL     1       6.463   4.074   5.245  1.00  0.00    -0.248 NA
ATOM     19  C   UNL     1       5.312   2.083   4.854  1.00  0.00     0.031 C 
ATOM     20  C   UNL     1       4.982   5.693   1.357  1.00  0.00     0.029 A 
ATOM     21  N   UNL     1       6.218   6.116   3.172  1.00  0.00    -0.354 N 
ATOM     22  C   UNL     1       6.635   3.226   6.332  1.00  0.00     0.074 A 
ATOM     23  C   UNL     1       5.874   2.027   6.054  1.00  0.00     0.031 C 
ATOM     24  C   UNL     1       5.536   6.903   1.191  1.00  0.00     0.029 A 
ATOM     25  C   UNL     1       6.349   7.217   2.361  1.00  0.00     0.049 A 
ATOM     26  H   UNL     1       6.641   6.045   4.058  1.00  0.00     0.167 HD
ATOM     27  C   UNL     1       7.362   3.423   7.458  1.00  0.00     0.031 A 
ATOM     28  C   UNL     1       7.048   8.353   2.534  1.00  0.00     0.031 A 
ATOM     29  C   UNL     1       8.139   4.602   7.733  1.00  0.00     0.049 A 
ATOM     30  C   UNL     1       7.852   8.541   3.786  1.00  0.00     0.074 A 
ATOM     31  C   UNL     1       8.938   4.873   8.831  1.00  0.00     0.029 A 
ATOM     32  N   UNL     1       8.217   5.706   6.899  1.00  0.00    -0.354 N 
ATOM     33  N   UNL     1       8.025   7.714   4.787  1.00  0.00    -0.248 NA
ATOM     34  C   UNL     1       8.560   9.821   3.927  1.00  0.00     0.031 C 
ATOM     35  C   UNL     1       9.473   6.158   8.678  1.00  0.00     0.029 A 
ATOM     36  C   UNL     1       9.038   6.668   7.466  1.00  0.00     0.049 A 
ATOM     37  H   UNL     1       7.758   5.795   6.033  1.00  0.00     0.167 HD
ATOM     38  C   UNL     1       8.875   8.366   5.670  1.00  0.00     0.074 A 
ATOM     39  C   UNL     1       9.196   9.648   5.077  1.00  0.00     0.031 C 
ATOM     40  C   UNL     1       9.347   7.938   6.866  1.00  0.00     0.031 A 
BRANCH  27  41
ATOM     41  C   UNL     1       7.332   2.340   8.500  1.00  0.00    -0.014 A 
ATOM     42  C   UNL     1       8.039   1.140   8.327  1.00  0.00     0.009 A 
ATOM     43  C   UNL     1       6.616   2.542   9.691  1.00  0.00     0.009 A 
ATOM     44  C   UNL     1       8.007   0.153   9.315  1.00  0.00     0.001 A 
ATOM     45  C   UNL     1       6.604   1.563  10.685  1.00  0.00     0.001 A 
ATOM     46  C   UNL     1       7.292   0.366  10.493  1.00  0.00     0.000 A 
ENDBRANCH  27  41
BRANCH  28  47
ATOM     47  C   UNL     1       7.031   9.395   1.478  1.00  0.00    -0.014 A 
ATOM     48  C   UNL     1       8.160   9.610   0.674  1.00  0.00     0.009 A 
ATOM     49  C   UNL     1       5.880  10.168   1.258  1.00  0.00     0.009 A 
ATOM     50  C   UNL     1       8.142  10.590  -0.320  1.00  0.00     0.001 A 
ATOM     51  C   UNL     1       5.857  11.130   0.248  1.00  0.00     0.001 A 
ATOM     52  C   UNL     1       6.990  11.345  -0.535  1.00  0.00     0.000 A 
ENDBRANCH  28  47
BRANCH  40  53
ATOM     53  C   UNL     1      10.282   8.858   7.594  1.00  0.00    -0.014 A 
ATOM     54  C   UNL     1       9.808  10.003   8.251  1.00  0.00     0.009 A 
ATOM     55  C   UNL     1      11.653   8.563   7.637  1.00  0.00     0.009 A 
ATOM     56  C   UNL     1      10.696  10.856   8.909  1.00  0.00     0.001 A 
ATOM     57  C   UNL     1      12.536   9.405   8.315  1.00  0.00     0.001 A 
ATOM     58  C   UNL     1      12.058  10.555   8.942  1.00  0.00     0.000 A 
ENDBRANCH  40  53
ENDBRANCH  14  15
ENDBRANCH   7   9
ENDBRANCH   4   5
ENDBRANCH   3   4
ENDBRANCH   2   3
ENDBRANCH   1   2
BRANCH   1  59
ATOM     59  N   UNL     1       6.223  -3.801  -2.438  1.00  0.00    -0.352 N 
ATOM     60  C   UNL     1       7.022  -4.600  -3.222  1.00  0.00     0.251 C 
ATOM     61  H   UNL     1       6.697  -3.097  -1.939  1.00  0.00     0.163 HD
ATOM     62  O   UNL     1       8.241  -4.475  -3.196  1.00  0.00    -0.269 OA
BRANCH  60  63
ATOM     63  C   UNL     1       6.412  -5.654  -4.058  1.00  0.00     0.042 A 
ATOM     64  C   UNL     1       5.340  -5.370  -4.908  1.00  0.00     0.015 A 
ATOM     65  C   UNL     1       6.902  -6.959  -3.953  1.00  0.00     0.054 A 
ATOM     66  C   UNL     1       4.654  -6.418  -5.515  1.00  0.00     0.026 A 
ATOM     67  C   UNL     1       6.237  -7.999  -4.600  1.00  0.00     0.144 A 
ATOM     68  C   UNL     1       5.081  -7.742  -5.322  1.00  0.00     0.118 A 
ATOM     69  F   UNL     1       6.722  -9.237  -4.455  1.00  0.00    -0.205 F 
BRANCH  68  70
ATOM     70  S   UNL     1       4.009  -9.017  -5.896  1.00  0.00     0.243 S 
ATOM     71  O   UNL     1       2.667  -8.590  -5.560  1.00  0.00    -0.207 OA
ATOM     72  O   UNL     1       4.372  -9.273  -7.273  1.00  0.00    -0.207 OA
BRANCH  70  73
ATOM     73  N   UNL     1       4.328 -10.426  -5.040  1.00  0.00    -0.205 NA
ATOM     74  H   UNL     1       5.297 -10.670  -5.245  1.00  0.00     0.141 HD
BRANCH  73  75
ATOM     75  C   UNL     1       4.185 -10.509  -3.569  1.00  0.00     0.160 C 
BRANCH  75  76
ATOM     76  C   UNL     1       2.745 -10.351  -3.064  1.00  0.00     0.278 C 
BRANCH  76  77
ATOM     77  N   UNL     1       1.802 -11.252  -3.758  1.00  0.00    -0.334 N 
ATOM     78  C   UNL     1       0.433 -10.703  -3.705  1.00  0.00     0.262 C 
ATOM     79  C   UNL     1       1.685 -12.551  -3.071  1.00  0.00     0.262 C 
ATOM     80  H   UNL     1       2.161 -11.349  -4.707  1.00  0.00     0.348 HD
ATOM     81  C   UNL     1      -0.075 -11.061  -2.321  1.00  0.00     0.067 C 
ATOM     82  C   UNL     1       0.571 -12.408  -2.035  1.00  0.00     0.067 C 
ENDBRANCH  76  77
ENDBRANCH  75  76
ENDBRANCH  73  75
ENDBRANCH  70  73
ENDBRANCH  68  70
ENDBRANCH  60  63
ENDBRANCH   1  59
TORSDOF 16
