REMARK SMILES CC[N@@H+]1CCO[C@@H](COc2ccc(C(=O)NCCCCNC(=O)c3ccc(-c4c5nc(c(-c6ccccc6)c6ccc([nH]6)c(-c6ccccc6)c6nc(c(-c7ccccc7)c7ccc4[nH]7)C=C6)C=C5)cc3)cc2OC)C1
REMARK SMILES IDX 17 1 16 2 14 3 15 4 13 6 10 7 11 8 73 9 12 10 72 11 9 12
REMARK SMILES IDX 8 13 7 14 3 15 4 16 76 17 5 19 6 20 2 21 1 22 74 23 75 24
REMARK SMILES IDX 18 25 19 26 20 27 21 28 22 29 23 31 24 32 25 33 71 34 26 35
REMARK SMILES IDX 70 36 27 37 28 38 29 39 64 40 30 41 69 42 63 43 65 44 31 45
REMARK SMILES IDX 68 46 62 47 61 48 32 50 54 51 39 52 53 53 40 54 43 55 52 56
REMARK SMILES IDX 66 57 41 58 42 59 51 61 67 62 44 63 33 64 34 65 38 66 35 67
REMARK SMILES IDX 37 68 36 69 55 70 56 71 60 72 57 73 59 74 58 75 45 76 46 77
REMARK SMILES IDX 50 78 47 79 49 80 48 81
REMARK H PARENT 16 5 3 18 21 30 65 49 43 60
REMARK Flexibility Score: inf
ROOT
ATOM      1  C   UNL     1      -0.168  -3.947   4.704  1.00  0.00     0.116 C 
ENDROOT
BRANCH   1   2
ATOM      2  N   UNL     1       0.527  -5.204   4.941  1.00  0.00    -0.352 N 
ATOM      3  C   UNL     1       1.796  -5.592   4.579  1.00  0.00     0.251 C 
ATOM      4  O   UNL     1       2.264  -6.636   5.025  1.00  0.00    -0.269 OA
ATOM      5  H   UNL     1       0.010  -5.880   5.435  1.00  0.00     0.163 HD
BRANCH   3   6
ATOM      6  C   UNL     1       2.631  -4.728   3.713  1.00  0.00     0.043 A 
ATOM      7  C   UNL     1       4.125  -2.843   2.307  1.00  0.00     0.161 A 
ATOM      8  C   UNL     1       4.682  -3.482   3.419  1.00  0.00     0.051 A 
ATOM      9  C   UNL     1       2.901  -3.280   1.787  1.00  0.00     0.161 A 
ATOM     10  C   UNL     1       3.936  -4.433   4.120  1.00  0.00     0.018 A 
ATOM     11  C   UNL     1       2.143  -4.202   2.513  1.00  0.00     0.064 A 
BRANCH   7  12
ATOM     12  O   UNL     1       4.791  -1.787   1.750  1.00  0.00    -0.487 OA
BRANCH  12  13
ATOM     13  C   UNL     1       4.562  -0.537   2.444  1.00  0.00     0.267 C 
BRANCH  13  14
ATOM     14  C   UNL     1       3.230   0.153   2.073  1.00  0.00     0.210 C 
ATOM     15  N   UNL     1       0.768   0.340   2.605  1.00  0.00    -0.331 N 
ATOM     16  C   UNL     1       0.916   1.794   2.454  1.00  0.00     0.291 C 
ATOM     17  C   UNL     1       2.062  -0.253   2.994  1.00  0.00     0.298 C 
ATOM     18  H   UNL     1       0.105   0.197   3.367  1.00  0.00     0.348 HD
ATOM     19  C   UNL     1       2.194   2.255   1.720  1.00  0.00     0.222 C 
ATOM     20  O   UNL     1       3.383   1.588   2.182  1.00  0.00    -0.363 OA
BRANCH  15  21
ATOM     21  C   UNL     1       0.072  -0.362   1.522  1.00  0.00     0.258 C 
ATOM     22  C   UNL     1       0.271   0.090   0.077  1.00  0.00     0.071 C 
ENDBRANCH  15  21
ENDBRANCH  13  14
ENDBRANCH  12  13
ENDBRANCH   7  12
BRANCH   9  23
ATOM     23  O   UNL     1       2.268  -2.757   0.691  1.00  0.00    -0.493 OA
ATOM     24  C   UNL     1       3.094  -2.524  -0.446  1.00  0.00     0.278 C 
ENDBRANCH   9  23
ENDBRANCH   3   6
ENDBRANCH   1   2
BRANCH   1  25
ATOM     25  C   UNL     1      -1.339  -4.120   3.735  1.00  0.00     0.023 C 
BRANCH  25  26
ATOM     26  C   UNL     1      -2.537  -4.881   4.307  1.00  0.00     0.023 C 
BRANCH  26  27
ATOM     27  C   UNL     1      -3.225  -4.216   5.494  1.00  0.00     0.116 C 
BRANCH  27  28
ATOM     28  N   UNL     1      -3.783  -2.910   5.179  1.00  0.00    -0.352 N 
ATOM     29  C   UNL     1      -4.974  -2.359   5.584  1.00  0.00     0.251 C 
ATOM     30  H   UNL     1      -3.230  -2.343   4.594  1.00  0.00     0.163 HD
ATOM     31  O   UNL     1      -5.346  -1.283   5.118  1.00  0.00    -0.269 OA
BRANCH  29  32
ATOM     32  C   UNL     1      -5.828  -3.069   6.561  1.00  0.00     0.039 A 
ATOM     33  C   UNL     1      -7.208  -3.111   6.346  1.00  0.00     0.014 A 
ATOM     34  C   UNL     1      -5.278  -3.686   7.687  1.00  0.00     0.014 A 
ATOM     35  C   UNL     1      -8.029  -3.806   7.237  1.00  0.00     0.010 A 
ATOM     36  C   UNL     1      -6.084  -4.453   8.523  1.00  0.00     0.010 A 
ATOM     37  C   UNL     1      -7.471  -4.502   8.321  1.00  0.00    -0.014 A 
BRANCH  37  38
ATOM     38  C   UNL     1      -8.328  -5.255   9.272  1.00  0.00     0.031 A 
ATOM     39  C   UNL     1      -8.388  -4.850  10.720  1.00  0.00     0.074 A 
ATOM     40  C   UNL     1      -9.013  -6.334   8.850  1.00  0.00     0.049 A 
ATOM     41  N   UNL     1      -9.066  -5.388  11.703  1.00  0.00    -0.248 NA
ATOM     42  C   UNL     1      -7.549  -3.711  11.124  1.00  0.00     0.031 C 
ATOM     43  C   UNL     1      -8.997  -6.868   7.487  1.00  0.00     0.029 A 
ATOM     44  N   UNL     1      -9.854  -7.179   9.530  1.00  0.00    -0.354 N 
ATOM     45  C   UNL     1      -8.719  -4.667  12.839  1.00  0.00     0.074 A 
ATOM     46  C   UNL     1      -7.721  -3.701  12.436  1.00  0.00     0.031 C 
ATOM     47  C   UNL     1      -9.813  -7.932   7.425  1.00  0.00     0.029 A 
ATOM     48  C   UNL     1     -10.380  -8.177   8.748  1.00  0.00     0.049 A 
ATOM     49  H   UNL     1     -10.060  -7.079  10.488  1.00  0.00     0.167 HD
ATOM     50  C   UNL     1      -9.201  -4.779  14.100  1.00  0.00     0.031 A 
ATOM     51  C   UNL     1     -11.225  -9.178   9.058  1.00  0.00     0.031 A 
ATOM     52  C   UNL     1     -10.193  -5.742  14.500  1.00  0.00     0.049 A 
ATOM     53  C   UNL     1     -11.757  -9.285  10.459  1.00  0.00     0.074 A 
ATOM     54  C   UNL     1     -10.796  -5.898  15.736  1.00  0.00     0.029 A 
ATOM     55  N   UNL     1     -10.717  -6.723  13.672  1.00  0.00    -0.354 N 
ATOM     56  N   UNL     1     -11.489  -8.539  11.504  1.00  0.00    -0.248 NA
ATOM     57  C   UNL     1     -12.727 -10.357  10.716  1.00  0.00     0.031 C 
ATOM     58  C   UNL     1     -11.637  -7.015  15.672  1.00  0.00     0.029 A 
ATOM     59  C   UNL     1     -11.615  -7.508  14.377  1.00  0.00     0.049 A 
ATOM     60  H   UNL     1     -10.485  -6.844  12.723  1.00  0.00     0.167 HD
ATOM     61  C   UNL     1     -12.277  -9.034  12.536  1.00  0.00     0.074 A 
ATOM     62  C   UNL     1     -13.043 -10.133  11.984  1.00  0.00     0.031 C 
ATOM     63  C   UNL     1     -12.362  -8.610  13.822  1.00  0.00     0.031 A 
BRANCH  50  64
ATOM     64  C   UNL     1      -8.632  -3.844  15.135  1.00  0.00    -0.014 A 
ATOM     65  C   UNL     1      -8.841  -2.455  15.067  1.00  0.00     0.009 A 
ATOM     66  C   UNL     1      -7.859  -4.357  16.188  1.00  0.00     0.009 A 
ATOM     67  C   UNL     1      -8.233  -1.599  15.988  1.00  0.00     0.001 A 
ATOM     68  C   UNL     1      -7.286  -3.503  17.131  1.00  0.00     0.001 A 
ATOM     69  C   UNL     1      -7.457  -2.124  17.021  1.00  0.00     0.000 A 
ENDBRANCH  50  64
BRANCH  51  70
ATOM     70  C   UNL     1     -11.635 -10.141   8.002  1.00  0.00    -0.014 A 
ATOM     71  C   UNL     1     -12.933 -10.111   7.470  1.00  0.00     0.009 A 
ATOM     72  C   UNL     1     -10.714 -11.071   7.493  1.00  0.00     0.009 A 
ATOM     73  C   UNL     1     -13.305 -11.003   6.461  1.00  0.00     0.001 A 
ATOM     74  C   UNL     1     -11.080 -11.941   6.464  1.00  0.00     0.001 A 
ATOM     75  C   UNL     1     -12.376 -11.911   5.953  1.00  0.00     0.000 A 
ENDBRANCH  51  70
BRANCH  63  76
ATOM     76  C   UNL     1     -13.347  -9.315  14.715  1.00  0.00    -0.014 A 
ATOM     77  C   UNL     1     -13.145 -10.639  15.135  1.00  0.00     0.009 A 
ATOM     78  C   UNL     1     -14.483  -8.626  15.169  1.00  0.00     0.009 A 
ATOM     79  C   UNL     1     -14.083 -11.271  15.955  1.00  0.00     0.001 A 
ATOM     80  C   UNL     1     -15.400  -9.247  16.017  1.00  0.00     0.001 A 
ATOM     81  C   UNL     1     -15.206 -10.573  16.399  1.00  0.00     0.000 A 
ENDBRANCH  63  76
ENDBRANCH  37  38
ENDBRANCH  29  32
ENDBRANCH  27  28
ENDBRANCH  26  27
ENDBRANCH  25  26
ENDBRANCH   1  25
TORSDOF 16
