REMARK SMILES Cc1cccc(-c2ncc(C[NH+]3CCC4(CC3)NC(=O)C[C@H]4C(=O)NCCCCNC(=O)c3ccc(-c4c5nc(c(-c6ccccc6)c6ccc([nH]6)c(-c6ccccc6)c6nc(c(-c7ccccc7)c7ccc4[nH]7)C=C6)C=C5)cc3)cn2)c1
REMARK SMILES IDX 27 1 26 2 25 3 23 4 24 5 22 7 12 8 13 9 17 10 14 12 16 13
REMARK SMILES IDX 15 14 18 15 19 16 21 18 20 19 11 20 10 21 7 22 8 23 82 24
REMARK SMILES IDX 9 25 81 26 6 27 1 28 2 29 3 30 83 31 4 32 5 33 28 34 29 35
REMARK SMILES IDX 30 36 31 37 32 39 33 40 34 41 80 42 35 43 79 44 36 45 37 46
REMARK SMILES IDX 38 47 73 48 39 49 78 50 72 51 74 52 40 53 77 54 71 55 70 56
REMARK SMILES IDX 41 58 63 59 48 60 62 61 49 62 52 63 61 64 75 65 50 66 51 67
REMARK SMILES IDX 60 69 76 70 53 71 42 72 43 73 47 74 44 75 46 76 45 77 64 78
REMARK SMILES IDX 65 79 69 80 66 81 68 82 67 83 54 84 55 85 59 86 56 87 58 88
REMARK SMILES IDX 57 89
REMARK H PARENT 25 6 12 11 18 17 30 38 74 57 52 68
REMARK Flexibility Score: inf
ROOT
ATOM      1  C   UNL     1      -0.428   2.945  -2.730  1.00  0.00     0.023 C 
ENDROOT
BRANCH   1   2
ATOM      2  C   UNL     1       0.898   3.720  -2.865  1.00  0.00     0.116 C 
BRANCH   2   3
ATOM      3  N   UNL     1       0.809   5.142  -3.205  1.00  0.00    -0.356 N 
ATOM      4  C   UNL     1       0.837   6.318  -2.519  1.00  0.00     0.226 C 
ATOM      5  O   UNL     1       0.852   7.342  -3.216  1.00  0.00    -0.275 OA
ATOM      6  H   UNL     1       0.701   5.283  -4.173  1.00  0.00     0.163 HD
BRANCH   4   7
ATOM      7  C   UNL     1       0.786   6.484  -0.993  1.00  0.00     0.114 C 
ATOM      8  N   UNL     1      -3.192   6.969   0.253  1.00  0.00    -0.331 N 
ATOM      9  C   UNL     1      -2.117   7.397   1.133  1.00  0.00     0.264 C 
ATOM     10  C   UNL     1      -2.713   6.798  -1.103  1.00  0.00     0.264 C 
ATOM     11  H   UNL     1      -3.840   7.757   0.251  1.00  0.00     0.348 HD
ATOM     12  C   UNL     1      -0.807   6.601   1.072  1.00  0.00     0.091 C 
ATOM     13  C   UNL     1      -1.653   5.718  -1.200  1.00  0.00     0.091 C 
ATOM     14  C   UNL     1      -0.441   5.886  -0.268  1.00  0.00     0.063 C 
ATOM     15  N   UNL     1       0.117   4.604   0.146  1.00  0.00    -0.349 N 
ATOM     16  C   UNL     1       1.493   4.601   0.274  1.00  0.00     0.221 C 
ATOM     17  H   UNL     1      -0.439   3.810   0.321  1.00  0.00     0.164 HD
ATOM     18  C   UNL     1       2.019   5.880  -0.319  1.00  0.00     0.116 C 
ATOM     19  O   UNL     1       2.148   3.716   0.769  1.00  0.00    -0.275 OA
BRANCH   8  20
ATOM     20  C   UNL     1      -4.186   5.998   0.744  1.00  0.00     0.302 C 
BRANCH  20  21
ATOM     21  C   UNL     1      -3.786   4.551   0.795  1.00  0.00     0.043 A 
ATOM     22  C   UNL     1      -2.653   2.076   0.663  1.00  0.00     0.159 A 
ATOM     23  N   UNL     1      -2.365   2.856   1.725  1.00  0.00    -0.236 NA
ATOM     24  N   UNL     1      -3.535   2.406  -0.300  1.00  0.00    -0.236 NA
ATOM     25  C   UNL     1      -2.977   4.053   1.789  1.00  0.00     0.124 A 
ATOM     26  C   UNL     1      -4.086   3.639  -0.205  1.00  0.00     0.124 A 
BRANCH  22  27
ATOM     27  C   UNL     1      -1.815   0.881   0.475  1.00  0.00     0.019 A 
ATOM     28  C   UNL     1       1.863  -0.062   0.922  1.00  0.00     0.044 C 
ATOM     29  C   UNL     1       0.401  -0.189   0.605  1.00  0.00    -0.050 A 
ATOM     30  C   UNL     1      -0.160  -1.392   0.175  1.00  0.00     0.003 A 
ATOM     31  C   UNL     1      -0.435   0.924   0.766  1.00  0.00     0.015 A 
ATOM     32  C   UNL     1      -1.521  -1.462  -0.127  1.00  0.00     0.001 A 
ATOM     33  C   UNL     1      -2.337  -0.333   0.006  1.00  0.00     0.012 A 
ENDBRANCH  22  27
ENDBRANCH  20  21
ENDBRANCH   8  20
ENDBRANCH   4   7
ENDBRANCH   2   3
ENDBRANCH   1   2
BRANCH   1  34
ATOM     34  C   UNL     1      -1.404   3.043  -3.907  1.00  0.00     0.023 C 
BRANCH  34  35
ATOM     35  C   UNL     1      -0.991   2.188  -5.096  1.00  0.00     0.116 C 
BRANCH  35  36
ATOM     36  N   UNL     1      -1.409   0.788  -5.035  1.00  0.00    -0.352 N 
ATOM     37  C   UNL     1      -0.988  -0.280  -5.815  1.00  0.00     0.251 C 
ATOM     38  H   UNL     1      -2.081   0.574  -4.348  1.00  0.00     0.163 HD
ATOM     39  O   UNL     1      -1.475  -1.396  -5.669  1.00  0.00    -0.269 OA
BRANCH  37  40
ATOM     40  C   UNL     1       0.165  -0.089  -6.729  1.00  0.00     0.039 A 
ATOM     41  C   UNL     1       1.243  -0.971  -6.601  1.00  0.00     0.014 A 
ATOM     42  C   UNL     1       0.305   1.101  -7.432  1.00  0.00     0.014 A 
ATOM     43  C   UNL     1       2.522  -0.516  -6.898  1.00  0.00     0.010 A 
ATOM     44  C   UNL     1       1.578   1.601  -7.606  1.00  0.00     0.010 A 
ATOM     45  C   UNL     1       2.684   0.818  -7.262  1.00  0.00    -0.014 A 
BRANCH  45  46
ATOM     46  C   UNL     1       3.964   1.511  -7.207  1.00  0.00     0.031 A 
ATOM     47  C   UNL     1       4.660   1.852  -8.458  1.00  0.00     0.074 A 
ATOM     48  C   UNL     1       4.473   1.895  -6.016  1.00  0.00     0.049 A 
ATOM     49  N   UNL     1       5.926   2.073  -8.547  1.00  0.00    -0.248 NA
ATOM     50  C   UNL     1       3.971   1.907  -9.741  1.00  0.00     0.031 C 
ATOM     51  C   UNL     1       5.580   2.812  -5.764  1.00  0.00     0.029 A 
ATOM     52  N   UNL     1       4.212   1.322  -4.773  1.00  0.00    -0.354 N 
ATOM     53  C   UNL     1       6.165   2.580  -9.802  1.00  0.00     0.074 A 
ATOM     54  C   UNL     1       4.941   2.364 -10.535  1.00  0.00     0.031 C 
ATOM     55  C   UNL     1       6.078   2.566  -4.540  1.00  0.00     0.029 A 
ATOM     56  C   UNL     1       5.407   1.381  -4.033  1.00  0.00     0.049 A 
ATOM     57  H   UNL     1       3.353   0.947  -4.470  1.00  0.00     0.167 HD
ATOM     58  C   UNL     1       7.322   3.261 -10.033  1.00  0.00     0.031 A 
ATOM     59  C   UNL     1       6.035   0.236  -3.631  1.00  0.00     0.031 A 
ATOM     60  C   UNL     1       8.216   3.206  -8.877  1.00  0.00     0.049 A 
ATOM     61  C   UNL     1       7.430   0.083  -4.200  1.00  0.00     0.074 A 
ATOM     62  C   UNL     1       8.497   4.098  -7.855  1.00  0.00     0.029 A 
ATOM     63  N   UNL     1       8.734   1.978  -8.482  1.00  0.00    -0.354 N 
ATOM     64  N   UNL     1       7.868   0.744  -5.236  1.00  0.00    -0.248 NA
ATOM     65  C   UNL     1       8.427  -0.848  -3.676  1.00  0.00     0.031 C 
ATOM     66  C   UNL     1       9.119   3.374  -6.802  1.00  0.00     0.029 A 
ATOM     67  C   UNL     1       9.248   2.057  -7.203  1.00  0.00     0.049 A 
ATOM     68  H   UNL     1       8.734   1.165  -9.037  1.00  0.00     0.167 HD
ATOM     69  C   UNL     1       9.149   0.355  -5.525  1.00  0.00     0.074 A 
ATOM     70  C   UNL     1       9.460  -0.639  -4.513  1.00  0.00     0.031 C 
ATOM     71  C   UNL     1       9.837   0.877  -6.582  1.00  0.00     0.031 A 
BRANCH  58  72
ATOM     72  C   UNL     1       7.510   4.216 -11.188  1.00  0.00    -0.014 A 
ATOM     73  C   UNL     1       8.444   5.262 -11.074  1.00  0.00     0.009 A 
ATOM     74  C   UNL     1       6.763   4.193 -12.378  1.00  0.00     0.009 A 
ATOM     75  C   UNL     1       8.555   6.271 -12.042  1.00  0.00     0.001 A 
ATOM     76  C   UNL     1       6.841   5.215 -13.334  1.00  0.00     0.001 A 
ATOM     77  C   UNL     1       7.732   6.262 -13.160  1.00  0.00     0.000 A 
ENDBRANCH  58  72
BRANCH  59  78
ATOM     78  C   UNL     1       5.089  -0.889  -3.369  1.00  0.00    -0.014 A 
ATOM     79  C   UNL     1       4.100  -0.698  -2.382  1.00  0.00     0.009 A 
ATOM     80  C   UNL     1       4.908  -1.919  -4.303  1.00  0.00     0.009 A 
ATOM     81  C   UNL     1       2.896  -1.404  -2.432  1.00  0.00     0.001 A 
ATOM     82  C   UNL     1       3.714  -2.656  -4.317  1.00  0.00     0.001 A 
ATOM     83  C   UNL     1       2.694  -2.368  -3.412  1.00  0.00     0.000 A 
ENDBRANCH  59  78
BRANCH  71  84
ATOM     84  C   UNL     1      11.150   0.378  -7.132  1.00  0.00    -0.014 A 
ATOM     85  C   UNL     1      11.638  -0.923  -6.960  1.00  0.00     0.009 A 
ATOM     86  C   UNL     1      11.878   1.216  -8.010  1.00  0.00     0.009 A 
ATOM     87  C   UNL     1      12.807  -1.353  -7.606  1.00  0.00     0.001 A 
ATOM     88  C   UNL     1      13.014   0.777  -8.692  1.00  0.00     0.001 A 
ATOM     89  C   UNL     1      13.485  -0.509  -8.481  1.00  0.00     0.000 A 
ENDBRANCH  71  84
ENDBRANCH  45  46
ENDBRANCH  37  40
ENDBRANCH  35  36
ENDBRANCH  34  35
ENDBRANCH   1  34
TORSDOF 14
