REMARK SMILES C[C@H](C[C@H]1CSc2ccccc21)C(=O)NCCCCNC(=O)c1ccc(-c2c3nc(c(-c4ccccc4)c4ccc([nH]4)c(-c4ccccc4)c4nc(c(-c5ccccc5)c5ccc2[nH]5)C=C4)C=C3)cc1
REMARK SMILES IDX 17 1 16 2 15 3 13 4 14 5 2 7 1 8 3 9 4 10 5 11 12 12 6 13
REMARK SMILES IDX 7 14 11 15 8 16 10 17 9 18 18 19 19 20 20 21 21 22 22 24
REMARK SMILES IDX 23 25 24 26 70 27 25 28 69 29 26 30 27 31 28 32 63 33 29 34
REMARK SMILES IDX 68 35 62 36 64 37 30 38 67 39 61 40 60 41 31 43 53 44 38 45
REMARK SMILES IDX 52 46 39 47 42 48 51 49 65 50 40 51 41 52 50 54 66 55 43 56
REMARK SMILES IDX 32 57 33 58 37 59 34 60 36 61 35 62 54 63 55 64 59 65 56 66
REMARK SMILES IDX 58 67 57 68 44 69 45 70 49 71 46 72 48 73 47 74
REMARK H PARENT 15 6 20 23 64 42 42 53
REMARK Flexibility Score: inf
ROOT
ATOM      1  C   UNL     1      -1.812   1.714  -1.562  1.00  0.00     0.023 C 
ENDROOT
BRANCH   1   2
ATOM      2  C   UNL     1      -1.615   2.098  -0.090  1.00  0.00     0.116 C 
BRANCH   2   3
ATOM      3  N   UNL     1      -1.684   0.932   0.774  1.00  0.00    -0.356 N 
ATOM      4  C   UNL     1      -0.753   0.176   1.408  1.00  0.00     0.222 C 
ATOM      5  O   UNL     1      -1.182  -0.832   1.984  1.00  0.00    -0.275 OA
ATOM      6  H   UNL     1      -2.605   0.624   0.933  1.00  0.00     0.163 HD
BRANCH   4   7
ATOM      7  C   UNL     1       0.756   0.462   1.435  1.00  0.00     0.076 C 
ATOM      8  C   UNL     1       1.158   1.877   1.824  1.00  0.00     0.018 C 
BRANCH   7   9
ATOM      9  C   UNL     1       1.538  -0.163   0.255  1.00  0.00     0.022 C 
BRANCH   9  10
ATOM     10  C   UNL     1       1.380   0.536  -1.101  1.00  0.00     0.031 C 
ATOM     11  C   UNL     1       2.460   1.593  -1.393  1.00  0.00     0.083 C 
ATOM     12  C   UNL     1       1.296  -0.338  -2.337  1.00  0.00    -0.030 A 
ATOM     13  S   UNL     1       2.372   1.927  -3.179  1.00  0.00    -0.125 SA
ATOM     14  C   UNL     1       1.709   0.318  -3.505  1.00  0.00     0.011 A 
ATOM     15  C   UNL     1       0.718  -1.603  -2.435  1.00  0.00     0.005 A 
ATOM     16  C   UNL     1       1.564  -0.260  -4.757  1.00  0.00     0.015 A 
ATOM     17  C   UNL     1       0.588  -2.203  -3.692  1.00  0.00     0.000 A 
ATOM     18  C   UNL     1       1.004  -1.534  -4.848  1.00  0.00     0.001 A 
ENDBRANCH   9  10
ENDBRANCH   7   9
ENDBRANCH   4   7
ENDBRANCH   2   3
ENDBRANCH   1   2
BRANCH   1  19
ATOM     19  C   UNL     1      -3.226   1.869  -2.092  1.00  0.00     0.023 C 
BRANCH  19  20
ATOM     20  C   UNL     1      -3.730   3.301  -2.144  1.00  0.00     0.116 C 
BRANCH  20  21
ATOM     21  N   UNL     1      -2.961   4.191  -3.008  1.00  0.00    -0.352 N 
ATOM     22  C   UNL     1      -3.435   5.193  -3.833  1.00  0.00     0.251 C 
ATOM     23  H   UNL     1      -1.985   4.062  -3.002  1.00  0.00     0.163 HD
ATOM     24  O   UNL     1      -2.682   5.852  -4.533  1.00  0.00    -0.269 OA
BRANCH  22  25
ATOM     25  C   UNL     1      -4.897   5.399  -3.900  1.00  0.00     0.039 A 
ATOM     26  C   UNL     1      -5.633   5.508  -2.721  1.00  0.00     0.014 A 
ATOM     27  C   UNL     1      -5.540   5.295  -5.136  1.00  0.00     0.014 A 
ATOM     28  C   UNL     1      -6.997   5.261  -2.757  1.00  0.00     0.010 A 
ATOM     29  C   UNL     1      -6.931   5.165  -5.175  1.00  0.00     0.010 A 
ATOM     30  C   UNL     1      -7.662   5.067  -3.981  1.00  0.00    -0.014 A 
BRANCH  30  31
ATOM     31  C   UNL     1      -9.109   4.721  -3.972  1.00  0.00     0.031 A 
ATOM     32  C   UNL     1      -9.598   3.404  -4.524  1.00  0.00     0.074 A 
ATOM     33  C   UNL     1      -9.977   5.558  -3.370  1.00  0.00     0.049 A 
ATOM     34  N   UNL     1     -10.824   2.944  -4.581  1.00  0.00    -0.248 NA
ATOM     35  C   UNL     1      -8.593   2.484  -5.083  1.00  0.00     0.031 C 
ATOM     36  C   UNL     1      -9.624   6.840  -2.756  1.00  0.00     0.029 A 
ATOM     37  N   UNL     1     -11.320   5.432  -3.124  1.00  0.00    -0.354 N 
ATOM     38  C   UNL     1     -10.742   1.711  -5.217  1.00  0.00     0.074 A 
ATOM     39  C   UNL     1      -9.348   1.488  -5.530  1.00  0.00     0.031 C 
ATOM     40  C   UNL     1     -10.695   7.330  -2.117  1.00  0.00     0.029 A 
ATOM     41  C   UNL     1     -11.832   6.449  -2.355  1.00  0.00     0.049 A 
ATOM     42  H   UNL     1     -11.865   4.686  -3.465  1.00  0.00     0.167 HD
ATOM     43  C   UNL     1     -11.738   0.843  -5.511  1.00  0.00     0.031 A 
ATOM     44  C   UNL     1     -13.079   6.663  -1.899  1.00  0.00     0.031 A 
ATOM     45  C   UNL     1     -13.119   1.041  -5.161  1.00  0.00     0.049 A 
ATOM     46  C   UNL     1     -14.168   5.702  -2.270  1.00  0.00     0.074 A 
ATOM     47  C   UNL     1     -14.197   0.210  -5.417  1.00  0.00     0.029 A 
ATOM     48  N   UNL     1     -13.610   2.133  -4.467  1.00  0.00    -0.354 N 
ATOM     49  N   UNL     1     -14.078   4.571  -2.923  1.00  0.00    -0.248 NA
ATOM     50  C   UNL     1     -15.534   6.063  -1.865  1.00  0.00     0.031 C 
ATOM     51  C   UNL     1     -15.348   0.818  -4.908  1.00  0.00     0.029 A 
ATOM     52  C   UNL     1     -14.978   2.006  -4.298  1.00  0.00     0.049 A 
ATOM     53  H   UNL     1     -13.067   2.888  -4.143  1.00  0.00     0.167 HD
ATOM     54  C   UNL     1     -15.374   4.083  -3.011  1.00  0.00     0.074 A 
ATOM     55  C   UNL     1     -16.228   5.029  -2.322  1.00  0.00     0.031 C 
ATOM     56  C   UNL     1     -15.815   2.957  -3.618  1.00  0.00     0.031 A 
BRANCH  43  57
ATOM     57  C   UNL     1     -11.393  -0.406  -6.273  1.00  0.00    -0.014 A 
ATOM     58  C   UNL     1     -11.766  -0.517  -7.623  1.00  0.00     0.009 A 
ATOM     59  C   UNL     1     -10.808  -1.510  -5.635  1.00  0.00     0.009 A 
ATOM     60  C   UNL     1     -11.573  -1.713  -8.316  1.00  0.00     0.001 A 
ATOM     61  C   UNL     1     -10.599  -2.699  -6.338  1.00  0.00     0.001 A 
ATOM     62  C   UNL     1     -10.989  -2.803  -7.673  1.00  0.00     0.000 A 
ENDBRANCH  43  57
BRANCH  44  63
ATOM     63  C   UNL     1     -13.357   7.849  -1.052  1.00  0.00    -0.014 A 
ATOM     64  C   UNL     1     -13.300   9.144  -1.592  1.00  0.00     0.009 A 
ATOM     65  C   UNL     1     -13.635   7.694   0.314  1.00  0.00     0.009 A 
ATOM     66  C   UNL     1     -13.488  10.261  -0.776  1.00  0.00     0.001 A 
ATOM     67  C   UNL     1     -13.851   8.812   1.122  1.00  0.00     0.001 A 
ATOM     68  C   UNL     1     -13.768  10.094   0.579  1.00  0.00     0.000 A 
ENDBRANCH  44  63
BRANCH  56  69
ATOM     69  C   UNL     1     -17.286   2.674  -3.565  1.00  0.00    -0.014 A 
ATOM     70  C   UNL     1     -17.773   1.661  -2.726  1.00  0.00     0.009 A 
ATOM     71  C   UNL     1     -18.177   3.359  -4.404  1.00  0.00     0.009 A 
ATOM     72  C   UNL     1     -19.130   1.334  -2.731  1.00  0.00     0.001 A 
ATOM     73  C   UNL     1     -19.537   3.043  -4.391  1.00  0.00     0.001 A 
ATOM     74  C   UNL     1     -20.010   2.028  -3.560  1.00  0.00     0.000 A 
ENDBRANCH  56  69
ENDBRANCH  30  31
ENDBRANCH  22  25
ENDBRANCH  20  21
ENDBRANCH  19  20
ENDBRANCH   1  19
TORSDOF 13
