REMARK SMILES O=C(NCCCCNC(=O)[C@@H]1C=C[C@@H]([NH+]2CC3(CCOCC3)C2)C1)c1ccc(-c2c3nc(c(-c4ccccc4)c4ccc([nH]4)c(-c4ccccc4)c4nc(c(-c5ccccc5)c5ccc2[nH]5)C=C4)C=C3)cc1
REMARK SMILES IDX 5 1 4 2 3 3 1 4 2 5 25 7 26 8 72 9 27 10 71 11 28 12 29 13
REMARK SMILES IDX 30 14 65 15 31 16 70 17 64 18 66 19 32 20 69 21 63 22 62 23
REMARK SMILES IDX 33 25 55 26 40 27 54 28 41 29 44 30 53 31 67 32 42 33 43 34
REMARK SMILES IDX 52 36 68 37 45 38 34 39 35 40 39 41 36 42 38 43 37 44 56 45
REMARK SMILES IDX 57 46 61 47 58 48 60 49 59 50 46 51 47 52 51 53 48 54 50 55
REMARK SMILES IDX 49 56 6 57 7 58 8 59 9 60 10 62 11 63 12 64 24 65 13 66
REMARK SMILES IDX 14 67 15 68 16 69 23 70 17 72 18 73 22 74 19 75 21 76 20 77
REMARK H PARENT 3 6 66 24 44 35 8 61 15 71
REMARK Flexibility Score: inf
ROOT
ATOM      1  C   UNL     1       2.418  -6.379   4.991  1.00  0.00     0.023 C 
ENDROOT
BRANCH   1   2
ATOM      2  C   UNL     1       1.639  -6.391   3.689  1.00  0.00     0.116 C 
BRANCH   2   3
ATOM      3  N   UNL     1       2.140  -7.382   2.749  1.00  0.00    -0.352 N 
ATOM      4  O   UNL     1       1.946  -9.013   1.198  1.00  0.00    -0.269 OA
ATOM      5  C   UNL     1       1.423  -8.130   1.850  1.00  0.00     0.251 C 
ATOM      6  H   UNL     1       3.112  -7.534   2.759  1.00  0.00     0.163 HD
BRANCH   5   7
ATOM      7  C   UNL     1      -0.015  -7.844   1.727  1.00  0.00     0.039 A 
ATOM      8  C   UNL     1      -0.445  -6.535   1.490  1.00  0.00     0.014 A 
ATOM      9  C   UNL     1      -0.921  -8.884   1.921  1.00  0.00     0.014 A 
ATOM     10  C   UNL     1      -1.798  -6.244   1.547  1.00  0.00     0.010 A 
ATOM     11  C   UNL     1      -2.283  -8.602   1.905  1.00  0.00     0.010 A 
ATOM     12  C   UNL     1      -2.725  -7.280   1.733  1.00  0.00    -0.014 A 
BRANCH  12  13
ATOM     13  C   UNL     1      -4.171  -6.990   1.656  1.00  0.00     0.031 A 
ATOM     14  C   UNL     1      -5.054  -7.156   2.852  1.00  0.00     0.074 A 
ATOM     15  C   UNL     1      -4.677  -6.620   0.466  1.00  0.00     0.049 A 
ATOM     16  N   UNL     1      -6.354  -7.041   2.933  1.00  0.00    -0.248 NA
ATOM     17  C   UNL     1      -4.397  -7.508   4.120  1.00  0.00     0.031 C 
ATOM     18  C   UNL     1      -3.897  -6.437  -0.762  1.00  0.00     0.029 A 
ATOM     19  N   UNL     1      -5.964  -6.347   0.089  1.00  0.00    -0.354 N 
ATOM     20  C   UNL     1      -6.677  -7.335   4.250  1.00  0.00     0.074 A 
ATOM     21  C   UNL     1      -5.437  -7.646   4.931  1.00  0.00     0.031 C 
ATOM     22  C   UNL     1      -4.721  -6.074  -1.754  1.00  0.00     0.029 A 
ATOM     23  C   UNL     1      -6.087  -6.065  -1.248  1.00  0.00     0.049 A 
ATOM     24  H   UNL     1      -6.724  -6.353   0.715  1.00  0.00     0.167 HD
ATOM     25  C   UNL     1      -7.900  -7.348   4.831  1.00  0.00     0.031 A 
ATOM     26  C   UNL     1      -7.184  -5.863  -1.997  1.00  0.00     0.031 A 
ATOM     27  C   UNL     1      -9.123  -7.043   4.135  1.00  0.00     0.049 A 
ATOM     28  C   UNL     1      -8.528  -5.916  -1.340  1.00  0.00     0.074 A 
ATOM     29  C   UNL     1     -10.410  -6.981   4.639  1.00  0.00     0.029 A 
ATOM     30  N   UNL     1      -9.209  -6.761   2.779  1.00  0.00    -0.354 N 
ATOM     31  N   UNL     1      -8.818  -6.154  -0.084  1.00  0.00    -0.248 NA
ATOM     32  C   UNL     1      -9.693  -5.674  -2.198  1.00  0.00     0.031 C 
ATOM     33  C   UNL     1     -11.280  -6.714   3.577  1.00  0.00     0.029 A 
ATOM     34  C   UNL     1     -10.530  -6.555   2.422  1.00  0.00     0.049 A 
ATOM     35  H   UNL     1      -8.443  -6.714   2.162  1.00  0.00     0.167 HD
ATOM     36  C   UNL     1     -10.200  -6.074   0.006  1.00  0.00     0.074 A 
ATOM     37  C   UNL     1     -10.687  -5.755  -1.322  1.00  0.00     0.031 C 
ATOM     38  C   UNL     1     -10.992  -6.246   1.092  1.00  0.00     0.031 A 
BRANCH  25  39
ATOM     39  C   UNL     1      -7.974  -7.748   6.278  1.00  0.00    -0.014 A 
ATOM     40  C   UNL     1      -7.496  -6.911   7.298  1.00  0.00     0.009 A 
ATOM     41  C   UNL     1      -8.550  -8.980   6.626  1.00  0.00     0.009 A 
ATOM     42  C   UNL     1      -7.558  -7.318   8.633  1.00  0.00     0.001 A 
ATOM     43  C   UNL     1      -8.635  -9.373   7.963  1.00  0.00     0.001 A 
ATOM     44  C   UNL     1      -8.128  -8.546   8.965  1.00  0.00     0.000 A 
ENDBRANCH  25  39
BRANCH  26  45
ATOM     45  C   UNL     1      -7.027  -5.624  -3.452  1.00  0.00    -0.014 A 
ATOM     46  C   UNL     1      -7.204  -4.342  -3.989  1.00  0.00     0.009 A 
ATOM     47  C   UNL     1      -6.618  -6.668  -4.299  1.00  0.00     0.009 A 
ATOM     48  C   UNL     1      -6.978  -4.111  -5.348  1.00  0.00     0.001 A 
ATOM     49  C   UNL     1      -6.368  -6.428  -5.651  1.00  0.00     0.001 A 
ATOM     50  C   UNL     1      -6.553  -5.150  -6.174  1.00  0.00     0.000 A 
ENDBRANCH  26  45
BRANCH  38  51
ATOM     51  C   UNL     1     -12.468  -6.066   0.893  1.00  0.00    -0.014 A 
ATOM     52  C   UNL     1     -13.239  -7.050   0.257  1.00  0.00     0.009 A 
ATOM     53  C   UNL     1     -13.101  -4.921   1.401  1.00  0.00     0.009 A 
ATOM     54  C   UNL     1     -14.618  -6.880   0.117  1.00  0.00     0.001 A 
ATOM     55  C   UNL     1     -14.481  -4.766   1.280  1.00  0.00     0.001 A 
ATOM     56  C   UNL     1     -15.238  -5.742   0.633  1.00  0.00     0.000 A 
ENDBRANCH  38  51
ENDBRANCH  12  13
ENDBRANCH   5   7
ENDBRANCH   2   3
ENDBRANCH   1   2
BRANCH   1  57
ATOM     57  C   UNL     1       3.930  -6.283   4.803  1.00  0.00     0.023 C 
BRANCH  57  58
ATOM     58  C   UNL     1       4.374  -5.069   3.982  1.00  0.00     0.116 C 
BRANCH  58  59
ATOM     59  N   UNL     1       4.158  -3.869   4.748  1.00  0.00    -0.356 N 
ATOM     60  C   UNL     1       4.941  -3.400   5.761  1.00  0.00     0.227 C 
ATOM     61  H   UNL     1       3.364  -3.334   4.518  1.00  0.00     0.163 HD
ATOM     62  O   UNL     1       4.452  -2.539   6.494  1.00  0.00    -0.274 OA
BRANCH  60  63
ATOM     63  C   UNL     1       6.415  -3.842   5.842  1.00  0.00     0.107 C 
ATOM     64  C   UNL     1       6.782  -5.284   6.041  1.00  0.00    -0.012 C 
ATOM     65  C   UNL     1       7.107  -3.185   7.040  1.00  0.00     0.087 C 
ATOM     66  C   UNL     1       7.351  -5.522   7.225  1.00  0.00     0.033 C 
ATOM     67  C   UNL     1       7.449  -4.287   8.061  1.00  0.00     0.208 C 
BRANCH  67  68
ATOM     68  N   UNL     1       8.720  -4.237   8.790  1.00  0.00    -0.328 N 
ATOM     69  C   UNL     1       8.788  -3.135   9.758  1.00  0.00     0.275 C 
ATOM     70  C   UNL     1       9.854  -3.708   8.025  1.00  0.00     0.275 C 
ATOM     71  H   UNL     1       8.763  -5.204   9.111  1.00  0.00     0.348 HD
ATOM     72  C   UNL     1       9.831  -2.397   8.871  1.00  0.00     0.073 C 
ATOM     73  C   UNL     1      11.222  -2.138   9.466  1.00  0.00     0.047 C 
ATOM     74  C   UNL     1       9.303  -1.108   8.220  1.00  0.00     0.047 C 
ATOM     75  C   UNL     1      11.185  -0.914  10.368  1.00  0.00     0.161 C 
ATOM     76  C   UNL     1       9.391   0.054   9.198  1.00  0.00     0.161 C 
ATOM     77  O   UNL     1      10.734   0.228   9.639  1.00  0.00    -0.381 OA
ENDBRANCH  67  68
ENDBRANCH  60  63
ENDBRANCH  58  59
ENDBRANCH  57  58
ENDBRANCH   1  57
TORSDOF 12
