REMARK SMILES O=C(NCCCCNC(=O)[C@@H](Cc1c[nH]c2ccccc12)NC(=O)c1ccc(F)cc1F)c1ccc(-c2c3nc(c(-c4ccccc4)c4ccc([nH]4)c(-c4ccccc4)c4nc(c(-c5ccccc5)c5ccc2[nH]5)C=C4)C=C3)cc1
REMARK SMILES IDX 5 1 4 2 3 3 1 4 2 5 33 7 34 8 80 9 35 10 79 11 36 12 37 13
REMARK SMILES IDX 38 14 73 15 39 16 78 17 72 18 74 19 40 20 77 21 71 22 70 23
REMARK SMILES IDX 41 25 63 26 48 27 62 28 49 29 52 30 61 31 75 32 50 33 51 34
REMARK SMILES IDX 60 36 76 37 53 38 42 39 43 40 47 41 44 42 46 43 45 44 64 45
REMARK SMILES IDX 65 46 69 47 66 48 68 49 67 50 54 51 55 52 59 53 56 54 58 55
REMARK SMILES IDX 57 56 6 57 7 58 8 59 9 60 10 62 11 63 12 64 13 65 14 66
REMARK SMILES IDX 21 67 15 68 16 69 20 70 17 72 19 73 18 74 22 75 23 76 24 78
REMARK SMILES IDX 25 79 26 80 31 81 27 82 30 83 32 84 28 85 29 86
REMARK H PARENT 3 6 74 24 52 35 8 61 15 71 22 77
REMARK Flexibility Score: inf
ROOT
ATOM      1  C   UNL     1       5.506   0.861   1.841  1.00  0.00     0.023 C 
ENDROOT
BRANCH   1   2
ATOM      2  C   UNL     1       4.825   0.060   0.746  1.00  0.00     0.116 C 
BRANCH   2   3
ATOM      3  N   UNL     1       3.368   0.013   0.846  1.00  0.00    -0.352 N 
ATOM      4  O   UNL     1       1.239   0.027   0.066  1.00  0.00    -0.269 OA
ATOM      5  C   UNL     1       2.442   0.016  -0.172  1.00  0.00     0.251 C 
ATOM      6  H   UNL     1       3.002  -0.026   1.759  1.00  0.00     0.163 HD
BRANCH   5   7
ATOM      7  C   UNL     1       2.935   0.070  -1.561  1.00  0.00     0.039 A 
ATOM      8  C   UNL     1       3.964  -0.782  -1.962  1.00  0.00     0.014 A 
ATOM      9  C   UNL     1       2.457   1.065  -2.417  1.00  0.00     0.014 A 
ATOM     10  C   UNL     1       4.655  -0.505  -3.129  1.00  0.00     0.010 A 
ATOM     11  C   UNL     1       3.082   1.266  -3.649  1.00  0.00     0.010 A 
ATOM     12  C   UNL     1       4.219   0.517  -3.990  1.00  0.00    -0.014 A 
BRANCH  12  13
ATOM     13  C   UNL     1       4.955   0.744  -5.255  1.00  0.00     0.031 A 
ATOM     14  C   UNL     1       5.663   2.041  -5.531  1.00  0.00     0.074 A 
ATOM     15  C   UNL     1       5.025  -0.269  -6.139  1.00  0.00     0.049 A 
ATOM     16  N   UNL     1       6.362   2.385  -6.584  1.00  0.00    -0.248 NA
ATOM     17  C   UNL     1       5.572   3.092  -4.505  1.00  0.00     0.031 C 
ATOM     18  C   UNL     1       4.378  -1.575  -5.975  1.00  0.00     0.029 A 
ATOM     19  N   UNL     1       5.695  -0.378  -7.328  1.00  0.00    -0.354 N 
ATOM     20  C   UNL     1       6.756   3.699  -6.368  1.00  0.00     0.074 A 
ATOM     21  C   UNL     1       6.218   4.095  -5.084  1.00  0.00     0.031 C 
ATOM     22  C   UNL     1       4.739  -2.374  -6.986  1.00  0.00     0.029 A 
ATOM     23  C   UNL     1       5.573  -1.616  -7.909  1.00  0.00     0.049 A 
ATOM     24  H   UNL     1       6.212   0.359  -7.727  1.00  0.00     0.167 HD
ATOM     25  C   UNL     1       7.497   4.501  -7.171  1.00  0.00     0.031 A 
ATOM     26  C   UNL     1       6.059  -2.089  -9.069  1.00  0.00     0.031 A 
ATOM     27  C   UNL     1       8.048   4.093  -8.437  1.00  0.00     0.049 A 
ATOM     28  C   UNL     1       6.875  -1.182  -9.935  1.00  0.00     0.074 A 
ATOM     29  C   UNL     1       8.839   4.822  -9.309  1.00  0.00     0.029 A 
ATOM     30  N   UNL     1       7.869   2.843  -9.009  1.00  0.00    -0.354 N 
ATOM     31  N   UNL     1       7.239   0.057  -9.713  1.00  0.00    -0.248 NA
ATOM     32  C   UNL     1       7.337  -1.733 -11.214  1.00  0.00     0.031 C 
ATOM     33  C   UNL     1       9.103   4.025 -10.429  1.00  0.00     0.029 A 
ATOM     34  C   UNL     1       8.514   2.787 -10.234  1.00  0.00     0.049 A 
ATOM     35  H   UNL     1       7.358   2.105  -8.605  1.00  0.00     0.167 HD
ATOM     36  C   UNL     1       7.968   0.440 -10.827  1.00  0.00     0.074 A 
ATOM     37  C   UNL     1       8.021  -0.711 -11.709  1.00  0.00     0.031 C 
ATOM     38  C   UNL     1       8.536   1.639 -11.102  1.00  0.00     0.031 A 
BRANCH  25  39
ATOM     39  C   UNL     1       7.722   5.918  -6.723  1.00  0.00    -0.014 A 
ATOM     40  C   UNL     1       8.623   6.229  -5.693  1.00  0.00     0.009 A 
ATOM     41  C   UNL     1       7.052   6.965  -7.377  1.00  0.00     0.009 A 
ATOM     42  C   UNL     1       8.826   7.558  -5.310  1.00  0.00     0.001 A 
ATOM     43  C   UNL     1       7.273   8.292  -7.007  1.00  0.00     0.001 A 
ATOM     44  C   UNL     1       8.155   8.588  -5.969  1.00  0.00     0.000 A 
ENDBRANCH  25  39
BRANCH  26  45
ATOM     45  C   UNL     1       5.744  -3.481  -9.473  1.00  0.00    -0.014 A 
ATOM     46  C   UNL     1       6.728  -4.478  -9.431  1.00  0.00     0.009 A 
ATOM     47  C   UNL     1       4.434  -3.828  -9.844  1.00  0.00     0.009 A 
ATOM     48  C   UNL     1       6.406  -5.797  -9.757  1.00  0.00     0.001 A 
ATOM     49  C   UNL     1       4.110  -5.152 -10.142  1.00  0.00     0.001 A 
ATOM     50  C   UNL     1       5.098  -6.134 -10.103  1.00  0.00     0.000 A 
ENDBRANCH  26  45
BRANCH  38  51
ATOM     51  C   UNL     1       9.258   1.754 -12.410  1.00  0.00    -0.014 A 
ATOM     52  C   UNL     1       8.548   1.876 -13.615  1.00  0.00     0.009 A 
ATOM     53  C   UNL     1      10.660   1.755 -12.437  1.00  0.00     0.009 A 
ATOM     54  C   UNL     1       9.232   1.964 -14.828  1.00  0.00     0.001 A 
ATOM     55  C   UNL     1      11.341   1.865 -13.650  1.00  0.00     0.001 A 
ATOM     56  C   UNL     1      10.627   1.961 -14.844  1.00  0.00     0.000 A 
ENDBRANCH  38  51
ENDBRANCH  12  13
ENDBRANCH   5   7
ENDBRANCH   2   3
ENDBRANCH   1   2
BRANCH   1  57
ATOM     57  C   UNL     1       5.161   0.404   3.246  1.00  0.00     0.023 C 
BRANCH  57  58
ATOM     58  C   UNL     1       5.652  -0.981   3.647  1.00  0.00     0.116 C 
BRANCH  58  59
ATOM     59  N   UNL     1       6.940  -0.876   4.291  1.00  0.00    -0.354 N 
ATOM     60  C   UNL     1       7.248  -0.649   5.595  1.00  0.00     0.242 C 
ATOM     61  H   UNL     1       7.715  -0.986   3.694  1.00  0.00     0.163 HD
ATOM     62  O   UNL     1       8.380  -0.202   5.819  1.00  0.00    -0.273 OA
BRANCH  60  63
ATOM     63  C   UNL     1       6.261  -0.848   6.772  1.00  0.00     0.176 C 
BRANCH  63  64
ATOM     64  C   UNL     1       5.376   0.363   7.133  1.00  0.00     0.072 C 
BRANCH  64  65
ATOM     65  C   UNL     1       4.092   0.597   6.384  1.00  0.00    -0.020 A 
ATOM     66  C   UNL     1       3.028  -0.273   6.220  1.00  0.00     0.087 A 
ATOM     67  C   UNL     1       3.697   1.831   5.753  1.00  0.00     0.003 A 
ATOM     68  N   UNL     1       2.073   0.338   5.448  1.00  0.00    -0.361 N 
ATOM     69  C   UNL     1       2.470   1.613   5.124  1.00  0.00     0.046 A 
ATOM     70  C   UNL     1       4.305   3.097   5.607  1.00  0.00     0.010 A 
ATOM     71  H   UNL     1       1.226  -0.077   5.167  1.00  0.00     0.166 HD
ATOM     72  C   UNL     1       1.852   2.572   4.311  1.00  0.00     0.026 A 
ATOM     73  C   UNL     1       3.696   4.070   4.806  1.00  0.00     0.001 A 
ATOM     74  C   UNL     1       2.495   3.803   4.157  1.00  0.00     0.002 A 
ENDBRANCH  64  65
ENDBRANCH  63  64
BRANCH  63  75
ATOM     75  N   UNL     1       5.559  -2.135   6.789  1.00  0.00    -0.340 N 
ATOM     76  C   UNL     1       5.798  -3.263   7.533  1.00  0.00     0.254 C 
ATOM     77  H   UNL     1       4.798  -2.201   6.168  1.00  0.00     0.164 HD
ATOM     78  O   UNL     1       5.146  -4.279   7.311  1.00  0.00    -0.269 OA
BRANCH  76  79
ATOM     79  C   UNL     1       6.803  -3.260   8.612  1.00  0.00     0.075 A 
ATOM     80  C   UNL     1       6.753  -2.314   9.646  1.00  0.00     0.020 A 
ATOM     81  C   UNL     1       7.788  -4.250   8.627  1.00  0.00     0.138 A 
ATOM     82  C   UNL     1       7.734  -2.324  10.640  1.00  0.00     0.040 A 
ATOM     83  C   UNL     1       8.752  -4.276   9.630  1.00  0.00     0.079 A 
ATOM     84  F   UNL     1       7.845  -5.180   7.663  1.00  0.00    -0.206 F 
ATOM     85  C   UNL     1       8.724  -3.303  10.620  1.00  0.00     0.126 A 
ATOM     86  F   UNL     1       9.661  -3.308  11.577  1.00  0.00    -0.207 F 
ENDBRANCH  76  79
ENDBRANCH  63  75
ENDBRANCH  60  63
ENDBRANCH  58  59
ENDBRANCH  57  58
ENDBRANCH   1  57
TORSDOF 15
