REMARK SMILES COc1ccc(C(=O)NC(=S)Nc2ccc(Br)cc2C(=O)NCCCCNC(=O)c2ccc(-c3c4nc(c(-c5ccccc5)c5ccc([nH]5)c(-c5ccccc5)c5nc(c(-c6ccccc6)c6ccc3[nH]6)C=C5)C=C4)cc2)cc1Br
REMARK SMILES IDX 23 1 22 2 20 3 21 4 19 6 13 7 14 8 15 9 18 10 16 11 17 12
REMARK SMILES IDX 12 13 10 15 11 16 9 17 7 18 8 19 6 21 3 22 4 23 79 24 5 25
REMARK SMILES IDX 78 26 80 27 2 28 1 29 24 30 25 31 26 32 27 33 28 34 29 36
REMARK SMILES IDX 30 37 31 38 77 39 32 40 76 41 33 42 34 43 35 44 70 45 36 46
REMARK SMILES IDX 75 47 69 48 71 49 37 50 74 51 68 52 67 53 38 55 60 56 45 57
REMARK SMILES IDX 59 58 46 59 49 60 58 61 72 62 47 63 48 64 57 66 73 67 50 68
REMARK SMILES IDX 39 69 40 70 44 71 41 72 43 73 42 74 61 75 62 76 66 77 63 78
REMARK SMILES IDX 65 79 64 80 51 81 52 82 56 83 53 84 55 85 54 86
REMARK H PARENT 22 5 12 14 9 20 27 35 71 54 49 65
REMARK Flexibility Score: inf
ROOT
ATOM      1  C   UNL     1       4.919  -3.288  -2.810  1.00  0.00     0.116 C 
ENDROOT
BRANCH   1   2
ATOM      2  N   UNL     1       4.181  -2.072  -2.870  1.00  0.00    -0.352 N 
ATOM      3  C   UNL     1       3.107  -1.843  -2.053  1.00  0.00     0.253 C 
ATOM      4  O   UNL     1       2.391  -0.862  -2.228  1.00  0.00    -0.269 OA
ATOM      5  H   UNL     1       4.449  -1.379  -3.516  1.00  0.00     0.163 HD
BRANCH   3   6
ATOM      6  C   UNL     1       2.760  -2.826  -0.984  1.00  0.00     0.064 A 
ATOM      7  C   UNL     1       3.839  -3.381   0.298  1.00  0.00     0.053 A 
ATOM      8  C   UNL     1       3.240  -3.963   1.901  1.00  0.00     0.028 A 
ATOM      9  C   UNL     1       1.514  -4.285   2.227  1.00  0.00     0.018 A 
ATOM     10  C   UNL     1       1.026  -3.127  -0.803  1.00  0.00     0.031 A 
ATOM     11  C   UNL     1       0.306  -3.959   0.904  1.00  0.00     0.018 A 
ATOM     12  Br  UNL     1      -1.422  -4.627   1.670  1.00  0.00    -0.051 Br
BRANCH   7  13
ATOM     13  N   UNL     1       4.713  -4.470  -0.181  1.00  0.00    -0.332 N 
ATOM     14  H   UNL     1       5.668  -4.284  -0.034  1.00  0.00     0.169 HD
BRANCH  13  15
ATOM     15  C   UNL     1       4.491  -5.698  -0.792  1.00  0.00     0.177 C 
ATOM     16  S   UNL     1       5.866  -6.648  -1.007  1.00  0.00    -0.040 S 
BRANCH  15  17
ATOM     17  N   UNL     1       3.259  -6.282  -1.249  1.00  0.00    -0.299 N 
ATOM     18  C   UNL     1       1.764  -6.316  -1.423  1.00  0.00     0.257 C 
ATOM     19  O   UNL     1       1.236  -7.251  -2.015  1.00  0.00    -0.269 OA
ATOM     20  H   UNL     1       3.554  -7.112  -1.688  1.00  0.00     0.172 HD
BRANCH  18  21
ATOM     21  C   UNL     1       0.929  -5.245  -0.830  1.00  0.00     0.041 A 
ATOM     22  C   UNL     1      -0.019  -1.875   0.477  1.00  0.00     0.133 A 
ATOM     23  C   UNL     1      -1.105  -2.876  -0.532  1.00  0.00     0.048 A 
ATOM     24  C   UNL     1       1.612  -2.545   0.913  1.00  0.00     0.060 A 
ATOM     25  C   UNL     1      -0.622  -4.500  -1.173  1.00  0.00     0.018 A 
ATOM     26  C   UNL     1       1.988  -4.396   0.208  1.00  0.00     0.033 A 
ATOM     27  Br  UNL     1       2.560  -1.229   2.074  1.00  0.00    -0.047 Br
BRANCH  22  28
ATOM     28  O   UNL     1      -0.397  -0.606   0.802  1.00  0.00    -0.496 OA
ATOM     29  C   UNL     1       0.252   0.312  -0.082  1.00  0.00     0.278 C 
ENDBRANCH  22  28
ENDBRANCH  18  21
ENDBRANCH  15  17
ENDBRANCH  13  15
ENDBRANCH   7  13
ENDBRANCH   3   6
ENDBRANCH   1   2
BRANCH   1  30
ATOM     30  C   UNL     1       5.454  -3.864  -4.092  1.00  0.00     0.023 C 
BRANCH  30  31
ATOM     31  C   UNL     1       6.555  -3.050  -4.721  1.00  0.00     0.023 C 
BRANCH  31  32
ATOM     32  C   UNL     1       7.614  -2.579  -3.740  1.00  0.00     0.116 C 
BRANCH  32  33
ATOM     33  N   UNL     1       8.339  -3.669  -3.088  1.00  0.00    -0.352 N 
ATOM     34  C   UNL     1       9.690  -3.937  -3.155  1.00  0.00     0.251 C 
ATOM     35  H   UNL     1       7.801  -4.282  -2.538  1.00  0.00     0.163 HD
ATOM     36  O   UNL     1      10.179  -4.942  -2.657  1.00  0.00    -0.269 OA
BRANCH  34  37
ATOM     37  C   UNL     1      10.522  -2.977  -3.897  1.00  0.00     0.039 A 
ATOM     38  C   UNL     1      11.188  -3.403  -5.047  1.00  0.00     0.014 A 
ATOM     39  C   UNL     1      10.428  -1.623  -3.569  1.00  0.00     0.014 A 
ATOM     40  C   UNL     1      11.686  -2.447  -5.931  1.00  0.00     0.010 A 
ATOM     41  C   UNL     1      10.798  -0.685  -4.517  1.00  0.00     0.010 A 
ATOM     42  C   UNL     1      11.443  -1.084  -5.701  1.00  0.00    -0.014 A 
BRANCH  42  43
ATOM     43  C   UNL     1      11.883  -0.029  -6.645  1.00  0.00     0.031 A 
ATOM     44  C   UNL     1      12.816   1.038  -6.147  1.00  0.00     0.074 A 
ATOM     45  C   UNL     1      11.384   0.035  -7.895  1.00  0.00     0.049 A 
ATOM     46  N   UNL     1      13.209   2.136  -6.737  1.00  0.00    -0.248 NA
ATOM     47  C   UNL     1      13.347   0.864  -4.783  1.00  0.00     0.031 C 
ATOM     48  C   UNL     1      10.461  -0.929  -8.496  1.00  0.00     0.029 A 
ATOM     49  N   UNL     1      11.577   0.971  -8.882  1.00  0.00    -0.354 N 
ATOM     50  C   UNL     1      14.001   2.793  -5.806  1.00  0.00     0.074 A 
ATOM     51  C   UNL     1      13.978   2.010  -4.593  1.00  0.00     0.031 C 
ATOM     52  C   UNL     1      10.188  -0.547  -9.755  1.00  0.00     0.029 A 
ATOM     53  C   UNL     1      10.860   0.721 -10.027  1.00  0.00     0.049 A 
ATOM     54  H   UNL     1      12.172   1.748  -8.778  1.00  0.00     0.167 HD
ATOM     55  C   UNL     1      14.702   3.941  -5.953  1.00  0.00     0.031 A 
ATOM     56  C   UNL     1      10.735   1.443 -11.158  1.00  0.00     0.031 A 
ATOM     57  C   UNL     1      14.714   4.719  -7.159  1.00  0.00     0.049 A 
ATOM     58  C   UNL     1      11.474   2.749 -11.281  1.00  0.00     0.074 A 
ATOM     59  C   UNL     1      15.428   5.872  -7.427  1.00  0.00     0.029 A 
ATOM     60  N   UNL     1      13.968   4.432  -8.292  1.00  0.00    -0.354 N 
ATOM     61  N   UNL     1      12.261   3.337 -10.412  1.00  0.00    -0.248 NA
ATOM     62  C   UNL     1      11.315   3.490 -12.541  1.00  0.00     0.031 C 
ATOM     63  C   UNL     1      15.041   6.335  -8.686  1.00  0.00     0.029 A 
ATOM     64  C   UNL     1      14.173   5.411  -9.247  1.00  0.00     0.049 A 
ATOM     65  H   UNL     1      13.380   3.649  -8.400  1.00  0.00     0.167 HD
ATOM     66  C   UNL     1      12.726   4.489 -11.036  1.00  0.00     0.074 A 
ATOM     67  C   UNL     1      12.129   4.520 -12.355  1.00  0.00     0.031 C 
ATOM     68  C   UNL     1      13.582   5.426 -10.561  1.00  0.00     0.031 A 
BRANCH  55  69
ATOM     69  C   UNL     1      15.472   4.437  -4.759  1.00  0.00    -0.014 A 
ATOM     70  C   UNL     1      16.552   3.716  -4.223  1.00  0.00     0.009 A 
ATOM     71  C   UNL     1      15.108   5.654  -4.162  1.00  0.00     0.009 A 
ATOM     72  C   UNL     1      17.211   4.174  -3.081  1.00  0.00     0.001 A 
ATOM     73  C   UNL     1      15.798   6.133  -3.049  1.00  0.00     0.001 A 
ATOM     74  C   UNL     1      16.837   5.385  -2.499  1.00  0.00     0.000 A 
ENDBRANCH  55  69
BRANCH  56  75
ATOM     75  C   UNL     1       9.867   0.950 -12.262  1.00  0.00    -0.014 A 
ATOM     76  C   UNL     1      10.422   0.547 -13.487  1.00  0.00     0.009 A 
ATOM     77  C   UNL     1       8.475   0.876 -12.095  1.00  0.00     0.009 A 
ATOM     78  C   UNL     1       9.599   0.105 -14.527  1.00  0.00     0.001 A 
ATOM     79  C   UNL     1       7.659   0.398 -13.123  1.00  0.00     0.001 A 
ATOM     80  C   UNL     1       8.220   0.023 -14.341  1.00  0.00     0.000 A 
ENDBRANCH  56  75
BRANCH  68  81
ATOM     81  C   UNL     1      14.002   6.537 -11.485  1.00  0.00    -0.014 A 
ATOM     82  C   UNL     1      13.127   7.567 -11.857  1.00  0.00     0.009 A 
ATOM     83  C   UNL     1      15.344   6.602 -11.898  1.00  0.00     0.009 A 
ATOM     84  C   UNL     1      13.586   8.631 -12.639  1.00  0.00     0.001 A 
ATOM     85  C   UNL     1      15.808   7.684 -12.645  1.00  0.00     0.001 A 
ATOM     86  C   UNL     1      14.927   8.695 -13.020  1.00  0.00     0.000 A 
ENDBRANCH  68  81
ENDBRANCH  42  43
ENDBRANCH  34  37
ENDBRANCH  32  33
ENDBRANCH  31  32
ENDBRANCH  30  31
ENDBRANCH   1  30
TORSDOF 16
