REMARK SMILES CCCCCCNC(=O)Oc1cccc(-c2ccc([C@@H](C)C(=O)NCCCCNC(=O)c3ccc(-c4c5nc(c(-c6ccccc6)c6ccc([nH]6)c(-c6ccccc6)c6nc(c(-c7ccccc7)c7ccc4[nH]7)C=C6)C=C5)cc3)cc2C(F)(F)F)c1
REMARK SMILES IDX 20 1 21 2 19 3 16 4 17 5 81 6 18 7 80 8 15 9 11 10 12 11
REMARK SMILES IDX 86 12 13 13 14 14 10 15 8 16 7 17 9 19 6 20 5 21 4 22 3 23
REMARK SMILES IDX 2 24 1 25 82 26 83 27 84 28 85 29 22 30 23 31 24 32 25 34
REMARK SMILES IDX 26 35 27 36 28 37 29 38 30 39 31 41 32 42 33 43 79 44 34 45
REMARK SMILES IDX 78 46 35 47 36 48 37 49 72 50 38 51 77 52 71 53 73 54 39 55
REMARK SMILES IDX 76 56 70 57 69 58 40 60 62 61 47 62 61 63 48 64 51 65 60 66
REMARK SMILES IDX 74 67 49 68 50 69 59 71 75 72 52 73 41 74 42 75 46 76 43 77
REMARK SMILES IDX 45 78 44 79 63 80 64 81 68 82 65 83 67 84 66 85 53 86 54 87
REMARK SMILES IDX 58 88 55 89 57 90 56 91
REMARK H PARENT 7 18 24 33 29 40 73 59 51 70
REMARK Flexibility Score: inf
ROOT
ATOM      1  C   UNL     1      -4.689  13.365  -0.167  1.00  0.00     0.105 C 
ATOM      2  C   UNL     1      -5.835  14.373  -0.193  1.00  0.00     0.023 C 
ENDROOT
BRANCH   1   3
ATOM      3  C   UNL     1      -5.001  12.031   0.495  1.00  0.00    -0.035 A 
ATOM      4  C   UNL     1      -5.285   9.487   1.778  1.00  0.00    -0.006 A 
ATOM      5  C   UNL     1      -5.671  10.688   2.402  1.00  0.00     0.009 A 
ATOM      6  C   UNL     1      -4.876   9.566   0.430  1.00  0.00     0.064 A 
ATOM      7  C   UNL     1      -5.588  11.923   1.752  1.00  0.00     0.005 A 
ATOM      8  C   UNL     1      -4.677  10.837  -0.163  1.00  0.00     0.018 A 
BRANCH   4   9
ATOM      9  C   UNL     1      -5.316   8.234   2.565  1.00  0.00    -0.014 A 
ATOM     10  C   UNL     1      -4.291   6.150   3.287  1.00  0.00     0.133 A 
ATOM     11  C   UNL     1      -5.415   5.821   4.039  1.00  0.00     0.047 A 
ATOM     12  C   UNL     1      -4.223   7.349   2.574  1.00  0.00     0.056 A 
ATOM     13  C   UNL     1      -6.485   6.708   4.084  1.00  0.00     0.004 A 
ATOM     14  C   UNL     1      -6.439   7.894   3.344  1.00  0.00     0.009 A 
BRANCH  10  15
ATOM     15  O   UNL     1      -3.321   5.143   3.136  1.00  0.00    -0.410 OA
BRANCH  15  16
ATOM     16  C   UNL     1      -1.972   5.454   3.213  1.00  0.00     0.412 C 
ATOM     17  N   UNL     1      -1.166   4.424   2.810  1.00  0.00    -0.321 N 
ATOM     18  H   UNL     1      -0.195   4.566   2.888  1.00  0.00     0.167 HD
ATOM     19  O   UNL     1      -1.502   6.515   3.602  1.00  0.00    -0.224 OA
BRANCH  17  20
ATOM     20  C   UNL     1      -1.596   3.144   2.278  1.00  0.00     0.119 C 
BRANCH  20  21
ATOM     21  C   UNL     1      -1.008   2.870   0.893  1.00  0.00     0.021 C 
BRANCH  21  22
ATOM     22  C   UNL     1       0.520   2.744   0.851  1.00  0.00     0.002 C 
BRANCH  22  23
ATOM     23  C   UNL     1       1.118   1.652   1.744  1.00  0.00    -0.000 C 
BRANCH  23  24
ATOM     24  C   UNL     1       0.630   0.230   1.459  1.00  0.00    -0.003 C 
ATOM     25  C   UNL     1       1.000  -0.266   0.069  1.00  0.00     0.004 C 
ENDBRANCH  23  24
ENDBRANCH  22  23
ENDBRANCH  21  22
ENDBRANCH  20  21
ENDBRANCH  17  20
ENDBRANCH  15  16
ENDBRANCH  10  15
ENDBRANCH   4   9
BRANCH   6  26
ATOM     26  C   UNL     1      -4.648   8.358  -0.455  1.00  0.00     0.417 C 
ATOM     27  F   UNL     1      -5.117   8.563  -1.723  1.00  0.00    -0.166 F 
ATOM     28  F   UNL     1      -3.327   8.060  -0.601  1.00  0.00    -0.166 F 
ATOM     29  F   UNL     1      -5.255   7.211  -0.047  1.00  0.00    -0.166 F 
ENDBRANCH   6  26
ENDBRANCH   1   3
BRANCH   1  30
ATOM     30  C   UNL     1      -3.329  13.960   0.238  1.00  0.00     0.227 C 
ATOM     31  O   UNL     1      -2.376  13.909  -0.550  1.00  0.00    -0.274 OA
ATOM     32  N   UNL     1      -3.087  14.575   1.428  1.00  0.00    -0.356 N 
ATOM     33  H   UNL     1      -2.196  14.987   1.496  1.00  0.00     0.163 HD
BRANCH  32  34
ATOM     34  C   UNL     1      -3.904  14.731   2.612  1.00  0.00     0.116 C 
BRANCH  34  35
ATOM     35  C   UNL     1      -3.621  13.640   3.646  1.00  0.00     0.023 C 
BRANCH  35  36
ATOM     36  C   UNL     1      -2.493  13.951   4.625  1.00  0.00     0.023 C 
BRANCH  36  37
ATOM     37  C   UNL     1      -2.720  15.176   5.500  1.00  0.00     0.116 C 
BRANCH  37  38
ATOM     38  N   UNL     1      -3.945  15.131   6.286  1.00  0.00    -0.352 N 
ATOM     39  C   UNL     1      -4.177  15.693   7.521  1.00  0.00     0.251 C 
ATOM     40  H   UNL     1      -4.697  14.638   5.886  1.00  0.00     0.163 HD
ATOM     41  O   UNL     1      -5.240  15.515   8.104  1.00  0.00    -0.269 OA
BRANCH  39  42
ATOM     42  C   UNL     1      -3.099  16.478   8.155  1.00  0.00     0.039 A 
ATOM     43  C   UNL     1      -2.703  16.156   9.454  1.00  0.00     0.014 A 
ATOM     44  C   UNL     1      -2.433  17.471   7.434  1.00  0.00     0.014 A 
ATOM     45  C   UNL     1      -1.583  16.781  10.004  1.00  0.00     0.010 A 
ATOM     46  C   UNL     1      -1.270  18.029   7.949  1.00  0.00     0.010 A 
ATOM     47  C   UNL     1      -0.834  17.692   9.240  1.00  0.00    -0.014 A 
BRANCH  47  48
ATOM     48  C   UNL     1       0.403  18.314   9.771  1.00  0.00     0.031 A 
ATOM     49  C   UNL     1       0.468  19.805   9.957  1.00  0.00     0.074 A 
ATOM     50  C   UNL     1       1.488  17.553  10.010  1.00  0.00     0.049 A 
ATOM     51  N   UNL     1       1.478  20.546  10.336  1.00  0.00    -0.248 NA
ATOM     52  C   UNL     1      -0.753  20.566   9.645  1.00  0.00     0.031 C 
ATOM     53  C   UNL     1       1.571  16.103   9.819  1.00  0.00     0.029 A 
ATOM     54  N   UNL     1       2.737  17.900  10.461  1.00  0.00    -0.354 N 
ATOM     55  C   UNL     1       1.022  21.857  10.282  1.00  0.00     0.074 A 
ATOM     56  C   UNL     1      -0.335  21.815   9.784  1.00  0.00     0.031 C 
ATOM     57  C   UNL     1       2.795  15.682  10.179  1.00  0.00     0.029 A 
ATOM     58  C   UNL     1       3.592  16.832  10.589  1.00  0.00     0.049 A 
ATOM     59  H   UNL     1       2.996  18.826  10.672  1.00  0.00     0.167 HD
ATOM     60  C   UNL     1       1.665  22.994  10.636  1.00  0.00     0.031 A 
ATOM     61  C   UNL     1       4.876  16.787  10.992  1.00  0.00     0.031 A 
ATOM     62  C   UNL     1       3.004  23.034  11.156  1.00  0.00     0.049 A 
ATOM     63  C   UNL     1       5.564  18.061  11.396  1.00  0.00     0.074 A 
ATOM     64  C   UNL     1       3.722  24.128  11.605  1.00  0.00     0.029 A 
ATOM     65  N   UNL     1       3.826  21.927  11.299  1.00  0.00    -0.354 N 
ATOM     66  N   UNL     1       5.095  19.286  11.407  1.00  0.00    -0.248 NA
ATOM     67  C   UNL     1       6.954  17.944  11.858  1.00  0.00     0.031 C 
ATOM     68  C   UNL     1       4.995  23.688  11.982  1.00  0.00     0.029 A 
ATOM     69  C   UNL     1       5.051  22.314  11.814  1.00  0.00     0.049 A 
ATOM     70  H   UNL     1       3.576  21.003  11.067  1.00  0.00     0.167 HD
ATOM     71  C   UNL     1       6.121  20.079  11.904  1.00  0.00     0.074 A 
ATOM     72  C   UNL     1       7.231  19.196  12.196  1.00  0.00     0.031 C 
ATOM     73  C   UNL     1       6.141  21.419  12.103  1.00  0.00     0.031 A 
BRANCH  60  74
ATOM     74  C   UNL     1       0.918  24.288  10.471  1.00  0.00    -0.014 A 
ATOM     75  C   UNL     1      -0.173  24.609  11.294  1.00  0.00     0.009 A 
ATOM     76  C   UNL     1       1.323  25.208   9.491  1.00  0.00     0.009 A 
ATOM     77  C   UNL     1      -0.869  25.806  11.113  1.00  0.00     0.001 A 
ATOM     78  C   UNL     1       0.644  26.417   9.332  1.00  0.00     0.001 A 
ATOM     79  C   UNL     1      -0.457  26.710  10.136  1.00  0.00     0.000 A 
ENDBRANCH  60  74
BRANCH  61  80
ATOM     80  C   UNL     1       5.590  15.486  11.064  1.00  0.00    -0.014 A 
ATOM     81  C   UNL     1       5.897  14.912  12.307  1.00  0.00     0.009 A 
ATOM     82  C   UNL     1       5.974  14.814   9.893  1.00  0.00     0.009 A 
ATOM     83  C   UNL     1       6.598  13.706  12.378  1.00  0.00     0.001 A 
ATOM     84  C   UNL     1       6.652  13.594   9.967  1.00  0.00     0.001 A 
ATOM     85  C   UNL     1       6.972  13.046  11.208  1.00  0.00     0.000 A 
ENDBRANCH  61  80
BRANCH  73  86
ATOM     86  C   UNL     1       7.387  22.006  12.702  1.00  0.00    -0.014 A 
ATOM     87  C   UNL     1       8.568  22.129  11.954  1.00  0.00     0.009 A 
ATOM     88  C   UNL     1       7.362  22.483  14.022  1.00  0.00     0.009 A 
ATOM     89  C   UNL     1       9.710  22.690  12.530  1.00  0.00     0.001 A 
ATOM     90  C   UNL     1       8.496  23.068  14.585  1.00  0.00     0.001 A 
ATOM     91  C   UNL     1       9.672  23.163  13.841  1.00  0.00     0.000 A 
ENDBRANCH  73  86
ENDBRANCH  47  48
ENDBRANCH  39  42
ENDBRANCH  37  38
ENDBRANCH  36  37
ENDBRANCH  35  36
ENDBRANCH  34  35
ENDBRANCH  32  34
ENDBRANCH   1  30
TORSDOF 21
