REMARK SMILES Cc1cc2c(c(C)c1Cl)C=C(C(=O)NCCCCNC(=O)c1ccc(-c3c4nc(c(-c5ccccc5)c5ccc([nH]5)c(-c5ccccc5)c5nc(c(-c6ccccc6)c6ccc3[nH]6)C=C5)C=C4)cc1)[C@@H](C(F)(F)F)O2
REMARK SMILES IDX 17 1 16 2 15 3 14 4 12 5 13 6 11 8 1 9 2 10 3 11 8 12 4 13
REMARK SMILES IDX 6 14 9 15 5 16 75 17 7 18 10 19 70 20 71 21 72 22 73 23
REMARK SMILES IDX 74 24 18 25 19 26 20 27 21 29 22 30 23 31 69 32 24 33 68 34
REMARK SMILES IDX 25 35 26 36 27 37 62 38 28 39 67 40 61 41 63 42 29 43 66 44
REMARK SMILES IDX 60 45 59 46 30 48 52 49 37 50 51 51 38 52 41 53 50 54 64 55
REMARK SMILES IDX 39 56 40 57 49 59 65 60 42 61 31 62 32 63 36 64 33 65 35 66
REMARK SMILES IDX 34 67 53 68 54 69 58 70 55 71 57 72 56 73 43 74 44 75 48 76
REMARK SMILES IDX 45 77 47 78 46 79
REMARK H PARENT 14 7 19 28 63 47 41 58
REMARK Flexibility Score: inf
ROOT
ATOM      1  C   UNL     1       1.704  -8.326   6.842  1.00  0.00     0.023 C 
ENDROOT
BRANCH   1   2
ATOM      2  C   UNL     1       1.592  -7.413   5.619  1.00  0.00     0.023 C 
BRANCH   2   3
ATOM      3  C   UNL     1       0.163  -7.005   5.275  1.00  0.00     0.116 C 
BRANCH   3   4
ATOM      4  N   UNL     1      -0.281  -5.871   6.065  1.00  0.00    -0.352 N 
ATOM      5  C   UNL     1      -0.454  -4.543   5.873  1.00  0.00     0.251 C 
ATOM      6  O   UNL     1      -0.857  -3.922   6.863  1.00  0.00    -0.270 OA
ATOM      7  H   UNL     1      -0.520  -6.139   6.981  1.00  0.00     0.163 HD
BRANCH   5   8
ATOM      8  C   UNL     1      -0.200  -3.812   4.596  1.00  0.00     0.067 C 
ATOM      9  C   UNL     1       0.904   0.488  -0.171  1.00  0.00     0.046 C 
ATOM     10  C   UNL     1       0.512  -0.218   1.100  1.00  0.00    -0.028 A 
ATOM     11  C   UNL     1       0.747  -1.594   1.177  1.00  0.00     0.052 A 
ATOM     12  C   UNL     1      -0.009   0.446   2.229  1.00  0.00     0.047 A 
ATOM     13  C   UNL     1       0.449  -2.301   2.337  1.00  0.00     0.128 A 
ATOM     14  C   UNL     1      -0.337  -0.267   3.411  1.00  0.00    -0.021 A 
ATOM     15  Cl  UNL     1      -0.210   2.171   2.162  1.00  0.00    -0.084 Cl
ATOM     16  C   UNL     1      -0.078  -1.658   3.461  1.00  0.00     0.022 A 
ATOM     17  O   UNL     1       0.758  -3.630   2.309  1.00  0.00    -0.475 OA
ATOM     18  C   UNL     1      -0.921   0.427   4.620  1.00  0.00     0.047 C 
ATOM     19  C   UNL     1      -0.281  -2.470   4.666  1.00  0.00     0.026 C 
ATOM     20  C   UNL     1       0.092  -4.474   3.283  1.00  0.00     0.314 C 
BRANCH  20  21
ATOM     21  C   UNL     1      -1.158  -5.106   2.643  1.00  0.00     0.429 C 
ATOM     22  F   UNL     1      -0.801  -5.947   1.639  1.00  0.00    -0.167 F 
ATOM     23  F   UNL     1      -1.871  -5.847   3.524  1.00  0.00    -0.167 F 
ATOM     24  F   UNL     1      -2.002  -4.188   2.125  1.00  0.00    -0.167 F 
ENDBRANCH  20  21
ENDBRANCH   5   8
ENDBRANCH   3   4
ENDBRANCH   2   3
ENDBRANCH   1   2
BRANCH   1  25
ATOM     25  C   UNL     1       0.856  -9.595   6.792  1.00  0.00     0.116 C 
BRANCH  25  26
ATOM     26  N   UNL     1       1.017 -10.366   5.566  1.00  0.00    -0.352 N 
ATOM     27  C   UNL     1       0.947 -11.730   5.412  1.00  0.00     0.251 C 
ATOM     28  H   UNL     1       1.198  -9.847   4.749  1.00  0.00     0.163 HD
ATOM     29  O   UNL     1       1.159 -12.259   4.327  1.00  0.00    -0.269 OA
BRANCH  27  30
ATOM     30  C   UNL     1       0.660 -12.550   6.601  1.00  0.00     0.039 A 
ATOM     31  C   UNL     1       1.604 -13.495   7.005  1.00  0.00     0.014 A 
ATOM     32  C   UNL     1      -0.483 -12.298   7.366  1.00  0.00     0.014 A 
ATOM     33  C   UNL     1       1.441 -14.136   8.231  1.00  0.00     0.010 A 
ATOM     34  C   UNL     1      -0.611 -12.895   8.615  1.00  0.00     0.010 A 
ATOM     35  C   UNL     1       0.357 -13.808   9.061  1.00  0.00    -0.014 A 
BRANCH  35  36
ATOM     36  C   UNL     1       0.236 -14.400  10.412  1.00  0.00     0.031 A 
ATOM     37  C   UNL     1      -0.874 -15.361  10.716  1.00  0.00     0.074 A 
ATOM     38  C   UNL     1       1.108 -14.040  11.374  1.00  0.00     0.049 A 
ATOM     39  N   UNL     1      -1.136 -15.987  11.835  1.00  0.00    -0.248 NA
ATOM     40  C   UNL     1      -1.825 -15.643   9.629  1.00  0.00     0.031 C 
ATOM     41  C   UNL     1       2.204 -13.083  11.212  1.00  0.00     0.029 A 
ATOM     42  N   UNL     1       1.213 -14.448  12.680  1.00  0.00    -0.354 N 
ATOM     43  C   UNL     1      -2.281 -16.730  11.587  1.00  0.00     0.074 A 
ATOM     44  C   UNL     1      -2.694 -16.439  10.232  1.00  0.00     0.031 C 
ATOM     45  C   UNL     1       2.899 -13.013  12.359  1.00  0.00     0.029 A 
ATOM     46  C   UNL     1       2.282 -13.898  13.343  1.00  0.00     0.049 A 
ATOM     47  H   UNL     1       0.582 -15.075  13.101  1.00  0.00     0.167 HD
ATOM     48  C   UNL     1      -2.917 -17.600  12.405  1.00  0.00     0.031 A 
ATOM     49  C   UNL     1       2.725 -14.097  14.598  1.00  0.00     0.031 A 
ATOM     50  C   UNL     1      -2.500 -17.902  13.746  1.00  0.00     0.049 A 
ATOM     51  C   UNL     1       1.994 -15.056  15.492  1.00  0.00     0.074 A 
ATOM     52  C   UNL     1      -3.051 -18.806  14.637  1.00  0.00     0.029 A 
ATOM     53  N   UNL     1      -1.425 -17.306  14.387  1.00  0.00    -0.354 N 
ATOM     54  N   UNL     1       0.944 -15.794  15.225  1.00  0.00    -0.248 NA
ATOM     55  C   UNL     1       2.511 -15.213  16.859  1.00  0.00     0.031 C 
ATOM     56  C   UNL     1      -2.326 -18.735  15.831  1.00  0.00     0.029 A 
ATOM     57  C   UNL     1      -1.305 -17.811  15.669  1.00  0.00     0.049 A 
ATOM     58  H   UNL     1      -0.836 -16.626  13.989  1.00  0.00     0.167 HD
ATOM     59  C   UNL     1       0.686 -16.516  16.382  1.00  0.00     0.074 A 
ATOM     60  C   UNL     1       1.693 -16.134  17.351  1.00  0.00     0.031 C 
ATOM     61  C   UNL     1      -0.298 -17.416  16.618  1.00  0.00     0.031 A 
BRANCH  48  62
ATOM     62  C   UNL     1      -4.127 -18.294  11.855  1.00  0.00    -0.014 A 
ATOM     63  C   UNL     1      -3.996 -19.317  10.902  1.00  0.00     0.009 A 
ATOM     64  C   UNL     1      -5.407 -17.938  12.304  1.00  0.00     0.009 A 
ATOM     65  C   UNL     1      -5.128 -19.948  10.384  1.00  0.00     0.001 A 
ATOM     66  C   UNL     1      -6.536 -18.586  11.799  1.00  0.00     0.001 A 
ATOM     67  C   UNL     1      -6.396 -19.584  10.835  1.00  0.00     0.000 A 
ENDBRANCH  48  62
BRANCH  49  68
ATOM     68  C   UNL     1       3.954 -13.409  15.066  1.00  0.00    -0.014 A 
ATOM     69  C   UNL     1       5.159 -14.119  15.169  1.00  0.00     0.009 A 
ATOM     70  C   UNL     1       3.935 -12.046  15.395  1.00  0.00     0.009 A 
ATOM     71  C   UNL     1       6.321 -13.480  15.606  1.00  0.00     0.001 A 
ATOM     72  C   UNL     1       5.103 -11.405  15.815  1.00  0.00     0.001 A 
ATOM     73  C   UNL     1       6.293 -12.123  15.925  1.00  0.00     0.000 A 
ENDBRANCH  49  68
BRANCH  61  74
ATOM     74  C   UNL     1      -0.331 -18.062  17.970  1.00  0.00    -0.014 A 
ATOM     75  C   UNL     1      -0.849 -17.379  19.080  1.00  0.00     0.009 A 
ATOM     76  C   UNL     1       0.089 -19.393  18.118  1.00  0.00     0.009 A 
ATOM     77  C   UNL     1      -0.934 -18.015  20.319  1.00  0.00     0.001 A 
ATOM     78  C   UNL     1      -0.015 -20.032  19.353  1.00  0.00     0.001 A 
ATOM     79  C   UNL     1      -0.524 -19.342  20.453  1.00  0.00     0.000 A 
ENDBRANCH  61  74
ENDBRANCH  35  36
ENDBRANCH  27  30
ENDBRANCH  25  26
ENDBRANCH   1  25
TORSDOF 12
