REMARK SMILES O=C(NCCCCNC(=O)[C@H]1[C@H]2CC[C@H](C2)[C@@H]1C(=O)N1CC[NH+](C2CCCCC2)CC1)c1ccc(-c2c3nc(c(-c4ccccc4)c4ccc([nH]4)c(-c4ccccc4)c4nc(c(-c5ccccc5)c5ccc2[nH]5)C=C4)C=C3)cc1
REMARK SMILES IDX 5 1 4 2 3 3 1 4 2 5 32 7 33 8 79 9 34 10 78 11 35 12 36 13
REMARK SMILES IDX 37 14 72 15 38 16 77 17 71 18 73 19 39 20 76 21 70 22 69 23
REMARK SMILES IDX 40 25 62 26 47 27 61 28 48 29 51 30 60 31 74 32 49 33 50 34
REMARK SMILES IDX 59 36 75 37 52 38 41 39 42 40 46 41 43 42 45 43 44 44 63 45
REMARK SMILES IDX 64 46 68 47 65 48 67 49 66 50 53 51 54 52 58 53 55 54 57 55
REMARK SMILES IDX 56 56 6 57 7 58 8 59 9 60 10 62 11 63 12 64 17 65 13 66
REMARK SMILES IDX 16 67 15 68 14 69 18 70 19 71 20 72 21 73 31 74 22 75 30 76
REMARK SMILES IDX 23 77 24 79 25 80 29 81 26 82 28 83 27 84
REMARK H PARENT 3 6 73 24 51 35 8 61 23 78
REMARK Flexibility Score: inf
ROOT
ATOM      1  C   UNL     1       7.391  -2.324   7.052  1.00  0.00     0.023 C 
ENDROOT
BRANCH   1   2
ATOM      2  C   UNL     1       8.861  -1.936   7.131  1.00  0.00     0.116 C 
BRANCH   2   3
ATOM      3  N   UNL     1       9.143  -0.670   6.473  1.00  0.00    -0.352 N 
ATOM      4  O   UNL     1       9.777   1.490   6.333  1.00  0.00    -0.269 OA
ATOM      5  C   UNL     1       9.752   0.454   6.980  1.00  0.00     0.251 C 
ATOM      6  H   UNL     1       8.859  -0.610   5.533  1.00  0.00     0.163 HD
BRANCH   5   7
ATOM      7  C   UNL     1      10.352   0.408   8.331  1.00  0.00     0.039 A 
ATOM      8  C   UNL     1      11.177  -0.653   8.715  1.00  0.00     0.014 A 
ATOM      9  C   UNL     1      10.076   1.445   9.225  1.00  0.00     0.014 A 
ATOM     10  C   UNL     1      11.615  -0.747  10.032  1.00  0.00     0.010 A 
ATOM     11  C   UNL     1      10.580   1.388  10.525  1.00  0.00     0.010 A 
ATOM     12  C   UNL     1      11.328   0.277  10.948  1.00  0.00    -0.014 A 
BRANCH  12  13
ATOM     13  C   UNL     1      11.846   0.203  12.335  1.00  0.00     0.031 A 
ATOM     14  C   UNL     1      10.907   0.100  13.503  1.00  0.00     0.074 A 
ATOM     15  C   UNL     1      13.175   0.257  12.541  1.00  0.00     0.049 A 
ATOM     16  N   UNL     1      11.180   0.103  14.784  1.00  0.00    -0.248 NA
ATOM     17  C   UNL     1       9.473  -0.012  13.194  1.00  0.00     0.031 C 
ATOM     18  C   UNL     1      14.189   0.348  11.488  1.00  0.00     0.029 A 
ATOM     19  N   UNL     1      13.900   0.249  13.704  1.00  0.00    -0.354 N 
ATOM     20  C   UNL     1       9.955   0.021  15.434  1.00  0.00     0.074 A 
ATOM     21  C   UNL     1       8.936  -0.009  14.406  1.00  0.00     0.031 C 
ATOM     22  C   UNL     1      15.405   0.371  12.053  1.00  0.00     0.029 A 
ATOM     23  C   UNL     1      15.254   0.363  13.503  1.00  0.00     0.049 A 
ATOM     24  H   UNL     1      13.491   0.170  14.596  1.00  0.00     0.167 HD
ATOM     25  C   UNL     1       9.704  -0.026  16.765  1.00  0.00     0.031 A 
ATOM     26  C   UNL     1      16.263   0.483  14.385  1.00  0.00     0.031 A 
ATOM     27  C   UNL     1      10.722   0.014  17.782  1.00  0.00     0.049 A 
ATOM     28  C   UNL     1      15.957   0.483  15.854  1.00  0.00     0.074 A 
ATOM     29  C   UNL     1      10.572  -0.058  19.157  1.00  0.00     0.029 A 
ATOM     30  N   UNL     1      12.081   0.148  17.536  1.00  0.00    -0.354 N 
ATOM     31  N   UNL     1      14.797   0.375  16.453  1.00  0.00    -0.248 NA
ATOM     32  C   UNL     1      17.100   0.617  16.766  1.00  0.00     0.031 C 
ATOM     33  C   UNL     1      11.833   0.092  19.743  1.00  0.00     0.029 A 
ATOM     34  C   UNL     1      12.777   0.190  18.733  1.00  0.00     0.049 A 
ATOM     35  H   UNL     1      12.490   0.205  16.643  1.00  0.00     0.167 HD
ATOM     36  C   UNL     1      15.071   0.398  17.814  1.00  0.00     0.074 A 
ATOM     37  C   UNL     1      16.508   0.524  17.950  1.00  0.00     0.031 C 
ATOM     38  C   UNL     1      14.207   0.314  18.855  1.00  0.00     0.031 A 
BRANCH  25  39
ATOM     39  C   UNL     1       8.263  -0.080  17.195  1.00  0.00    -0.014 A 
ATOM     40  C   UNL     1       7.473  -1.221  16.980  1.00  0.00     0.009 A 
ATOM     41  C   UNL     1       7.692   1.024  17.848  1.00  0.00     0.009 A 
ATOM     42  C   UNL     1       6.130  -1.236  17.366  1.00  0.00     0.001 A 
ATOM     43  C   UNL     1       6.359   0.995  18.261  1.00  0.00     0.001 A 
ATOM     44  C   UNL     1       5.576  -0.130  18.009  1.00  0.00     0.000 A 
ENDBRANCH  25  39
BRANCH  26  45
ATOM     45  C   UNL     1      17.653   0.627  13.884  1.00  0.00    -0.014 A 
ATOM     46  C   UNL     1      18.573  -0.422  14.018  1.00  0.00     0.009 A 
ATOM     47  C   UNL     1      18.053   1.804  13.230  1.00  0.00     0.009 A 
ATOM     48  C   UNL     1      19.870  -0.291  13.518  1.00  0.00     0.001 A 
ATOM     49  C   UNL     1      19.341   1.921  12.705  1.00  0.00     0.001 A 
ATOM     50  C   UNL     1      20.250   0.876  12.855  1.00  0.00     0.000 A 
ENDBRANCH  26  45
BRANCH  38  51
ATOM     51  C   UNL     1      14.794   0.306  20.239  1.00  0.00    -0.014 A 
ATOM     52  C   UNL     1      15.324   1.468  20.819  1.00  0.00     0.009 A 
ATOM     53  C   UNL     1      14.762  -0.878  20.993  1.00  0.00     0.009 A 
ATOM     54  C   UNL     1      15.834   1.437  22.119  1.00  0.00     0.001 A 
ATOM     55  C   UNL     1      15.246  -0.899  22.301  1.00  0.00     0.001 A 
ATOM     56  C   UNL     1      15.787   0.256  22.861  1.00  0.00     0.000 A 
ENDBRANCH  38  51
ENDBRANCH  12  13
ENDBRANCH   5   7
ENDBRANCH   2   3
ENDBRANCH   1   2
BRANCH   1  57
ATOM     57  C   UNL     1       6.862  -2.565   5.639  1.00  0.00     0.023 C 
BRANCH  57  58
ATOM     58  C   UNL     1       7.637  -3.609   4.837  1.00  0.00     0.116 C 
BRANCH  58  59
ATOM     59  N   UNL     1       7.560  -4.923   5.435  1.00  0.00    -0.356 N 
ATOM     60  C   UNL     1       7.146  -6.107   4.907  1.00  0.00     0.224 C 
ATOM     61  H   UNL     1       7.853  -4.969   6.373  1.00  0.00     0.163 HD
ATOM     62  O   UNL     1       7.311  -7.105   5.607  1.00  0.00    -0.275 OA
BRANCH  60  63
ATOM     63  C   UNL     1       6.552  -6.159   3.502  1.00  0.00     0.094 C 
ATOM     64  C   UNL     1       6.523  -7.592   2.893  1.00  0.00     0.002 C 
ATOM     65  C   UNL     1       5.064  -5.732   3.410  1.00  0.00     0.094 C 
ATOM     66  C   UNL     1       5.649  -8.595   3.672  1.00  0.00     0.005 C 
ATOM     67  C   UNL     1       5.621  -7.352   1.688  1.00  0.00     0.009 C 
ATOM     68  C   UNL     1       4.445  -6.853   2.543  1.00  0.00     0.002 C 
ATOM     69  C   UNL     1       4.221  -8.082   3.443  1.00  0.00     0.005 C 
BRANCH  65  70
ATOM     70  C   UNL     1       4.861  -4.281   2.945  1.00  0.00     0.227 C 
ATOM     71  O   UNL     1       4.441  -3.449   3.755  1.00  0.00    -0.275 OA
ATOM     72  N   UNL     1       5.332  -3.869   1.715  1.00  0.00    -0.331 N 
ATOM     73  C   UNL     1       5.866  -2.509   1.603  1.00  0.00     0.181 C 
ATOM     74  C   UNL     1       4.808  -4.367   0.447  1.00  0.00     0.181 C 
ATOM     75  C   UNL     1       6.904  -2.399   0.462  1.00  0.00     0.284 C 
ATOM     76  C   UNL     1       5.876  -4.282  -0.654  1.00  0.00     0.284 C 
ATOM     77  N   UNL     1       6.479  -2.950  -0.842  1.00  0.00    -0.330 N 
ATOM     78  H   UNL     1       7.304  -3.118  -1.417  1.00  0.00     0.348 HD
BRANCH  77  79
ATOM     79  C   UNL     1       5.788  -1.988  -1.728  1.00  0.00     0.184 C 
ATOM     80  C   UNL     1       5.399  -2.621  -3.083  1.00  0.00     0.065 C 
ATOM     81  C   UNL     1       4.614  -1.209  -1.099  1.00  0.00     0.065 C 
ATOM     82  C   UNL     1       4.696  -1.640  -4.016  1.00  0.00     0.006 C 
ATOM     83  C   UNL     1       3.877  -0.301  -2.078  1.00  0.00     0.006 C 
ATOM     84  C   UNL     1       3.468  -1.050  -3.336  1.00  0.00     0.000 C 
ENDBRANCH  77  79
ENDBRANCH  65  70
ENDBRANCH  60  63
ENDBRANCH  58  59
ENDBRANCH  57  58
ENDBRANCH   1  57
TORSDOF 13
