REMARK SMILES CCn1ncc(NC(=O)[C@@H]2CCCC[C@@H]2C(=O)NCCCCNC(=O)c2ccc(-c3c4nc(c(-c5ccccc5)c5ccc([nH]5)c(-c5ccccc5)c5nc(c(-c6ccccc6)c6ccc3[nH]6)C=C5)C=C4)cc2)c1C(=O)Nc1cnn(C)c1C
REMARK SMILES IDX 19 1 18 2 16 3 17 4 15 6 10 7 11 8 12 9 14 10 13 11 8 12
REMARK SMILES IDX 7 13 9 15 6 16 3 17 4 18 74 19 5 20 2 21 1 22 75 23 76 24
REMARK SMILES IDX 77 25 78 27 79 28 83 29 80 30 81 31 84 32 82 33 20 34 21 35
REMARK SMILES IDX 22 36 23 37 24 38 25 40 26 41 27 42 73 43 28 44 72 45 29 46
REMARK SMILES IDX 30 47 31 48 66 49 32 50 71 51 65 52 67 53 33 54 70 55 64 56
REMARK SMILES IDX 63 57 34 59 56 60 41 61 55 62 42 63 45 64 54 65 68 66 43 67
REMARK SMILES IDX 44 68 53 70 69 71 46 72 35 73 36 74 40 75 37 76 39 77 38 78
REMARK SMILES IDX 57 79 58 80 62 81 59 82 61 83 60 84 47 85 48 86 52 87 49 88
REMARK SMILES IDX 51 89 50 90
REMARK H PARENT 18 5 7 14 77 26 23 39 67 58 45 69
REMARK Flexibility Score: inf
ROOT
ATOM      1  C   UNL     1      -3.937  -8.775   0.120  1.00  0.00     0.116 C 
ENDROOT
BRANCH   1   2
ATOM      2  N   UNL     1      -3.656  -7.680   1.019  1.00  0.00    -0.356 N 
ATOM      3  C   UNL     1      -2.477  -7.051   1.260  1.00  0.00     0.223 C 
ATOM      4  O   UNL     1      -2.366  -6.528   2.371  1.00  0.00    -0.275 OA
ATOM      5  H   UNL     1      -4.428  -7.342   1.529  1.00  0.00     0.163 HD
BRANCH   3   6
ATOM      6  C   UNL     1      -1.384  -6.970   0.176  1.00  0.00     0.091 C 
ATOM      7  C   UNL     1      -0.382  -5.816   0.509  1.00  0.00     0.091 C 
ATOM      8  C   UNL     1      -1.185  -4.507   0.624  1.00  0.00     0.014 C 
ATOM      9  C   UNL     1      -1.845  -4.191  -0.709  1.00  0.00     0.001 C 
ATOM     10  C   UNL     1      -1.938  -6.644  -1.233  1.00  0.00     0.014 C 
ATOM     11  C   UNL     1      -2.698  -5.320  -1.256  1.00  0.00     0.001 C 
BRANCH   7  12
ATOM     12  C   UNL     1       0.598  -6.160   1.628  1.00  0.00     0.228 C 
ATOM     13  N   UNL     1       1.514  -5.270   2.118  1.00  0.00    -0.322 N 
ATOM     14  H   UNL     1       2.103  -5.653   2.807  1.00  0.00     0.170 HD
ATOM     15  O   UNL     1       0.621  -7.299   2.113  1.00  0.00    -0.274 OA
BRANCH  13  16
ATOM     16  C   UNL     1       1.782  -3.937   1.842  1.00  0.00     0.092 A 
ATOM     17  N   UNL     1       1.595  -1.883   1.207  1.00  0.00    -0.258 N 
ATOM     18  N   UNL     1       2.171  -1.777   2.429  1.00  0.00    -0.178 NA
ATOM     19  C   UNL     1       1.740  -3.157   0.673  1.00  0.00     0.150 A 
ATOM     20  C   UNL     1       2.209  -3.038   2.846  1.00  0.00     0.162 A 
BRANCH  17  21
ATOM     21  C   UNL     1       0.553  -0.903   0.935  1.00  0.00     0.142 C 
ATOM     22  C   UNL     1       1.083   0.514   0.826  1.00  0.00     0.029 C 
ENDBRANCH  17  21
BRANCH  19  23
ATOM     23  C   UNL     1       1.792  -3.628  -0.709  1.00  0.00     0.276 C 
ATOM     24  O   UNL     1       2.308  -4.717  -0.979  1.00  0.00    -0.267 OA
ATOM     25  N   UNL     1       1.105  -3.038  -1.752  1.00  0.00    -0.318 N 
ATOM     26  H   UNL     1       0.638  -3.676  -2.340  1.00  0.00     0.170 HD
BRANCH  25  27
ATOM     27  C   UNL     1       0.955  -1.723  -2.117  1.00  0.00     0.082 A 
ATOM     28  C   UNL     1       1.907  -0.689  -2.115  1.00  0.00     0.161 A 
ATOM     29  C   UNL     1      -0.196  -1.155  -2.643  1.00  0.00     0.059 A 
ATOM     30  N   UNL     1       1.379   0.477  -2.490  1.00  0.00    -0.179 NA
ATOM     31  N   UNL     1       0.086   0.189  -2.730  1.00  0.00    -0.271 N 
ATOM     32  C   UNL     1      -1.556  -1.688  -2.925  1.00  0.00     0.068 C 
ATOM     33  C   UNL     1      -0.848   1.284  -2.875  1.00  0.00     0.174 C 
ENDBRANCH  25  27
ENDBRANCH  19  23
ENDBRANCH  13  16
ENDBRANCH   7  12
ENDBRANCH   3   6
ENDBRANCH   1   2
BRANCH   1  34
ATOM     34  C   UNL     1      -4.187 -10.068   0.892  1.00  0.00     0.023 C 
BRANCH  34  35
ATOM     35  C   UNL     1      -5.321 -10.032   1.924  1.00  0.00     0.023 C 
BRANCH  35  36
ATOM     36  C   UNL     1      -6.660  -9.599   1.360  1.00  0.00     0.116 C 
BRANCH  36  37
ATOM     37  N   UNL     1      -7.156 -10.481   0.299  1.00  0.00    -0.352 N 
ATOM     38  C   UNL     1      -8.360 -10.387  -0.389  1.00  0.00     0.251 C 
ATOM     39  H   UNL     1      -6.567 -11.227   0.044  1.00  0.00     0.163 HD
ATOM     40  O   UNL     1      -8.826 -11.319  -1.010  1.00  0.00    -0.269 OA
BRANCH  38  41
ATOM     41  C   UNL     1      -9.035  -9.078  -0.370  1.00  0.00     0.039 A 
ATOM     42  C   UNL     1     -10.406  -8.923  -0.145  1.00  0.00     0.014 A 
ATOM     43  C   UNL     1      -8.199  -7.979  -0.507  1.00  0.00     0.014 A 
ATOM     44  C   UNL     1     -10.909  -7.630  -0.012  1.00  0.00     0.010 A 
ATOM     45  C   UNL     1      -8.642  -6.760  -0.102  1.00  0.00     0.010 A 
ATOM     46  C   UNL     1     -10.008  -6.556   0.005  1.00  0.00    -0.014 A 
BRANCH  46  47
ATOM     47  C   UNL     1     -10.415  -5.172   0.163  1.00  0.00     0.031 A 
ATOM     48  C   UNL     1     -11.104  -4.863   1.438  1.00  0.00     0.074 A 
ATOM     49  C   UNL     1      -9.931  -4.211  -0.657  1.00  0.00     0.049 A 
ATOM     50  N   UNL     1     -12.330  -4.497   1.599  1.00  0.00    -0.248 NA
ATOM     51  C   UNL     1     -10.382  -5.106   2.698  1.00  0.00     0.031 C 
ATOM     52  C   UNL     1      -8.951  -4.338  -1.752  1.00  0.00     0.029 A 
ATOM     53  N   UNL     1     -10.109  -2.869  -0.589  1.00  0.00    -0.354 N 
ATOM     54  C   UNL     1     -12.485  -4.264   2.961  1.00  0.00     0.074 A 
ATOM     55  C   UNL     1     -11.326  -4.833   3.601  1.00  0.00     0.031 C 
ATOM     56  C   UNL     1      -8.444  -3.122  -2.055  1.00  0.00     0.029 A 
ATOM     57  C   UNL     1      -9.198  -2.122  -1.325  1.00  0.00     0.049 A 
ATOM     58  H   UNL     1     -10.829  -2.456  -0.059  1.00  0.00     0.167 HD
ATOM     59  C   UNL     1     -13.419  -3.389   3.425  1.00  0.00     0.031 A 
ATOM     60  C   UNL     1      -9.065  -0.773  -1.312  1.00  0.00     0.031 A 
ATOM     61  C   UNL     1     -14.368  -3.035   2.399  1.00  0.00     0.049 A 
ATOM     62  C   UNL     1     -10.328  -0.223  -0.767  1.00  0.00     0.074 A 
ATOM     63  C   UNL     1     -15.271  -3.735   1.623  1.00  0.00     0.029 A 
ATOM     64  N   UNL     1     -14.163  -1.840   1.748  1.00  0.00    -0.354 N 
ATOM     65  N   UNL     1     -11.476  -0.341  -1.374  1.00  0.00    -0.248 NA
ATOM     66  C   UNL     1     -10.400   0.016   0.666  1.00  0.00     0.031 C 
ATOM     67  C   UNL     1     -15.161  -3.153   0.325  1.00  0.00     0.029 A 
ATOM     68  C   UNL     1     -14.268  -2.081   0.402  1.00  0.00     0.049 A 
ATOM     69  H   UNL     1     -13.974  -0.972   2.171  1.00  0.00     0.167 HD
ATOM     70  C   UNL     1     -12.381  -0.637  -0.364  1.00  0.00     0.074 A 
ATOM     71  C   UNL     1     -11.680  -0.309   0.879  1.00  0.00     0.031 C 
ATOM     72  C   UNL     1     -13.495  -1.391  -0.609  1.00  0.00     0.031 A 
BRANCH  59  73
ATOM     73  C   UNL     1     -13.227  -2.531   4.651  1.00  0.00    -0.014 A 
ATOM     74  C   UNL     1     -14.283  -1.697   5.060  1.00  0.00     0.009 A 
ATOM     75  C   UNL     1     -11.971  -2.297   5.243  1.00  0.00     0.009 A 
ATOM     76  C   UNL     1     -14.071  -0.636   5.949  1.00  0.00     0.001 A 
ATOM     77  C   UNL     1     -11.765  -1.265   6.162  1.00  0.00     0.001 A 
ATOM     78  C   UNL     1     -12.809  -0.415   6.492  1.00  0.00     0.000 A 
ENDBRANCH  59  73
BRANCH  60  79
ATOM     79  C   UNL     1      -7.828   0.031  -1.423  1.00  0.00    -0.014 A 
ATOM     80  C   UNL     1      -7.879   1.390  -1.766  1.00  0.00     0.009 A 
ATOM     81  C   UNL     1      -6.618  -0.470  -0.906  1.00  0.00     0.009 A 
ATOM     82  C   UNL     1      -6.771   2.227  -1.559  1.00  0.00     0.001 A 
ATOM     83  C   UNL     1      -5.514   0.366  -0.695  1.00  0.00     0.001 A 
ATOM     84  C   UNL     1      -5.596   1.718  -1.008  1.00  0.00     0.000 A 
ENDBRANCH  60  79
BRANCH  72  85
ATOM     85  C   UNL     1     -13.812  -1.736  -2.047  1.00  0.00    -0.014 A 
ATOM     86  C   UNL     1     -12.975  -2.528  -2.855  1.00  0.00     0.009 A 
ATOM     87  C   UNL     1     -15.073  -1.387  -2.548  1.00  0.00     0.009 A 
ATOM     88  C   UNL     1     -13.380  -2.933  -4.133  1.00  0.00     0.001 A 
ATOM     89  C   UNL     1     -15.485  -1.806  -3.816  1.00  0.00     0.001 A 
ATOM     90  C   UNL     1     -14.638  -2.574  -4.610  1.00  0.00     0.000 A 
ENDBRANCH  72  85
ENDBRANCH  46  47
ENDBRANCH  38  41
ENDBRANCH  36  37
ENDBRANCH  35  36
ENDBRANCH  34  35
ENDBRANCH   1  34
TORSDOF 16
