REMARK SMILES O=C(NCCCCNC(=O)[C@@H]1CC=CC[C@@H]1C(=O)Nc1ccc(Br)cc1Cl)c1ccc(-c2c3nc(c(-c4ccccc4)c4ccc([nH]4)c(-c4ccccc4)c4nc(c(-c5ccccc5)c5ccc2[nH]5)C=C4)C=C3)cc1
REMARK SMILES IDX 5 1 4 2 3 3 1 4 2 5 28 7 29 8 75 9 30 10 74 11 31 12 32 13
REMARK SMILES IDX 33 14 68 15 34 16 73 17 67 18 69 19 35 20 72 21 66 22 65 23
REMARK SMILES IDX 36 25 58 26 43 27 57 28 44 29 47 30 56 31 70 32 45 33 46 34
REMARK SMILES IDX 55 36 71 37 48 38 37 39 38 40 42 41 39 42 41 43 40 44 59 45
REMARK SMILES IDX 60 46 64 47 61 48 63 49 62 50 49 51 50 52 54 53 51 54 53 55
REMARK SMILES IDX 52 56 6 57 7 58 8 59 9 60 10 62 11 63 12 64 16 65 13 66
REMARK SMILES IDX 15 67 14 68 17 69 18 70 19 71 20 73 21 74 26 75 22 76 25 77
REMARK SMILES IDX 27 78 23 79 24 80
REMARK H PARENT 3 6 69 24 47 35 8 61 19 72
REMARK Flexibility Score: inf
ROOT
ATOM      1  C   UNL     1      10.751   2.398   8.835  1.00  0.00     0.023 C 
ENDROOT
BRANCH   1   2
ATOM      2  C   UNL     1      11.948   1.517   8.502  1.00  0.00     0.116 C 
BRANCH   2   3
ATOM      3  N   UNL     1      12.821   2.100   7.495  1.00  0.00    -0.352 N 
ATOM      4  O   UNL     1      14.769   2.821   6.612  1.00  0.00    -0.269 OA
ATOM      5  C   UNL     1      14.191   2.185   7.488  1.00  0.00     0.251 C 
ATOM      6  H   UNL     1      12.367   2.488   6.712  1.00  0.00     0.163 HD
BRANCH   5   7
ATOM      7  C   UNL     1      14.968   1.528   8.559  1.00  0.00     0.039 A 
ATOM      8  C   UNL     1      14.693   0.210   8.934  1.00  0.00     0.014 A 
ATOM      9  C   UNL     1      15.986   2.245   9.194  1.00  0.00     0.014 A 
ATOM     10  C   UNL     1      15.351  -0.347  10.024  1.00  0.00     0.010 A 
ATOM     11  C   UNL     1      16.695   1.658  10.244  1.00  0.00     0.010 A 
ATOM     12  C   UNL     1      16.365   0.366  10.683  1.00  0.00    -0.014 A 
BRANCH  12  13
ATOM     13  C   UNL     1      17.113  -0.283  11.786  1.00  0.00     0.031 A 
ATOM     14  C   UNL     1      16.993   0.205  13.201  1.00  0.00     0.074 A 
ATOM     15  C   UNL     1      17.888  -1.345  11.498  1.00  0.00     0.049 A 
ATOM     16  N   UNL     1      17.564  -0.265  14.282  1.00  0.00    -0.248 NA
ATOM     17  C   UNL     1      16.125   1.369  13.436  1.00  0.00     0.031 C 
ATOM     18  C   UNL     1      18.082  -1.910  10.160  1.00  0.00     0.029 A 
ATOM     19  N   UNL     1      18.640  -2.151  12.312  1.00  0.00    -0.354 N 
ATOM     20  C   UNL     1      17.140   0.553  15.321  1.00  0.00     0.074 A 
ATOM     21  C   UNL     1      16.279   1.562  14.740  1.00  0.00     0.031 C 
ATOM     22  C   UNL     1      18.860  -2.998  10.252  1.00  0.00     0.029 A 
ATOM     23  C   UNL     1      19.265  -3.174  11.642  1.00  0.00     0.049 A 
ATOM     24  H   UNL     1      18.725  -2.010  13.283  1.00  0.00     0.167 HD
ATOM     25  C   UNL     1      17.439   0.468  16.640  1.00  0.00     0.031 A 
ATOM     26  C   UNL     1      20.083  -4.141  12.092  1.00  0.00     0.031 A 
ATOM     27  C   UNL     1      18.295  -0.536  17.216  1.00  0.00     0.049 A 
ATOM     28  C   UNL     1      20.424  -4.191  13.550  1.00  0.00     0.074 A 
ATOM     29  C   UNL     1      18.639  -0.717  18.545  1.00  0.00     0.029 A 
ATOM     30  N   UNL     1      18.945  -1.527  16.497  1.00  0.00    -0.354 N 
ATOM     31  N   UNL     1      20.000  -3.420  14.522  1.00  0.00    -0.248 NA
ATOM     32  C   UNL     1      21.360  -5.240  13.973  1.00  0.00     0.031 C 
ATOM     33  C   UNL     1      19.531  -1.793  18.624  1.00  0.00     0.029 A 
ATOM     34  C   UNL     1      19.706  -2.309  17.350  1.00  0.00     0.049 A 
ATOM     35  H   UNL     1      18.876  -1.656  15.523  1.00  0.00     0.167 HD
ATOM     36  C   UNL     1      20.609  -3.896  15.673  1.00  0.00     0.074 A 
ATOM     37  C   UNL     1      21.415  -5.036  15.282  1.00  0.00     0.031 C 
ATOM     38  C   UNL     1      20.511  -3.430  16.941  1.00  0.00     0.031 A 
BRANCH  25  39
ATOM     39  C   UNL     1      16.852   1.506  17.553  1.00  0.00    -0.014 A 
ATOM     40  C   UNL     1      15.496   1.476  17.913  1.00  0.00     0.009 A 
ATOM     41  C   UNL     1      17.679   2.501  18.099  1.00  0.00     0.009 A 
ATOM     42  C   UNL     1      14.974   2.438  18.781  1.00  0.00     0.001 A 
ATOM     43  C   UNL     1      17.159   3.448  18.984  1.00  0.00     0.001 A 
ATOM     44  C   UNL     1      15.806   3.420  19.319  1.00  0.00     0.000 A 
ENDBRANCH  25  39
BRANCH  26  45
ATOM     45  C   UNL     1      20.639  -5.133  11.139  1.00  0.00    -0.014 A 
ATOM     46  C   UNL     1      20.181  -6.459  11.144  1.00  0.00     0.009 A 
ATOM     47  C   UNL     1      21.610  -4.751  10.201  1.00  0.00     0.009 A 
ATOM     48  C   UNL     1      20.697  -7.386  10.236  1.00  0.00     0.001 A 
ATOM     49  C   UNL     1      22.104  -5.673   9.278  1.00  0.00     0.001 A 
ATOM     50  C   UNL     1      21.652  -6.991   9.300  1.00  0.00     0.000 A 
ENDBRANCH  26  45
BRANCH  38  51
ATOM     51  C   UNL     1      21.286  -4.165  17.994  1.00  0.00    -0.014 A 
ATOM     52  C   UNL     1      22.677  -4.018  18.102  1.00  0.00     0.009 A 
ATOM     53  C   UNL     1      20.613  -4.998  18.901  1.00  0.00     0.009 A 
ATOM     54  C   UNL     1      23.385  -4.717  19.082  1.00  0.00     0.001 A 
ATOM     55  C   UNL     1      21.321  -5.677  19.893  1.00  0.00     0.001 A 
ATOM     56  C   UNL     1      22.706  -5.543  19.978  1.00  0.00     0.000 A 
ENDBRANCH  38  51
ENDBRANCH  12  13
ENDBRANCH   5   7
ENDBRANCH   2   3
ENDBRANCH   1   2
BRANCH   1  57
ATOM     57  C   UNL     1       9.841   2.737   7.654  1.00  0.00     0.023 C 
BRANCH  57  58
ATOM     58  C   UNL     1       9.325   1.531   6.872  1.00  0.00     0.116 C 
BRANCH  58  59
ATOM     59  N   UNL     1       8.508   0.656   7.689  1.00  0.00    -0.356 N 
ATOM     60  C   UNL     1       7.169   0.400   7.632  1.00  0.00     0.224 C 
ATOM     61  H   UNL     1       8.995   0.171   8.394  1.00  0.00     0.163 HD
ATOM     62  O   UNL     1       6.747  -0.528   8.321  1.00  0.00    -0.275 OA
BRANCH  60  63
ATOM     63  C   UNL     1       6.285   1.197   6.677  1.00  0.00     0.095 C 
ATOM     64  C   UNL     1       6.195   2.689   7.039  1.00  0.00     0.041 C 
ATOM     65  C   UNL     1       4.885   0.557   6.506  1.00  0.00     0.095 C 
ATOM     66  C   UNL     1       5.163   3.424   6.232  1.00  0.00    -0.030 C 
ATOM     67  C   UNL     1       4.112   1.312   5.406  1.00  0.00     0.041 C 
ATOM     68  C   UNL     1       4.249   2.806   5.473  1.00  0.00    -0.030 C 
BRANCH  65  69
ATOM     69  C   UNL     1       4.070   0.497   7.810  1.00  0.00     0.228 C 
ATOM     70  O   UNL     1       4.358   1.182   8.796  1.00  0.00    -0.274 OA
ATOM     71  N   UNL     1       2.897  -0.209   7.885  1.00  0.00    -0.324 N 
ATOM     72  H   UNL     1       2.424  -0.129   8.745  1.00  0.00     0.169 HD
BRANCH  71  73
ATOM     73  C   UNL     1       2.259  -1.028   6.940  1.00  0.00     0.060 A 
ATOM     74  C   UNL     1       0.921  -0.707   6.668  1.00  0.00     0.029 A 
ATOM     75  C   UNL     1       2.836  -2.133   6.293  1.00  0.00     0.065 A 
ATOM     76  C   UNL     1       0.211  -1.391   5.680  1.00  0.00     0.018 A 
ATOM     77  C   UNL     1       2.126  -2.816   5.299  1.00  0.00     0.038 A 
ATOM     78  Cl  UNL     1       4.327  -2.843   6.808  1.00  0.00    -0.082 Cl
ATOM     79  C   UNL     1       0.826  -2.428   4.985  1.00  0.00     0.019 A 
ATOM     80  Br  UNL     1      -0.126  -3.339   3.630  1.00  0.00    -0.051 Br
ENDBRANCH  71  73
ENDBRANCH  65  69
ENDBRANCH  60  63
ENDBRANCH  58  59
ENDBRANCH  57  58
ENDBRANCH   1  57
TORSDOF 13
