REMARK SMILES C[C@@H](C(=O)NCCCCNC(=O)c1ccc(-c2c3nc(c(-c4ccccc4)c4ccc([nH]4)c(-c4ccccc4)c4nc(c(-c5ccccc5)c5ccc2[nH]5)C=C4)C=C3)cc1)N(C)C(=O)NC[C@H]1C[N@@H+]2CCC[C@@H]2CO1
REMARK SMILES IDX 6 1 5 2 3 3 4 4 2 6 1 7 61 8 62 9 63 10 64 11 65 12 66 14
REMARK SMILES IDX 67 15 68 16 75 17 69 18 74 19 70 20 73 21 71 23 72 24 7 25
REMARK SMILES IDX 8 26 9 27 10 28 11 29 12 31 13 32 14 33 60 34 15 35 59 36
REMARK SMILES IDX 16 37 17 38 18 39 53 40 19 41 58 42 52 43 54 44 20 45 57 46
REMARK SMILES IDX 51 47 50 48 21 50 43 51 28 52 42 53 29 54 32 55 41 56 55 57
REMARK SMILES IDX 30 58 31 59 40 61 56 62 33 63 22 64 23 65 27 66 24 67 26 68
REMARK SMILES IDX 25 69 44 70 45 71 49 72 46 73 48 74 47 75 34 76 35 77 39 78
REMARK SMILES IDX 36 79 38 80 37 81
REMARK H PARENT 5 5 65 13 69 22 10 30 54 49 32 60
REMARK Flexibility Score: inf
ROOT
ATOM      1  C   UNL     1       3.459   0.645   1.699  1.00  0.00     0.116 C 
ENDROOT
BRANCH   1   2
ATOM      2  N   UNL     1       2.387   1.529   2.099  1.00  0.00    -0.354 N 
ATOM      3  C   UNL     1       1.035   1.388   1.948  1.00  0.00     0.242 C 
ATOM      4  O   UNL     1       0.334   2.218   2.535  1.00  0.00    -0.273 OA
ATOM      5  H   UNL     1       2.673   2.357   2.550  1.00  0.00     0.163 HD
BRANCH   3   6
ATOM      6  C   UNL     1       0.455   0.170   1.173  1.00  0.00     0.172 C 
ATOM      7  C   UNL     1       0.903   0.049  -0.288  1.00  0.00     0.042 C 
BRANCH   6   8
ATOM      8  N   UNL     1      -1.022   0.122   1.311  1.00  0.00    -0.316 N 
ATOM      9  C   UNL     1      -1.536  -0.838   2.269  1.00  0.00     0.149 C 
BRANCH   8  10
ATOM     10  C   UNL     1      -1.755   1.034   0.599  1.00  0.00     0.317 C 
ATOM     11  O   UNL     1      -1.224   1.899  -0.103  1.00  0.00    -0.249 OA
ATOM     12  N   UNL     1      -3.096   1.046   0.583  1.00  0.00    -0.335 N 
ATOM     13  H   UNL     1      -3.434   1.784   0.025  1.00  0.00     0.165 HD
BRANCH  12  14
ATOM     14  C   UNL     1      -4.188   0.282   1.154  1.00  0.00     0.155 C 
BRANCH  14  15
ATOM     15  C   UNL     1      -4.793   0.857   2.454  1.00  0.00     0.192 C 
ATOM     16  C   UNL     1      -4.517   2.362   2.715  1.00  0.00     0.296 C 
ATOM     17  O   UNL     1      -6.202   0.511   2.454  1.00  0.00    -0.364 OA
ATOM     18  N   UNL     1      -5.363   3.255   1.911  1.00  0.00    -0.328 N 
ATOM     19  C   UNL     1      -7.058   1.597   2.823  1.00  0.00     0.225 C 
ATOM     20  C   UNL     1      -5.253   4.653   2.346  1.00  0.00     0.262 C 
ATOM     21  C   UNL     1      -6.785   2.853   1.978  1.00  0.00     0.210 C 
ATOM     22  H   UNL     1      -5.027   3.176   0.952  1.00  0.00     0.348 HD
ATOM     23  C   UNL     1      -6.636   5.235   2.120  1.00  0.00     0.068 C 
ATOM     24  C   UNL     1      -7.546   4.077   2.482  1.00  0.00     0.073 C 
ENDBRANCH  14  15
ENDBRANCH  12  14
ENDBRANCH   8  10
ENDBRANCH   6   8
ENDBRANCH   3   6
ENDBRANCH   1   2
BRANCH   1  25
ATOM     25  C   UNL     1       4.232   1.199   0.504  1.00  0.00     0.023 C 
BRANCH  25  26
ATOM     26  C   UNL     1       5.028   2.473   0.797  1.00  0.00     0.023 C 
BRANCH  26  27
ATOM     27  C   UNL     1       6.028   2.361   1.940  1.00  0.00     0.116 C 
BRANCH  27  28
ATOM     28  N   UNL     1       7.020   1.320   1.727  1.00  0.00    -0.352 N 
ATOM     29  C   UNL     1       8.371   1.356   1.966  1.00  0.00     0.251 C 
ATOM     30  H   UNL     1       6.676   0.473   1.362  1.00  0.00     0.163 HD
ATOM     31  O   UNL     1       9.088   0.428   1.597  1.00  0.00    -0.269 OA
BRANCH  29  32
ATOM     32  C   UNL     1       8.967   2.525   2.645  1.00  0.00     0.039 A 
ATOM     33  C   UNL     1      10.163   3.055   2.154  1.00  0.00     0.014 A 
ATOM     34  C   UNL     1       8.354   3.094   3.765  1.00  0.00     0.014 A 
ATOM     35  C   UNL     1      10.724   4.177   2.766  1.00  0.00     0.010 A 
ATOM     36  C   UNL     1       8.865   4.264   4.315  1.00  0.00     0.010 A 
ATOM     37  C   UNL     1      10.070   4.802   3.840  1.00  0.00    -0.014 A 
BRANCH  37  38
ATOM     38  C   UNL     1      10.660   5.986   4.513  1.00  0.00     0.031 A 
ATOM     39  C   UNL     1      11.075   5.898   5.957  1.00  0.00     0.074 A 
ATOM     40  C   UNL     1      10.787   7.148   3.844  1.00  0.00     0.049 A 
ATOM     41  N   UNL     1      11.603   6.820   6.724  1.00  0.00    -0.248 NA
ATOM     42  C   UNL     1      10.842   4.615   6.639  1.00  0.00     0.031 C 
ATOM     43  C   UNL     1      10.389   7.376   2.453  1.00  0.00     0.029 A 
ATOM     44  N   UNL     1      11.296   8.357   4.247  1.00  0.00    -0.354 N 
ATOM     45  C   UNL     1      11.740   6.234   7.977  1.00  0.00     0.074 A 
ATOM     46  C   UNL     1      11.186   4.902   7.885  1.00  0.00     0.031 C 
ATOM     47  C   UNL     1      10.711   8.632   2.106  1.00  0.00     0.029 A 
ATOM     48  C   UNL     1      11.299   9.309   3.257  1.00  0.00     0.049 A 
ATOM     49  H   UNL     1      11.627   8.525   5.158  1.00  0.00     0.167 HD
ATOM     50  C   UNL     1      12.297   6.747   9.100  1.00  0.00     0.031 A 
ATOM     51  C   UNL     1      11.735  10.583   3.274  1.00  0.00     0.031 A 
ATOM     52  C   UNL     1      12.860   8.068   9.188  1.00  0.00     0.049 A 
ATOM     53  C   UNL     1      12.342  11.134   4.535  1.00  0.00     0.074 A 
ATOM     54  C   UNL     1      13.504   8.661  10.259  1.00  0.00     0.029 A 
ATOM     55  N   UNL     1      12.840   9.002   8.164  1.00  0.00    -0.354 N 
ATOM     56  N   UNL     1      12.535  10.543   5.690  1.00  0.00    -0.248 NA
ATOM     57  C   UNL     1      12.810  12.526   4.485  1.00  0.00     0.031 C 
ATOM     58  C   UNL     1      13.819   9.976   9.903  1.00  0.00     0.029 A 
ATOM     59  C   UNL     1      13.437  10.177   8.586  1.00  0.00     0.049 A 
ATOM     60  H   UNL     1      12.457   8.852   7.269  1.00  0.00     0.167 HD
ATOM     61  C   UNL     1      13.186  11.475   6.489  1.00  0.00     0.074 A 
ATOM     62  C   UNL     1      13.362  12.666   5.682  1.00  0.00     0.031 C 
ATOM     63  C   UNL     1      13.609  11.353   7.771  1.00  0.00     0.031 A 
BRANCH  50  64
ATOM     64  C   UNL     1      12.303   5.875  10.327  1.00  0.00    -0.014 A 
ATOM     65  C   UNL     1      13.076   4.704  10.394  1.00  0.00     0.009 A 
ATOM     66  C   UNL     1      11.530   6.238  11.441  1.00  0.00     0.009 A 
ATOM     67  C   UNL     1      13.034   3.889  11.527  1.00  0.00     0.001 A 
ATOM     68  C   UNL     1      11.517   5.441  12.587  1.00  0.00     0.001 A 
ATOM     69  C   UNL     1      12.257   4.260  12.624  1.00  0.00     0.000 A 
ENDBRANCH  50  64
BRANCH  51  70
ATOM     70  C   UNL     1      11.657  11.416   2.045  1.00  0.00    -0.014 A 
ATOM     71  C   UNL     1      12.827  11.780   1.360  1.00  0.00     0.009 A 
ATOM     72  C   UNL     1      10.420  11.859   1.554  1.00  0.00     0.009 A 
ATOM     73  C   UNL     1      12.762  12.595   0.228  1.00  0.00     0.001 A 
ATOM     74  C   UNL     1      10.355  12.649   0.404  1.00  0.00     0.001 A 
ATOM     75  C   UNL     1      11.526  13.025  -0.252  1.00  0.00     0.000 A 
ENDBRANCH  51  70
BRANCH  63  76
ATOM     76  C   UNL     1      14.360  12.516   8.362  1.00  0.00    -0.014 A 
ATOM     77  C   UNL     1      13.725  13.731   8.661  1.00  0.00     0.009 A 
ATOM     78  C   UNL     1      15.727  12.375   8.649  1.00  0.00     0.009 A 
ATOM     79  C   UNL     1      14.457  14.797   9.192  1.00  0.00     0.001 A 
ATOM     80  C   UNL     1      16.447  13.429   9.213  1.00  0.00     0.001 A 
ATOM     81  C   UNL     1      15.814  14.643   9.471  1.00  0.00     0.000 A 
ENDBRANCH  63  76
ENDBRANCH  37  38
ENDBRANCH  29  32
ENDBRANCH  27  28
ENDBRANCH  26  27
ENDBRANCH  25  26
ENDBRANCH   1  25
TORSDOF 15
