REMARK SMILES O=C(CCC(=O)N1Cc2[nH]cnc2C[C@H]1C(=O)NCc1ccccc1)NCCCCNC(=O)c1ccc(-c2c3nc(c(-c4ccccc4)c4ccc([nH]4)c(-c4ccccc4)c4nc(c(-c5ccccc5)c5ccc2[nH]5)C=C4)C=C3)cc1
REMARK SMILES IDX 1 1 2 2 26 3 3 5 4 6 5 7 6 8 7 9 8 10 15 11 9 12 14 13 10 14
REMARK SMILES IDX 13 15 11 16 12 18 16 19 17 20 18 21 19 23 20 24 21 25 25 26
REMARK SMILES IDX 22 27 24 28 23 29 27 30 28 31 29 32 30 33 31 34 32 35 33 37
REMARK SMILES IDX 34 38 35 39 81 40 36 41 80 42 37 43 38 44 39 45 74 46 40 47
REMARK SMILES IDX 79 48 73 49 75 50 41 51 78 52 72 53 71 54 42 56 64 57 49 58
REMARK SMILES IDX 63 59 50 60 53 61 62 62 76 63 51 64 52 65 61 67 77 68 54 69
REMARK SMILES IDX 43 70 44 71 48 72 45 73 47 74 46 75 65 76 66 77 70 78 67 79
REMARK SMILES IDX 69 80 68 81 55 82 56 83 60 84 57 85 59 86 58 87
REMARK H PARENT 26 4 10 17 18 22 31 36 75 55 53 66
REMARK Flexibility Score: inf
ROOT
ATOM      1  O   UNL     1       0.721   0.012  -0.506  1.00  0.00    -0.275 OA
ATOM      2  C   UNL     1       1.835  -0.267  -0.942  1.00  0.00     0.220 C 
ATOM      3  N   UNL     1       2.309  -1.593  -0.975  1.00  0.00    -0.356 N 
ATOM      4  H   UNL     1       3.102  -1.805  -1.518  1.00  0.00     0.163 HD
ENDROOT
BRANCH   2   5
ATOM      5  C   UNL     1       2.877   0.854  -1.284  1.00  0.00     0.110 C 
BRANCH   5   6
ATOM      6  C   UNL     1       3.111   1.939  -0.175  1.00  0.00     0.110 C 
BRANCH   6   7
ATOM      7  C   UNL     1       4.390   1.849   0.712  1.00  0.00     0.224 C 
ATOM      8  O   UNL     1       5.350   2.565   0.509  1.00  0.00    -0.275 OA
BRANCH   7   9
ATOM      9  N   UNL     1       4.363   0.943   1.769  1.00  0.00    -0.324 N 
ATOM     10  C   UNL     1       5.435   0.892   2.776  1.00  0.00     0.176 C 
ATOM     11  C   UNL     1       3.529  -0.253   1.660  1.00  0.00     0.180 C 
ATOM     12  C   UNL     1       5.872  -0.525   2.852  1.00  0.00     0.058 A 
ATOM     13  C   UNL     1       4.396  -1.372   1.070  1.00  0.00     0.093 C 
ATOM     14  N   UNL     1       6.116  -1.198   4.013  1.00  0.00    -0.347 N 
ATOM     15  C   UNL     1       5.540  -1.533   1.967  1.00  0.00     0.066 A 
ATOM     16  C   UNL     1       5.803  -2.492   3.737  1.00  0.00     0.197 A 
ATOM     17  H   UNL     1       6.446  -0.828   4.863  1.00  0.00     0.167 HD
ATOM     18  N   UNL     1       5.796  -2.752   2.458  1.00  0.00    -0.242 NA
BRANCH  11  19
ATOM     19  C   UNL     1       2.314  -0.303   2.607  1.00  0.00     0.243 C 
ATOM     20  O   UNL     1       1.653   0.728   2.795  1.00  0.00    -0.273 OA
ATOM     21  N   UNL     1       1.804  -1.428   3.164  1.00  0.00    -0.350 N 
ATOM     22  H   UNL     1       0.833  -1.563   3.077  1.00  0.00     0.163 HD
BRANCH  21  23
ATOM     23  C   UNL     1       2.534  -2.444   3.869  1.00  0.00     0.151 C 
BRANCH  23  24
ATOM     24  C   UNL     1       2.772  -2.056   5.308  1.00  0.00    -0.029 A 
ATOM     25  C   UNL     1       2.936  -3.057   6.274  1.00  0.00     0.005 A 
ATOM     26  C   UNL     1       2.790  -0.714   5.727  1.00  0.00     0.005 A 
ATOM     27  C   UNL     1       2.958  -2.726   7.629  1.00  0.00     0.000 A 
ATOM     28  C   UNL     1       2.804  -0.384   7.075  1.00  0.00     0.000 A 
ATOM     29  C   UNL     1       2.851  -1.394   8.029  1.00  0.00     0.000 A 
ENDBRANCH  23  24
ENDBRANCH  21  23
ENDBRANCH  11  19
ENDBRANCH   7   9
ENDBRANCH   6   7
ENDBRANCH   5   6
ENDBRANCH   2   5
BRANCH   3  30
ATOM     30  C   UNL     1       1.643  -2.680  -0.214  1.00  0.00     0.116 C 
BRANCH  30  31
ATOM     31  C   UNL     1       2.108  -4.154  -0.420  1.00  0.00     0.023 C 
BRANCH  31  32
ATOM     32  C   UNL     1       3.373  -4.841   0.237  1.00  0.00     0.023 C 
BRANCH  32  33
ATOM     33  C   UNL     1       3.479  -5.093   1.782  1.00  0.00     0.116 C 
BRANCH  33  34
ATOM     34  N   UNL     1       4.040  -6.415   2.180  1.00  0.00    -0.352 N 
ATOM     35  C   UNL     1       4.791  -6.876   3.265  1.00  0.00     0.251 C 
ATOM     36  H   UNL     1       3.834  -7.126   1.531  1.00  0.00     0.163 HD
ATOM     37  O   UNL     1       4.694  -8.067   3.566  1.00  0.00    -0.269 OA
BRANCH  35  38
ATOM     38  C   UNL     1       5.729  -6.052   4.083  1.00  0.00     0.039 A 
ATOM     39  C   UNL     1       5.687  -6.024   5.495  1.00  0.00     0.014 A 
ATOM     40  C   UNL     1       6.808  -5.431   3.485  1.00  0.00     0.014 A 
ATOM     41  C   UNL     1       6.467  -5.101   6.256  1.00  0.00     0.010 A 
ATOM     42  C   UNL     1       7.636  -4.588   4.255  1.00  0.00     0.010 A 
ATOM     43  C   UNL     1       7.359  -4.248   5.614  1.00  0.00    -0.014 A 
BRANCH  43  44
ATOM     44  C   UNL     1       7.927  -2.942   6.161  1.00  0.00     0.031 A 
ATOM     45  C   UNL     1       9.291  -2.672   5.682  1.00  0.00     0.074 A 
ATOM     46  C   UNL     1       7.423  -1.889   6.881  1.00  0.00     0.049 A 
ATOM     47  N   UNL     1      10.336  -3.106   6.302  1.00  0.00    -0.248 NA
ATOM     48  C   UNL     1       9.556  -2.039   4.382  1.00  0.00     0.031 C 
ATOM     49  C   UNL     1       6.130  -1.755   7.537  1.00  0.00     0.029 A 
ATOM     50  N   UNL     1       7.966  -0.622   7.114  1.00  0.00    -0.354 N 
ATOM     51  C   UNL     1      11.394  -2.584   5.600  1.00  0.00     0.074 A 
ATOM     52  C   UNL     1      10.872  -2.252   4.297  1.00  0.00     0.031 C 
ATOM     53  C   UNL     1       5.914  -0.469   7.924  1.00  0.00     0.029 A 
ATOM     54  C   UNL     1       7.076   0.339   7.620  1.00  0.00     0.049 A 
ATOM     55  H   UNL     1       8.912  -0.417   6.936  1.00  0.00     0.167 HD
ATOM     56  C   UNL     1      12.490  -2.112   6.251  1.00  0.00     0.031 A 
ATOM     57  C   UNL     1       7.292   1.603   8.094  1.00  0.00     0.031 A 
ATOM     58  C   UNL     1      12.459  -2.418   7.670  1.00  0.00     0.049 A 
ATOM     59  C   UNL     1       8.627   1.590   8.704  1.00  0.00     0.074 A 
ATOM     60  C   UNL     1      12.236  -3.550   8.435  1.00  0.00     0.029 A 
ATOM     61  N   UNL     1      12.296  -1.361   8.535  1.00  0.00    -0.354 N 
ATOM     62  N   UNL     1       8.895   0.971   9.813  1.00  0.00    -0.248 NA
ATOM     63  C   UNL     1       9.760   1.958   7.884  1.00  0.00     0.031 C 
ATOM     64  C   UNL     1      11.510  -3.104   9.581  1.00  0.00     0.029 A 
ATOM     65  C   UNL     1      11.387  -1.719   9.498  1.00  0.00     0.049 A 
ATOM     66  H   UNL     1      12.754  -0.492   8.474  1.00  0.00     0.167 HD
ATOM     67  C   UNL     1      10.134   0.410   9.572  1.00  0.00     0.074 A 
ATOM     68  C   UNL     1      10.671   1.157   8.436  1.00  0.00     0.031 C 
ATOM     69  C   UNL     1      10.466  -0.794  10.121  1.00  0.00     0.031 A 
BRANCH  56  70
ATOM     70  C   UNL     1      13.351  -1.014   5.685  1.00  0.00    -0.014 A 
ATOM     71  C   UNL     1      14.570  -0.731   6.317  1.00  0.00     0.009 A 
ATOM     72  C   UNL     1      12.924  -0.107   4.695  1.00  0.00     0.009 A 
ATOM     73  C   UNL     1      15.296   0.421   6.001  1.00  0.00     0.001 A 
ATOM     74  C   UNL     1      13.672   1.013   4.336  1.00  0.00     0.001 A 
ATOM     75  C   UNL     1      14.850   1.290   5.008  1.00  0.00     0.000 A 
ENDBRANCH  56  70
BRANCH  57  76
ATOM     76  C   UNL     1       6.556   2.899   7.968  1.00  0.00    -0.014 A 
ATOM     77  C   UNL     1       6.913   4.017   8.759  1.00  0.00     0.009 A 
ATOM     78  C   UNL     1       5.730   3.150   6.861  1.00  0.00     0.009 A 
ATOM     79  C   UNL     1       6.518   5.324   8.423  1.00  0.00     0.001 A 
ATOM     80  C   UNL     1       5.332   4.459   6.525  1.00  0.00     0.001 A 
ATOM     81  C   UNL     1       5.741   5.547   7.293  1.00  0.00     0.000 A 
ENDBRANCH  57  76
BRANCH  69  82
ATOM     82  C   UNL     1       9.652  -1.295  11.295  1.00  0.00    -0.014 A 
ATOM     83  C   UNL     1       8.257  -1.480  11.272  1.00  0.00     0.009 A 
ATOM     84  C   UNL     1      10.345  -1.680  12.453  1.00  0.00     0.009 A 
ATOM     85  C   UNL     1       7.579  -1.998  12.383  1.00  0.00     0.001 A 
ATOM     86  C   UNL     1       9.673  -2.220  13.553  1.00  0.00     0.001 A 
ATOM     87  C   UNL     1       8.289  -2.373  13.521  1.00  0.00     0.000 A 
ENDBRANCH  69  82
ENDBRANCH  43  44
ENDBRANCH  35  38
ENDBRANCH  33  34
ENDBRANCH  32  33
ENDBRANCH  31  32
ENDBRANCH  30  31
ENDBRANCH   3  30
TORSDOF 17
