REMARK SMILES O=C(NCCCCNC(=O)c1ccccc1C(=O)N1CCOCCOCCOCC1)c1ccc(-c2c3nc(c(-c4ccccc4)c4ccc([nH]4)c(-c4ccccc4)c4nc(c(-c5ccccc5)c5ccc2[nH]5)C=C4)C=C3)cc1
REMARK SMILES IDX 11 1 12 2 13 3 14 4 15 5 16 6 9 7 8 8 10 10 7 11 6 12 5 13
REMARK SMILES IDX 4 14 3 15 1 16 2 17 31 19 32 20 78 21 33 22 77 23 34 24
REMARK SMILES IDX 35 25 36 26 71 27 37 28 76 29 70 30 72 31 38 32 75 33 69 34
REMARK SMILES IDX 68 35 39 37 61 38 46 39 60 40 47 41 50 42 59 43 73 44 48 45
REMARK SMILES IDX 49 46 58 48 74 49 51 50 40 51 41 52 45 53 42 54 44 55 43 56
REMARK SMILES IDX 62 57 63 58 67 59 64 60 66 61 65 62 52 63 53 64 57 65 54 66
REMARK SMILES IDX 56 67 55 68 17 69 18 70 19 71 20 72 21 73 22 74 23 75 30 77
REMARK SMILES IDX 29 78 28 79 27 80 26 81 25 82 24 83
REMARK H PARENT 8 9 3 18 72 36 50 47
REMARK Flexibility Score: 60.00
ROOT
ATOM      1  C   UNL     1       6.431  -1.000   6.635  1.00  0.00     0.052 A 
ATOM      2  C   UNL     1       6.874  -0.536   7.884  1.00  0.00     0.014 A 
ATOM      3  C   UNL     1       6.420  -1.131   9.063  1.00  0.00     0.001 A 
ATOM      4  C   UNL     1       5.534  -2.204   9.004  1.00  0.00     0.001 A 
ATOM      5  C   UNL     1       5.116  -2.693   7.766  1.00  0.00     0.014 A 
ATOM      6  C   UNL     1       5.583  -2.112   6.574  1.00  0.00     0.052 A 
ENDROOT
BRANCH   1   7
ATOM      7  C   UNL     1       6.989  -0.316   5.453  1.00  0.00     0.252 C 
ATOM      8  N   UNL     1       6.197   0.332   4.544  1.00  0.00    -0.352 N 
ATOM      9  H   UNL     1       6.680   0.769   3.805  1.00  0.00     0.163 HD
ATOM     10  O   UNL     1       8.211  -0.309   5.311  1.00  0.00    -0.269 OA
BRANCH   8  11
ATOM     11  C   UNL     1       4.753   0.473   4.505  1.00  0.00     0.116 C 
BRANCH  11  12
ATOM     12  C   UNL     1       4.293   1.751   3.806  1.00  0.00     0.023 C 
BRANCH  12  13
ATOM     13  C   UNL     1       4.779   1.955   2.365  1.00  0.00     0.023 C 
BRANCH  13  14
ATOM     14  C   UNL     1       4.517   0.822   1.378  1.00  0.00     0.116 C 
BRANCH  14  15
ATOM     15  N   UNL     1       3.114   0.479   1.230  1.00  0.00    -0.352 N 
ATOM     16  O   UNL     1       1.187   0.066   0.116  1.00  0.00    -0.269 OA
ATOM     17  C   UNL     1       2.398   0.260   0.076  1.00  0.00     0.251 C 
ATOM     18  H   UNL     1       2.606   0.392   2.069  1.00  0.00     0.163 HD
BRANCH  17  19
ATOM     19  C   UNL     1       3.084   0.322  -1.233  1.00  0.00     0.039 A 
ATOM     20  C   UNL     1       4.238  -0.426  -1.480  1.00  0.00     0.014 A 
ATOM     21  C   UNL     1       2.562   1.160  -2.223  1.00  0.00     0.014 A 
ATOM     22  C   UNL     1       4.939  -0.240  -2.672  1.00  0.00     0.010 A 
ATOM     23  C   UNL     1       3.237   1.306  -3.437  1.00  0.00     0.010 A 
ATOM     24  C   UNL     1       4.451   0.636  -3.657  1.00  0.00    -0.014 A 
BRANCH  24  25
ATOM     25  C   UNL     1       5.199   0.833  -4.925  1.00  0.00     0.031 A 
ATOM     26  C   UNL     1       5.850   2.152  -5.242  1.00  0.00     0.074 A 
ATOM     27  C   UNL     1       5.279  -0.180  -5.808  1.00  0.00     0.049 A 
ATOM     28  N   UNL     1       6.522   2.505  -6.311  1.00  0.00    -0.248 NA
ATOM     29  C   UNL     1       5.726   3.216  -4.233  1.00  0.00     0.031 C 
ATOM     30  C   UNL     1       4.679  -1.502  -5.629  1.00  0.00     0.029 A 
ATOM     31  N   UNL     1       5.892  -0.251  -7.032  1.00  0.00    -0.354 N 
ATOM     32  C   UNL     1       6.883   3.832  -6.113  1.00  0.00     0.074 A 
ATOM     33  C   UNL     1       6.339   4.229  -4.832  1.00  0.00     0.031 C 
ATOM     34  C   UNL     1       4.966  -2.260  -6.699  1.00  0.00     0.029 A 
ATOM     35  C   UNL     1       5.731  -1.464  -7.654  1.00  0.00     0.049 A 
ATOM     36  H   UNL     1       6.399   0.494  -7.427  1.00  0.00     0.167 HD
ATOM     37  C   UNL     1       7.605   4.645  -6.923  1.00  0.00     0.031 A 
ATOM     38  C   UNL     1       6.132  -1.888  -8.867  1.00  0.00     0.031 A 
ATOM     39  C   UNL     1       8.148   4.254  -8.197  1.00  0.00     0.049 A 
ATOM     40  C   UNL     1       6.909  -0.961  -9.755  1.00  0.00     0.074 A 
ATOM     41  C   UNL     1       8.937   4.995  -9.062  1.00  0.00     0.029 A 
ATOM     42  N   UNL     1       7.951   3.020  -8.796  1.00  0.00    -0.354 N 
ATOM     43  N   UNL     1       7.287   0.273  -9.529  1.00  0.00    -0.248 NA
ATOM     44  C   UNL     1       7.316  -1.489 -11.065  1.00  0.00     0.031 C 
ATOM     45  C   UNL     1       9.176   4.225 -10.206  1.00  0.00     0.029 A 
ATOM     46  C   UNL     1       8.577   2.988 -10.031  1.00  0.00     0.049 A 
ATOM     47  H   UNL     1       7.441   2.276  -8.401  1.00  0.00     0.167 HD
ATOM     48  C   UNL     1       7.987   0.666 -10.661  1.00  0.00     0.074 A 
ATOM     49  C   UNL     1       7.998  -0.467 -11.564  1.00  0.00     0.031 C 
ATOM     50  C   UNL     1       8.569   1.861 -10.927  1.00  0.00     0.031 A 
BRANCH  37  51
ATOM     51  C   UNL     1       7.830   6.059  -6.463  1.00  0.00    -0.014 A 
ATOM     52  C   UNL     1       8.725   6.355  -5.423  1.00  0.00     0.009 A 
ATOM     53  C   UNL     1       7.171   7.114  -7.113  1.00  0.00     0.009 A 
ATOM     54  C   UNL     1       8.931   7.677  -5.023  1.00  0.00     0.001 A 
ATOM     55  C   UNL     1       7.396   8.437  -6.726  1.00  0.00     0.001 A 
ATOM     56  C   UNL     1       8.269   8.717  -5.677  1.00  0.00     0.000 A 
ENDBRANCH  37  51
BRANCH  38  57
ATOM     57  C   UNL     1       5.786  -3.261  -9.310  1.00  0.00    -0.014 A 
ATOM     58  C   UNL     1       6.766  -4.262  -9.369  1.00  0.00     0.009 A 
ATOM     59  C   UNL     1       4.461  -3.582  -9.648  1.00  0.00     0.009 A 
ATOM     60  C   UNL     1       6.428  -5.556  -9.770  1.00  0.00     0.001 A 
ATOM     61  C   UNL     1       4.122  -4.882 -10.023  1.00  0.00     0.001 A 
ATOM     62  C   UNL     1       5.107  -5.867 -10.089  1.00  0.00     0.000 A 
ENDBRANCH  38  57
BRANCH  50  63
ATOM     63  C   UNL     1       9.280   1.996 -12.243  1.00  0.00    -0.014 A 
ATOM     64  C   UNL     1       8.563   2.129 -13.442  1.00  0.00     0.009 A 
ATOM     65  C   UNL     1      10.682   2.018 -12.279  1.00  0.00     0.009 A 
ATOM     66  C   UNL     1       9.240   2.252 -14.657  1.00  0.00     0.001 A 
ATOM     67  C   UNL     1      11.356   2.165 -13.493  1.00  0.00     0.001 A 
ATOM     68  C   UNL     1      10.635   2.273 -14.681  1.00  0.00     0.000 A 
ENDBRANCH  50  63
ENDBRANCH  24  25
ENDBRANCH  17  19
ENDBRANCH  14  15
ENDBRANCH  13  14
ENDBRANCH  12  13
ENDBRANCH  11  12
ENDBRANCH   8  11
ENDBRANCH   1   7
BRANCH   6  69
ATOM     69  C   UNL     1       5.005  -2.625   5.318  1.00  0.00     0.254 C 
ATOM     70  O   UNL     1       3.775  -2.629   5.289  1.00  0.00    -0.269 OA
ATOM     71  N   UNL     1       5.809  -3.018   4.250  1.00  0.00    -0.334 N 
BRANCH  71  72
ATOM     72  C   UNL     1       5.269  -2.917   2.882  1.00  0.00     0.148 C 
BRANCH  72  73
ATOM     73  C   UNL     1       3.801  -3.286   2.614  1.00  0.00     0.181 C 
BRANCH  73  74
ATOM     74  O   UNL     1       3.486  -3.084   1.226  1.00  0.00    -0.377 OA
BRANCH  74  75
ATOM     75  C   UNL     1       3.273  -4.293   0.488  1.00  0.00     0.188 CG0
ATOM     76  G   UNL     1       4.594  -4.852  -0.040  1.00  0.00     0.000 G0
ENDBRANCH  74  75
ENDBRANCH  73  74
ENDBRANCH  72  73
ENDBRANCH  71  72
BRANCH  71  77
ATOM     77  C   UNL     1       7.262  -3.294   4.366  1.00  0.00     0.148 C 
BRANCH  77  78
ATOM     78  C   UNL     1       7.647  -4.730   3.970  1.00  0.00     0.181 C 
BRANCH  78  79
ATOM     79  O   UNL     1       7.712  -4.825   2.549  1.00  0.00    -0.377 OA
BRANCH  79  80
ATOM     80  C   UNL     1       7.355  -6.108   2.025  1.00  0.00     0.188 C 
BRANCH  80  81
ATOM     81  C   UNL     1       6.617  -5.874   0.704  1.00  0.00     0.188 C 
BRANCH  81  82
ATOM     82  O   UNL     1       5.263  -5.530   1.022  1.00  0.00    -0.377 OA
BRANCH  82  83
ATOM     83  C   UNL     1       4.594  -4.852  -0.040  1.00  0.00     0.188 CG0
ATOM     84  G   UNL     1       3.273  -4.293   0.488  1.00  0.00     0.000 G0
ENDBRANCH  82  83
ENDBRANCH  81  82
ENDBRANCH  80  81
ENDBRANCH  79  80
ENDBRANCH  78  79
ENDBRANCH  77  78
ENDBRANCH  71  77
ENDBRANCH   6  69
TORSDOF 12
