REMARK SMILES CSc1ccc(CNc2ccc(N3CCOCC3)c(C(=O)NCCCCNC(=O)c3ccc(-c4c5nc(c(-c6ccccc6)c6ccc([nH]6)c(-c6ccccc6)c6nc(c(-c7ccccc7)c7ccc4[nH]7)C=C6)C=C5)cc3)c2)cc1
REMARK SMILES IDX 23 1 22 2 20 3 21 4 19 6 9 7 10 8 78 9 11 10 12 11 8 12 7 14
REMARK SMILES IDX 6 15 3 16 4 17 80 18 5 19 79 20 2 21 1 22 13 23 14 24 18 25
REMARK SMILES IDX 15 26 17 27 16 28 24 29 25 30 26 31 27 32 28 33 29 35 30 36
REMARK SMILES IDX 31 37 77 38 32 39 76 40 33 41 34 42 35 43 70 44 36 45 75 46
REMARK SMILES IDX 69 47 71 48 37 49 74 50 68 51 67 52 38 54 60 55 45 56 59 57
REMARK SMILES IDX 46 58 49 59 58 60 72 61 47 62 48 63 57 65 73 66 50 67 39 68
REMARK SMILES IDX 40 69 44 70 41 71 43 72 42 73 61 74 62 75 66 76 63 77 65 78
REMARK SMILES IDX 64 79 51 80 52 81 56 82 53 83 55 84 54 85
REMARK H PARENT 22 5 8 13 27 34 71 53 49 64
REMARK Flexibility Score: inf
ROOT
ATOM      1  C   UNL     1       1.963   6.099  -9.049  1.00  0.00     0.116 C 
ENDROOT
BRANCH   1   2
ATOM      2  N   UNL     1       2.593   5.553 -10.243  1.00  0.00    -0.352 N 
ATOM      3  C   UNL     1       3.591   4.603 -10.408  1.00  0.00     0.253 C 
ATOM      4  O   UNL     1       3.810   4.232 -11.559  1.00  0.00    -0.269 OA
ATOM      5  H   UNL     1       2.248   5.925 -11.087  1.00  0.00     0.163 HD
BRANCH   3   6
ATOM      6  C   UNL     1       4.378   4.081  -9.244  1.00  0.00     0.065 A 
ATOM      7  C   UNL     1       4.345   3.609  -6.833  1.00  0.00     0.035 A 
ATOM      8  C   UNL     1       5.724   3.431  -6.887  1.00  0.00     0.028 A 
ATOM      9  C   UNL     1       3.695   3.855  -8.040  1.00  0.00     0.041 A 
ATOM     10  C   UNL     1       6.403   3.460  -8.109  1.00  0.00     0.029 A 
ATOM     11  C   UNL     1       5.746   3.756  -9.317  1.00  0.00     0.050 A 
BRANCH   7  12
ATOM     12  N   UNL     1       3.688   3.508  -5.628  1.00  0.00    -0.381 N 
ATOM     13  H   UNL     1       4.235   3.296  -4.838  1.00  0.00     0.160 HD
BRANCH  12  14
ATOM     14  C   UNL     1       2.263   3.687  -5.417  1.00  0.00     0.148 C 
BRANCH  14  15
ATOM     15  C   UNL     1       1.756   2.647  -4.450  1.00  0.00    -0.029 A 
ATOM     16  C   UNL     1       0.750   0.685  -2.708  1.00  0.00     0.007 A 
ATOM     17  C   UNL     1       1.641   0.330  -3.721  1.00  0.00     0.015 A 
ATOM     18  C   UNL     1       0.336   2.015  -2.589  1.00  0.00     0.015 A 
ATOM     19  C   UNL     1       2.134   1.302  -4.590  1.00  0.00     0.007 A 
ATOM     20  C   UNL     1       0.834   2.992  -3.454  1.00  0.00     0.007 A 
BRANCH  16  21
ATOM     21  S   UNL     1       0.145  -0.569  -1.597  1.00  0.00    -0.130 SA
ATOM     22  C   UNL     1       0.902   0.029  -0.064  1.00  0.00     0.091 C 
ENDBRANCH  16  21
ENDBRANCH  14  15
ENDBRANCH  12  14
ENDBRANCH   7  12
BRANCH  11  23
ATOM     23  N   UNL     1       6.438   3.583 -10.495  1.00  0.00    -0.366 N 
ATOM     24  C   UNL     1       6.891   4.682 -11.344  1.00  0.00     0.145 C 
ATOM     25  C   UNL     1       6.937   2.247 -10.835  1.00  0.00     0.145 C 
ATOM     26  C   UNL     1       6.785   4.293 -12.834  1.00  0.00     0.181 C 
ATOM     27  C   UNL     1       6.716   1.994 -12.330  1.00  0.00     0.181 C 
ATOM     28  O   UNL     1       7.372   3.006 -13.115  1.00  0.00    -0.378 OA
ENDBRANCH  11  23
ENDBRANCH   3   6
ENDBRANCH   1   2
BRANCH   1  29
ATOM     29  C   UNL     1       1.614   7.581  -9.107  1.00  0.00     0.023 C 
BRANCH  29  30
ATOM     30  C   UNL     1       0.748   8.040 -10.271  1.00  0.00     0.023 C 
BRANCH  30  31
ATOM     31  C   UNL     1      -0.511   7.225 -10.538  1.00  0.00     0.116 C 
BRANCH  31  32
ATOM     32  N   UNL     1      -1.436   7.181  -9.414  1.00  0.00    -0.352 N 
ATOM     33  C   UNL     1      -2.753   7.581  -9.337  1.00  0.00     0.251 C 
ATOM     34  H   UNL     1      -1.064   6.809  -8.582  1.00  0.00     0.163 HD
ATOM     35  O   UNL     1      -3.352   7.535  -8.273  1.00  0.00    -0.269 OA
BRANCH  33  36
ATOM     36  C   UNL     1      -3.424   8.118 -10.541  1.00  0.00     0.039 A 
ATOM     37  C   UNL     1      -4.069   9.355 -10.455  1.00  0.00     0.014 A 
ATOM     38  C   UNL     1      -3.364   7.437 -11.758  1.00  0.00     0.014 A 
ATOM     39  C   UNL     1      -4.548   9.966 -11.616  1.00  0.00     0.010 A 
ATOM     40  C   UNL     1      -3.773   8.079 -12.923  1.00  0.00     0.010 A 
ATOM     41  C   UNL     1      -4.345   9.360 -12.866  1.00  0.00    -0.014 A 
BRANCH  41  42
ATOM     42  C   UNL     1      -4.665  10.064 -14.133  1.00  0.00     0.031 A 
ATOM     43  C   UNL     1      -5.695   9.503 -15.072  1.00  0.00     0.074 A 
ATOM     44  C   UNL     1      -3.949  11.150 -14.489  1.00  0.00     0.049 A 
ATOM     45  N   UNL     1      -6.015   9.900 -16.277  1.00  0.00    -0.248 NA
ATOM     46  C   UNL     1      -6.444   8.326 -14.605  1.00  0.00     0.031 C 
ATOM     47  C   UNL     1      -2.893  11.772 -13.686  1.00  0.00     0.029 A 
ATOM     48  N   UNL     1      -3.988  11.911 -15.631  1.00  0.00    -0.354 N 
ATOM     49  C   UNL     1      -6.983   9.009 -16.721  1.00  0.00     0.074 A 
ATOM     50  C   UNL     1      -7.171   8.030 -15.672  1.00  0.00     0.031 C 
ATOM     51  C   UNL     1      -2.396  12.826 -14.353  1.00  0.00     0.029 A 
ATOM     52  C   UNL     1      -3.061  12.926 -15.648  1.00  0.00     0.049 A 
ATOM     53  H   UNL     1      -4.619  11.746 -16.368  1.00  0.00     0.167 HD
ATOM     54  C   UNL     1      -7.664   9.013 -17.892  1.00  0.00     0.031 A 
ATOM     55  C   UNL     1      -2.763  13.825 -16.605  1.00  0.00     0.031 A 
ATOM     56  C   UNL     1      -7.487   9.993 -18.929  1.00  0.00     0.049 A 
ATOM     57  C   UNL     1      -3.515  13.791 -17.906  1.00  0.00     0.074 A 
ATOM     58  C   UNL     1      -8.181  10.121 -20.119  1.00  0.00     0.029 A 
ATOM     59  N   UNL     1      -6.543  11.007 -18.903  1.00  0.00    -0.354 N 
ATOM     60  N   UNL     1      -4.478  12.985 -18.281  1.00  0.00    -0.248 NA
ATOM     61  C   UNL     1      -3.137  14.791 -18.915  1.00  0.00     0.031 C 
ATOM     62  C   UNL     1      -7.623  11.184 -20.837  1.00  0.00     0.029 A 
ATOM     63  C   UNL     1      -6.615  11.747 -20.071  1.00  0.00     0.049 A 
ATOM     64  H   UNL     1      -5.915  11.177 -18.164  1.00  0.00     0.167 HD
ATOM     65  C   UNL     1      -4.834  13.391 -19.560  1.00  0.00     0.074 A 
ATOM     66  C   UNL     1      -3.996  14.525 -19.890  1.00  0.00     0.031 C 
ATOM     67  C   UNL     1      -5.771  12.870 -20.387  1.00  0.00     0.031 A 
BRANCH  54  68
ATOM     68  C   UNL     1      -8.660   7.911 -18.115  1.00  0.00    -0.014 A 
ATOM     69  C   UNL     1      -9.871   7.872 -17.406  1.00  0.00     0.009 A 
ATOM     70  C   UNL     1      -8.401   6.920 -19.075  1.00  0.00     0.009 A 
ATOM     71  C   UNL     1     -10.787   6.842 -17.629  1.00  0.00     0.001 A 
ATOM     72  C   UNL     1      -9.331   5.907 -19.314  1.00  0.00     0.001 A 
ATOM     73  C   UNL     1     -10.518   5.863 -18.585  1.00  0.00     0.000 A 
ENDBRANCH  54  68
BRANCH  55  74
ATOM     74  C   UNL     1      -1.695  14.832 -16.375  1.00  0.00    -0.014 A 
ATOM     75  C   UNL     1      -2.023  16.183 -16.183  1.00  0.00     0.009 A 
ATOM     76  C   UNL     1      -0.345  14.451 -16.350  1.00  0.00     0.009 A 
ATOM     77  C   UNL     1      -1.018  17.135 -15.993  1.00  0.00     0.001 A 
ATOM     78  C   UNL     1       0.656  15.401 -16.134  1.00  0.00     0.001 A 
ATOM     79  C   UNL     1       0.319  16.742 -15.964  1.00  0.00     0.000 A 
ENDBRANCH  55  74
BRANCH  67  80
ATOM     80  C   UNL     1      -5.956  13.531 -21.722  1.00  0.00    -0.014 A 
ATOM     81  C   UNL     1      -5.023  13.351 -22.754  1.00  0.00     0.009 A 
ATOM     82  C   UNL     1      -7.106  14.298 -21.966  1.00  0.00     0.009 A 
ATOM     83  C   UNL     1      -5.228  13.946 -24.000  1.00  0.00     0.001 A 
ATOM     84  C   UNL     1      -7.320  14.870 -23.221  1.00  0.00     0.001 A 
ATOM     85  C   UNL     1      -6.379  14.699 -24.234  1.00  0.00     0.000 A 
ENDBRANCH  67  80
ENDBRANCH  41  42
ENDBRANCH  33  36
ENDBRANCH  31  32
ENDBRANCH  30  31
ENDBRANCH  29  30
ENDBRANCH   1  29
TORSDOF 16
