REMARK SMILES Cc1ccc([C@@H](C)Nc2ccc(N)cc2C(=O)NCCCCNC(=O)c2ccc(-c3c4nc(c(-c5ccccc5)c5ccc([nH]5)c(-c5ccccc5)c5nc(c(-c6ccccc6)c6ccc3[nH]6)C=C5)C=C4)cc2)cc1F
REMARK SMILES IDX 20 1 19 2 18 3 16 4 17 5 15 7 9 8 10 9 11 10 14 11 12 12
REMARK SMILES IDX 8 13 6 15 7 16 5 17 1 18 2 19 3 20 75 21 4 22 74 23 76 24
REMARK SMILES IDX 13 25 21 28 22 29 23 30 24 31 25 33 26 34 27 35 73 36 28 37
REMARK SMILES IDX 72 38 29 39 30 40 31 41 66 42 32 43 71 44 65 45 67 46 33 47
REMARK SMILES IDX 70 48 64 49 63 50 34 52 56 53 41 54 55 55 42 56 45 57 54 58
REMARK SMILES IDX 68 59 43 60 44 61 53 63 69 64 46 65 35 66 36 67 40 68 37 69
REMARK SMILES IDX 39 70 38 71 57 72 58 73 62 74 59 75 61 76 60 77 47 78 48 79
REMARK SMILES IDX 52 80 49 81 51 82 50 83
REMARK H PARENT 18 6 8 14 13 26 13 27 23 32 67 51 45 62
REMARK Flexibility Score: inf
ROOT
ATOM      1  C   UNL     1      -0.499  -1.050   0.454  1.00  0.00     0.023 C 
ENDROOT
BRANCH   1   2
ATOM      2  C   UNL     1      -0.707  -2.771   0.569  1.00  0.00     0.116 C 
BRANCH   2   3
ATOM      3  N   UNL     1      -0.873  -3.588  -0.628  1.00  0.00    -0.352 N 
ATOM      4  C   UNL     1      -1.863  -4.474  -0.979  1.00  0.00     0.253 C 
ATOM      5  O   UNL     1      -1.891  -4.924  -2.123  1.00  0.00    -0.269 OA
ATOM      6  H   UNL     1      -0.157  -3.487  -1.296  1.00  0.00     0.163 HD
BRANCH   4   7
ATOM      7  C   UNL     1      -2.788  -5.003   0.046  1.00  0.00     0.065 A 
ATOM      8  C   UNL     1      -3.441  -4.232   1.013  1.00  0.00     0.048 A 
ATOM      9  C   UNL     1      -3.748  -4.913   2.207  1.00  0.00     0.028 A 
ATOM     10  C   UNL     1      -3.580  -6.300   2.347  1.00  0.00     0.027 A 
ATOM     11  C   UNL     1      -2.767  -6.413   0.123  1.00  0.00     0.041 A 
ATOM     12  C   UNL     1      -3.200  -7.077   1.262  1.00  0.00     0.032 A 
BRANCH   8  13
ATOM     13  N   UNL     1      -3.806  -2.900   0.927  1.00  0.00    -0.378 N 
ATOM     14  H   UNL     1      -4.139  -2.516   1.770  1.00  0.00     0.161 HD
BRANCH  13  15
ATOM     15  C   UNL     1      -3.784  -1.959  -0.199  1.00  0.00     0.106 C 
ATOM     16  C   UNL     1      -4.395  -2.483  -1.489  1.00  0.00     0.036 C 
BRANCH  15  17
ATOM     17  C   UNL     1      -2.478  -1.171  -0.217  1.00  0.00    -0.023 A 
ATOM     18  C   UNL     1       1.749   1.679   0.269  1.00  0.00     0.047 C 
ATOM     19  C   UNL     1       0.566   0.775   0.138  1.00  0.00    -0.015 A 
ATOM     20  C   UNL     1      -0.713   0.861   1.401  1.00  0.00     0.007 A 
ATOM     21  C   UNL     1       0.305  -0.249  -1.327  1.00  0.00     0.126 A 
ATOM     22  C   UNL     1      -2.202  -0.147   1.248  1.00  0.00     0.006 A 
ATOM     23  C   UNL     1      -1.214  -1.221  -1.512  1.00  0.00     0.045 A 
ATOM     24  F   UNL     1       1.259  -0.321  -2.263  1.00  0.00    -0.207 F 
ENDBRANCH  15  17
ENDBRANCH  13  15
ENDBRANCH   8  13
BRANCH  12  25
ATOM     25  N   UNL     1      -3.057  -8.451   1.371  1.00  0.00    -0.399 N 
ATOM     26  H   UNL     1      -3.367  -8.915   2.182  1.00  0.00     0.156 HD
ATOM     27  H   UNL     1      -2.646  -8.963   0.637  1.00  0.00     0.156 HD
ENDBRANCH  12  25
ENDBRANCH   4   7
ENDBRANCH   2   3
ENDBRANCH   1   2
BRANCH   1  28
ATOM     28  C   UNL     1      -1.456   0.630  -0.562  1.00  0.00     0.023 C 
BRANCH  28  29
ATOM     29  C   UNL     1      -2.967   1.393  -0.568  1.00  0.00     0.116 C 
BRANCH  29  30
ATOM     30  N   UNL     1      -3.242   2.313   0.544  1.00  0.00    -0.352 N 
ATOM     31  C   UNL     1      -3.015   3.661   0.661  1.00  0.00     0.251 C 
ATOM     32  H   UNL     1      -3.655   1.895   1.333  1.00  0.00     0.163 HD
ATOM     33  O   UNL     1      -2.942   4.183   1.769  1.00  0.00    -0.269 OA
BRANCH  31  34
ATOM     34  C   UNL     1      -2.909   4.487  -0.552  1.00  0.00     0.039 A 
ATOM     35  C   UNL     1      -2.001   5.548  -0.608  1.00  0.00     0.014 A 
ATOM     36  C   UNL     1      -3.761   4.223  -1.626  1.00  0.00     0.014 A 
ATOM     37  C   UNL     1      -1.916   6.309  -1.772  1.00  0.00     0.010 A 
ATOM     38  C   UNL     1      -3.591   4.897  -2.819  1.00  0.00     0.010 A 
ATOM     39  C   UNL     1      -2.691   5.966  -2.892  1.00  0.00    -0.014 A 
BRANCH  39  40
ATOM     40  C   UNL     1      -2.625   6.736  -4.149  1.00  0.00     0.031 A 
ATOM     41  C   UNL     1      -3.859   7.439  -4.644  1.00  0.00     0.074 A 
ATOM     42  C   UNL     1      -1.488   6.721  -4.867  1.00  0.00     0.049 A 
ATOM     43  N   UNL     1      -4.042   8.098  -5.757  1.00  0.00    -0.248 NA
ATOM     44  C   UNL     1      -5.061   7.353  -3.793  1.00  0.00     0.031 C 
ATOM     45  C   UNL     1      -0.258   6.019  -4.490  1.00  0.00     0.029 A 
ATOM     46  N   UNL     1      -1.181   7.310  -6.063  1.00  0.00    -0.354 N 
ATOM     47  C   UNL     1      -5.377   8.483  -5.746  1.00  0.00     0.074 A 
ATOM     48  C   UNL     1      -5.978   7.921  -4.559  1.00  0.00     0.031 C 
ATOM     49  C   UNL     1       0.685   6.258  -5.414  1.00  0.00     0.029 A 
ATOM     50  C   UNL     1       0.110   7.081  -6.471  1.00  0.00     0.049 A 
ATOM     51  H   UNL     1      -1.823   7.847  -6.581  1.00  0.00     0.167 HD
ATOM     52  C   UNL     1      -6.035   9.262  -6.635  1.00  0.00     0.031 A 
ATOM     53  C   UNL     1       0.749   7.489  -7.582  1.00  0.00     0.031 A 
ATOM     54  C   UNL     1      -5.412   9.813  -7.806  1.00  0.00     0.049 A 
ATOM     55  C   UNL     1      -0.008   8.341  -8.562  1.00  0.00     0.074 A 
ATOM     56  C   UNL     1      -5.953  10.658  -8.756  1.00  0.00     0.029 A 
ATOM     57  N   UNL     1      -4.099   9.566  -8.184  1.00  0.00    -0.354 N 
ATOM     58  N   UNL     1      -1.250   8.762  -8.504  1.00  0.00    -0.248 NA
ATOM     59  C   UNL     1       0.726   8.784  -9.753  1.00  0.00     0.031 C 
ATOM     60  C   UNL     1      -4.989  10.865  -9.746  1.00  0.00     0.029 A 
ATOM     61  C   UNL     1      -3.821  10.217  -9.371  1.00  0.00     0.049 A 
ATOM     62  H   UNL     1      -3.462   9.009  -7.681  1.00  0.00     0.167 HD
ATOM     63  C   UNL     1      -1.437   9.547  -9.634  1.00  0.00     0.074 A 
ATOM     64  C   UNL     1      -0.173   9.557 -10.345  1.00  0.00     0.031 C 
ATOM     65  C   UNL     1      -2.550  10.202 -10.050  1.00  0.00     0.031 A 
BRANCH  52  66
ATOM     66  C   UNL     1      -7.491   9.542  -6.373  1.00  0.00    -0.014 A 
ATOM     67  C   UNL     1      -7.905  10.296  -5.262  1.00  0.00     0.009 A 
ATOM     68  C   UNL     1      -8.465   9.056  -7.258  1.00  0.00     0.009 A 
ATOM     69  C   UNL     1      -9.263  10.517  -5.019  1.00  0.00     0.001 A 
ATOM     70  C   UNL     1      -9.820   9.310  -7.034  1.00  0.00     0.001 A 
ATOM     71  C   UNL     1     -10.219  10.029  -5.909  1.00  0.00     0.000 A 
ENDBRANCH  52  66
BRANCH  53  72
ATOM     72  C   UNL     1       2.171   7.117  -7.809  1.00  0.00    -0.014 A 
ATOM     73  C   UNL     1       3.178   8.095  -7.795  1.00  0.00     0.009 A 
ATOM     74  C   UNL     1       2.534   5.780  -8.036  1.00  0.00     0.009 A 
ATOM     75  C   UNL     1       4.510   7.747  -8.037  1.00  0.00     0.001 A 
ATOM     76  C   UNL     1       3.870   5.429  -8.242  1.00  0.00     0.001 A 
ATOM     77  C   UNL     1       4.855   6.414  -8.255  1.00  0.00     0.000 A 
ENDBRANCH  53  72
BRANCH  65  78
ATOM     78  C   UNL     1      -2.430  11.016 -11.307  1.00  0.00    -0.014 A 
ATOM     79  C   UNL     1      -2.279  10.410 -12.563  1.00  0.00     0.009 A 
ATOM     80  C   UNL     1      -2.519  12.415 -11.230  1.00  0.00     0.009 A 
ATOM     81  C   UNL     1      -2.176  11.193 -13.713  1.00  0.00     0.001 A 
ATOM     82  C   UNL     1      -2.459  13.193 -12.385  1.00  0.00     0.001 A 
ATOM     83  C   UNL     1      -2.275  12.582 -13.624  1.00  0.00     0.000 A 
ENDBRANCH  65  78
ENDBRANCH  39  40
ENDBRANCH  31  34
ENDBRANCH  29  30
ENDBRANCH  28  29
ENDBRANCH   1  28
TORSDOF 15
