REMARK SMILES Cc1nn2c(nnc3c(=O)n(CCCC(=O)NCCCCNC(=O)c4ccc(-c5c6nc(c(-c7ccccc7)c7ccc([nH]7)c(-c7ccccc7)c7nc(c(-c8ccccc8)c8ccc5[nH]8)C=C7)C=C6)cc4)ccc32)c1-c1ccc(F)cc1
REMARK SMILES IDX 18 1 17 2 15 3 16 4 14 6 13 7 12 8 11 9 1 10 2 11 3 12 76 13
REMARK SMILES IDX 4 14 5 15 75 16 6 17 8 18 74 19 7 20 9 21 73 22 10 23 77 24
REMARK SMILES IDX 78 25 83 26 79 27 82 28 80 29 81 30 19 31 20 32 21 33 22 34
REMARK SMILES IDX 23 35 24 37 25 38 26 39 72 40 27 41 71 42 28 43 29 44 30 45
REMARK SMILES IDX 65 46 31 47 70 48 64 49 66 50 32 51 69 52 63 53 62 54 33 56
REMARK SMILES IDX 55 57 40 58 54 59 41 60 44 61 53 62 67 63 42 64 43 65 52 67
REMARK SMILES IDX 68 68 45 69 34 70 35 71 39 72 36 73 38 74 37 75 56 76 57 77
REMARK SMILES IDX 61 78 58 79 60 80 59 81 46 82 47 83 51 84 48 85 50 86 49 87
REMARK H PARENT 17 5 22 36 66 55 44 66
REMARK Flexibility Score: inf
ROOT
ATOM      1  C   UNL     1      -3.852  -1.156  -8.513  1.00  0.00     0.116 C 
ENDROOT
BRANCH   1   2
ATOM      2  N   UNL     1      -3.576  -1.754  -9.798  1.00  0.00    -0.356 N 
ATOM      3  C   UNL     1      -2.479  -1.834 -10.584  1.00  0.00     0.220 C 
ATOM      4  O   UNL     1      -2.619  -2.554 -11.585  1.00  0.00    -0.275 OA
ATOM      5  H   UNL     1      -4.361  -2.203 -10.188  1.00  0.00     0.163 HD
BRANCH   3   6
ATOM      6  C   UNL     1      -1.107  -1.221 -10.326  1.00  0.00     0.102 C 
BRANCH   6   7
ATOM      7  C   UNL     1      -0.828   0.242  -9.973  1.00  0.00     0.032 C 
BRANCH   7   8
ATOM      8  C   UNL     1      -1.305   0.975  -8.711  1.00  0.00     0.126 C 
BRANCH   8   9
ATOM      9  N   UNL     1      -0.899   0.591  -7.340  1.00  0.00    -0.313 N 
ATOM     10  C   UNL     1       0.859   0.133   0.067  1.00  0.00     0.069 C 
ATOM     11  C   UNL     1       0.463  -0.399  -1.260  1.00  0.00     0.070 A 
ATOM     12  N   UNL     1       0.047   0.438  -2.225  1.00  0.00    -0.170 NA
ATOM     13  C   UNL     1       0.507  -1.739  -1.705  1.00  0.00     0.051 A 
ATOM     14  N   UNL     1      -0.120  -0.350  -3.322  1.00  0.00    -0.210 N 
ATOM     15  C   UNL     1       0.117  -1.684  -3.022  1.00  0.00     0.186 A 
ATOM     16  C   UNL     1      -0.429   0.003  -4.636  1.00  0.00     0.102 A 
ATOM     17  N   UNL     1      -0.011  -2.651  -3.972  1.00  0.00    -0.129 NA
ATOM     18  C   UNL     1      -0.444  -1.011  -5.516  1.00  0.00     0.177 A 
ATOM     19  C   UNL     1      -0.706   1.350  -5.076  1.00  0.00     0.049 A 
ATOM     20  N   UNL     1      -0.251  -2.331  -5.159  1.00  0.00    -0.141 NA
ATOM     21  C   UNL     1      -0.686  -0.735  -6.959  1.00  0.00     0.280 A 
ATOM     22  C   UNL     1      -0.931   1.598  -6.374  1.00  0.00     0.091 A 
ATOM     23  O   UNL     1      -0.731  -1.702  -7.709  1.00  0.00    -0.267 OA
BRANCH  13  24
ATOM     24  C   UNL     1       0.883  -2.989  -1.084  1.00  0.00    -0.012 A 
ATOM     25  C   UNL     1       0.054  -3.576  -0.122  1.00  0.00     0.012 A 
ATOM     26  C   UNL     1       2.013  -3.682  -1.550  1.00  0.00     0.012 A 
ATOM     27  C   UNL     1       0.345  -4.856   0.356  1.00  0.00     0.040 A 
ATOM     28  C   UNL     1       2.300  -4.958  -1.069  1.00  0.00     0.040 A 
ATOM     29  C   UNL     1       1.461  -5.535  -0.125  1.00  0.00     0.123 A 
ATOM     30  F   UNL     1       1.721  -6.772   0.318  1.00  0.00    -0.207 F 
ENDBRANCH  13  24
ENDBRANCH   8   9
ENDBRANCH   7   8
ENDBRANCH   6   7
ENDBRANCH   3   6
ENDBRANCH   1   2
BRANCH   1  31
ATOM     31  C   UNL     1      -4.735   0.090  -8.635  1.00  0.00     0.023 C 
BRANCH  31  32
ATOM     32  C   UNL     1      -6.242  -0.182  -8.657  1.00  0.00     0.023 C 
BRANCH  32  33
ATOM     33  C   UNL     1      -6.798  -0.666  -7.323  1.00  0.00     0.116 C 
BRANCH  33  34
ATOM     34  N   UNL     1      -6.693   0.337  -6.266  1.00  0.00    -0.352 N 
ATOM     35  C   UNL     1      -7.088   0.206  -4.949  1.00  0.00     0.251 C 
ATOM     36  H   UNL     1      -6.297   1.201  -6.521  1.00  0.00     0.163 HD
ATOM     37  O   UNL     1      -7.294   1.180  -4.246  1.00  0.00    -0.269 OA
BRANCH  35  38
ATOM     38  C   UNL     1      -7.239  -1.153  -4.402  1.00  0.00     0.039 A 
ATOM     39  C   UNL     1      -8.366  -1.502  -3.654  1.00  0.00     0.014 A 
ATOM     40  C   UNL     1      -6.228  -2.079  -4.665  1.00  0.00     0.014 A 
ATOM     41  C   UNL     1      -8.500  -2.818  -3.223  1.00  0.00     0.010 A 
ATOM     42  C   UNL     1      -6.406  -3.398  -4.324  1.00  0.00     0.010 A 
ATOM     43  C   UNL     1      -7.520  -3.759  -3.572  1.00  0.00    -0.014 A 
BRANCH  43  44
ATOM     44  C   UNL     1      -7.694  -5.160  -3.227  1.00  0.00     0.031 A 
ATOM     45  C   UNL     1      -8.865  -5.830  -3.850  1.00  0.00     0.074 A 
ATOM     46  C   UNL     1      -6.758  -5.864  -2.560  1.00  0.00     0.049 A 
ATOM     47  N   UNL     1      -9.925  -6.267  -3.257  1.00  0.00    -0.248 NA
ATOM     48  C   UNL     1      -8.912  -5.939  -5.317  1.00  0.00     0.031 C 
ATOM     49  C   UNL     1      -5.409  -5.445  -2.163  1.00  0.00     0.029 A 
ATOM     50  N   UNL     1      -6.788  -7.171  -2.193  1.00  0.00    -0.354 N 
ATOM     51  C   UNL     1     -10.703  -6.865  -4.243  1.00  0.00     0.074 A 
ATOM     52  C   UNL     1     -10.107  -6.503  -5.505  1.00  0.00     0.031 C 
ATOM     53  C   UNL     1      -4.682  -6.534  -1.825  1.00  0.00     0.029 A 
ATOM     54  C   UNL     1      -5.556  -7.692  -1.820  1.00  0.00     0.049 A 
ATOM     55  H   UNL     1      -7.615  -7.705  -2.191  1.00  0.00     0.167 HD
ATOM     56  C   UNL     1     -11.651  -7.795  -3.942  1.00  0.00     0.031 A 
ATOM     57  C   UNL     1      -5.283  -8.995  -1.568  1.00  0.00     0.031 A 
ATOM     58  C   UNL     1     -11.937  -7.836  -2.533  1.00  0.00     0.049 A 
ATOM     59  C   UNL     1      -6.573  -9.650  -1.246  1.00  0.00     0.074 A 
ATOM     60  C   UNL     1     -12.431  -6.934  -1.614  1.00  0.00     0.029 A 
ATOM     61  N   UNL     1     -11.318  -8.823  -1.803  1.00  0.00    -0.354 N 
ATOM     62  N   UNL     1      -7.282  -9.360  -0.192  1.00  0.00    -0.248 NA
ATOM     63  C   UNL     1      -7.294 -10.312  -2.322  1.00  0.00     0.031 C 
ATOM     64  C   UNL     1     -11.667  -7.164  -0.432  1.00  0.00     0.029 A 
ATOM     65  C   UNL     1     -10.803  -8.234  -0.678  1.00  0.00     0.049 A 
ATOM     66  H   UNL     1     -11.257  -9.776  -2.043  1.00  0.00     0.167 HD
ATOM     67  C   UNL     1      -8.598  -9.399  -0.630  1.00  0.00     0.074 A 
ATOM     68  C   UNL     1      -8.548 -10.091  -1.917  1.00  0.00     0.031 C 
ATOM     69  C   UNL     1      -9.559  -8.623  -0.050  1.00  0.00     0.031 A 
BRANCH  56  70
ATOM     70  C   UNL     1     -12.037  -8.927  -4.855  1.00  0.00    -0.014 A 
ATOM     71  C   UNL     1     -13.139  -9.732  -4.517  1.00  0.00     0.009 A 
ATOM     72  C   UNL     1     -11.195  -9.396  -5.880  1.00  0.00     0.009 A 
ATOM     73  C   UNL     1     -13.358 -10.965  -5.145  1.00  0.00     0.001 A 
ATOM     74  C   UNL     1     -11.433 -10.607  -6.535  1.00  0.00     0.001 A 
ATOM     75  C   UNL     1     -12.502 -11.402  -6.151  1.00  0.00     0.000 A 
ENDBRANCH  56  70
BRANCH  57  76
ATOM     76  C   UNL     1      -4.062  -9.764  -1.906  1.00  0.00    -0.014 A 
ATOM     77  C   UNL     1      -3.893 -11.073  -1.423  1.00  0.00     0.009 A 
ATOM     78  C   UNL     1      -3.203  -9.333  -2.933  1.00  0.00     0.009 A 
ATOM     79  C   UNL     1      -2.946 -11.936  -1.991  1.00  0.00     0.001 A 
ATOM     80  C   UNL     1      -2.251 -10.193  -3.494  1.00  0.00     0.001 A 
ATOM     81  C   UNL     1      -2.138 -11.501  -3.038  1.00  0.00     0.000 A 
ENDBRANCH  57  76
BRANCH  69  82
ATOM     82  C   UNL     1      -9.210  -7.883   1.217  1.00  0.00    -0.014 A 
ATOM     83  C   UNL     1      -8.287  -6.821   1.248  1.00  0.00     0.009 A 
ATOM     84  C   UNL     1      -9.993  -8.120   2.355  1.00  0.00     0.009 A 
ATOM     85  C   UNL     1      -8.160  -6.019   2.388  1.00  0.00     0.001 A 
ATOM     86  C   UNL     1      -9.877  -7.309   3.486  1.00  0.00     0.001 A 
ATOM     87  C   UNL     1      -8.964  -6.256   3.501  1.00  0.00     0.000 A 
ENDBRANCH  69  82
ENDBRANCH  43  44
ENDBRANCH  35  38
ENDBRANCH  33  34
ENDBRANCH  32  33
ENDBRANCH  31  32
ENDBRANCH   1  31
TORSDOF 15
