REMARK SMILES O=C(NCCCCNC(=O)c1ccc(-c2ccn(C(F)F)c(=O)c2)cc1O)c1ccc(-c2c3nc(c(-c4ccccc4)c4ccc([nH]4)c(-c4ccccc4)c4nc(c(-c5ccccc5)c5ccc2[nH]5)C=C4)C=C3)cc1
REMARK SMILES IDX 5 1 4 2 3 3 1 4 2 5 28 7 29 8 75 9 30 10 74 11 31 12 32 13
REMARK SMILES IDX 33 14 68 15 34 16 73 17 67 18 69 19 35 20 72 21 66 22 65 23
REMARK SMILES IDX 36 25 58 26 43 27 57 28 44 29 47 30 56 31 70 32 45 33 46 34
REMARK SMILES IDX 55 36 71 37 48 38 37 39 38 40 42 41 39 42 41 43 40 44 59 45
REMARK SMILES IDX 60 46 64 47 61 48 63 49 62 50 49 51 50 52 54 53 51 54 53 55
REMARK SMILES IDX 52 56 6 57 7 58 8 59 9 60 10 62 11 63 12 64 26 65 13 66
REMARK SMILES IDX 25 67 14 68 27 69 15 71 16 72 24 73 17 74 22 75 18 76 23 77
REMARK SMILES IDX 19 78 20 79 21 80
REMARK H PARENT 3 6 69 24 47 35 8 61 27 70
REMARK Flexibility Score: inf
ROOT
ATOM      1  C   UNL     1       4.978  -0.972  -2.320  1.00  0.00     0.023 C 
ENDROOT
BRANCH   1   2
ATOM      2  C   UNL     1       4.612  -0.017  -1.192  1.00  0.00     0.116 C 
BRANCH   2   3
ATOM      3  N   UNL     1       3.175   0.143  -1.031  1.00  0.00    -0.352 N 
ATOM      4  O   UNL     1       1.165  -0.027  -0.026  1.00  0.00    -0.269 OA
ATOM      5  C   UNL     1       2.390  -0.068   0.074  1.00  0.00     0.251 C 
ATOM      6  H   UNL     1       2.694   0.448  -1.834  1.00  0.00     0.163 HD
BRANCH   5   7
ATOM      7  C   UNL     1       3.009  -0.359   1.385  1.00  0.00     0.039 A 
ATOM      8  C   UNL     1       2.430  -1.331   2.207  1.00  0.00     0.014 A 
ATOM      9  C   UNL     1       4.138   0.339   1.821  1.00  0.00     0.014 A 
ATOM     10  C   UNL     1       3.002  -1.621   3.447  1.00  0.00     0.010 A 
ATOM     11  C   UNL     1       4.766  -0.024   3.007  1.00  0.00     0.010 A 
ATOM     12  C   UNL     1       4.185  -0.982   3.850  1.00  0.00    -0.014 A 
BRANCH  12  13
ATOM     13  C   UNL     1       4.788  -1.237   5.183  1.00  0.00     0.031 A 
ATOM     14  C   UNL     1       4.882  -0.115   6.183  1.00  0.00     0.074 A 
ATOM     15  C   UNL     1       5.272  -2.455   5.489  1.00  0.00     0.049 A 
ATOM     16  N   UNL     1       5.415  -0.118   7.379  1.00  0.00    -0.248 NA
ATOM     17  C   UNL     1       4.324   1.188   5.780  1.00  0.00     0.031 C 
ATOM     18  C   UNL     1       5.253  -3.620   4.603  1.00  0.00     0.029 A 
ATOM     19  N   UNL     1       5.869  -2.918   6.636  1.00  0.00    -0.354 N 
ATOM     20  C   UNL     1       5.263   1.177   7.859  1.00  0.00     0.074 A 
ATOM     21  C   UNL     1       4.660   1.957   6.804  1.00  0.00     0.031 C 
ATOM     22  C   UNL     1       5.771  -4.673   5.254  1.00  0.00     0.029 A 
ATOM     23  C   UNL     1       6.205  -4.250   6.583  1.00  0.00     0.049 A 
ATOM     24  H   UNL     1       6.040  -2.350   7.421  1.00  0.00     0.167 HD
ATOM     25  C   UNL     1       5.564   1.666   9.084  1.00  0.00     0.031 A 
ATOM     26  C   UNL     1       6.794  -5.043   7.500  1.00  0.00     0.031 A 
ATOM     27  C   UNL     1       6.147   0.883  10.139  1.00  0.00     0.049 A 
ATOM     28  C   UNL     1       7.159  -4.470   8.843  1.00  0.00     0.074 A 
ATOM     29  C   UNL     1       6.461   1.281  11.426  1.00  0.00     0.029 A 
ATOM     30  N   UNL     1       6.494  -0.454  10.034  1.00  0.00    -0.354 N 
ATOM     31  N   UNL     1       6.977  -3.253   9.296  1.00  0.00    -0.248 NA
ATOM     32  C   UNL     1       7.798  -5.379   9.805  1.00  0.00     0.031 C 
ATOM     33  C   UNL     1       7.062   0.204  12.078  1.00  0.00     0.029 A 
ATOM     34  C   UNL     1       7.044  -0.890  11.227  1.00  0.00     0.049 A 
ATOM     35  H   UNL     1       6.369  -1.011   9.231  1.00  0.00     0.167 HD
ATOM     36  C   UNL     1       7.454  -3.255  10.601  1.00  0.00     0.074 A 
ATOM     37  C   UNL     1       7.919  -4.599  10.873  1.00  0.00     0.031 C 
ATOM     38  C   UNL     1       7.503  -2.232  11.489  1.00  0.00     0.031 A 
BRANCH  25  39
ATOM     39  C   UNL     1       5.252   3.112   9.362  1.00  0.00    -0.014 A 
ATOM     40  C   UNL     1       6.291   4.018   9.628  1.00  0.00     0.009 A 
ATOM     41  C   UNL     1       3.924   3.564   9.443  1.00  0.00     0.009 A 
ATOM     42  C   UNL     1       6.008   5.338   9.983  1.00  0.00     0.001 A 
ATOM     43  C   UNL     1       3.645   4.894   9.761  1.00  0.00     0.001 A 
ATOM     44  C   UNL     1       4.686   5.776  10.044  1.00  0.00     0.000 A 
ENDBRANCH  25  39
BRANCH  26  45
ATOM     45  C   UNL     1       7.022  -6.478   7.179  1.00  0.00    -0.014 A 
ATOM     46  C   UNL     1       7.940  -6.855   6.184  1.00  0.00     0.009 A 
ATOM     47  C   UNL     1       6.268  -7.477   7.814  1.00  0.00     0.009 A 
ATOM     48  C   UNL     1       8.071  -8.194   5.807  1.00  0.00     0.001 A 
ATOM     49  C   UNL     1       6.425  -8.819   7.458  1.00  0.00     0.001 A 
ATOM     50  C   UNL     1       7.315  -9.175   6.446  1.00  0.00     0.000 A 
ENDBRANCH  26  45
BRANCH  38  51
ATOM     51  C   UNL     1       8.062  -2.504  12.860  1.00  0.00    -0.014 A 
ATOM     52  C   UNL     1       7.225  -2.408  13.984  1.00  0.00     0.009 A 
ATOM     53  C   UNL     1       9.434  -2.721  13.054  1.00  0.00     0.009 A 
ATOM     54  C   UNL     1       7.752  -2.495  15.273  1.00  0.00     0.001 A 
ATOM     55  C   UNL     1       9.954  -2.844  14.344  1.00  0.00     0.001 A 
ATOM     56  C   UNL     1       9.116  -2.717  15.452  1.00  0.00     0.000 A 
ENDBRANCH  38  51
ENDBRANCH  12  13
ENDBRANCH   5   7
ENDBRANCH   2   3
ENDBRANCH   1   2
BRANCH   1  57
ATOM     57  C   UNL     1       4.505  -0.546  -3.705  1.00  0.00     0.023 C 
BRANCH  57  58
ATOM     58  C   UNL     1       4.910   0.864  -4.119  1.00  0.00     0.116 C 
BRANCH  58  59
ATOM     59  N   UNL     1       6.352   1.042  -4.167  1.00  0.00    -0.352 N 
ATOM     60  C   UNL     1       7.111   1.542  -5.197  1.00  0.00     0.255 C 
ATOM     61  H   UNL     1       6.846   0.771  -3.360  1.00  0.00     0.163 HD
ATOM     62  O   UNL     1       8.336   1.567  -5.115  1.00  0.00    -0.269 OA
BRANCH  60  63
ATOM     63  C   UNL     1       6.449   1.967  -6.445  1.00  0.00     0.081 A 
ATOM     64  C   UNL     1       6.794   1.292  -7.622  1.00  0.00     0.018 A 
ATOM     65  C   UNL     1       5.474   2.969  -6.471  1.00  0.00     0.128 A 
ATOM     66  C   UNL     1       6.112   1.569  -8.808  1.00  0.00     0.010 A 
ATOM     67  C   UNL     1       4.785   3.236  -7.651  1.00  0.00     0.055 A 
ATOM     68  C   UNL     1       5.087   2.525  -8.823  1.00  0.00    -0.014 A 
BRANCH  65  69
ATOM     69  O   UNL     1       5.160   3.663  -5.335  1.00  0.00    -0.507 OA
ATOM     70  H   UNL     1       5.619   3.488  -4.537  1.00  0.00     0.293 HD
ENDBRANCH  65  69
BRANCH  68  71
ATOM     71  C   UNL     1       4.294   2.795 -10.035  1.00  0.00    -0.011 A 
ATOM     72  C   UNL     1       4.210   4.115 -10.629  1.00  0.00     0.027 A 
ATOM     73  C   UNL     1       3.551   1.798 -10.549  1.00  0.00     0.080 A 
ATOM     74  C   UNL     1       3.369   4.353 -11.641  1.00  0.00     0.095 A 
ATOM     75  C   UNL     1       2.628   2.043 -11.692  1.00  0.00     0.255 A 
ATOM     76  N   UNL     1       2.580   3.346 -12.162  1.00  0.00    -0.258 N 
ATOM     77  O   UNL     1       1.967   1.102 -12.120  1.00  0.00    -0.269 OA
BRANCH  76  78
ATOM     78  C   UNL     1       1.641   3.626 -13.217  1.00  0.00     0.451 C 
ATOM     79  F   UNL     1       1.882   2.859 -14.307  1.00  0.00    -0.185 F 
ATOM     80  F   UNL     1       0.371   3.389 -12.807  1.00  0.00    -0.185 F 
ENDBRANCH  76  78
ENDBRANCH  68  71
ENDBRANCH  60  63
ENDBRANCH  58  59
ENDBRANCH  57  58
ENDBRANCH   1  57
TORSDOF 14
