REMARK SMILES Cc1cccc(-n2c(C)cc(/C=N\c3ccc(O)c(C(=O)NCCCCNC(=O)c4ccc(-c5c6nc(c(-c7ccccc7)c7ccc([nH]7)c(-c7ccccc7)c7nc(c(-c8ccccc8)c8ccc5[nH]8)C=C7)C=C6)cc4)c3)c2C)c1
REMARK SMILES IDX 24 1 23 2 22 3 20 4 21 5 19 7 14 8 15 9 78 10 16 11 17 12
REMARK SMILES IDX 13 13 12 14 11 15 7 16 8 17 79 18 9 19 10 20 80 21 6 22 1 23
REMARK SMILES IDX 2 24 3 25 81 26 4 27 5 28 18 29 25 31 26 32 27 33 28 34
REMARK SMILES IDX 29 36 30 37 31 38 77 39 32 40 76 41 33 42 34 43 35 44 70 45
REMARK SMILES IDX 36 46 75 47 69 48 71 49 37 50 74 51 68 52 67 53 38 55 60 56
REMARK SMILES IDX 45 57 59 58 46 59 49 60 58 61 72 62 47 63 48 64 57 66 73 67
REMARK SMILES IDX 50 68 39 69 40 70 44 71 41 72 43 73 42 74 61 75 62 76 66 77
REMARK SMILES IDX 63 78 65 79 64 80 51 81 52 82 56 83 53 84 55 85 54 86
REMARK H PARENT 22 6 18 30 27 35 71 54 49 65
REMARK Flexibility Score: inf
ROOT
ATOM      1  C   UNL     1      -3.941  -1.299   8.083  1.00  0.00     0.023 C 
ENDROOT
BRANCH   1   2
ATOM      2  C   UNL     1      -3.835  -1.112   6.574  1.00  0.00     0.116 C 
BRANCH   2   3
ATOM      3  N   UNL     1      -5.068  -0.795   5.868  1.00  0.00    -0.352 N 
ATOM      4  C   UNL     1      -5.356   0.155   4.909  1.00  0.00     0.255 C 
ATOM      5  O   UNL     1      -6.492   0.147   4.431  1.00  0.00    -0.269 OA
ATOM      6  H   UNL     1      -5.834  -1.360   6.120  1.00  0.00     0.163 HD
BRANCH   4   7
ATOM      7  C   UNL     1      -4.385   1.192   4.445  1.00  0.00     0.083 A 
ATOM      8  C   UNL     1      -4.063   3.363   3.372  1.00  0.00     0.064 A 
ATOM      9  C   UNL     1      -2.696   3.294   3.632  1.00  0.00     0.032 A 
ATOM     10  C   UNL     1      -4.911   2.378   3.904  1.00  0.00     0.046 A 
ATOM     11  C   UNL     1      -2.155   2.113   4.123  1.00  0.00     0.049 A 
ATOM     12  C   UNL     1      -2.998   1.034   4.385  1.00  0.00     0.128 A 
BRANCH   8  13
ATOM     13  N   UNL     1      -4.600   4.360   2.555  1.00  0.00    -0.256 NA
ATOM     14  C   UNL     1      -4.239   4.528   1.312  1.00  0.00     0.121 C 
BRANCH  14  15
ATOM     15  C   UNL     1      -3.269   3.807   0.477  1.00  0.00     0.014 A 
ATOM     16  N   UNL     1      -1.876   2.301  -0.489  1.00  0.00    -0.318 N 
ATOM     17  C   UNL     1      -1.646   3.519  -1.108  1.00  0.00     0.021 A 
ATOM     18  C   UNL     1      -2.996   2.443   0.339  1.00  0.00     0.029 A 
ATOM     19  C   UNL     1      -0.732   3.693  -2.273  1.00  0.00     0.065 C 
ATOM     20  C   UNL     1      -2.460   4.455  -0.503  1.00  0.00     0.033 A 
ATOM     21  C   UNL     1      -3.651   1.268   0.973  1.00  0.00     0.065 C 
BRANCH  16  22
ATOM     22  C   UNL     1      -1.060   1.135  -0.613  1.00  0.00     0.046 A 
ATOM     23  C   UNL     1       2.582   0.152  -0.019  1.00  0.00     0.044 C 
ATOM     24  C   UNL     1       1.115   0.079  -0.329  1.00  0.00    -0.049 A 
ATOM     25  C   UNL     1       0.519  -1.172  -0.534  1.00  0.00     0.003 A 
ATOM     26  C   UNL     1       0.320   1.236  -0.375  1.00  0.00     0.030 A 
ATOM     27  C   UNL     1      -0.842  -1.267  -0.819  1.00  0.00     0.002 A 
ATOM     28  C   UNL     1      -1.627  -0.116  -0.872  1.00  0.00     0.026 A 
ENDBRANCH  16  22
ENDBRANCH  14  15
ENDBRANCH   8  13
BRANCH  12  29
ATOM     29  O   UNL     1      -2.379  -0.189   4.372  1.00  0.00    -0.507 OA
ATOM     30  H   UNL     1      -1.445  -0.241   4.330  1.00  0.00     0.293 HD
ENDBRANCH  12  29
ENDBRANCH   4   7
ENDBRANCH   2   3
ENDBRANCH   1   2
BRANCH   1  31
ATOM     31  C   UNL     1      -4.887  -2.367   8.600  1.00  0.00     0.023 C 
BRANCH  31  32
ATOM     32  C   UNL     1      -4.665  -3.777   8.081  1.00  0.00     0.116 C 
BRANCH  32  33
ATOM     33  N   UNL     1      -3.519  -4.492   8.616  1.00  0.00    -0.352 N 
ATOM     34  C   UNL     1      -3.095  -5.788   8.370  1.00  0.00     0.251 C 
ATOM     35  H   UNL     1      -2.961  -3.981   9.245  1.00  0.00     0.163 HD
ATOM     36  O   UNL     1      -2.130  -6.225   9.002  1.00  0.00    -0.269 OA
BRANCH  34  37
ATOM     37  C   UNL     1      -3.686  -6.619   7.280  1.00  0.00     0.039 A 
ATOM     38  C   UNL     1      -2.868  -7.569   6.644  1.00  0.00     0.014 A 
ATOM     39  C   UNL     1      -4.954  -6.380   6.763  1.00  0.00     0.014 A 
ATOM     40  C   UNL     1      -3.225  -8.073   5.392  1.00  0.00     0.010 A 
ATOM     41  C   UNL     1      -5.258  -6.777   5.481  1.00  0.00     0.010 A 
ATOM     42  C   UNL     1      -4.369  -7.579   4.772  1.00  0.00    -0.014 A 
BRANCH  42  43
ATOM     43  C   UNL     1      -4.662  -7.704   3.354  1.00  0.00     0.031 A 
ATOM     44  C   UNL     1      -5.767  -8.549   2.870  1.00  0.00     0.074 A 
ATOM     45  C   UNL     1      -4.014  -6.893   2.492  1.00  0.00     0.049 A 
ATOM     46  N   UNL     1      -5.820  -9.040   1.678  1.00  0.00    -0.248 NA
ATOM     47  C   UNL     1      -6.906  -8.922   3.702  1.00  0.00     0.031 C 
ATOM     48  C   UNL     1      -4.358  -6.593   1.106  1.00  0.00     0.029 A 
ATOM     49  N   UNL     1      -2.771  -6.306   2.661  1.00  0.00    -0.354 N 
ATOM     50  C   UNL     1      -7.104  -9.489   1.487  1.00  0.00     0.074 A 
ATOM     51  C   UNL     1      -7.714  -9.482   2.797  1.00  0.00     0.031 C 
ATOM     52  C   UNL     1      -3.273  -6.097   0.487  1.00  0.00     0.029 A 
ATOM     53  C   UNL     1      -2.155  -6.205   1.411  1.00  0.00     0.049 A 
ATOM     54  H   UNL     1      -2.386  -6.009   3.518  1.00  0.00     0.167 HD
ATOM     55  C   UNL     1      -7.582  -9.659   0.223  1.00  0.00     0.031 A 
ATOM     56  C   UNL     1      -1.007  -6.903   1.160  1.00  0.00     0.031 A 
ATOM     57  C   UNL     1      -6.585  -9.335  -0.794  1.00  0.00     0.049 A 
ATOM     58  C   UNL     1      -1.165  -7.975   0.099  1.00  0.00     0.074 A 
ATOM     59  C   UNL     1      -6.399  -8.236  -1.618  1.00  0.00     0.029 A 
ATOM     60  N   UNL     1      -5.406 -10.069  -0.854  1.00  0.00    -0.354 N 
ATOM     61  N   UNL     1      -2.313  -8.409  -0.343  1.00  0.00    -0.248 NA
ATOM     62  C   UNL     1      -0.040  -8.665  -0.527  1.00  0.00     0.031 C 
ATOM     63  C   UNL     1      -5.080  -8.289  -2.138  1.00  0.00     0.029 A 
ATOM     64  C   UNL     1      -4.473  -9.431  -1.648  1.00  0.00     0.049 A 
ATOM     65  H   UNL     1      -5.257 -10.927  -0.394  1.00  0.00     0.167 HD
ATOM     66  C   UNL     1      -2.115  -9.398  -1.272  1.00  0.00     0.074 A 
ATOM     67  C   UNL     1      -0.670  -9.510  -1.363  1.00  0.00     0.031 C 
ATOM     68  C   UNL     1      -3.165 -10.036  -1.873  1.00  0.00     0.031 A 
BRANCH  55  69
ATOM     69  C   UNL     1      -9.055  -9.814  -0.055  1.00  0.00    -0.014 A 
ATOM     70  C   UNL     1      -9.618  -9.239  -1.208  1.00  0.00     0.009 A 
ATOM     71  C   UNL     1      -9.945 -10.477   0.807  1.00  0.00     0.009 A 
ATOM     72  C   UNL     1     -11.000  -9.229  -1.432  1.00  0.00     0.001 A 
ATOM     73  C   UNL     1     -11.333 -10.433   0.613  1.00  0.00     0.001 A 
ATOM     74  C   UNL     1     -11.861  -9.797  -0.503  1.00  0.00     0.000 A 
ENDBRANCH  55  69
BRANCH  56  75
ATOM     75  C   UNL     1      -0.110  -6.998   2.349  1.00  0.00    -0.014 A 
ATOM     76  C   UNL     1       0.475  -5.808   2.830  1.00  0.00     0.009 A 
ATOM     77  C   UNL     1      -0.151  -8.113   3.199  1.00  0.00     0.009 A 
ATOM     78  C   UNL     1       0.895  -5.700   4.159  1.00  0.00     0.001 A 
ATOM     79  C   UNL     1       0.284  -8.003   4.528  1.00  0.00     0.001 A 
ATOM     80  C   UNL     1       0.771  -6.790   5.016  1.00  0.00     0.000 A 
ENDBRANCH  56  75
BRANCH  68  81
ATOM     81  C   UNL     1      -3.110 -11.247  -2.781  1.00  0.00    -0.014 A 
ATOM     82  C   UNL     1      -2.009 -12.099  -2.925  1.00  0.00     0.009 A 
ATOM     83  C   UNL     1      -4.287 -11.630  -3.470  1.00  0.00     0.009 A 
ATOM     84  C   UNL     1      -2.071 -13.245  -3.735  1.00  0.00     0.001 A 
ATOM     85  C   UNL     1      -4.369 -12.792  -4.240  1.00  0.00     0.001 A 
ATOM     86  C   UNL     1      -3.252 -13.597  -4.382  1.00  0.00     0.000 A 
ENDBRANCH  68  81
ENDBRANCH  42  43
ENDBRANCH  34  37
ENDBRANCH  32  33
ENDBRANCH  31  32
ENDBRANCH   1  31
TORSDOF 15
