REMARK SMILES CSCC[C@@H](C(=O)NCCCCNC(=O)c1ccc(-c2c3nc(c(-c4ccccc4)c4ccc([nH]4)c(-c4ccccc4)c4nc(c(-c5ccccc5)c5ccc2[nH]5)C=C4)C=C3)cc1)N1C(=O)/C(=C/c2ccc(-c3ccccc3Cl)o2)SC1=S
REMARK SMILES IDX 10 1 9 2 8 3 6 4 7 5 5 7 4 8 3 9 2 10 1 11 64 12 65 13 82 14
REMARK SMILES IDX 66 15 67 16 81 17 83 18 68 19 69 20 70 21 80 22 71 23 72 24
REMARK SMILES IDX 73 25 74 26 78 27 75 28 77 29 79 30 76 31 11 32 12 33 13 34
REMARK SMILES IDX 14 35 15 37 16 38 17 39 63 40 18 41 62 42 19 43 20 44 21 45
REMARK SMILES IDX 56 46 22 47 61 48 55 49 57 50 23 51 60 52 54 53 53 54 24 56
REMARK SMILES IDX 46 57 31 58 45 59 32 60 35 61 44 62 58 63 33 64 34 65 43 67
REMARK SMILES IDX 59 68 36 69 25 70 26 71 30 72 27 73 29 74 28 75 47 76 48 77
REMARK SMILES IDX 52 78 49 79 51 80 50 81 37 82 38 83 42 84 39 85 41 86 40 87
REMARK H PARENT 8 6 13 36 57 55 35 66
REMARK Flexibility Score: inf
ROOT
ATOM      1  C   UNL     1       3.283  -2.728   1.682  1.00  0.00     0.023 C 
ENDROOT
BRANCH   1   2
ATOM      2  C   UNL     1       3.198  -1.763   0.501  1.00  0.00     0.116 C 
BRANCH   2   3
ATOM      3  N   UNL     1       3.447  -2.438  -0.748  1.00  0.00    -0.354 N 
ATOM      4  C   UNL     1       2.604  -2.711  -1.781  1.00  0.00     0.243 C 
ATOM      5  O   UNL     1       3.140  -3.159  -2.801  1.00  0.00    -0.273 OA
ATOM      6  H   UNL     1       4.372  -2.751  -0.874  1.00  0.00     0.163 HD
BRANCH   4   7
ATOM      7  C   UNL     1       1.073  -2.412  -1.704  1.00  0.00     0.182 C 
BRANCH   7   8
ATOM      8  C   UNL     1       0.270  -3.273  -0.705  1.00  0.00     0.046 C 
BRANCH   8   9
ATOM      9  C   UNL     1      -0.184  -2.643   0.616  1.00  0.00     0.072 C 
BRANCH   9  10
ATOM     10  S   UNL     1      -1.419  -1.308   0.476  1.00  0.00    -0.165 SA
ATOM     11  C   UNL     1      -0.367   0.163   0.368  1.00  0.00     0.085 C 
ENDBRANCH   9  10
ENDBRANCH   8   9
ENDBRANCH   7   8
BRANCH   7  12
ATOM     12  N   UNL     1       0.592  -2.599  -3.100  1.00  0.00    -0.280 N 
ATOM     13  C   UNL     1       0.461  -3.891  -3.598  1.00  0.00     0.267 C 
ATOM     14  C   UNL     1       0.447  -1.581  -4.019  1.00  0.00     0.149 C 
ATOM     15  O   UNL     1       0.604  -4.930  -2.966  1.00  0.00    -0.268 OA
ATOM     16  C   UNL     1       0.145  -3.865  -5.047  1.00  0.00     0.084 C 
ATOM     17  S   UNL     1       0.037  -2.243  -5.595  1.00  0.00    -0.054 SA
ATOM     18  S   UNL     1       0.613   0.063  -3.782  1.00  0.00    -0.052 S 
ATOM     19  C   UNL     1      -0.027  -5.003  -5.731  1.00  0.00     0.068 C 
BRANCH  19  20
ATOM     20  C   UNL     1      -0.322  -5.049  -7.118  1.00  0.00     0.128 A 
ATOM     21  C   UNL     1       0.361  -4.501  -8.198  1.00  0.00     0.051 A 
ATOM     22  O   UNL     1      -1.411  -5.726  -7.615  1.00  0.00    -0.457 OA
ATOM     23  C   UNL     1      -0.361  -4.816  -9.371  1.00  0.00     0.051 A 
ATOM     24  C   UNL     1      -1.458  -5.538  -8.961  1.00  0.00     0.136 A 
BRANCH  24  25
ATOM     25  C   UNL     1      -2.586  -6.130  -9.662  1.00  0.00     0.036 A 
ATOM     26  C   UNL     1      -2.325  -6.977 -10.753  1.00  0.00     0.013 A 
ATOM     27  C   UNL     1      -3.923  -5.851  -9.333  1.00  0.00     0.052 A 
ATOM     28  C   UNL     1      -3.369  -7.530 -11.498  1.00  0.00     0.001 A 
ATOM     29  C   UNL     1      -4.966  -6.406 -10.085  1.00  0.00     0.021 A 
ATOM     30  Cl  UNL     1      -4.366  -4.780  -8.046  1.00  0.00    -0.084 Cl
ATOM     31  C   UNL     1      -4.689  -7.241 -11.167  1.00  0.00     0.002 A 
ENDBRANCH  24  25
ENDBRANCH  19  20
ENDBRANCH   7  12
ENDBRANCH   4   7
ENDBRANCH   2   3
ENDBRANCH   1   2
BRANCH   1  32
ATOM     32  C   UNL     1       4.694  -2.888   2.247  1.00  0.00     0.023 C 
BRANCH  32  33
ATOM     33  C   UNL     1       5.278  -1.620   2.862  1.00  0.00     0.116 C 
BRANCH  33  34
ATOM     34  N   UNL     1       4.493  -1.086   3.966  1.00  0.00    -0.352 N 
ATOM     35  C   UNL     1       4.947  -0.464   5.109  1.00  0.00     0.251 C 
ATOM     36  H   UNL     1       3.516  -1.181   3.886  1.00  0.00     0.163 HD
ATOM     37  O   UNL     1       4.176  -0.133   5.995  1.00  0.00    -0.269 OA
BRANCH  35  38
ATOM     38  C   UNL     1       6.401  -0.254   5.261  1.00  0.00     0.039 A 
ATOM     39  C   UNL     1       7.039  -0.762   6.393  1.00  0.00     0.014 A 
ATOM     40  C   UNL     1       7.134   0.351   4.237  1.00  0.00     0.014 A 
ATOM     41  C   UNL     1       8.433  -0.740   6.459  1.00  0.00     0.010 A 
ATOM     42  C   UNL     1       8.521   0.301   4.270  1.00  0.00     0.010 A 
ATOM     43  C   UNL     1       9.184  -0.254   5.376  1.00  0.00    -0.014 A 
BRANCH  43  44
ATOM     44  C   UNL     1      10.666  -0.326   5.371  1.00  0.00     0.031 A 
ATOM     45  C   UNL     1      11.479   0.936   5.330  1.00  0.00     0.074 A 
ATOM     46  C   UNL     1      11.277  -1.526   5.327  1.00  0.00     0.049 A 
ATOM     47  N   UNL     1      12.776   1.079   5.234  1.00  0.00    -0.248 NA
ATOM     48  C   UNL     1      10.734   2.205   5.373  1.00  0.00     0.031 C 
ATOM     49  C   UNL     1      10.601  -2.826   5.311  1.00  0.00     0.029 A 
ATOM     50  N   UNL     1      12.611  -1.845   5.280  1.00  0.00    -0.354 N 
ATOM     51  C   UNL     1      12.999   2.448   5.186  1.00  0.00     0.074 A 
ATOM     52  C   UNL     1      11.704   3.092   5.209  1.00  0.00     0.031 C 
ATOM     53  C   UNL     1      11.525  -3.801   5.288  1.00  0.00     0.029 A 
ATOM     54  C   UNL     1      12.853  -3.197   5.250  1.00  0.00     0.049 A 
ATOM     55  H   UNL     1      13.327  -1.170   5.268  1.00  0.00     0.167 HD
ATOM     56  C   UNL     1      14.178   3.114   5.152  1.00  0.00     0.031 A 
ATOM     57  C   UNL     1      14.014  -3.876   5.197  1.00  0.00     0.031 A 
ATOM     58  C   UNL     1      15.466   2.479   5.145  1.00  0.00     0.049 A 
ATOM     59  C   UNL     1      15.310  -3.115   5.172  1.00  0.00     0.074 A 
ATOM     60  C   UNL     1      16.719   3.068   5.148  1.00  0.00     0.029 A 
ATOM     61  N   UNL     1      15.667   1.107   5.144  1.00  0.00    -0.354 N 
ATOM     62  N   UNL     1      15.505  -1.819   5.170  1.00  0.00    -0.248 NA
ATOM     63  C   UNL     1      16.545  -3.912   5.157  1.00  0.00     0.031 C 
ATOM     64  C   UNL     1      17.679   2.051   5.117  1.00  0.00     0.029 A 
ATOM     65  C   UNL     1      17.023   0.830   5.141  1.00  0.00     0.049 A 
ATOM     66  H   UNL     1      14.952   0.431   5.145  1.00  0.00     0.167 HD
ATOM     67  C   UNL     1      16.882  -1.644   5.175  1.00  0.00     0.074 A 
ATOM     68  C   UNL     1      17.473  -2.967   5.196  1.00  0.00     0.031 C 
ATOM     69  C   UNL     1      17.593  -0.491   5.162  1.00  0.00     0.031 A 
BRANCH  56  70
ATOM     70  C   UNL     1      14.116   4.615   5.128  1.00  0.00    -0.014 A 
ATOM     71  C   UNL     1      13.716   5.338   6.263  1.00  0.00     0.009 A 
ATOM     72  C   UNL     1      14.480   5.315   3.968  1.00  0.00     0.009 A 
ATOM     73  C   UNL     1      13.647   6.732   6.226  1.00  0.00     0.001 A 
ATOM     74  C   UNL     1      14.437   6.710   3.942  1.00  0.00     0.001 A 
ATOM     75  C   UNL     1      14.012   7.417   5.067  1.00  0.00     0.000 A 
ENDBRANCH  56  70
BRANCH  57  76
ATOM     76  C   UNL     1      14.005  -5.361   5.190  1.00  0.00    -0.014 A 
ATOM     77  C   UNL     1      14.396  -6.078   6.332  1.00  0.00     0.009 A 
ATOM     78  C   UNL     1      13.600  -6.070   4.049  1.00  0.00     0.009 A 
ATOM     79  C   UNL     1      14.402  -7.474   6.323  1.00  0.00     0.001 A 
ATOM     80  C   UNL     1      13.584  -7.466   4.051  1.00  0.00     0.001 A 
ATOM     81  C   UNL     1      13.992  -8.167   5.185  1.00  0.00     0.000 A 
ENDBRANCH  57  76
BRANCH  69  82
ATOM     82  C   UNL     1      19.090  -0.607   5.201  1.00  0.00    -0.014 A 
ATOM     83  C   UNL     1      19.817  -1.013   4.072  1.00  0.00     0.009 A 
ATOM     84  C   UNL     1      19.782  -0.256   6.370  1.00  0.00     0.009 A 
ATOM     85  C   UNL     1      21.210  -1.092   4.123  1.00  0.00     0.001 A 
ATOM     86  C   UNL     1      21.175  -0.312   6.410  1.00  0.00     0.001 A 
ATOM     87  C   UNL     1      21.887  -0.737   5.290  1.00  0.00     0.000 A 
ENDBRANCH  69  82
ENDBRANCH  43  44
ENDBRANCH  35  38
ENDBRANCH  33  34
ENDBRANCH  32  33
ENDBRANCH   1  32
TORSDOF 17
