REMARK SMILES O=C(NCCCCNC(=O)[C@H](CO)NC(=O)[C@H](Cc1c[nH]c2ccccc12)NC(=O)[C@H](Cc1ccc(O)cc1)NC(=O)c1ccc(F)cc1)c1ccc(-c2c3nc(c(-c4ccccc4)c4ccc([nH]4)c(-c4ccccc4)c4nc(c(-c5ccccc5)c5ccc2[nH]5)C=C4)C=C3)cc1
REMARK SMILES IDX 8 1 9 2 10 3 7 5 6 6 5 7 4 8 3 9 1 10 2 11 50 13 51 14 97 15
REMARK SMILES IDX 52 16 96 17 53 18 54 19 55 20 90 21 56 22 95 23 89 24 91 25
REMARK SMILES IDX 57 26 94 27 88 28 87 29 58 31 80 32 65 33 79 34 66 35 69 36
REMARK SMILES IDX 78 37 92 38 67 39 68 40 77 42 93 43 70 44 59 45 60 46 64 47
REMARK SMILES IDX 61 48 63 49 62 50 81 51 82 52 86 53 83 54 85 55 84 56 71 57
REMARK SMILES IDX 72 58 76 59 73 60 75 61 74 62 11 63 14 64 15 65 16 67 17 68
REMARK SMILES IDX 28 69 29 70 30 72 31 73 40 74 41 75 42 77 43 78 44 79 49 80
REMARK SMILES IDX 45 81 48 82 46 83 47 84 32 85 33 86 34 87 39 88 35 89 38 90
REMARK SMILES IDX 36 91 37 92 18 94 19 95 20 96 27 97 21 98 22 99 26 100
REMARK SMILES IDX 23 102 25 103 24 104 12 105 13 106
REMARK H PARENT 8 4 3 12 91 30 69 41 14 66 28 71 40 76 37 93 21 101 13 107
REMARK Flexibility Score: inf
ROOT
ATOM      1  N   UNL     1       4.129   8.219   0.775  1.00  0.00    -0.354 N 
ATOM      2  C   UNL     1       4.588   7.967  -0.476  1.00  0.00     0.244 C 
ATOM      3  O   UNL     1       3.729   7.625  -1.302  1.00  0.00    -0.273 OA
ATOM      4  H   UNL     1       3.146   8.211   0.838  1.00  0.00     0.163 HD
ENDROOT
BRANCH   1   5
ATOM      5  C   UNL     1       4.783   8.498   2.037  1.00  0.00     0.116 C 
BRANCH   5   6
ATOM      6  C   UNL     1       4.373   9.855   2.603  1.00  0.00     0.023 C 
BRANCH   6   7
ATOM      7  C   UNL     1       2.932   9.943   3.104  1.00  0.00     0.023 C 
BRANCH   7   8
ATOM      8  C   UNL     1       2.534   8.869   4.105  1.00  0.00     0.116 C 
BRANCH   8   9
ATOM      9  N   UNL     1       3.425   8.784   5.252  1.00  0.00    -0.352 N 
ATOM     10  O   UNL     1       3.954   8.492   7.431  1.00  0.00    -0.269 OA
ATOM     11  C   UNL     1       3.109   8.443   6.545  1.00  0.00     0.251 C 
ATOM     12  H   UNL     1       4.370   8.998   5.080  1.00  0.00     0.163 HD
BRANCH  11  13
ATOM     13  C   UNL     1       1.721   8.054   6.857  1.00  0.00     0.039 A 
ATOM     14  C   UNL     1       1.069   7.096   6.079  1.00  0.00     0.014 A 
ATOM     15  C   UNL     1       1.058   8.692   7.908  1.00  0.00     0.014 A 
ATOM     16  C   UNL     1      -0.287   6.871   6.268  1.00  0.00     0.010 A 
ATOM     17  C   UNL     1      -0.289   8.409   8.145  1.00  0.00     0.010 A 
ATOM     18  C   UNL     1      -0.977   7.519   7.307  1.00  0.00    -0.014 A 
BRANCH  18  19
ATOM     19  C   UNL     1      -2.403   7.190   7.528  1.00  0.00     0.031 A 
ATOM     20  C   UNL     1      -3.486   8.195   7.265  1.00  0.00     0.074 A 
ATOM     21  C   UNL     1      -2.712   5.937   7.912  1.00  0.00     0.049 A 
ATOM     22  N   UNL     1      -4.784   8.039   7.344  1.00  0.00    -0.248 NA
ATOM     23  C   UNL     1      -3.067   9.549   6.868  1.00  0.00     0.031 C 
ATOM     24  C   UNL     1      -1.738   4.880   8.200  1.00  0.00     0.029 A 
ATOM     25  N   UNL     1      -3.926   5.330   8.089  1.00  0.00    -0.354 N 
ATOM     26  C   UNL     1      -5.335   9.273   7.027  1.00  0.00     0.074 A 
ATOM     27  C   UNL     1      -4.233  10.174   6.765  1.00  0.00     0.031 C 
ATOM     28  C   UNL     1      -2.393   3.738   8.451  1.00  0.00     0.029 A 
ATOM     29  C   UNL     1      -3.827   3.995   8.396  1.00  0.00     0.049 A 
ATOM     30  H   UNL     1      -4.785   5.803   8.005  1.00  0.00     0.167 HD
ATOM     31  C   UNL     1      -6.643   9.621   6.962  1.00  0.00     0.031 A 
ATOM     32  C   UNL     1      -4.784   3.076   8.610  1.00  0.00     0.031 A 
ATOM     33  C   UNL     1      -7.737   8.722   7.218  1.00  0.00     0.049 A 
ATOM     34  C   UNL     1      -6.221   3.490   8.524  1.00  0.00     0.074 A 
ATOM     35  C   UNL     1      -9.096   8.981   7.171  1.00  0.00     0.029 A 
ATOM     36  N   UNL     1      -7.596   7.388   7.565  1.00  0.00    -0.354 N 
ATOM     37  N   UNL     1      -6.723   4.662   8.220  1.00  0.00    -0.248 NA
ATOM     38  C   UNL     1      -7.222   2.456   8.818  1.00  0.00     0.031 C 
ATOM     39  C   UNL     1      -9.778   7.808   7.519  1.00  0.00     0.029 A 
ATOM     40  C   UNL     1      -8.842   6.812   7.747  1.00  0.00     0.049 A 
ATOM     41  H   UNL     1      -6.737   6.918   7.667  1.00  0.00     0.167 HD
ATOM     42  C   UNL     1      -8.099   4.510   8.293  1.00  0.00     0.074 A 
ATOM     43  C   UNL     1      -8.352   3.125   8.636  1.00  0.00     0.031 C 
ATOM     44  C   UNL     1      -9.068   5.438   8.106  1.00  0.00     0.031 A 
BRANCH  31  45
ATOM     45  C   UNL     1      -6.965  11.047   6.621  1.00  0.00    -0.014 A 
ATOM     46  C   UNL     1      -6.887  11.511   5.299  1.00  0.00     0.009 A 
ATOM     47  C   UNL     1      -7.410  11.921   7.625  1.00  0.00     0.009 A 
ATOM     48  C   UNL     1      -7.231  12.830   4.994  1.00  0.00     0.001 A 
ATOM     49  C   UNL     1      -7.769  13.233   7.314  1.00  0.00     0.001 A 
ATOM     50  C   UNL     1      -7.675  13.688   5.999  1.00  0.00     0.000 A 
ENDBRANCH  31  45
BRANCH  32  51
ATOM     51  C   UNL     1      -4.403   1.680   8.932  1.00  0.00    -0.014 A 
ATOM     52  C   UNL     1      -4.571   0.660   7.985  1.00  0.00     0.009 A 
ATOM     53  C   UNL     1      -3.843   1.369  10.180  1.00  0.00     0.009 A 
ATOM     54  C   UNL     1      -4.196  -0.651   8.289  1.00  0.00     0.001 A 
ATOM     55  C   UNL     1      -3.447   0.063  10.472  1.00  0.00     0.001 A 
ATOM     56  C   UNL     1      -3.629  -0.946   9.528  1.00  0.00     0.000 A 
ENDBRANCH  32  51
BRANCH  44  57
ATOM     57  C   UNL     1     -10.482   4.972   8.278  1.00  0.00    -0.014 A 
ATOM     58  C   UNL     1     -11.017   4.766   9.559  1.00  0.00     0.009 A 
ATOM     59  C   UNL     1     -11.286   4.741   7.153  1.00  0.00     0.009 A 
ATOM     60  C   UNL     1     -12.324   4.303   9.708  1.00  0.00     0.001 A 
ATOM     61  C   UNL     1     -12.599   4.297   7.306  1.00  0.00     0.001 A 
ATOM     62  C   UNL     1     -13.114   4.070   8.583  1.00  0.00     0.000 A 
ENDBRANCH  44  57
ENDBRANCH  18  19
ENDBRANCH  11  13
ENDBRANCH   8   9
ENDBRANCH   7   8
ENDBRANCH   6   7
ENDBRANCH   5   6
ENDBRANCH   1   5
BRANCH   2  63
ATOM     63  C   UNL     1       6.048   8.171  -0.951  1.00  0.00     0.197 C 
BRANCH  63  64
ATOM     64  N   UNL     1       7.097   8.415   0.029  1.00  0.00    -0.340 N 
ATOM     65  C   UNL     1       7.666   9.547   0.518  1.00  0.00     0.243 C 
ATOM     66  H   UNL     1       7.470   7.590   0.417  1.00  0.00     0.164 HD
ATOM     67  O   UNL     1       8.574   9.346   1.335  1.00  0.00    -0.273 OA
BRANCH  65  68
ATOM     68  C   UNL     1       7.318  10.998   0.067  1.00  0.00     0.175 C 
BRANCH  68  69
ATOM     69  N   UNL     1       6.025  11.157  -0.614  1.00  0.00    -0.342 N 
ATOM     70  C   UNL     1       5.646  11.744  -1.782  1.00  0.00     0.243 C 
ATOM     71  H   UNL     1       5.274  10.754  -0.121  1.00  0.00     0.164 HD
ATOM     72  O   UNL     1       4.446  12.049  -1.825  1.00  0.00    -0.273 OA
BRANCH  70  73
ATOM     73  C   UNL     1       6.517  11.858  -3.063  1.00  0.00     0.176 C 
BRANCH  73  74
ATOM     74  N   UNL     1       7.934  12.073  -2.777  1.00  0.00    -0.340 N 
ATOM     75  C   UNL     1       8.718  13.191  -2.883  1.00  0.00     0.251 C 
ATOM     76  H   UNL     1       8.409  11.275  -2.452  1.00  0.00     0.164 HD
ATOM     77  O   UNL     1       9.889  13.129  -2.527  1.00  0.00    -0.269 OA
BRANCH  75  78
ATOM     78  C   UNL     1       8.222  14.413  -3.551  1.00  0.00     0.040 A 
ATOM     79  C   UNL     1       7.024  15.048  -3.205  1.00  0.00     0.017 A 
ATOM     80  C   UNL     1       9.017  14.929  -4.585  1.00  0.00     0.017 A 
ATOM     81  C   UNL     1       6.592  16.153  -3.942  1.00  0.00     0.040 A 
ATOM     82  C   UNL     1       8.588  16.039  -5.310  1.00  0.00     0.040 A 
ATOM     83  C   UNL     1       7.372  16.632  -4.991  1.00  0.00     0.123 A 
ATOM     84  F   UNL     1       6.946  17.683  -5.703  1.00  0.00    -0.207 F 
ENDBRANCH  75  78
ENDBRANCH  73  74
BRANCH  73  85
ATOM     85  C   UNL     1       6.363  10.639  -3.994  1.00  0.00     0.070 C 
BRANCH  85  86
ATOM     86  C   UNL     1       5.007  10.481  -4.646  1.00  0.00    -0.045 A 
ATOM     87  C   UNL     1       3.918   9.947  -3.941  1.00  0.00     0.007 A 
ATOM     88  C   UNL     1       4.815  10.857  -5.982  1.00  0.00     0.007 A 
ATOM     89  C   UNL     1       2.668   9.798  -4.545  1.00  0.00     0.046 A 
ATOM     90  C   UNL     1       3.568  10.701  -6.593  1.00  0.00     0.046 A 
ATOM     91  C   UNL     1       2.504  10.176  -5.870  1.00  0.00     0.115 A 
BRANCH  91  92
ATOM     92  O   UNL     1       1.303  10.046  -6.500  1.00  0.00    -0.508 OA
ATOM     93  H   UNL     1       0.567   9.694  -6.038  1.00  0.00     0.293 HD
ENDBRANCH  91  92
ENDBRANCH  85  86
ENDBRANCH  73  85
ENDBRANCH  70  73
ENDBRANCH  68  69
BRANCH  68  94
ATOM     94  C   UNL     1       7.380  11.878   1.350  1.00  0.00     0.072 C 
BRANCH  94  95
ATOM     95  C   UNL     1       7.249  13.367   1.179  1.00  0.00    -0.020 A 
ATOM     96  C   UNL     1       6.230  14.067   0.561  1.00  0.00     0.087 A 
ATOM     97  C   UNL     1       8.116  14.358   1.761  1.00  0.00     0.003 A 
ATOM     98  N   UNL     1       6.501  15.406   0.645  1.00  0.00    -0.361 N 
ATOM     99  C   UNL     1       7.628  15.614   1.399  1.00  0.00     0.046 A 
ATOM    100  C   UNL     1       9.257  14.304   2.590  1.00  0.00     0.010 A 
ATOM    101  H   UNL     1       5.964  16.117   0.226  1.00  0.00     0.166 HD
ATOM    102  C   UNL     1       8.232  16.812   1.797  1.00  0.00     0.026 A 
ATOM    103  C   UNL     1       9.862  15.493   3.017  1.00  0.00     0.001 A 
ATOM    104  C   UNL     1       9.358  16.728   2.619  1.00  0.00     0.002 A 
ENDBRANCH  94  95
ENDBRANCH  68  94
ENDBRANCH  65  68
ENDBRANCH  63  64
BRANCH  63 105
ATOM    105  C   UNL     1       6.413   6.954  -1.835  1.00  0.00     0.191 C 
BRANCH 105 106
ATOM    106  O   UNL     1       6.063   7.176  -3.200  1.00  0.00    -0.394 OA
ATOM    107  H   UNL     1       5.106   7.313  -3.270  1.00  0.00     0.210 HD
ENDBRANCH 105 106
ENDBRANCH  63 105
ENDBRANCH   2  63
TORSDOF 24
