REMARK SMILES Cc1ccc(C)c([C@H]2[NH2+][C@@H](C(=O)NCCCCNC(=O)c3ccc(-c4c5nc(c(-c6ccccc6)c6ccc([nH]6)c(-c6ccccc6)c6nc(c(-c7ccccc7)c7ccc4[nH]7)C=C6)C=C5)cc3)Cc3c2[nH]c2ccccc32)c1
REMARK SMILES IDX 16 1 15 2 14 3 13 4 11 5 12 6 10 8 8 9 9 10 71 11 70 14
REMARK SMILES IDX 72 15 69 16 78 17 73 18 77 20 74 21 76 22 75 23 7 24 1 25
REMARK SMILES IDX 2 26 3 27 79 28 4 29 5 30 6 31 17 32 18 33 19 34 20 36 21 37
REMARK SMILES IDX 22 38 68 39 23 40 67 41 24 42 25 43 26 44 61 45 27 46 66 47
REMARK SMILES IDX 60 48 62 49 28 50 65 51 59 52 58 53 29 55 51 56 36 57 50 58
REMARK SMILES IDX 37 59 40 60 49 61 63 62 38 63 39 64 48 66 64 67 41 68 30 69
REMARK SMILES IDX 31 70 35 71 32 72 34 73 33 74 52 75 53 76 57 77 54 78 56 79
REMARK SMILES IDX 55 80 42 81 43 82 47 83 44 84 46 85 45 86
REMARK H PARENT 13 7 9 12 9 13 72 19 18 35 62 54 40 65
REMARK Flexibility Score: inf
ROOT
ATOM      1  C   UNL     1      -2.512  10.328   0.155  1.00  0.00     0.023 C 
ENDROOT
BRANCH   1   2
ATOM      2  C   UNL     1      -2.445   8.907   0.738  1.00  0.00     0.023 C 
BRANCH   2   3
ATOM      3  C   UNL     1      -2.982   7.819  -0.192  1.00  0.00     0.116 C 
BRANCH   3   4
ATOM      4  N   UNL     1      -2.028   7.349  -1.165  1.00  0.00    -0.351 N 
ATOM      5  C   UNL     1      -1.223   6.269  -1.263  1.00  0.00     0.278 C 
ATOM      6  O   UNL     1      -0.625   6.161  -2.347  1.00  0.00    -0.268 OA
ATOM      7  H   UNL     1      -1.944   7.956  -1.936  1.00  0.00     0.163 HD
BRANCH   5   8
ATOM      8  C   UNL     1      -1.041   5.159  -0.205  1.00  0.00     0.277 C 
ATOM      9  C   UNL     1      -1.318   2.663  -0.064  1.00  0.00     0.262 C 
ATOM     10  N   UNL     1      -1.567   3.915  -0.816  1.00  0.00    -0.325 N 
ATOM     11  C   UNL     1      -1.394   2.928   1.426  1.00  0.00     0.083 A 
ATOM     12  H   UNL     1      -2.577   4.021  -0.919  1.00  0.00     0.347 HD
ATOM     13  H   UNL     1      -1.065   3.809  -1.698  1.00  0.00     0.347 HD
ATOM     14  C   UNL     1      -1.485   4.176   2.005  1.00  0.00    -0.006 A 
ATOM     15  N   UNL     1      -1.317   2.019   2.455  1.00  0.00    -0.353 N 
ATOM     16  C   UNL     1      -1.657   5.383   1.171  1.00  0.00     0.114 C 
ATOM     17  C   UNL     1      -1.482   4.044   3.406  1.00  0.00     0.003 A 
ATOM     18  C   UNL     1      -1.400   2.678   3.675  1.00  0.00     0.046 A 
ATOM     19  H   UNL     1      -1.216   1.046   2.344  1.00  0.00     0.166 HD
ATOM     20  C   UNL     1      -1.571   4.965   4.468  1.00  0.00     0.010 A 
ATOM     21  C   UNL     1      -1.422   2.190   4.989  1.00  0.00     0.026 A 
ATOM     22  C   UNL     1      -1.590   4.492   5.779  1.00  0.00     0.001 A 
ATOM     23  C   UNL     1      -1.522   3.124   6.032  1.00  0.00     0.002 A 
BRANCH   9  24
ATOM     24  C   UNL     1      -2.288   1.628  -0.648  1.00  0.00     0.019 A 
ATOM     25  C   UNL     1      -5.806   0.283   0.079  1.00  0.00     0.044 C 
ATOM     26  C   UNL     1      -4.486   0.518  -0.592  1.00  0.00    -0.051 A 
ATOM     27  C   UNL     1      -4.256  -0.001  -1.863  1.00  0.00     0.004 A 
ATOM     28  C   UNL     1      -3.510   1.337  -0.001  1.00  0.00     0.014 A 
ATOM     29  C   UNL     1      -3.060   0.267  -2.522  1.00  0.00     0.004 A 
ATOM     30  C   UNL     1      -2.071   1.078  -1.940  1.00  0.00    -0.042 A 
ATOM     31  C   UNL     1      -0.898   1.441  -2.816  1.00  0.00     0.045 C 
ENDBRANCH   9  24
ENDBRANCH   5   8
ENDBRANCH   3   4
ENDBRANCH   2   3
ENDBRANCH   1   2
BRANCH   1  32
ATOM     32  C   UNL     1      -3.915  10.912  -0.100  1.00  0.00     0.116 C 
BRANCH  32  33
ATOM     33  N   UNL     1      -4.763  11.034   1.104  1.00  0.00    -0.352 N 
ATOM     34  C   UNL     1      -6.137  10.893   1.256  1.00  0.00     0.251 C 
ATOM     35  H   UNL     1      -4.276  11.249   1.932  1.00  0.00     0.163 HD
ATOM     36  O   UNL     1      -6.719  11.446   2.207  1.00  0.00    -0.269 OA
BRANCH  34  37
ATOM     37  C   UNL     1      -6.915  10.032   0.347  1.00  0.00     0.039 A 
ATOM     38  C   UNL     1      -8.280  10.105   0.069  1.00  0.00     0.014 A 
ATOM     39  C   UNL     1      -6.199   9.014  -0.227  1.00  0.00     0.014 A 
ATOM     40  C   UNL     1      -8.842   9.136  -0.779  1.00  0.00     0.010 A 
ATOM     41  C   UNL     1      -6.640   8.495  -1.398  1.00  0.00     0.010 A 
ATOM     42  C   UNL     1      -7.989   8.287  -1.492  1.00  0.00    -0.014 A 
BRANCH  42  43
ATOM     43  C   UNL     1      -8.393   7.274  -2.452  1.00  0.00     0.031 A 
ATOM     44  C   UNL     1      -9.013   7.840  -3.663  1.00  0.00     0.074 A 
ATOM     45  C   UNL     1      -7.957   5.990  -2.433  1.00  0.00     0.049 A 
ATOM     46  N   UNL     1     -10.269   7.879  -3.949  1.00  0.00    -0.248 NA
ATOM     47  C   UNL     1      -8.158   8.622  -4.572  1.00  0.00     0.031 C 
ATOM     48  C   UNL     1      -6.971   5.356  -1.543  1.00  0.00     0.029 A 
ATOM     49  N   UNL     1      -8.232   4.991  -3.316  1.00  0.00    -0.354 N 
ATOM     50  C   UNL     1     -10.338   8.482  -5.196  1.00  0.00     0.074 A 
ATOM     51  C   UNL     1      -9.073   9.143  -5.390  1.00  0.00     0.031 C 
ATOM     52  C   UNL     1      -6.577   4.170  -2.069  1.00  0.00     0.029 A 
ATOM     53  C   UNL     1      -7.390   3.886  -3.239  1.00  0.00     0.049 A 
ATOM     54  H   UNL     1      -8.973   5.046  -3.962  1.00  0.00     0.167 HD
ATOM     55  C   UNL     1     -11.293   8.122  -6.098  1.00  0.00     0.031 A 
ATOM     56  C   UNL     1      -7.342   2.847  -4.113  1.00  0.00     0.031 A 
ATOM     57  C   UNL     1     -12.307   7.292  -5.488  1.00  0.00     0.049 A 
ATOM     58  C   UNL     1      -8.607   2.856  -4.888  1.00  0.00     0.074 A 
ATOM     59  C   UNL     1     -13.143   7.424  -4.394  1.00  0.00     0.029 A 
ATOM     60  N   UNL     1     -12.250   5.941  -5.750  1.00  0.00    -0.354 N 
ATOM     61  N   UNL     1      -9.772   2.607  -4.363  1.00  0.00    -0.248 NA
ATOM     62  C   UNL     1      -8.632   3.606  -6.135  1.00  0.00     0.031 C 
ATOM     63  C   UNL     1     -13.125   6.143  -3.764  1.00  0.00     0.029 A 
ATOM     64  C   UNL     1     -12.360   5.282  -4.553  1.00  0.00     0.049 A 
ATOM     65  H   UNL     1     -12.148   5.525  -6.636  1.00  0.00     0.167 HD
ATOM     66  C   UNL     1     -10.621   3.543  -4.938  1.00  0.00     0.074 A 
ATOM     67  C   UNL     1      -9.888   4.061  -6.093  1.00  0.00     0.031 C 
ATOM     68  C   UNL     1     -11.701   4.028  -4.256  1.00  0.00     0.031 A 
BRANCH  55  69
ATOM     69  C   UNL     1     -11.077   8.141  -7.592  1.00  0.00    -0.014 A 
ATOM     70  C   UNL     1     -12.155   7.791  -8.423  1.00  0.00     0.009 A 
ATOM     71  C   UNL     1      -9.812   8.227  -8.206  1.00  0.00     0.009 A 
ATOM     72  C   UNL     1     -11.962   7.465  -9.770  1.00  0.00     0.001 A 
ATOM     73  C   UNL     1      -9.622   7.948  -9.561  1.00  0.00     0.001 A 
ATOM     74  C   UNL     1     -10.693   7.536 -10.336  1.00  0.00     0.000 A 
ENDBRANCH  55  69
BRANCH  56  75
ATOM     75  C   UNL     1      -6.161   2.081  -4.572  1.00  0.00    -0.014 A 
ATOM     76  C   UNL     1      -6.304   0.838  -5.212  1.00  0.00     0.009 A 
ATOM     77  C   UNL     1      -4.907   2.713  -4.648  1.00  0.00     0.009 A 
ATOM     78  C   UNL     1      -5.243   0.272  -5.935  1.00  0.00     0.001 A 
ATOM     79  C   UNL     1      -3.853   2.155  -5.379  1.00  0.00     0.001 A 
ATOM     80  C   UNL     1      -4.025   0.941  -6.035  1.00  0.00     0.000 A 
ENDBRANCH  56  75
BRANCH  68  81
ATOM     81  C   UNL     1     -12.080   3.359  -2.955  1.00  0.00    -0.014 A 
ATOM     82  C   UNL     1     -11.222   3.289  -1.842  1.00  0.00     0.009 A 
ATOM     83  C   UNL     1     -13.403   2.920  -2.797  1.00  0.00     0.009 A 
ATOM     84  C   UNL     1     -11.668   2.770  -0.621  1.00  0.00     0.001 A 
ATOM     85  C   UNL     1     -13.854   2.421  -1.573  1.00  0.00     0.001 A 
ATOM     86  C   UNL     1     -12.986   2.341  -0.487  1.00  0.00     0.000 A 
ENDBRANCH  68  81
ENDBRANCH  42  43
ENDBRANCH  34  37
ENDBRANCH  32  33
ENDBRANCH   1  32
TORSDOF 12
