REMARK SMILES O=C(NCCCCNC(=O)c1ccc(-c2c3nc(c(-c4ccccc4)c4ccc([nH]4)c(-c4ccccc4)c4nc(c(-c5ccccc5)c5ccc2[nH]5)C=C4)C=C3)cc1)C1=Cc2c(ccc(Cl)c2Oc2ccccc2)O[C@H]1C(F)(F)F
REMARK SMILES IDX 5 1 4 2 3 3 1 4 2 5 59 7 60 8 76 9 61 10 75 11 62 12 67 13
REMARK SMILES IDX 63 14 65 15 64 16 66 17 77 18 78 19 79 20 80 21 68 22 69 23
REMARK SMILES IDX 70 24 74 25 71 26 73 27 72 28 6 29 7 30 8 31 9 32 10 34
REMARK SMILES IDX 11 35 12 36 58 37 13 38 57 39 14 40 15 41 16 42 51 43 17 44
REMARK SMILES IDX 56 45 50 46 52 47 18 48 55 49 49 50 48 51 19 53 41 54 26 55
REMARK SMILES IDX 40 56 27 57 30 58 39 59 53 60 28 61 29 62 38 64 54 65 31 66
REMARK SMILES IDX 20 67 21 68 25 69 22 70 24 71 23 72 42 73 43 74 47 75 44 76
REMARK SMILES IDX 46 77 45 78 32 79 33 80 37 81 34 82 36 83 35 84
REMARK H PARENT 3 6 8 33 52 52 30 63
REMARK Flexibility Score: inf
ROOT
ATOM      1  C   UNL     1       4.307   2.620   2.017  1.00  0.00     0.023 C 
ENDROOT
BRANCH   1   2
ATOM      2  C   UNL     1       3.851   1.425   1.186  1.00  0.00     0.116 C 
BRANCH   2   3
ATOM      3  N   UNL     1       2.672   1.683   0.379  1.00  0.00    -0.352 N 
ATOM      4  O   UNL     1       1.381   1.665  -1.465  1.00  0.00    -0.270 OA
ATOM      5  C   UNL     1       2.402   1.284  -0.901  1.00  0.00     0.251 C 
ATOM      6  H   UNL     1       1.970   2.219   0.813  1.00  0.00     0.163 HD
BRANCH   5   7
ATOM      7  C   UNL     1       3.347   0.412  -1.627  1.00  0.00     0.067 C 
ATOM      8  C   UNL     1       3.498  -0.862  -1.249  1.00  0.00     0.029 C 
ATOM      9  C   UNL     1       4.385   1.041  -2.497  1.00  0.00     0.314 C 
ATOM     10  C   UNL     1       4.827  -1.088  -0.629  1.00  0.00     0.061 A 
ATOM     11  O   UNL     1       5.741   0.690  -2.071  1.00  0.00    -0.475 OA
ATOM     12  C   UNL     1       5.883  -0.261  -1.082  1.00  0.00     0.131 A 
ATOM     13  C   UNL     1       5.012  -1.943   0.484  1.00  0.00     0.156 A 
ATOM     14  C   UNL     1       7.113  -0.272  -0.430  1.00  0.00     0.049 A 
ATOM     15  C   UNL     1       6.249  -1.895   1.153  1.00  0.00     0.084 A 
ATOM     16  C   UNL     1       7.287  -1.070   0.701  1.00  0.00     0.028 A 
ATOM     17  Cl  UNL     1       6.517  -2.790   2.610  1.00  0.00    -0.080 Cl
BRANCH   9  18
ATOM     18  C   UNL     1       4.179   0.675  -3.977  1.00  0.00     0.429 C 
ATOM     19  F   UNL     1       2.872   0.561  -4.307  1.00  0.00    -0.167 F 
ATOM     20  F   UNL     1       4.711   1.618  -4.790  1.00  0.00    -0.167 F 
ATOM     21  F   UNL     1       4.767  -0.506  -4.289  1.00  0.00    -0.167 F 
ENDBRANCH   9  18
BRANCH  13  22
ATOM     22  O   UNL     1       4.048  -2.753   1.077  1.00  0.00    -0.455 OA
BRANCH  22  23
ATOM     23  C   UNL     1       2.930  -3.094   0.359  1.00  0.00     0.127 A 
ATOM     24  C   UNL     1       1.726  -2.456   0.668  1.00  0.00     0.047 A 
ATOM     25  C   UNL     1       3.004  -4.011  -0.691  1.00  0.00     0.047 A 
ATOM     26  C   UNL     1       0.621  -2.638  -0.163  1.00  0.00     0.004 A 
ATOM     27  C   UNL     1       1.892  -4.197  -1.514  1.00  0.00     0.004 A 
ATOM     28  C   UNL     1       0.711  -3.493  -1.264  1.00  0.00     0.000 A 
ENDBRANCH  22  23
ENDBRANCH  13  22
ENDBRANCH   5   7
ENDBRANCH   2   3
ENDBRANCH   1   2
BRANCH   1  29
ATOM     29  C   UNL     1       3.985   2.537   3.505  1.00  0.00     0.023 C 
BRANCH  29  30
ATOM     30  C   UNL     1       4.538   1.324   4.256  1.00  0.00     0.116 C 
BRANCH  30  31
ATOM     31  N   UNL     1       5.983   1.167   4.176  1.00  0.00    -0.352 N 
ATOM     32  C   UNL     1       6.895   0.916   5.183  1.00  0.00     0.251 C 
ATOM     33  H   UNL     1       6.366   1.251   3.273  1.00  0.00     0.163 HD
ATOM     34  O   UNL     1       8.089   0.850   4.932  1.00  0.00    -0.269 OA
BRANCH  32  35
ATOM     35  C   UNL     1       6.422   0.794   6.582  1.00  0.00     0.039 A 
ATOM     36  C   UNL     1       7.029   1.583   7.564  1.00  0.00     0.014 A 
ATOM     37  C   UNL     1       5.344  -0.030   6.910  1.00  0.00     0.014 A 
ATOM     38  C   UNL     1       6.474   1.639   8.845  1.00  0.00     0.010 A 
ATOM     39  C   UNL     1       4.749   0.083   8.165  1.00  0.00     0.010 A 
ATOM     40  C   UNL     1       5.290   0.941   9.136  1.00  0.00    -0.014 A 
BRANCH  40  41
ATOM     41  C   UNL     1       4.569   1.149  10.419  1.00  0.00     0.031 A 
ATOM     42  C   UNL     1       4.389   0.017  11.391  1.00  0.00     0.074 A 
ATOM     43  C   UNL     1       3.999   2.344  10.673  1.00  0.00     0.049 A 
ATOM     44  N   UNL     1       3.739   0.003  12.527  1.00  0.00    -0.248 NA
ATOM     45  C   UNL     1       4.997  -1.272  11.027  1.00  0.00     0.031 C 
ATOM     46  C   UNL     1       4.052   3.516   9.795  1.00  0.00     0.029 A 
ATOM     47  N   UNL     1       3.254   2.770  11.746  1.00  0.00    -0.354 N 
ATOM     48  C   UNL     1       3.842  -1.297  13.004  1.00  0.00     0.074 A 
ATOM     49  C   UNL     1       4.581  -2.052  12.014  1.00  0.00     0.031 C 
ATOM     50  C   UNL     1       3.401   4.534  10.380  1.00  0.00     0.029 A 
ATOM     51  C   UNL     1       2.852   4.080  11.652  1.00  0.00     0.049 A 
ATOM     52  H   UNL     1       3.030   2.190  12.510  1.00  0.00     0.167 HD
ATOM     53  C   UNL     1       3.379  -1.816  14.167  1.00  0.00     0.031 A 
ATOM     54  C   UNL     1       2.122   4.835  12.495  1.00  0.00     0.031 A 
ATOM     55  C   UNL     1       2.655  -1.070  15.161  1.00  0.00     0.049 A 
ATOM     56  C   UNL     1       1.616   4.235  13.776  1.00  0.00     0.074 A 
ATOM     57  C   UNL     1       2.203  -1.496  16.399  1.00  0.00     0.029 A 
ATOM     58  N   UNL     1       2.274   0.255  15.030  1.00  0.00    -0.354 N 
ATOM     59  N   UNL     1       1.785   3.023  14.243  1.00  0.00    -0.248 NA
ATOM     60  C   UNL     1       0.824   5.115  14.649  1.00  0.00     0.031 C 
ATOM     61  C   UNL     1       1.514  -0.436  17.001  1.00  0.00     0.029 A 
ATOM     62  C   UNL     1       1.574   0.659  16.155  1.00  0.00     0.049 A 
ATOM     63  H   UNL     1       2.472   0.826  14.253  1.00  0.00     0.167 HD
ATOM     64  C   UNL     1       1.145   3.001  15.476  1.00  0.00     0.074 A 
ATOM     65  C   UNL     1       0.593   4.324  15.688  1.00  0.00     0.031 C 
ATOM     66  C   UNL     1       1.030   1.976  16.354  1.00  0.00     0.031 A 
BRANCH  53  67
ATOM     67  C   UNL     1       3.643  -3.273  14.418  1.00  0.00    -0.014 A 
ATOM     68  C   UNL     1       4.934  -3.735  14.720  1.00  0.00     0.009 A 
ATOM     69  C   UNL     1       2.585  -4.194  14.366  1.00  0.00     0.009 A 
ATOM     70  C   UNL     1       5.168  -5.096  14.924  1.00  0.00     0.001 A 
ATOM     71  C   UNL     1       2.818  -5.551  14.595  1.00  0.00     0.001 A 
ATOM     72  C   UNL     1       4.110  -6.002  14.863  1.00  0.00     0.000 A 
ENDBRANCH  53  67
BRANCH  54  73
ATOM     73  C   UNL     1       1.849   6.259  12.174  1.00  0.00    -0.014 A 
ATOM     74  C   UNL     1       2.515   7.278  12.872  1.00  0.00     0.009 A 
ATOM     75  C   UNL     1       0.923   6.607  11.180  1.00  0.00     0.009 A 
ATOM     76  C   UNL     1       2.241   8.619  12.597  1.00  0.00     0.001 A 
ATOM     77  C   UNL     1       0.669   7.950  10.891  1.00  0.00     0.001 A 
ATOM     78  C   UNL     1       1.321   8.954  11.604  1.00  0.00     0.000 A 
ENDBRANCH  54  73
BRANCH  66  79
ATOM     79  C   UNL     1       0.307   2.256  17.640  1.00  0.00    -0.014 A 
ATOM     80  C   UNL     1      -1.090   2.373  17.677  1.00  0.00     0.009 A 
ATOM     81  C   UNL     1       1.035   2.373  18.834  1.00  0.00     0.009 A 
ATOM     82  C   UNL     1      -1.743   2.631  18.885  1.00  0.00     0.001 A 
ATOM     83  C   UNL     1       0.377   2.607  20.043  1.00  0.00     0.001 A 
ATOM     84  C   UNL     1      -1.010   2.744  20.066  1.00  0.00     0.000 A 
ENDBRANCH  66  79
ENDBRANCH  40  41
ENDBRANCH  32  35
ENDBRANCH  30  31
ENDBRANCH  29  30
ENDBRANCH   1  29
TORSDOF 14
