REMARK SMILES Cc1nccn1C1(C(=O)NCCCCNC(=O)c2ccc(-c3c4nc(c(-c5ccccc5)c5ccc([nH]5)c(-c5ccccc5)c5nc(c(-c6ccccc6)c6ccc3[nH]6)C=C5)C=C4)cc2)CCN(C(=O)[C@@H]2C[C@H]2c2ccccc2)CC1
REMARK SMILES IDX 12 1 11 2 10 3 8 4 9 5 7 7 66 8 81 9 67 10 80 11 68 12 69 13
REMARK SMILES IDX 70 14 6 15 1 16 2 17 3 18 4 19 5 20 71 21 72 22 73 23 74 24
REMARK SMILES IDX 75 25 79 26 76 27 78 28 77 29 13 30 14 31 15 32 16 33 17 35
REMARK SMILES IDX 18 36 19 37 65 38 20 39 64 40 21 41 22 42 23 43 58 44 24 45
REMARK SMILES IDX 63 46 57 47 59 48 25 49 62 50 56 51 55 52 26 54 48 55 33 56
REMARK SMILES IDX 47 57 34 58 37 59 46 60 60 61 35 62 36 63 45 65 61 66 38 67
REMARK SMILES IDX 27 68 28 69 32 70 29 71 31 72 30 73 49 74 50 75 54 76 51 77
REMARK SMILES IDX 53 78 52 79 39 80 40 81 44 82 41 83 43 84 42 85
REMARK H PARENT 10 6 15 34 59 53 37 64
REMARK Flexibility Score: inf
ROOT
ATOM      1  C   UNL     1       1.387   6.169  -1.945  1.00  0.00     0.023 C 
ENDROOT
BRANCH   1   2
ATOM      2  C   UNL     1       0.209   5.241  -1.610  1.00  0.00     0.116 C 
BRANCH   2   3
ATOM      3  N   UNL     1      -0.164   4.391  -2.730  1.00  0.00    -0.354 N 
ATOM      4  C   UNL     1      -0.103   3.047  -2.991  1.00  0.00     0.246 C 
ATOM      5  O   UNL     1      -0.454   2.804  -4.149  1.00  0.00    -0.272 OA
ATOM      6  H   UNL     1      -0.553   4.901  -3.476  1.00  0.00     0.163 HD
BRANCH   4   7
ATOM      7  C   UNL     1       0.356   1.943  -1.931  1.00  0.00     0.127 C 
ATOM      8  C   UNL     1       1.809   2.331  -1.534  1.00  0.00     0.061 C 
ATOM      9  C   UNL     1      -0.689   2.006  -0.786  1.00  0.00     0.061 C 
ATOM     10  C   UNL     1       2.149   2.458  -0.044  1.00  0.00     0.122 C 
ATOM     11  C   UNL     1      -0.082   1.609   0.538  1.00  0.00     0.122 C 
ATOM     12  N   UNL     1       1.009   2.507   0.865  1.00  0.00    -0.342 N 
ATOM     13  C   UNL     1       1.199   3.205   2.064  1.00  0.00     0.226 C 
ATOM     14  O   UNL     1       2.324   3.581   2.393  1.00  0.00    -0.275 OA
BRANCH   7  15
ATOM     15  N   UNL     1       0.344   0.514  -2.470  1.00  0.00    -0.320 N 
ATOM     16  C   UNL     1       1.647  -0.943  -0.692  1.00  0.00     0.087 C 
ATOM     17  C   UNL     1       0.859  -0.678  -1.923  1.00  0.00     0.106 A 
ATOM     18  N   UNL     1       0.548  -1.720  -2.673  1.00  0.00    -0.242 NA
ATOM     19  C   UNL     1      -0.152  -1.252  -3.724  1.00  0.00     0.131 A 
ATOM     20  C   UNL     1      -0.314   0.101  -3.613  1.00  0.00     0.108 A 
ENDBRANCH   7  15
BRANCH  13  21
ATOM     21  C   UNL     1       0.082   3.640   2.958  1.00  0.00     0.087 C 
ATOM     22  C   UNL     1      -0.581   2.658   3.892  1.00  0.00     0.023 C 
ATOM     23  C   UNL     1      -1.384   3.354   2.826  1.00  0.00     0.032 C 
BRANCH  23  24
ATOM     24  C   UNL     1      -2.466   4.347   3.102  1.00  0.00    -0.044 A 
ATOM     25  C   UNL     1      -3.584   3.961   3.857  1.00  0.00     0.004 A 
ATOM     26  C   UNL     1      -2.547   5.529   2.349  1.00  0.00     0.004 A 
ATOM     27  C   UNL     1      -4.779   4.671   3.779  1.00  0.00     0.000 A 
ATOM     28  C   UNL     1      -3.742   6.243   2.269  1.00  0.00     0.000 A 
ATOM     29  C   UNL     1      -4.865   5.796   2.962  1.00  0.00     0.000 A 
ENDBRANCH  23  24
ENDBRANCH  13  21
ENDBRANCH   4   7
ENDBRANCH   2   3
ENDBRANCH   1   2
BRANCH   1  30
ATOM     30  C   UNL     1       1.162   7.200  -3.065  1.00  0.00     0.023 C 
BRANCH  30  31
ATOM     31  C   UNL     1       0.048   8.204  -2.803  1.00  0.00     0.116 C 
BRANCH  31  32
ATOM     32  N   UNL     1       0.302   9.057  -1.646  1.00  0.00    -0.352 N 
ATOM     33  C   UNL     1      -0.483  10.093  -1.170  1.00  0.00     0.251 C 
ATOM     34  H   UNL     1       1.129   8.873  -1.145  1.00  0.00     0.163 HD
ATOM     35  O   UNL     1      -0.024  10.944  -0.430  1.00  0.00    -0.269 OA
BRANCH  33  36
ATOM     36  C   UNL     1      -1.898  10.150  -1.584  1.00  0.00     0.039 A 
ATOM     37  C   UNL     1      -2.477  11.357  -1.983  1.00  0.00     0.014 A 
ATOM     38  C   UNL     1      -2.634   8.967  -1.594  1.00  0.00     0.014 A 
ATOM     39  C   UNL     1      -3.777  11.347  -2.484  1.00  0.00     0.010 A 
ATOM     40  C   UNL     1      -3.872   8.938  -2.194  1.00  0.00     0.010 A 
ATOM     41  C   UNL     1      -4.462  10.128  -2.615  1.00  0.00    -0.014 A 
BRANCH  41  42
ATOM     42  C   UNL     1      -5.736  10.072  -3.329  1.00  0.00     0.031 A 
ATOM     43  C   UNL     1      -5.711  10.640  -4.707  1.00  0.00     0.074 A 
ATOM     44  C   UNL     1      -6.804   9.368  -2.895  1.00  0.00     0.049 A 
ATOM     45  N   UNL     1      -6.383  11.649  -5.153  1.00  0.00    -0.248 NA
ATOM     46  C   UNL     1      -4.753  10.087  -5.680  1.00  0.00     0.031 C 
ATOM     47  C   UNL     1      -6.904   8.506  -1.712  1.00  0.00     0.029 A 
ATOM     48  N   UNL     1      -8.007   9.174  -3.506  1.00  0.00    -0.354 N 
ATOM     49  C   UNL     1      -6.077  11.756  -6.507  1.00  0.00     0.074 A 
ATOM     50  C   UNL     1      -4.966  10.868  -6.741  1.00  0.00     0.031 C 
ATOM     51  C   UNL     1      -7.987   7.705  -1.825  1.00  0.00     0.029 A 
ATOM     52  C   UNL     1      -8.745   8.114  -2.993  1.00  0.00     0.049 A 
ATOM     53  H   UNL     1      -8.325   9.738  -4.248  1.00  0.00     0.167 HD
ATOM     54  C   UNL     1      -6.907  12.399  -7.375  1.00  0.00     0.031 A 
ATOM     55  C   UNL     1      -9.888   7.592  -3.502  1.00  0.00     0.031 A 
ATOM     56  C   UNL     1      -7.873  13.215  -6.686  1.00  0.00     0.049 A 
ATOM     57  C   UNL     1     -10.482   8.606  -4.398  1.00  0.00     0.074 A 
ATOM     58  C   UNL     1      -7.801  14.280  -5.810  1.00  0.00     0.029 A 
ATOM     59  N   UNL     1      -9.143  12.707  -6.556  1.00  0.00    -0.354 N 
ATOM     60  N   UNL     1     -10.994   9.722  -3.970  1.00  0.00    -0.248 NA
ATOM     61  C   UNL     1     -10.121   8.584  -5.806  1.00  0.00     0.031 C 
ATOM     62  C   UNL     1      -8.836  14.038  -4.858  1.00  0.00     0.029 A 
ATOM     63  C   UNL     1      -9.525  12.890  -5.252  1.00  0.00     0.049 A 
ATOM     64  H   UNL     1      -9.680  12.290  -7.268  1.00  0.00     0.167 HD
ATOM     65  C   UNL     1     -10.586  10.668  -4.896  1.00  0.00     0.074 A 
ATOM     66  C   UNL     1     -10.161   9.895  -6.062  1.00  0.00     0.031 C 
ATOM     67  C   UNL     1     -10.360  11.963  -4.522  1.00  0.00     0.031 A 
BRANCH  54  68
ATOM     68  C   UNL     1      -7.111  11.972  -8.809  1.00  0.00    -0.014 A 
ATOM     69  C   UNL     1      -7.965  12.734  -9.628  1.00  0.00     0.009 A 
ATOM     70  C   UNL     1      -6.738  10.704  -9.293  1.00  0.00     0.009 A 
ATOM     71  C   UNL     1      -8.480  12.219 -10.825  1.00  0.00     0.001 A 
ATOM     72  C   UNL     1      -7.217  10.204 -10.507  1.00  0.00     0.001 A 
ATOM     73  C   UNL     1      -8.112  10.950 -11.258  1.00  0.00     0.000 A 
ENDBRANCH  54  68
BRANCH  55  74
ATOM     74  C   UNL     1     -10.414   6.214  -3.434  1.00  0.00    -0.014 A 
ATOM     75  C   UNL     1     -11.771   5.951  -3.682  1.00  0.00     0.009 A 
ATOM     76  C   UNL     1      -9.527   5.123  -3.411  1.00  0.00     0.009 A 
ATOM     77  C   UNL     1     -12.215   4.649  -3.947  1.00  0.00     0.001 A 
ATOM     78  C   UNL     1      -9.970   3.823  -3.674  1.00  0.00     0.001 A 
ATOM     79  C   UNL     1     -11.312   3.589  -3.960  1.00  0.00     0.000 A 
ENDBRANCH  55  74
BRANCH  67  80
ATOM     80  C   UNL     1     -10.799  12.381  -3.137  1.00  0.00    -0.014 A 
ATOM     81  C   UNL     1     -10.346  11.757  -1.959  1.00  0.00     0.009 A 
ATOM     82  C   UNL     1     -11.609  13.518  -3.011  1.00  0.00     0.009 A 
ATOM     83  C   UNL     1     -10.738  12.224  -0.700  1.00  0.00     0.001 A 
ATOM     84  C   UNL     1     -11.980  14.000  -1.753  1.00  0.00     0.001 A 
ATOM     85  C   UNL     1     -11.555  13.347  -0.599  1.00  0.00     0.000 A 
ENDBRANCH  67  80
ENDBRANCH  41  42
ENDBRANCH  33  36
ENDBRANCH  31  32
ENDBRANCH  30  31
ENDBRANCH   1  30
TORSDOF 14
