REMARK SMILES Cc1ccc2c(CC(=O)N3CCC(C(=O)NCCCCNC(=O)c4ccc(-c5c6nc(c(-c7ccccc7)c7ccc([nH]7)c(-c7ccccc7)c7nc(c(-c8ccccc8)c8ccc5[nH]8)C=C7)C=C6)cc4)CC3)coc2c1
REMARK SMILES IDX 18 1 17 2 16 3 14 4 15 5 13 7 8 8 9 9 10 10 11 11 73 12
REMARK SMILES IDX 12 13 72 14 7 15 6 16 1 17 2 18 3 19 77 20 4 21 76 22 5 23
REMARK SMILES IDX 75 24 74 25 19 26 20 27 21 28 22 29 23 31 24 32 25 33 71 34
REMARK SMILES IDX 26 35 70 36 27 37 28 38 29 39 64 40 30 41 69 42 63 43 65 44
REMARK SMILES IDX 31 45 68 46 62 47 61 48 32 50 54 51 39 52 53 53 40 54 43 55
REMARK SMILES IDX 52 56 66 57 41 58 42 59 51 61 67 62 44 63 33 64 34 65 38 66
REMARK SMILES IDX 35 67 37 68 36 69 55 70 56 71 60 72 57 73 59 74 58 75 45 76
REMARK SMILES IDX 46 77 50 78 47 79 49 80 48 81
REMARK H PARENT 16 6 21 30 65 49 43 60
REMARK Flexibility Score: inf
ROOT
ATOM      1  C   UNL     1       3.741   9.584   5.270  1.00  0.00     0.023 C 
ENDROOT
BRANCH   1   2
ATOM      2  C   UNL     1       3.939   8.219   4.618  1.00  0.00     0.116 C 
BRANCH   2   3
ATOM      3  N   UNL     1       4.884   7.399   5.355  1.00  0.00    -0.356 N 
ATOM      4  C   UNL     1       4.738   6.183   5.954  1.00  0.00     0.223 C 
ATOM      5  O   UNL     1       5.718   5.693   6.505  1.00  0.00    -0.275 OA
ATOM      6  H   UNL     1       5.785   7.788   5.436  1.00  0.00     0.163 HD
BRANCH   4   7
ATOM      7  C   UNL     1       3.412   5.433   5.925  1.00  0.00     0.082 C 
ATOM      8  C   UNL     1      -0.115   6.238   4.224  1.00  0.00     0.227 C 
ATOM      9  O   UNL     1      -0.304   7.402   4.597  1.00  0.00    -0.275 OA
ATOM     10  N   UNL     1       0.706   5.386   4.954  1.00  0.00    -0.342 N 
ATOM     11  C   UNL     1       0.914   5.645   6.372  1.00  0.00     0.120 C 
ATOM     12  C   UNL     1       1.651   4.434   4.388  1.00  0.00     0.120 C 
ATOM     13  C   UNL     1       2.300   6.200   6.657  1.00  0.00     0.035 C 
ATOM     14  C   UNL     1       3.071   4.978   4.498  1.00  0.00     0.035 C 
BRANCH   8  15
ATOM     15  C   UNL     1      -0.984   5.664   3.105  1.00  0.00     0.139 C 
BRANCH  15  16
ATOM     16  C   UNL     1      -0.281   5.114   1.917  1.00  0.00     0.008 A 
ATOM     17  C   UNL     1       1.067  -0.009  -0.177  1.00  0.00     0.044 C 
ATOM     18  C   UNL     1       0.601   1.300   0.394  1.00  0.00    -0.047 A 
ATOM     19  C   UNL     1      -0.306   1.321   1.464  1.00  0.00     0.004 A 
ATOM     20  C   UNL     1       1.079   2.503  -0.154  1.00  0.00     0.051 A 
ATOM     21  C   UNL     1      -0.721   2.528   2.043  1.00  0.00     0.012 A 
ATOM     22  C   UNL     1       0.653   3.685   0.448  1.00  0.00     0.134 A 
ATOM     23  C   UNL     1      -0.210   3.736   1.534  1.00  0.00     0.024 A 
ATOM     24  O   UNL     1       1.035   4.943   0.093  1.00  0.00    -0.464 OA
ATOM     25  C   UNL     1       0.457   5.801   0.974  1.00  0.00     0.200 A 
ENDBRANCH  15  16
ENDBRANCH   8  15
ENDBRANCH   4   7
ENDBRANCH   2   3
ENDBRANCH   1   2
BRANCH   1  26
ATOM     26  C   UNL     1       4.974  10.493   5.245  1.00  0.00     0.023 C 
BRANCH  26  27
ATOM     27  C   UNL     1       5.621  10.661   3.868  1.00  0.00     0.116 C 
BRANCH  27  28
ATOM     28  N   UNL     1       4.704  11.098   2.834  1.00  0.00    -0.352 N 
ATOM     29  C   UNL     1       4.260  12.312   2.391  1.00  0.00     0.251 C 
ATOM     30  H   UNL     1       4.310  10.346   2.336  1.00  0.00     0.163 HD
ATOM     31  O   UNL     1       3.566  12.298   1.373  1.00  0.00    -0.269 OA
BRANCH  29  32
ATOM     32  C   UNL     1       4.503  13.614   3.071  1.00  0.00     0.039 A 
ATOM     33  C   UNL     1       5.287  13.800   4.208  1.00  0.00     0.014 A 
ATOM     34  C   UNL     1       3.822  14.726   2.538  1.00  0.00     0.014 A 
ATOM     35  C   UNL     1       5.309  15.027   4.857  1.00  0.00     0.010 A 
ATOM     36  C   UNL     1       3.858  15.965   3.170  1.00  0.00     0.010 A 
ATOM     37  C   UNL     1       4.565  16.098   4.360  1.00  0.00    -0.014 A 
BRANCH  37  38
ATOM     38  C   UNL     1       4.630  17.352   5.102  1.00  0.00     0.031 A 
ATOM     39  C   UNL     1       5.980  17.980   5.194  1.00  0.00     0.074 A 
ATOM     40  C   UNL     1       3.548  17.974   5.608  1.00  0.00     0.049 A 
ATOM     41  N   UNL     1       6.650  18.295   6.255  1.00  0.00    -0.248 NA
ATOM     42  C   UNL     1       6.699  18.224   3.934  1.00  0.00     0.031 C 
ATOM     43  C   UNL     1       2.136  17.686   5.354  1.00  0.00     0.029 A 
ATOM     44  N   UNL     1       3.503  19.100   6.374  1.00  0.00    -0.354 N 
ATOM     45  C   UNL     1       7.822  18.904   5.808  1.00  0.00     0.074 A 
ATOM     46  C   UNL     1       7.844  18.743   4.376  1.00  0.00     0.031 C 
ATOM     47  C   UNL     1       1.396  18.753   5.731  1.00  0.00     0.029 A 
ATOM     48  C   UNL     1       2.264  19.722   6.379  1.00  0.00     0.049 A 
ATOM     49  H   UNL     1       4.278  19.440   6.877  1.00  0.00     0.167 HD
ATOM     50  C   UNL     1       8.624  19.642   6.626  1.00  0.00     0.031 A 
ATOM     51  C   UNL     1       2.009  20.990   6.785  1.00  0.00     0.031 A 
ATOM     52  C   UNL     1       8.390  19.361   8.016  1.00  0.00     0.049 A 
ATOM     53  C   UNL     1       3.125  21.425   7.658  1.00  0.00     0.074 A 
ATOM     54  C   UNL     1       8.479  18.227   8.800  1.00  0.00     0.029 A 
ATOM     55  N   UNL     1       7.666  20.266   8.753  1.00  0.00    -0.354 N 
ATOM     56  N   UNL     1       3.363  20.939   8.841  1.00  0.00    -0.248 NA
ATOM     57  C   UNL     1       4.231  22.139   7.040  1.00  0.00     0.031 C 
ATOM     58  C   UNL     1       7.388  18.328   9.710  1.00  0.00     0.029 A 
ATOM     59  C   UNL     1       6.743  19.541   9.462  1.00  0.00     0.049 A 
ATOM     60  H   UNL     1       7.785  21.243   8.769  1.00  0.00     0.167 HD
ATOM     61  C   UNL     1       4.746  20.903   8.936  1.00  0.00     0.074 A 
ATOM     62  C   UNL     1       5.223  21.744   7.841  1.00  0.00     0.031 C 
ATOM     63  C   UNL     1       5.387  19.978   9.711  1.00  0.00     0.031 A 
BRANCH  50  64
ATOM     64  C   UNL     1       9.403  20.850   6.168  1.00  0.00    -0.014 A 
ATOM     65  C   UNL     1       9.161  21.503   4.945  1.00  0.00     0.009 A 
ATOM     66  C   UNL     1      10.226  21.525   7.089  1.00  0.00     0.009 A 
ATOM     67  C   UNL     1       9.691  22.764   4.658  1.00  0.00     0.001 A 
ATOM     68  C   UNL     1      10.722  22.808   6.824  1.00  0.00     0.001 A 
ATOM     69  C   UNL     1      10.450  23.429   5.609  1.00  0.00     0.000 A 
ENDBRANCH  50  64
BRANCH  51  70
ATOM     70  C   UNL     1       1.110  21.969   6.130  1.00  0.00    -0.014 A 
ATOM     71  C   UNL     1       0.795  21.848   4.763  1.00  0.00     0.009 A 
ATOM     72  C   UNL     1       0.810  23.185   6.763  1.00  0.00     0.009 A 
ATOM     73  C   UNL     1       0.249  22.915   4.045  1.00  0.00     0.001 A 
ATOM     74  C   UNL     1       0.271  24.258   6.041  1.00  0.00     0.001 A 
ATOM     75  C   UNL     1       0.007  24.127   4.679  1.00  0.00     0.000 A 
ENDBRANCH  51  70
BRANCH  63  76
ATOM     76  C   UNL     1       4.582  19.136  10.675  1.00  0.00    -0.014 A 
ATOM     77  C   UNL     1       5.072  18.974  11.982  1.00  0.00     0.009 A 
ATOM     78  C   UNL     1       3.480  18.358  10.282  1.00  0.00     0.009 A 
ATOM     79  C   UNL     1       4.488  18.061  12.863  1.00  0.00     0.001 A 
ATOM     80  C   UNL     1       2.876  17.464  11.174  1.00  0.00     0.001 A 
ATOM     81  C   UNL     1       3.388  17.308  12.460  1.00  0.00     0.000 A 
ENDBRANCH  63  76
ENDBRANCH  37  38
ENDBRANCH  29  32
ENDBRANCH  27  28
ENDBRANCH  26  27
ENDBRANCH   1  26
TORSDOF 13
