REMARK SMILES C[C@H]([NH2+][C@@H](C)[C@]12C[C@H]3C[C@H](C[C@H](C3)C1)C2)[C@@H](C)C(=O)NCCCCNC(=O)c1ccc(-c2c3nc(c(-c4ccccc4)c4ccc([nH]4)c(-c4ccccc4)c4nc(c(-c5ccccc5)c5ccc2[nH]5)C=C4)C=C3)cc1
REMARK SMILES IDX 21 1 20 2 18 3 19 4 16 6 17 7 2 8 1 9 3 10 4 13 5 14 6 15
REMARK SMILES IDX 7 16 14 17 15 18 8 19 12 20 10 21 9 22 13 23 11 24 22 25
REMARK SMILES IDX 23 26 24 27 25 28 26 29 27 31 28 32 29 33 75 34 30 35 74 36
REMARK SMILES IDX 31 37 32 38 33 39 68 40 34 41 73 42 67 43 69 44 35 45 72 46
REMARK SMILES IDX 66 47 65 48 36 50 58 51 43 52 57 53 44 54 47 55 56 56 70 57
REMARK SMILES IDX 45 58 46 59 55 61 71 62 48 63 37 64 38 65 42 66 39 67 41 68
REMARK SMILES IDX 40 69 59 70 60 71 64 72 61 73 63 74 62 75 49 76 50 77 54 78
REMARK SMILES IDX 51 79 53 80 52 81
REMARK H PARENT 20 5 3 11 3 12 25 30 69 49 47 60
REMARK Flexibility Score: inf
ROOT
ATOM      1  C   UNL     1      -0.540  -2.766   3.041  1.00  0.00     0.116 C 
ENDROOT
BRANCH   1   2
ATOM      2  N   UNL     1      -1.567  -1.764   3.248  1.00  0.00    -0.356 N 
ATOM      3  C   UNL     1      -1.975  -0.724   2.468  1.00  0.00     0.228 C 
ATOM      4  O   UNL     1      -2.940  -0.068   2.871  1.00  0.00    -0.275 OA
ATOM      5  H   UNL     1      -2.054  -1.851   4.099  1.00  0.00     0.163 HD
BRANCH   3   6
ATOM      6  C   UNL     1      -1.270  -0.337   1.160  1.00  0.00     0.133 C 
ATOM      7  C   UNL     1      -1.614  -1.335   0.058  1.00  0.00     0.024 C 
BRANCH   6   8
ATOM      8  C   UNL     1       0.241  -0.040   1.377  1.00  0.00     0.191 C 
ATOM      9  C   UNL     1       0.333   1.048   2.466  1.00  0.00     0.076 C 
BRANCH   8  10
ATOM     10  N   UNL     1       0.909   0.363   0.129  1.00  0.00    -0.341 N 
ATOM     11  H   UNL     1       0.916   1.383   0.107  1.00  0.00     0.346 HD
ATOM     12  H   UNL     1       0.369  -0.100  -0.602  1.00  0.00     0.346 HD
BRANCH  10  13
ATOM     13  C   UNL     1       2.301  -0.089  -0.109  1.00  0.00     0.185 C 
ATOM     14  C   UNL     1       2.517   0.019  -1.627  1.00  0.00     0.076 C 
BRANCH  13  15
ATOM     15  C   UNL     1       3.453   0.600   0.735  1.00  0.00     0.023 C 
ATOM     16  C   UNL     1       3.640  -0.196   2.062  1.00  0.00     0.016 C 
ATOM     17  C   UNL     1       3.178   2.109   0.990  1.00  0.00     0.016 C 
ATOM     18  C   UNL     1       4.864   0.571   0.050  1.00  0.00     0.016 C 
ATOM     19  C   UNL     1       4.680   0.454   2.978  1.00  0.00    -0.010 C 
ATOM     20  C   UNL     1       4.203   2.712   1.961  1.00  0.00    -0.010 C 
ATOM     21  C   UNL     1       5.946   1.218   0.954  1.00  0.00    -0.010 C 
ATOM     22  C   UNL     1       6.042   0.440   2.274  1.00  0.00     0.007 C 
ATOM     23  C   UNL     1       4.254   1.900   3.267  1.00  0.00     0.007 C 
ATOM     24  C   UNL     1       5.573   2.674   1.279  1.00  0.00     0.007 C 
ENDBRANCH  13  15
ENDBRANCH  10  13
ENDBRANCH   8  10
ENDBRANCH   6   8
ENDBRANCH   3   6
ENDBRANCH   1   2
BRANCH   1  25
ATOM     25  C   UNL     1       0.731  -2.506   3.853  1.00  0.00     0.023 C 
BRANCH  25  26
ATOM     26  C   UNL     1       0.614  -2.703   5.360  1.00  0.00     0.023 C 
BRANCH  26  27
ATOM     27  C   UNL     1       0.012  -4.028   5.795  1.00  0.00     0.116 C 
BRANCH  27  28
ATOM     28  N   UNL     1       0.677  -5.189   5.223  1.00  0.00    -0.352 N 
ATOM     29  C   UNL     1       0.892  -6.418   5.798  1.00  0.00     0.251 C 
ATOM     30  H   UNL     1       1.017  -5.079   4.305  1.00  0.00     0.163 HD
ATOM     31  O   UNL     1       1.543  -7.276   5.212  1.00  0.00    -0.269 OA
BRANCH  29  32
ATOM     32  C   UNL     1       0.371  -6.675   7.155  1.00  0.00     0.039 A 
ATOM     33  C   UNL     1       1.237  -7.194   8.119  1.00  0.00     0.014 A 
ATOM     34  C   UNL     1      -0.945  -6.343   7.487  1.00  0.00     0.014 A 
ATOM     35  C   UNL     1       0.803  -7.311   9.440  1.00  0.00     0.010 A 
ATOM     36  C   UNL     1      -1.348  -6.383   8.816  1.00  0.00     0.010 A 
ATOM     37  C   UNL     1      -0.479  -6.867   9.805  1.00  0.00    -0.014 A 
BRANCH  37  38
ATOM     38  C   UNL     1      -0.930  -6.898  11.217  1.00  0.00     0.031 A 
ATOM     39  C   UNL     1      -2.096  -7.760  11.615  1.00  0.00     0.074 A 
ATOM     40  C   UNL     1      -0.341  -6.095  12.124  1.00  0.00     0.049 A 
ATOM     41  N   UNL     1      -2.678  -7.872  12.782  1.00  0.00    -0.248 NA
ATOM     42  C   UNL     1      -2.707  -8.581  10.557  1.00  0.00     0.031 C 
ATOM     43  C   UNL     1       0.766  -5.175  11.853  1.00  0.00     0.029 A 
ATOM     44  N   UNL     1      -0.598  -5.919  13.460  1.00  0.00    -0.354 N 
ATOM     45  C   UNL     1      -3.732  -8.756  12.592  1.00  0.00     0.074 A 
ATOM     46  C   UNL     1      -3.741  -9.112  11.191  1.00  0.00     0.031 C 
ATOM     47  C   UNL     1       1.109  -4.551  12.992  1.00  0.00     0.029 A 
ATOM     48  C   UNL     1       0.224  -4.997  14.063  1.00  0.00     0.049 A 
ATOM     49  H   UNL     1      -1.305  -6.406  13.942  1.00  0.00     0.167 HD
ATOM     50  C   UNL     1      -4.603  -9.244  13.506  1.00  0.00     0.031 A 
ATOM     51  C   UNL     1       0.257  -4.557  15.335  1.00  0.00     0.031 A 
ATOM     52  C   UNL     1      -4.582  -8.905  14.903  1.00  0.00     0.049 A 
ATOM     53  C   UNL     1      -0.718  -5.119  16.331  1.00  0.00     0.074 A 
ATOM     54  C   UNL     1      -5.378  -9.399  15.922  1.00  0.00     0.029 A 
ATOM     55  N   UNL     1      -3.720  -7.984  15.478  1.00  0.00    -0.354 N 
ATOM     56  N   UNL     1      -1.659  -6.013  16.152  1.00  0.00    -0.248 NA
ATOM     57  C   UNL     1      -0.617  -4.617  17.709  1.00  0.00     0.031 C 
ATOM     58  C   UNL     1      -5.030  -8.741  17.105  1.00  0.00     0.029 A 
ATOM     59  C   UNL     1      -3.981  -7.878  16.833  1.00  0.00     0.049 A 
ATOM     60  H   UNL     1      -3.026  -7.481  14.994  1.00  0.00     0.167 HD
ATOM     61  C   UNL     1      -2.244  -6.202  17.398  1.00  0.00     0.074 A 
ATOM     62  C   UNL     1      -1.540  -5.341  18.326  1.00  0.00     0.031 C 
ATOM     63  C   UNL     1      -3.271  -7.016  17.742  1.00  0.00     0.031 A 
BRANCH  50  64
ATOM     64  C   UNL     1      -5.658 -10.196  13.017  1.00  0.00    -0.014 A 
ATOM     65  C   UNL     1      -5.328 -11.497  12.601  1.00  0.00     0.009 A 
ATOM     66  C   UNL     1      -7.004  -9.799  13.001  1.00  0.00     0.009 A 
ATOM     67  C   UNL     1      -6.321 -12.366  12.145  1.00  0.00     0.001 A 
ATOM     68  C   UNL     1      -7.997 -10.681  12.572  1.00  0.00     0.001 A 
ATOM     69  C   UNL     1      -7.654 -11.960  12.136  1.00  0.00     0.000 A 
ENDBRANCH  50  64
BRANCH  51  70
ATOM     70  C   UNL     1       1.260  -3.540  15.746  1.00  0.00    -0.014 A 
ATOM     71  C   UNL     1       2.332  -3.894  16.579  1.00  0.00     0.009 A 
ATOM     72  C   UNL     1       1.147  -2.210  15.314  1.00  0.00     0.009 A 
ATOM     73  C   UNL     1       3.253  -2.931  16.996  1.00  0.00     0.001 A 
ATOM     74  C   UNL     1       2.086  -1.254  15.709  1.00  0.00     0.001 A 
ATOM     75  C   UNL     1       3.132  -1.613  16.558  1.00  0.00     0.000 A 
ENDBRANCH  51  70
BRANCH  63  76
ATOM     76  C   UNL     1      -3.672  -7.040  19.189  1.00  0.00    -0.014 A 
ATOM     77  C   UNL     1      -4.358  -5.964  19.773  1.00  0.00     0.009 A 
ATOM     78  C   UNL     1      -3.397  -8.176  19.967  1.00  0.00     0.009 A 
ATOM     79  C   UNL     1      -4.731  -6.013  21.118  1.00  0.00     0.001 A 
ATOM     80  C   UNL     1      -3.796  -8.234  21.302  1.00  0.00     0.001 A 
ATOM     81  C   UNL     1      -4.454  -7.149  21.879  1.00  0.00     0.000 A 
ENDBRANCH  63  76
ENDBRANCH  37  38
ENDBRANCH  29  32
ENDBRANCH  27  28
ENDBRANCH  26  27
ENDBRANCH  25  26
ENDBRANCH   1  25
TORSDOF 15
