REMARK SMILES [NH3+][C@H]1CCCCC[C@H]1C(=O)N1CCCC[C@@H]1C(=O)NCCCCNC(=O)c1ccc(-c2c3nc(c(-c4ccccc4)c4ccc([nH]4)c(-c4ccccc4)c4nc(c(-c5ccccc5)c5ccc2[nH]5)C=C4)C=C3)cc1
REMARK SMILES IDX 20 1 19 2 17 3 18 4 16 6 11 7 12 8 13 9 15 10 14 11 9 12
REMARK SMILES IDX 10 13 8 14 2 15 1 16 3 20 4 21 7 23 6 24 5 25 21 27 22 28
REMARK SMILES IDX 23 29 24 30 25 31 26 33 27 34 28 35 74 36 29 37 73 38 30 39
REMARK SMILES IDX 31 40 32 41 67 42 33 43 72 44 66 45 68 46 34 47 71 48 65 49
REMARK SMILES IDX 64 50 35 52 57 53 42 54 56 55 43 56 46 57 55 58 69 59 44 60
REMARK SMILES IDX 45 61 54 63 70 64 47 65 36 66 37 67 41 68 38 69 40 70 39 71
REMARK SMILES IDX 58 72 59 73 63 74 60 75 62 76 61 77 48 78 49 79 53 80 50 81
REMARK SMILES IDX 52 82 51 83
REMARK H PARENT 19 5 1 17 1 18 1 19 24 32 68 51 46 62
REMARK Flexibility Score: 90.00
ROOT
ATOM      1  C   UNL     1       1.465   2.888  -0.257  1.00  0.00     0.116 C 
ENDROOT
BRANCH   1   2
ATOM      2  N   UNL     1       2.344   1.819   0.183  1.00  0.00    -0.354 N 
ATOM      3  C   UNL     1       2.745   1.474   1.436  1.00  0.00     0.242 C 
ATOM      4  O   UNL     1       3.684   0.675   1.531  1.00  0.00    -0.273 OA
ATOM      5  H   UNL     1       2.707   1.257  -0.539  1.00  0.00     0.163 HD
BRANCH   3   6
ATOM      6  C   UNL     1       2.150   2.125   2.698  1.00  0.00     0.174 C 
ATOM      7  N   UNL     1       0.674   2.247   2.759  1.00  0.00    -0.330 N 
ATOM      8  C   UNL     1       0.137   3.164   3.762  1.00  0.00     0.120 C 
ATOM      9  C   UNL     1       0.776   4.540   3.694  1.00  0.00     0.022 C 
ATOM     10  C   UNL     1       2.866   3.498   2.812  1.00  0.00     0.035 C 
ATOM     11  C   UNL     1       2.281   4.421   3.870  1.00  0.00     0.004 C 
BRANCH   7  12
ATOM     12  C   UNL     1      -0.263   1.520   2.050  1.00  0.00     0.232 C 
ATOM     13  O   UNL     1      -1.177   2.151   1.495  1.00  0.00    -0.274 OA
BRANCH  12  14
ATOM     14  C   UNL     1      -0.407  -0.017   2.117  1.00  0.00     0.136 C 
BRANCH  14  15
ATOM     15  C   UNL     1       0.791  -0.936   1.853  1.00  0.00     0.193 C 
BRANCH  15  16
ATOM     16  N   UNL     1       1.726  -1.081   2.967  1.00  0.00    -0.354 N 
ATOM     17  H   UNL     1       2.484  -1.708   2.695  1.00  0.00     0.344 HD
ATOM     18  H   UNL     1       1.237  -1.469   3.773  1.00  0.00     0.344 HD
ATOM     19  H   UNL     1       2.111  -0.168   3.209  1.00  0.00     0.344 HD
ENDBRANCH  15  16
BRANCH  15  20
ATOM     20  C   UNL     1       0.357  -2.348   1.406  1.00  0.00     0.066 C 
BRANCH  20  21
ATOM     21  C   UNL     1      -0.029  -3.329   2.513  1.00  0.00     0.006 CG0
ATOM     22  G   UNL     1      -1.207  -2.983   3.425  1.00  0.00     0.000 G0
ENDBRANCH  20  21
ENDBRANCH  15  20
ENDBRANCH  14  15
BRANCH  14  23
ATOM     23  C   UNL     1      -1.243  -0.412   3.344  1.00  0.00     0.020 C 
BRANCH  23  24
ATOM     24  C   UNL     1      -2.011  -1.721   3.138  1.00  0.00     0.001 C 
BRANCH  24  25
ATOM     25  C   UNL     1      -1.207  -2.983   3.425  1.00  0.00     0.000 CG0
ATOM     26  G   UNL     1      -0.029  -3.329   2.513  1.00  0.00     0.000 G0
ENDBRANCH  24  25
ENDBRANCH  23  24
ENDBRANCH  14  23
ENDBRANCH  12  14
ENDBRANCH   7  12
ENDBRANCH   3   6
ENDBRANCH   1   2
BRANCH   1  27
ATOM     27  C   UNL     1       2.170   3.767  -1.287  1.00  0.00     0.023 C 
BRANCH  27  28
ATOM     28  C   UNL     1       2.478   3.057  -2.608  1.00  0.00     0.023 C 
BRANCH  28  29
ATOM     29  C   UNL     1       1.257   2.482  -3.319  1.00  0.00     0.116 C 
BRANCH  29  30
ATOM     30  N   UNL     1       0.289   3.511  -3.669  1.00  0.00    -0.352 N 
ATOM     31  C   UNL     1      -0.216   3.831  -4.907  1.00  0.00     0.251 C 
ATOM     32  H   UNL     1      -0.049   4.051  -2.918  1.00  0.00     0.163 HD
ATOM     33  O   UNL     1      -0.875   4.846  -5.078  1.00  0.00    -0.269 OA
BRANCH  31  34
ATOM     34  C   UNL     1       0.074   2.931  -6.040  1.00  0.00     0.039 A 
ATOM     35  C   UNL     1       0.657   3.457  -7.194  1.00  0.00     0.014 A 
ATOM     36  C   UNL     1      -0.180   1.561  -5.924  1.00  0.00     0.014 A 
ATOM     37  C   UNL     1       1.068   2.590  -8.207  1.00  0.00     0.010 A 
ATOM     38  C   UNL     1       0.282   0.696  -6.908  1.00  0.00     0.010 A 
ATOM     39  C   UNL     1       0.925   1.201  -8.050  1.00  0.00    -0.014 A 
BRANCH  39  40
ATOM     40  C   UNL     1       1.480   0.249  -9.040  1.00  0.00     0.031 A 
ATOM     41  C   UNL     1       0.562  -0.637  -9.831  1.00  0.00     0.074 A 
ATOM     42  C   UNL     1       2.815   0.114  -9.150  1.00  0.00     0.049 A 
ATOM     43  N   UNL     1       0.862  -1.611 -10.652  1.00  0.00    -0.248 NA
ATOM     44  C   UNL     1      -0.883  -0.415  -9.659  1.00  0.00     0.031 C 
ATOM     45  C   UNL     1       3.812   0.891  -8.410  1.00  0.00     0.029 A 
ATOM     46  N   UNL     1       3.565  -0.744  -9.916  1.00  0.00    -0.354 N 
ATOM     47  C   UNL     1      -0.353  -2.128 -11.080  1.00  0.00     0.074 A 
ATOM     48  C   UNL     1      -1.393  -1.387 -10.400  1.00  0.00     0.031 C 
ATOM     49  C   UNL     1       5.040   0.483  -8.766  1.00  0.00     0.029 A 
ATOM     50  C   UNL     1       4.919  -0.611  -9.723  1.00  0.00     0.049 A 
ATOM     51  H   UNL     1       3.171  -1.392 -10.543  1.00  0.00     0.167 HD
ATOM     52  C   UNL     1      -0.580  -3.124 -11.969  1.00  0.00     0.031 A 
ATOM     53  C   UNL     1       5.947  -1.307 -10.242  1.00  0.00     0.031 A 
ATOM     54  C   UNL     1       0.455  -3.853 -12.650  1.00  0.00     0.049 A 
ATOM     55  C   UNL     1       5.666  -2.433 -11.196  1.00  0.00     0.074 A 
ATOM     56  C   UNL     1       0.324  -4.828 -13.624  1.00  0.00     0.029 A 
ATOM     57  N   UNL     1       1.812  -3.694 -12.421  1.00  0.00    -0.354 N 
ATOM     58  N   UNL     1       4.513  -2.864 -11.645  1.00  0.00    -0.248 NA
ATOM     59  C   UNL     1       6.829  -3.171 -11.710  1.00  0.00     0.031 C 
ATOM     60  C   UNL     1       1.602  -5.296 -13.947  1.00  0.00     0.029 A 
ATOM     61  C   UNL     1       2.529  -4.580 -13.207  1.00  0.00     0.049 A 
ATOM     62  H   UNL     1       2.208  -3.048 -11.793  1.00  0.00     0.167 HD
ATOM     63  C   UNL     1       4.810  -3.914 -12.503  1.00  0.00     0.074 A 
ATOM     64  C   UNL     1       6.253  -4.043 -12.527  1.00  0.00     0.031 C 
ATOM     65  C   UNL     1       3.963  -4.703 -13.207  1.00  0.00     0.031 A 
BRANCH  52  66
ATOM     66  C   UNL     1      -2.010  -3.487 -12.248  1.00  0.00    -0.014 A 
ATOM     67  C   UNL     1      -2.843  -2.639 -12.994  1.00  0.00     0.009 A 
ATOM     68  C   UNL     1      -2.521  -4.712 -11.790  1.00  0.00     0.009 A 
ATOM     69  C   UNL     1      -4.169  -2.995 -13.248  1.00  0.00     0.001 A 
ATOM     70  C   UNL     1      -3.839  -5.076 -12.067  1.00  0.00     0.001 A 
ATOM     71  C   UNL     1      -4.664  -4.215 -12.789  1.00  0.00     0.000 A 
ENDBRANCH  52  66
BRANCH  53  72
ATOM     72  C   UNL     1       7.342  -0.968  -9.860  1.00  0.00    -0.014 A 
ATOM     73  C   UNL     1       8.197  -0.342 -10.779  1.00  0.00     0.009 A 
ATOM     74  C   UNL     1       7.825  -1.270  -8.577  1.00  0.00     0.009 A 
ATOM     75  C   UNL     1       9.515  -0.042 -10.427  1.00  0.00     0.001 A 
ATOM     76  C   UNL     1       9.136  -0.946  -8.220  1.00  0.00     0.001 A 
ATOM     77  C   UNL     1       9.982  -0.340  -9.147  1.00  0.00     0.000 A 
ENDBRANCH  53  72
BRANCH  65  78
ATOM     78  C   UNL     1       4.576  -5.772 -14.064  1.00  0.00    -0.014 A 
ATOM     79  C   UNL     1       5.101  -6.941 -13.492  1.00  0.00     0.009 A 
ATOM     80  C   UNL     1       4.585  -5.630 -15.460  1.00  0.00     0.009 A 
ATOM     81  C   UNL     1       5.644  -7.939 -14.303  1.00  0.00     0.001 A 
ATOM     82  C   UNL     1       5.106  -6.640 -16.269  1.00  0.00     0.001 A 
ATOM     83  C   UNL     1       5.641  -7.790 -15.690  1.00  0.00     0.000 A 
ENDBRANCH  65  78
ENDBRANCH  39  40
ENDBRANCH  31  34
ENDBRANCH  29  30
ENDBRANCH  28  29
ENDBRANCH  27  28
ENDBRANCH   1  27
TORSDOF 14
