REMARK SMILES CC(C)CCc1cc2c(cc1Cl)C=C(C(=O)NCCCCNC(=O)c1ccc(-c3c4nc(c(-c5ccccc5)c5ccc([nH]5)c(-c5ccccc5)c5nc(c(-c6ccccc6)c6ccc3[nH]6)C=C5)C=C4)cc1)[C@H](C(F)(F)F)O2
REMARK SMILES IDX 19 1 18 2 17 3 15 4 16 5 14 7 6 8 7 9 11 10 8 11 10 12 12 13
REMARK SMILES IDX 9 14 78 15 13 16 73 17 5 18 4 19 2 20 1 21 3 22 74 23 75 24
REMARK SMILES IDX 76 25 77 26 20 27 21 28 22 29 23 30 24 32 25 33 26 34 72 35
REMARK SMILES IDX 27 36 71 37 28 38 29 39 30 40 65 41 31 42 70 43 64 44 66 45
REMARK SMILES IDX 32 46 69 47 63 48 62 49 33 51 55 52 40 53 54 54 41 55 44 56
REMARK SMILES IDX 53 57 67 58 42 59 43 60 52 62 68 63 45 64 34 65 35 66 39 67
REMARK SMILES IDX 36 68 38 69 37 70 56 71 57 72 61 73 58 74 60 75 59 76 46 77
REMARK SMILES IDX 47 78 51 79 48 80 50 81 49 82
REMARK H PARENT 17 6 22 31 66 50 44 61
REMARK Flexibility Score: inf
ROOT
ATOM      1  C   UNL     1      -1.772  10.896   0.565  1.00  0.00     0.023 C 
ENDROOT
BRANCH   1   2
ATOM      2  C   UNL     1      -2.051  10.420  -0.859  1.00  0.00     0.116 C 
BRANCH   2   3
ATOM      3  N   UNL     1      -0.817  10.116  -1.553  1.00  0.00    -0.352 N 
ATOM      4  C   UNL     1      -0.150   8.986  -1.881  1.00  0.00     0.251 C 
ATOM      5  O   UNL     1       0.888   9.146  -2.530  1.00  0.00    -0.270 OA
ATOM      6  H   UNL     1      -0.351  10.927  -1.860  1.00  0.00     0.163 HD
BRANCH   4   7
ATOM      7  C   UNL     1      -0.597   7.606  -1.530  1.00  0.00     0.067 C 
ATOM      8  C   UNL     1      -1.063   2.547  -1.553  1.00  0.00    -0.026 A 
ATOM      9  C   UNL     1      -1.543   3.601  -0.741  1.00  0.00     0.052 A 
ATOM     10  C   UNL     1      -0.329   2.909  -2.694  1.00  0.00     0.045 A 
ATOM     11  C   UNL     1      -1.262   4.939  -1.019  1.00  0.00     0.128 A 
ATOM     12  C   UNL     1      -0.007   4.254  -2.942  1.00  0.00     0.032 A 
ATOM     13  Cl  UNL     1       0.178   1.806  -3.921  1.00  0.00    -0.084 Cl
ATOM     14  C   UNL     1      -0.470   5.270  -2.107  1.00  0.00     0.019 A 
ATOM     15  O   UNL     1      -1.843   5.865  -0.207  1.00  0.00    -0.475 OA
ATOM     16  C   UNL     1      -0.166   6.662  -2.384  1.00  0.00     0.025 C 
ATOM     17  C   UNL     1      -1.373   7.241  -0.289  1.00  0.00     0.314 C 
BRANCH   8  18
ATOM     18  C   UNL     1      -1.492   1.159  -1.112  1.00  0.00     0.037 C 
BRANCH  18  19
ATOM     19  C   UNL     1      -0.782  -0.116  -1.582  1.00  0.00     0.008 C 
BRANCH  19  20
ATOM     20  C   UNL     1       0.713  -0.225  -1.225  1.00  0.00    -0.017 C 
ATOM     21  C   UNL     1       0.933  -0.478   0.267  1.00  0.00     0.007 C 
ATOM     22  C   UNL     1       1.350  -1.353  -2.042  1.00  0.00     0.007 C 
ENDBRANCH  19  20
ENDBRANCH  18  19
ENDBRANCH   8  18
BRANCH  17  23
ATOM     23  C   UNL     1      -0.668   7.586   1.034  1.00  0.00     0.429 C 
ATOM     24  F   UNL     1      -1.556   8.151   1.894  1.00  0.00    -0.167 F 
ATOM     25  F   UNL     1      -0.158   6.498   1.655  1.00  0.00    -0.167 F 
ATOM     26  F   UNL     1       0.346   8.465   0.884  1.00  0.00    -0.167 F 
ENDBRANCH  17  23
ENDBRANCH   4   7
ENDBRANCH   2   3
ENDBRANCH   1   2
BRANCH   1  27
ATOM     27  C   UNL     1      -1.364  12.364   0.674  1.00  0.00     0.023 C 
BRANCH  27  28
ATOM     28  C   UNL     1      -2.422  13.356   0.219  1.00  0.00     0.116 C 
BRANCH  28  29
ATOM     29  N   UNL     1      -3.708  13.208   0.890  1.00  0.00    -0.352 N 
ATOM     30  C   UNL     1      -4.643  14.191   1.128  1.00  0.00     0.251 C 
ATOM     31  H   UNL     1      -3.934  12.304   1.208  1.00  0.00     0.163 HD
ATOM     32  O   UNL     1      -5.675  13.960   1.746  1.00  0.00    -0.269 OA
BRANCH  30  33
ATOM     33  C   UNL     1      -4.324  15.555   0.669  1.00  0.00     0.039 A 
ATOM     34  C   UNL     1      -3.986  15.764  -0.669  1.00  0.00     0.014 A 
ATOM     35  C   UNL     1      -4.167  16.564   1.621  1.00  0.00     0.014 A 
ATOM     36  C   UNL     1      -3.301  16.919  -1.015  1.00  0.00     0.010 A 
ATOM     37  C   UNL     1      -3.557  17.761   1.247  1.00  0.00     0.010 A 
ATOM     38  C   UNL     1      -3.057  17.917  -0.056  1.00  0.00    -0.014 A 
BRANCH  38  39
ATOM     39  C   UNL     1      -2.230  19.092  -0.424  1.00  0.00     0.031 A 
ATOM     40  C   UNL     1      -0.886  19.317   0.217  1.00  0.00     0.074 A 
ATOM     41  C   UNL     1      -2.660  19.917  -1.397  1.00  0.00     0.049 A 
ATOM     42  N   UNL     1      -0.035  20.293   0.019  1.00  0.00    -0.248 NA
ATOM     43  C   UNL     1      -0.434  18.322   1.204  1.00  0.00     0.031 C 
ATOM     44  C   UNL     1      -3.923  19.773  -2.124  1.00  0.00     0.029 A 
ATOM     45  N   UNL     1      -2.068  21.013  -1.967  1.00  0.00    -0.354 N 
ATOM     46  C   UNL     1       1.031  20.048   0.877  1.00  0.00     0.074 A 
ATOM     47  C   UNL     1       0.719  18.839   1.606  1.00  0.00     0.031 C 
ATOM     48  C   UNL     1      -3.979  20.702  -3.088  1.00  0.00     0.029 A 
ATOM     49  C   UNL     1      -2.797  21.552  -2.998  1.00  0.00     0.049 A 
ATOM     50  H   UNL     1      -1.205  21.379  -1.666  1.00  0.00     0.167 HD
ATOM     51  C   UNL     1       2.167  20.767   1.038  1.00  0.00     0.031 A 
ATOM     52  C   UNL     1      -2.553  22.621  -3.777  1.00  0.00     0.031 A 
ATOM     53  C   UNL     1       2.486  21.956   0.294  1.00  0.00     0.049 A 
ATOM     54  C   UNL     1      -1.309  23.425  -3.549  1.00  0.00     0.074 A 
ATOM     55  C   UNL     1       3.615  22.752   0.387  1.00  0.00     0.029 A 
ATOM     56  N   UNL     1       1.682  22.512  -0.688  1.00  0.00    -0.354 N 
ATOM     57  N   UNL     1      -0.333  23.204  -2.703  1.00  0.00    -0.248 NA
ATOM     58  C   UNL     1      -1.140  24.632  -4.369  1.00  0.00     0.031 C 
ATOM     59  C   UNL     1       3.474  23.814  -0.509  1.00  0.00     0.029 A 
ATOM     60  C   UNL     1       2.282  23.651  -1.196  1.00  0.00     0.049 A 
ATOM     61  H   UNL     1       0.814  22.152  -0.980  1.00  0.00     0.167 HD
ATOM     62  C   UNL     1       0.568  24.243  -2.887  1.00  0.00     0.074 A 
ATOM     63  C   UNL     1       0.033  25.082  -3.941  1.00  0.00     0.031 C 
ATOM     64  C   UNL     1       1.732  24.480  -2.237  1.00  0.00     0.031 A 
BRANCH  51  65
ATOM     65  C   UNL     1       3.152  20.306   2.076  1.00  0.00    -0.014 A 
ATOM     66  C   UNL     1       3.307  21.045   3.260  1.00  0.00     0.009 A 
ATOM     67  C   UNL     1       3.981  19.197   1.853  1.00  0.00     0.009 A 
ATOM     68  C   UNL     1       4.278  20.688   4.197  1.00  0.00     0.001 A 
ATOM     69  C   UNL     1       4.936  18.828   2.804  1.00  0.00     0.001 A 
ATOM     70  C   UNL     1       5.089  19.578   3.970  1.00  0.00     0.000 A 
ENDBRANCH  51  65
BRANCH  52  71
ATOM     71  C   UNL     1      -3.528  22.979  -4.837  1.00  0.00    -0.014 A 
ATOM     72  C   UNL     1      -4.795  23.482  -4.499  1.00  0.00     0.009 A 
ATOM     73  C   UNL     1      -3.225  22.749  -6.186  1.00  0.00     0.009 A 
ATOM     74  C   UNL     1      -5.750  23.717  -5.488  1.00  0.00     0.001 A 
ATOM     75  C   UNL     1      -4.174  23.011  -7.176  1.00  0.00     0.001 A 
ATOM     76  C   UNL     1      -5.439  23.483  -6.826  1.00  0.00     0.000 A 
ENDBRANCH  52  71
BRANCH  64  77
ATOM     77  C   UNL     1       2.517  25.692  -2.641  1.00  0.00    -0.014 A 
ATOM     78  C   UNL     1       3.704  25.542  -3.374  1.00  0.00     0.009 A 
ATOM     79  C   UNL     1       2.130  26.973  -2.218  1.00  0.00     0.009 A 
ATOM     80  C   UNL     1       4.496  26.652  -3.669  1.00  0.00     0.001 A 
ATOM     81  C   UNL     1       2.914  28.084  -2.534  1.00  0.00     0.001 A 
ATOM     82  C   UNL     1       4.099  27.922  -3.251  1.00  0.00     0.000 A 
ENDBRANCH  64  77
ENDBRANCH  38  39
ENDBRANCH  30  33
ENDBRANCH  28  29
ENDBRANCH  27  28
ENDBRANCH   1  27
TORSDOF 15
