REMARK SMILES C[C@@H](C(=O)NCCCCNC(=O)c1ccc(-c2c3nc(c(-c4ccccc4)c4ccc([nH]4)c(-c4ccccc4)c4nc(c(-c5ccccc5)c5ccc2[nH]5)C=C4)C=C3)cc1)c1ccc(-c2ccccc2)cc1
REMARK SMILES IDX 7 1 6 2 5 3 3 4 4 5 2 7 1 8 61 9 62 10 72 11 63 12 71 13
REMARK SMILES IDX 64 14 65 15 66 16 70 17 67 18 69 19 68 20 8 21 9 22 10 23
REMARK SMILES IDX 11 24 12 26 13 27 14 28 60 29 15 30 59 31 16 32 17 33 18 34
REMARK SMILES IDX 53 35 19 36 58 37 52 38 54 39 20 40 57 41 51 42 50 43 21 45
REMARK SMILES IDX 43 46 28 47 42 48 29 49 32 50 41 51 55 52 30 53 31 54 40 56
REMARK SMILES IDX 56 57 33 58 22 59 23 60 27 61 24 62 26 63 25 64 44 65 45 66
REMARK SMILES IDX 49 67 46 68 48 69 47 70 34 71 35 72 39 73 36 74 38 75 37 76
REMARK H PARENT 5 6 10 25 54 44 32 55
REMARK Flexibility Score: inf
ROOT
ATOM      1  C   UNL     1       4.309  -0.608  -0.963  1.00  0.00     0.023 C 
ENDROOT
BRANCH   1   2
ATOM      2  C   UNL     1       3.480   0.335  -1.838  1.00  0.00     0.116 C 
BRANCH   2   3
ATOM      3  N   UNL     1       2.448  -0.382  -2.558  1.00  0.00    -0.356 N 
ATOM      4  C   UNL     1       1.102  -0.462  -2.336  1.00  0.00     0.227 C 
ATOM      5  O   UNL     1       0.475  -1.211  -3.087  1.00  0.00    -0.274 OA
ATOM      6  H   UNL     1       2.769  -0.896  -3.334  1.00  0.00     0.163 HD
BRANCH   4   7
ATOM      7  C   UNL     1       0.450   0.377  -1.222  1.00  0.00     0.105 C 
ATOM      8  C   UNL     1       0.842  -0.103   0.178  1.00  0.00     0.023 C 
BRANCH   7   9
ATOM      9  C   UNL     1      -1.075   0.417  -1.298  1.00  0.00    -0.036 A 
ATOM     10  C   UNL     1      -1.749   1.645  -1.325  1.00  0.00     0.005 A 
ATOM     11  C   UNL     1      -1.836  -0.761  -1.255  1.00  0.00     0.005 A 
ATOM     12  C   UNL     1      -3.148   1.690  -1.296  1.00  0.00     0.009 A 
ATOM     13  C   UNL     1      -3.231  -0.712  -1.230  1.00  0.00     0.009 A 
ATOM     14  C   UNL     1      -3.911   0.513  -1.237  1.00  0.00    -0.018 A 
BRANCH  14  15
ATOM     15  C   UNL     1      -5.379   0.557  -1.165  1.00  0.00    -0.018 A 
ATOM     16  C   UNL     1      -6.135   1.245  -2.128  1.00  0.00     0.009 A 
ATOM     17  C   UNL     1      -6.067  -0.094  -0.127  1.00  0.00     0.009 A 
ATOM     18  C   UNL     1      -7.530   1.279  -2.057  1.00  0.00     0.001 A 
ATOM     19  C   UNL     1      -7.462  -0.060  -0.053  1.00  0.00     0.001 A 
ATOM     20  C   UNL     1      -8.192   0.626  -1.019  1.00  0.00     0.000 A 
ENDBRANCH  14  15
ENDBRANCH   7   9
ENDBRANCH   4   7
ENDBRANCH   2   3
ENDBRANCH   1   2
BRANCH   1  21
ATOM     21  C   UNL     1       5.093  -1.678  -1.728  1.00  0.00     0.023 C 
BRANCH  21  22
ATOM     22  C   UNL     1       6.052  -1.155  -2.791  1.00  0.00     0.116 C 
BRANCH  22  23
ATOM     23  N   UNL     1       7.061  -0.255  -2.253  1.00  0.00    -0.352 N 
ATOM     24  C   UNL     1       8.420  -0.251  -2.459  1.00  0.00     0.251 C 
ATOM     25  H   UNL     1       6.722   0.452  -1.657  1.00  0.00     0.163 HD
ATOM     26  O   UNL     1       9.141   0.513  -1.825  1.00  0.00    -0.269 OA
BRANCH  24  27
ATOM     27  C   UNL     1       9.015  -1.204  -3.418  1.00  0.00     0.039 A 
ATOM     28  C   UNL     1      10.086  -1.998  -2.999  1.00  0.00     0.014 A 
ATOM     29  C   UNL     1       8.492  -1.343  -4.706  1.00  0.00     0.014 A 
ATOM     30  C   UNL     1      10.569  -3.004  -3.840  1.00  0.00     0.010 A 
ATOM     31  C   UNL     1       8.937  -2.381  -5.520  1.00  0.00     0.010 A 
ATOM     32  C   UNL     1       9.961  -3.237  -5.084  1.00  0.00    -0.014 A 
BRANCH  32  33
ATOM     33  C   UNL     1      10.324  -4.413  -5.913  1.00  0.00     0.031 A 
ATOM     34  C   UNL     1      10.952  -4.231  -7.265  1.00  0.00     0.074 A 
ATOM     35  C   UNL     1       9.985  -5.646  -5.486  1.00  0.00     0.049 A 
ATOM     36  N   UNL     1      11.224  -5.133  -8.173  1.00  0.00    -0.248 NA
ATOM     37  C   UNL     1      11.300  -2.856  -7.657  1.00  0.00     0.031 C 
ATOM     38  C   UNL     1       9.330  -5.954  -4.212  1.00  0.00     0.029 A 
ATOM     39  N   UNL     1      10.120  -6.871  -6.092  1.00  0.00    -0.354 N 
ATOM     40  C   UNL     1      11.754  -4.436  -9.251  1.00  0.00     0.074 A 
ATOM     41  C   UNL     1      11.742  -3.033  -8.896  1.00  0.00     0.031 C 
ATOM     42  C   UNL     1       9.123  -7.278  -4.131  1.00  0.00     0.029 A 
ATOM     43  C   UNL     1       9.588  -7.908  -5.362  1.00  0.00     0.049 A 
ATOM     44  H   UNL     1      10.556  -6.996  -6.966  1.00  0.00     0.167 HD
ATOM     45  C   UNL     1      12.214  -4.923 -10.427  1.00  0.00     0.031 A 
ATOM     46  C   UNL     1       9.461  -9.215  -5.659  1.00  0.00     0.031 A 
ATOM     47  C   UNL     1      12.245  -6.319 -10.773  1.00  0.00     0.049 A 
ATOM     48  C   UNL     1       9.963  -9.721  -6.982  1.00  0.00     0.074 A 
ATOM     49  C   UNL     1      12.780  -6.912 -11.904  1.00  0.00     0.029 A 
ATOM     50  N   UNL     1      11.710  -7.337 -10.001  1.00  0.00    -0.354 N 
ATOM     51  N   UNL     1      10.546  -9.059  -7.951  1.00  0.00    -0.248 NA
ATOM     52  C   UNL     1       9.786 -11.156  -7.253  1.00  0.00     0.031 C 
ATOM     53  C   UNL     1      12.519  -8.284 -11.842  1.00  0.00     0.029 A 
ATOM     54  C   UNL     1      11.865  -8.550 -10.651  1.00  0.00     0.049 A 
ATOM     55  H   UNL     1      11.284  -7.216  -9.122  1.00  0.00     0.167 HD
ATOM     56  C   UNL     1      10.821  -9.998  -8.936  1.00  0.00     0.074 A 
ATOM     57  C   UNL     1      10.361 -11.278  -8.441  1.00  0.00     0.031 C 
ATOM     58  C   UNL     1      11.399  -9.814 -10.148  1.00  0.00     0.031 A 
BRANCH  45  59
ATOM     59  C   UNL     1      12.722  -3.942 -11.443  1.00  0.00    -0.014 A 
ATOM     60  C   UNL     1      13.962  -3.306 -11.283  1.00  0.00     0.009 A 
ATOM     61  C   UNL     1      11.985  -3.714 -12.617  1.00  0.00     0.009 A 
ATOM     62  C   UNL     1      14.447  -2.448 -12.272  1.00  0.00     0.001 A 
ATOM     63  C   UNL     1      12.483  -2.873 -13.613  1.00  0.00     0.001 A 
ATOM     64  C   UNL     1      13.711  -2.237 -13.438  1.00  0.00     0.000 A 
ENDBRANCH  45  59
BRANCH  46  65
ATOM     65  C   UNL     1       8.804 -10.141  -4.701  1.00  0.00    -0.014 A 
ATOM     66  C   UNL     1       9.550 -11.119  -4.027  1.00  0.00     0.009 A 
ATOM     67  C   UNL     1       7.419 -10.072  -4.482  1.00  0.00     0.009 A 
ATOM     68  C   UNL     1       8.918 -12.030  -3.177  1.00  0.00     0.001 A 
ATOM     69  C   UNL     1       6.794 -10.965  -3.610  1.00  0.00     0.001 A 
ATOM     70  C   UNL     1       7.542 -11.950  -2.967  1.00  0.00     0.000 A 
ENDBRANCH  46  65
BRANCH  58  71
ATOM     71  C   UNL     1      11.579 -11.027 -11.014  1.00  0.00    -0.014 A 
ATOM     72  C   UNL     1      10.486 -11.613 -11.671  1.00  0.00     0.009 A 
ATOM     73  C   UNL     1      12.861 -11.562 -11.210  1.00  0.00     0.009 A 
ATOM     74  C   UNL     1      10.672 -12.729 -12.489  1.00  0.00     0.001 A 
ATOM     75  C   UNL     1      13.047 -12.661 -12.049  1.00  0.00     0.001 A 
ATOM     76  C   UNL     1      11.953 -13.248 -12.681  1.00  0.00     0.000 A 
ENDBRANCH  58  71
ENDBRANCH  32  33
ENDBRANCH  24  27
ENDBRANCH  22  23
ENDBRANCH  21  22
ENDBRANCH   1  21
TORSDOF 13
