REMARK SMILES O=C(NCCCCNC(=O)[C@@H]1[C@H](C(=O)NCc2ccncc2)[C@H]2C=C[C@@H]1O2)c1ccc(-c2c3nc(c(-c4ccccc4)c4ccc([nH]4)c(-c4ccccc4)c4nc(c(-c5ccccc5)c5ccc2[nH]5)C=C4)C=C3)cc1
REMARK SMILES IDX 6 1 5 2 4 3 3 4 1 5 2 6 28 8 29 9 75 10 30 11 74 12 31 13
REMARK SMILES IDX 32 14 33 15 68 16 34 17 73 18 67 19 69 20 35 21 72 22 66 23
REMARK SMILES IDX 65 24 36 26 58 27 43 28 57 29 44 30 47 31 56 32 70 33 45 34
REMARK SMILES IDX 46 35 55 37 71 38 48 39 37 40 38 41 42 42 39 43 41 44 40 45
REMARK SMILES IDX 59 46 60 47 64 48 61 49 63 50 62 51 49 52 50 53 54 54 51 55
REMARK SMILES IDX 53 56 52 57 7 58 8 59 9 60 10 62 11 63 12 64 26 65 23 66
REMARK SMILES IDX 25 67 27 68 24 69 13 70 14 71 15 72 16 74 17 75 18 76 22 77
REMARK SMILES IDX 19 78 21 79 20 80
REMARK H PARENT 3 7 69 25 47 36 8 61 15 73
REMARK Flexibility Score: inf
ROOT
ATOM      1  C   UNL     1       4.483   0.197   3.833  1.00  0.00     0.023 C 
ENDROOT
BRANCH   1   2
ATOM      2  C   UNL     1       5.037   0.618   2.475  1.00  0.00     0.023 C 
BRANCH   2   3
ATOM      3  C   UNL     1       4.665  -0.271   1.295  1.00  0.00     0.116 C 
BRANCH   3   4
ATOM      4  N   UNL     1       3.231  -0.357   1.071  1.00  0.00    -0.352 N 
ATOM      5  O   UNL     1       1.257  -0.074   0.028  1.00  0.00    -0.269 OA
ATOM      6  C   UNL     1       2.486  -0.029  -0.034  1.00  0.00     0.251 C 
ATOM      7  H   UNL     1       2.713  -0.706   1.832  1.00  0.00     0.163 HD
BRANCH   6   8
ATOM      8  C   UNL     1       3.137   0.407  -1.288  1.00  0.00     0.039 A 
ATOM      9  C   UNL     1       4.250  -0.260  -1.806  1.00  0.00     0.014 A 
ATOM     10  C   UNL     1       2.591   1.493  -1.982  1.00  0.00     0.014 A 
ATOM     11  C   UNL     1       4.893   0.235  -2.938  1.00  0.00     0.010 A 
ATOM     12  C   UNL     1       3.195   1.944  -3.159  1.00  0.00     0.010 A 
ATOM     13  C   UNL     1       4.368   1.337  -3.630  1.00  0.00    -0.014 A 
BRANCH  13  14
ATOM     14  C   UNL     1       5.021   1.811  -4.875  1.00  0.00     0.031 A 
ATOM     15  C   UNL     1       5.673   3.163  -4.944  1.00  0.00     0.074 A 
ATOM     16  C   UNL     1       5.009   1.015  -5.960  1.00  0.00     0.049 A 
ATOM     17  N   UNL     1       6.268   3.738  -5.959  1.00  0.00    -0.248 NA
ATOM     18  C   UNL     1       5.646   3.979  -3.721  1.00  0.00     0.031 C 
ATOM     19  C   UNL     1       4.393  -0.312  -6.026  1.00  0.00     0.029 A 
ATOM     20  N   UNL     1       5.527   1.205  -7.216  1.00  0.00    -0.354 N 
ATOM     21  C   UNL     1       6.667   4.989  -5.505  1.00  0.00     0.074 A 
ATOM     22  C   UNL     1       6.228   5.098  -4.130  1.00  0.00     0.031 C 
ATOM     23  C   UNL     1       4.585  -0.824  -7.251  1.00  0.00     0.029 A 
ATOM     24  C   UNL     1       5.292   0.156  -8.068  1.00  0.00     0.049 A 
ATOM     25  H   UNL     1       6.021   2.016  -7.479  1.00  0.00     0.167 HD
ATOM     26  C   UNL     1       7.340   5.957  -6.173  1.00  0.00     0.031 A 
ATOM     27  C   UNL     1       5.589   0.002  -9.371  1.00  0.00     0.031 A 
ATOM     28  C   UNL     1       7.778   5.848  -7.540  1.00  0.00     0.049 A 
ATOM     29  C   UNL     1       6.315   1.095 -10.095  1.00  0.00     0.074 A 
ATOM     30  C   UNL     1       8.515   6.755  -8.284  1.00  0.00     0.029 A 
ATOM     31  N   UNL     1       7.510   4.773  -8.372  1.00  0.00    -0.354 N 
ATOM     32  N   UNL     1       6.734   2.249  -9.636  1.00  0.00    -0.248 NA
ATOM     33  C   UNL     1       6.613   0.865 -11.515  1.00  0.00     0.031 C 
ATOM     34  C   UNL     1       8.651   6.248  -9.582  1.00  0.00     0.029 A 
ATOM     35  C   UNL     1       8.039   5.006  -9.631  1.00  0.00     0.049 A 
ATOM     36  H   UNL     1       7.017   3.963  -8.107  1.00  0.00     0.167 HD
ATOM     37  C   UNL     1       7.353   2.880 -10.705  1.00  0.00     0.074 A 
ATOM     38  C   UNL     1       7.270   1.973 -11.833  1.00  0.00     0.031 C 
ATOM     39  C   UNL     1       7.938   4.101 -10.747  1.00  0.00     0.031 A 
BRANCH  26  40
ATOM     40  C   UNL     1       7.617   7.238  -5.438  1.00  0.00    -0.014 A 
ATOM     41  C   UNL     1       8.584   7.304  -4.423  1.00  0.00     0.009 A 
ATOM     42  C   UNL     1       6.921   8.405  -5.791  1.00  0.00     0.009 A 
ATOM     43  C   UNL     1       8.822   8.506  -3.751  1.00  0.00     0.001 A 
ATOM     44  C   UNL     1       7.178   9.610  -5.134  1.00  0.00     0.001 A 
ATOM     45  C   UNL     1       8.121   9.658  -4.108  1.00  0.00     0.000 A 
ENDBRANCH  26  40
BRANCH  27  46
ATOM     46  C   UNL     1       5.172  -1.240 -10.067  1.00  0.00    -0.014 A 
ATOM     47  C   UNL     1       6.113  -2.225 -10.399  1.00  0.00     0.009 A 
ATOM     48  C   UNL     1       3.816  -1.466 -10.356  1.00  0.00     0.009 A 
ATOM     49  C   UNL     1       5.703  -3.411 -11.013  1.00  0.00     0.001 A 
ATOM     50  C   UNL     1       3.408  -2.662 -10.947  1.00  0.00     0.001 A 
ATOM     51  C   UNL     1       4.352  -3.632 -11.279  1.00  0.00     0.000 A 
ENDBRANCH  27  46
BRANCH  39  52
ATOM     52  C   UNL     1       8.546   4.523 -12.052  1.00  0.00    -0.014 A 
ATOM     53  C   UNL     1       7.742   4.944 -13.122  1.00  0.00     0.009 A 
ATOM     54  C   UNL     1       9.941   4.540 -12.199  1.00  0.00     0.009 A 
ATOM     55  C   UNL     1       8.325   5.353 -14.323  1.00  0.00     0.001 A 
ATOM     56  C   UNL     1      10.522   4.969 -13.393  1.00  0.00     0.001 A 
ATOM     57  C   UNL     1       9.713   5.370 -14.456  1.00  0.00     0.000 A 
ENDBRANCH  39  52
ENDBRANCH  13  14
ENDBRANCH   6   8
ENDBRANCH   3   4
ENDBRANCH   2   3
ENDBRANCH   1   2
BRANCH   1  58
ATOM     58  C   UNL     1       4.691  -1.261   4.232  1.00  0.00     0.116 C 
BRANCH  58  59
ATOM     59  N   UNL     1       6.061  -1.734   4.130  1.00  0.00    -0.356 N 
ATOM     60  C   UNL     1       6.697  -2.609   4.969  1.00  0.00     0.227 C 
ATOM     61  H   UNL     1       6.590  -1.387   3.376  1.00  0.00     0.163 HD
ATOM     62  O   UNL     1       7.602  -3.306   4.519  1.00  0.00    -0.275 OA
BRANCH  60  63
ATOM     63  C   UNL     1       6.217  -2.726   6.392  1.00  0.00     0.127 C 
ATOM     64  C   UNL     1       6.476  -1.498   7.298  1.00  0.00     0.127 C 
ATOM     65  C   UNL     1       6.927  -3.841   7.184  1.00  0.00     0.155 C 
ATOM     66  C   UNL     1       7.244  -2.114   8.471  1.00  0.00     0.155 C 
ATOM     67  C   UNL     1       6.143  -4.110   8.440  1.00  0.00     0.004 C 
ATOM     68  O   UNL     1       8.029  -3.121   7.788  1.00  0.00    -0.365 OA
ATOM     69  C   UNL     1       6.333  -3.042   9.231  1.00  0.00     0.004 C 
BRANCH  64  70
ATOM     70  C   UNL     1       7.102  -0.234   6.728  1.00  0.00     0.227 C 
ATOM     71  O   UNL     1       6.391   0.780   6.665  1.00  0.00    -0.275 OA
ATOM     72  N   UNL     1       8.362  -0.068   6.280  1.00  0.00    -0.352 N 
ATOM     73  H   UNL     1       8.524   0.843   5.944  1.00  0.00     0.163 HD
BRANCH  72  74
ATOM     74  C   UNL     1       9.539  -0.914   6.176  1.00  0.00     0.151 C 
BRANCH  74  75
ATOM     75  C   UNL     1      10.008  -1.078   4.752  1.00  0.00    -0.026 A 
ATOM     76  C   UNL     1      10.347  -2.349   4.276  1.00  0.00     0.025 A 
ATOM     77  C   UNL     1      10.147   0.003   3.877  1.00  0.00     0.025 A 
ATOM     78  C   UNL     1      10.732  -2.495   2.953  1.00  0.00     0.111 A 
ATOM     79  C   UNL     1      10.557  -0.240   2.573  1.00  0.00     0.111 A 
ATOM     80  N   UNL     1      10.844  -1.466   2.088  1.00  0.00    -0.265 NA
ENDBRANCH  74  75
ENDBRANCH  72  74
ENDBRANCH  64  70
ENDBRANCH  60  63
ENDBRANCH  58  59
ENDBRANCH   1  58
TORSDOF 14
