REMARK SMILES Cc1nc(-c2ccccc2)sc1C(=O)N[C@@H](CC1=c2ccccc2=NC1)C(=O)NCCCCNC(=O)c1ccc(-c2c3nc(c(-c4ccccc4)c4ccc([nH]4)c(-c4ccccc4)c4nc(c(-c5ccccc5)c5ccc2[nH]5)C=C4)C=C3)cc1
REMARK SMILES IDX 31 1 30 2 29 3 27 4 28 5 16 7 15 8 13 9 14 10 12 12 1 13
REMARK SMILES IDX 2 14 3 15 4 16 11 17 5 18 6 19 10 20 7 21 9 22 8 23 17 24
REMARK SMILES IDX 18 25 19 26 26 27 20 28 24 29 25 30 21 31 23 32 22 33 32 34
REMARK SMILES IDX 33 35 34 36 35 37 36 39 37 40 38 41 84 42 39 43 83 44 40 45
REMARK SMILES IDX 41 46 42 47 77 48 43 49 82 50 76 51 78 52 44 53 81 54 75 55
REMARK SMILES IDX 74 56 45 58 67 59 52 60 66 61 53 62 56 63 65 64 79 65 54 66
REMARK SMILES IDX 55 67 64 69 80 70 57 71 46 72 47 73 51 74 48 75 50 76 49 77
REMARK SMILES IDX 68 78 69 79 73 80 70 81 72 82 71 83 58 84 59 85 63 86 60 87
REMARK SMILES IDX 62 88 61 89
REMARK H PARENT 29 6 15 11 34 38 78 57 56 68
REMARK Flexibility Score: inf
ROOT
ATOM      1  C   UNL     1      -2.998  -6.405   2.241  1.00  0.00     0.023 C 
ENDROOT
BRANCH   1   2
ATOM      2  C   UNL     1      -3.445  -5.287   1.316  1.00  0.00     0.116 C 
BRANCH   2   3
ATOM      3  N   UNL     1      -3.866  -4.077   1.979  1.00  0.00    -0.354 N 
ATOM      4  C   UNL     1      -3.946  -2.812   1.482  1.00  0.00     0.242 C 
ATOM      5  O   UNL     1      -4.779  -2.065   2.011  1.00  0.00    -0.273 OA
ATOM      6  H   UNL     1      -4.133  -4.180   2.921  1.00  0.00     0.163 HD
BRANCH   4   7
ATOM      7  C   UNL     1      -3.135  -2.307   0.265  1.00  0.00     0.175 C 
BRANCH   7   8
ATOM      8  N   UNL     1      -1.725  -2.653   0.265  1.00  0.00    -0.339 N 
ATOM      9  C   UNL     1      -0.562  -1.955   0.088  1.00  0.00     0.263 C 
ATOM     10  O   UNL     1       0.418  -2.713   0.069  1.00  0.00    -0.268 OA
ATOM     11  H   UNL     1      -1.570  -3.611   0.430  1.00  0.00     0.164 HD
BRANCH   9  12
ATOM     12  C   UNL     1      -0.429  -0.505  -0.039  1.00  0.00     0.115 A 
ATOM     13  C   UNL     1      -2.671   0.791  -0.588  1.00  0.00     0.068 C 
ATOM     14  C   UNL     1      -1.230   0.613  -0.276  1.00  0.00     0.062 A 
ATOM     15  N   UNL     1      -0.567   1.831  -0.228  1.00  0.00    -0.241 NA
ATOM     16  C   UNL     1       0.721   1.675  -0.066  1.00  0.00     0.124 A 
ATOM     17  S   UNL     1       1.231   0.068   0.111  1.00  0.00    -0.108 S 
BRANCH  16  18
ATOM     18  C   UNL     1       1.647   2.800  -0.021  1.00  0.00     0.010 A 
ATOM     19  C   UNL     1       1.477   3.777   0.970  1.00  0.00     0.011 A 
ATOM     20  C   UNL     1       2.605   2.998  -1.023  1.00  0.00     0.011 A 
ATOM     21  C   UNL     1       2.242   4.941   0.955  1.00  0.00     0.001 A 
ATOM     22  C   UNL     1       3.364   4.170  -1.042  1.00  0.00     0.001 A 
ATOM     23  C   UNL     1       3.179   5.141  -0.058  1.00  0.00     0.000 A 
ENDBRANCH  16  18
ENDBRANCH   9  12
ENDBRANCH   7   8
BRANCH   7  24
ATOM     24  C   UNL     1      -3.802  -2.531  -1.118  1.00  0.00     0.068 C 
BRANCH  24  25
ATOM     25  C   UNL     1      -4.013  -3.941  -1.581  1.00  0.00    -0.037 C 
ATOM     26  C   UNL     1      -3.117  -4.859  -1.944  1.00  0.00     0.001 A 
ATOM     27  C   UNL     1      -5.399  -4.516  -1.633  1.00  0.00     0.174 C 
ATOM     28  C   UNL     1      -1.697  -4.898  -2.081  1.00  0.00     0.010 A 
ATOM     29  C   UNL     1      -3.931  -6.088  -2.009  1.00  0.00     0.065 A 
ATOM     30  N   UNL     1      -5.213  -5.970  -1.847  1.00  0.00    -0.280 NA
ATOM     31  C   UNL     1      -1.091  -6.093  -2.181  1.00  0.00     0.001 A 
ATOM     32  C   UNL     1      -3.193  -7.363  -2.133  1.00  0.00     0.028 A 
ATOM     33  C   UNL     1      -1.850  -7.332  -2.178  1.00  0.00     0.002 A 
ENDBRANCH  24  25
ENDBRANCH   7  24
ENDBRANCH   4   7
ENDBRANCH   2   3
ENDBRANCH   1   2
BRANCH   1  34
ATOM     34  C   UNL     1      -4.071  -6.934   3.184  1.00  0.00     0.023 C 
BRANCH  34  35
ATOM     35  C   UNL     1      -5.437  -7.195   2.559  1.00  0.00     0.116 C 
BRANCH  35  36
ATOM     36  N   UNL     1      -5.404  -8.131   1.439  1.00  0.00    -0.352 N 
ATOM     37  C   UNL     1      -6.084  -9.313   1.278  1.00  0.00     0.251 C 
ATOM     38  H   UNL     1      -4.810  -7.880   0.695  1.00  0.00     0.163 HD
ATOM     39  O   UNL     1      -5.855 -10.051   0.332  1.00  0.00    -0.269 OA
BRANCH  37  40
ATOM     40  C   UNL     1      -7.078  -9.701   2.302  1.00  0.00     0.039 A 
ATOM     41  C   UNL     1      -6.972 -10.950   2.915  1.00  0.00     0.014 A 
ATOM     42  C   UNL     1      -8.054  -8.787   2.710  1.00  0.00     0.014 A 
ATOM     43  C   UNL     1      -7.784 -11.245   4.011  1.00  0.00     0.010 A 
ATOM     44  C   UNL     1      -8.797  -9.049   3.854  1.00  0.00     0.010 A 
ATOM     45  C   UNL     1      -8.664 -10.277   4.522  1.00  0.00    -0.014 A 
BRANCH  45  46
ATOM     46  C   UNL     1      -9.445 -10.517   5.761  1.00  0.00     0.031 A 
ATOM     47  C   UNL     1     -10.947 -10.521   5.716  1.00  0.00     0.074 A 
ATOM     48  C   UNL     1      -8.805 -10.649   6.941  1.00  0.00     0.049 A 
ATOM     49  N   UNL     1     -11.802 -10.640   6.699  1.00  0.00    -0.248 NA
ATOM     50  C   UNL     1     -11.571 -10.335   4.395  1.00  0.00     0.031 C 
ATOM     51  C   UNL     1      -7.354 -10.605   7.133  1.00  0.00     0.029 A 
ATOM     52  N   UNL     1      -9.300 -10.838   8.207  1.00  0.00    -0.354 N 
ATOM     53  C   UNL     1     -13.059 -10.516   6.121  1.00  0.00     0.074 A 
ATOM     54  C   UNL     1     -12.855 -10.263   4.711  1.00  0.00     0.031 C 
ATOM     55  C   UNL     1      -7.076 -10.796   8.433  1.00  0.00     0.029 A 
ATOM     56  C   UNL     1      -8.326 -10.938   9.171  1.00  0.00     0.049 A 
ATOM     57  H   UNL     1     -10.263 -10.898   8.406  1.00  0.00     0.167 HD
ATOM     58  C   UNL     1     -14.276 -10.626   6.703  1.00  0.00     0.031 A 
ATOM     59  C   UNL     1      -8.429 -11.125  10.500  1.00  0.00     0.031 A 
ATOM     60  C   UNL     1     -14.483 -10.903   8.098  1.00  0.00     0.049 A 
ATOM     61  C   UNL     1      -9.790 -11.263  11.121  1.00  0.00     0.074 A 
ATOM     62  C   UNL     1     -15.676 -11.099   8.771  1.00  0.00     0.029 A 
ATOM     63  N   UNL     1     -13.469 -11.027   9.035  1.00  0.00    -0.354 N 
ATOM     64  N   UNL     1     -10.968 -11.216  10.547  1.00  0.00    -0.248 NA
ATOM     65  C   UNL     1      -9.835 -11.494  12.572  1.00  0.00     0.031 C 
ATOM     66  C   UNL     1     -15.386 -11.305  10.124  1.00  0.00     0.029 A 
ATOM     67  C   UNL     1     -14.009 -11.282  10.283  1.00  0.00     0.049 A 
ATOM     68  H   UNL     1     -12.507 -10.945   8.841  1.00  0.00     0.167 HD
ATOM     69  C   UNL     1     -11.891 -11.438  11.560  1.00  0.00     0.074 A 
ATOM     70  C   UNL     1     -11.136 -11.634  12.781  1.00  0.00     0.031 C 
ATOM     71  C   UNL     1     -13.243 -11.477  11.486  1.00  0.00     0.031 A 
BRANCH  58  72
ATOM     72  C   UNL     1     -15.478 -10.447   5.821  1.00  0.00    -0.014 A 
ATOM     73  C   UNL     1     -15.824 -11.412   4.861  1.00  0.00     0.009 A 
ATOM     74  C   UNL     1     -16.287  -9.308   5.962  1.00  0.00     0.009 A 
ATOM     75  C   UNL     1     -16.932 -11.221   4.034  1.00  0.00     0.001 A 
ATOM     76  C   UNL     1     -17.410  -9.134   5.152  1.00  0.00     0.001 A 
ATOM     77  C   UNL     1     -17.726 -10.085   4.182  1.00  0.00     0.000 A 
ENDBRANCH  58  72
BRANCH  59  78
ATOM     78  C   UNL     1      -7.205 -11.223  11.336  1.00  0.00    -0.014 A 
ATOM     79  C   UNL     1      -6.810 -12.460  11.871  1.00  0.00     0.009 A 
ATOM     80  C   UNL     1      -6.431 -10.086  11.613  1.00  0.00     0.009 A 
ATOM     81  C   UNL     1      -5.681 -12.551  12.687  1.00  0.00     0.001 A 
ATOM     82  C   UNL     1      -5.287 -10.185  12.409  1.00  0.00     0.001 A 
ATOM     83  C   UNL     1      -4.918 -11.415  12.952  1.00  0.00     0.000 A 
ENDBRANCH  59  78
BRANCH  71  84
ATOM     84  C   UNL     1     -13.991 -11.779  12.752  1.00  0.00    -0.014 A 
ATOM     85  C   UNL     1     -14.114 -10.821  13.770  1.00  0.00     0.009 A 
ATOM     86  C   UNL     1     -14.614 -13.027  12.910  1.00  0.00     0.009 A 
ATOM     87  C   UNL     1     -14.822 -11.119  14.936  1.00  0.00     0.001 A 
ATOM     88  C   UNL     1     -15.342 -13.312  14.065  1.00  0.00     0.001 A 
ATOM     89  C   UNL     1     -15.439 -12.362  15.080  1.00  0.00     0.000 A 
ENDBRANCH  71  84
ENDBRANCH  45  46
ENDBRANCH  37  40
ENDBRANCH  35  36
ENDBRANCH  34  35
ENDBRANCH   1  34
TORSDOF 16
