REMARK SMILES COC(=O)c1ccccc1-c1ccc(/C=C(\C#N)C(=O)NCCCCNC(=O)c2ccc(-c3c4nc(c(-c5ccccc5)c5ccc([nH]5)c(-c5ccccc5)c5nc(c(-c6ccccc6)c6ccc3[nH]6)C=C5)C=C4)cc2)o1
REMARK SMILES IDX 22 1 21 2 19 3 20 4 16 6 15 7 14 8 11 9 12 10 77 11 13 12
REMARK SMILES IDX 10 13 5 14 6 15 7 16 9 17 8 18 3 19 4 20 2 21 1 22 17 23
REMARK SMILES IDX 18 24 23 25 24 26 25 27 26 28 27 29 28 31 29 32 30 33 76 34
REMARK SMILES IDX 31 35 75 36 32 37 33 38 34 39 69 40 35 41 74 42 68 43 70 44
REMARK SMILES IDX 36 45 73 46 67 47 66 48 37 50 59 51 44 52 58 53 45 54 48 55
REMARK SMILES IDX 57 56 71 57 46 58 47 59 56 61 72 62 49 63 38 64 39 65 43 66
REMARK SMILES IDX 40 67 42 68 41 69 60 70 61 71 65 72 62 73 64 74 63 75 50 76
REMARK SMILES IDX 51 77 55 78 52 79 54 80 53 81
REMARK H PARENT 21 5 26 30 70 49 48 60
REMARK Flexibility Score: inf
ROOT
ATOM      1  C   UNL     1      -4.769   3.188  -5.866  1.00  0.00     0.116 C 
ENDROOT
BRANCH   1   2
ATOM      2  N   UNL     1      -4.980   1.802  -5.490  1.00  0.00    -0.351 N 
ATOM      3  C   UNL     1      -4.615   1.077  -4.398  1.00  0.00     0.262 C 
ATOM      4  O   UNL     1      -4.972  -0.106  -4.387  1.00  0.00    -0.268 OA
ATOM      5  H   UNL     1      -5.487   1.284  -6.156  1.00  0.00     0.163 HD
BRANCH   3   6
ATOM      6  C   UNL     1      -3.842   1.642  -3.247  1.00  0.00     0.120 C 
ATOM      7  C   UNL     1      -3.762   0.868  -2.144  1.00  0.00     0.072 C 
BRANCH   7   8
ATOM      8  C   UNL     1      -3.092   1.229  -0.939  1.00  0.00     0.129 A 
ATOM      9  C   UNL     1      -1.830   2.376   0.494  1.00  0.00     0.135 A 
ATOM     10  C   UNL     1      -2.206   1.230   1.155  1.00  0.00     0.051 A 
ATOM     11  O   UNL     1      -2.382   2.392  -0.748  1.00  0.00    -0.457 OA
ATOM     12  C   UNL     1      -3.008   0.501   0.244  1.00  0.00     0.051 A 
BRANCH   9  13
ATOM     13  C   UNL     1      -0.961   3.496   0.819  1.00  0.00     0.032 A 
ATOM     14  C   UNL     1       0.388   3.324   1.181  1.00  0.00     0.071 A 
ATOM     15  C   UNL     1       1.163   4.421   1.589  1.00  0.00     0.016 A 
ATOM     16  C   UNL     1       0.610   5.700   1.608  1.00  0.00     0.001 A 
ATOM     17  C   UNL     1      -1.494   4.795   0.826  1.00  0.00     0.013 A 
ATOM     18  C   UNL     1      -0.715   5.888   1.219  1.00  0.00     0.001 A 
BRANCH  14  19
ATOM     19  C   UNL     1       1.054   2.004   1.167  1.00  0.00     0.338 C 
ATOM     20  O   UNL     1       1.751   1.589   2.082  1.00  0.00    -0.246 OA
BRANCH  19  21
ATOM     21  O   UNL     1       0.817   1.383  -0.012  1.00  0.00    -0.465 OA
ATOM     22  C   UNL     1       1.334   0.056  -0.094  1.00  0.00     0.282 C 
ENDBRANCH  19  21
ENDBRANCH  14  19
ENDBRANCH   9  13
ENDBRANCH   7   8
BRANCH   6  23
ATOM     23  C   UNL     1      -3.222   3.029  -3.295  1.00  0.00     0.105 C 
ATOM     24  N   UNL     1      -2.707   4.179  -3.335  1.00  0.00    -0.192 NA
ENDBRANCH   6  23
ENDBRANCH   3   6
ENDBRANCH   1   2
BRANCH   1  25
ATOM     25  C   UNL     1      -3.471   3.358  -6.657  1.00  0.00     0.023 C 
BRANCH  25  26
ATOM     26  C   UNL     1      -3.606   3.043  -8.152  1.00  0.00     0.023 C 
BRANCH  26  27
ATOM     27  C   UNL     1      -4.597   3.922  -8.909  1.00  0.00     0.116 C 
BRANCH  27  28
ATOM     28  N   UNL     1      -4.321   5.346  -8.800  1.00  0.00    -0.352 N 
ATOM     29  C   UNL     1      -4.694   6.347  -9.665  1.00  0.00     0.251 C 
ATOM     30  H   UNL     1      -3.803   5.627  -8.011  1.00  0.00     0.163 HD
ATOM     31  O   UNL     1      -4.314   7.500  -9.498  1.00  0.00    -0.269 OA
BRANCH  29  32
ATOM     32  C   UNL     1      -5.524   6.004 -10.837  1.00  0.00     0.039 A 
ATOM     33  C   UNL     1      -5.076   6.372 -12.107  1.00  0.00     0.014 A 
ATOM     34  C   UNL     1      -6.708   5.278 -10.683  1.00  0.00     0.014 A 
ATOM     35  C   UNL     1      -5.780   5.948 -13.234  1.00  0.00     0.010 A 
ATOM     36  C   UNL     1      -7.375   4.805 -11.808  1.00  0.00     0.010 A 
ATOM     37  C   UNL     1      -6.913   5.129 -13.093  1.00  0.00    -0.014 A 
BRANCH  37  38
ATOM     38  C   UNL     1      -7.621   4.590 -14.279  1.00  0.00     0.031 A 
ATOM     39  C   UNL     1      -9.030   5.018 -14.575  1.00  0.00     0.074 A 
ATOM     40  C   UNL     1      -7.018   3.663 -15.049  1.00  0.00     0.049 A 
ATOM     41  N   UNL     1      -9.833   4.610 -15.525  1.00  0.00    -0.248 NA
ATOM     42  C   UNL     1      -9.623   6.018 -13.672  1.00  0.00     0.031 C 
ATOM     43  C   UNL     1      -5.668   3.134 -14.842  1.00  0.00     0.029 A 
ATOM     44  N   UNL     1      -7.470   2.997 -16.159  1.00  0.00    -0.354 N 
ATOM     45  C   UNL     1     -11.027   5.288 -15.323  1.00  0.00     0.074 A 
ATOM     46  C   UNL     1     -10.860   6.100 -14.137  1.00  0.00     0.031 C 
ATOM     47  C   UNL     1      -5.393   2.244 -15.810  1.00  0.00     0.029 A 
ATOM     48  C   UNL     1      -6.556   2.115 -16.682  1.00  0.00     0.049 A 
ATOM     49  H   UNL     1      -8.365   3.137 -16.545  1.00  0.00     0.167 HD
ATOM     50  C   UNL     1     -12.157   5.255 -16.069  1.00  0.00     0.031 A 
ATOM     51  C   UNL     1      -6.646   1.292 -17.743  1.00  0.00     0.031 A 
ATOM     52  C   UNL     1     -12.320   4.462 -17.258  1.00  0.00     0.049 A 
ATOM     53  C   UNL     1      -7.911   1.272 -18.553  1.00  0.00     0.074 A 
ATOM     54  C   UNL     1     -13.407   4.401 -18.112  1.00  0.00     0.029 A 
ATOM     55  N   UNL     1     -11.365   3.592 -17.761  1.00  0.00    -0.354 N 
ATOM     56  N   UNL     1      -9.011   1.965 -18.384  1.00  0.00    -0.248 NA
ATOM     57  C   UNL     1      -7.942   0.361 -19.707  1.00  0.00     0.031 C 
ATOM     58  C   UNL     1     -13.124   3.465 -19.113  1.00  0.00     0.029 A 
ATOM     59  C   UNL     1     -11.844   2.978 -18.905  1.00  0.00     0.049 A 
ATOM     60  H   UNL     1     -10.478   3.435 -17.363  1.00  0.00     0.167 HD
ATOM     61  C   UNL     1      -9.854   1.594 -19.423  1.00  0.00     0.074 A 
ATOM     62  C   UNL     1      -9.134   0.626 -20.224  1.00  0.00     0.031 C 
ATOM     63  C   UNL     1     -11.113   2.018 -19.689  1.00  0.00     0.031 A 
BRANCH  50  64
ATOM     64  C   UNL     1     -13.307   6.106 -15.615  1.00  0.00    -0.014 A 
ATOM     65  C   UNL     1     -13.266   7.504 -15.738  1.00  0.00     0.009 A 
ATOM     66  C   UNL     1     -14.458   5.503 -15.084  1.00  0.00     0.009 A 
ATOM     67  C   UNL     1     -14.340   8.284 -15.305  1.00  0.00     0.001 A 
ATOM     68  C   UNL     1     -15.541   6.284 -14.677  1.00  0.00     0.001 A 
ATOM     69  C   UNL     1     -15.478   7.673 -14.779  1.00  0.00     0.000 A 
ENDBRANCH  50  64
BRANCH  51  70
ATOM     70  C   UNL     1      -5.496   0.431 -18.119  1.00  0.00    -0.014 A 
ATOM     71  C   UNL     1      -4.739   0.721 -19.265  1.00  0.00     0.009 A 
ATOM     72  C   UNL     1      -5.157  -0.690 -17.346  1.00  0.00     0.009 A 
ATOM     73  C   UNL     1      -3.682  -0.111 -19.643  1.00  0.00     0.001 A 
ATOM     74  C   UNL     1      -4.084  -1.505 -17.713  1.00  0.00     0.001 A 
ATOM     75  C   UNL     1      -3.354  -1.220 -18.866  1.00  0.00     0.000 A 
ENDBRANCH  51  70
BRANCH  63  76
ATOM     76  C   UNL     1     -11.777   1.461 -20.915  1.00  0.00    -0.014 A 
ATOM     77  C   UNL     1     -12.264   0.146 -20.942  1.00  0.00     0.009 A 
ATOM     78  C   UNL     1     -11.949   2.277 -22.043  1.00  0.00     0.009 A 
ATOM     79  C   UNL     1     -12.887  -0.351 -22.089  1.00  0.00     0.001 A 
ATOM     80  C   UNL     1     -12.594   1.786 -23.179  1.00  0.00     0.001 A 
ATOM     81  C   UNL     1     -13.055   0.471 -23.203  1.00  0.00     0.000 A 
ENDBRANCH  63  76
ENDBRANCH  37  38
ENDBRANCH  29  32
ENDBRANCH  27  28
ENDBRANCH  26  27
ENDBRANCH  25  26
ENDBRANCH   1  25
TORSDOF 16
