REMARK SMILES CN(C)C(=O)CC(C)(C)CC(=O)NCCCCNC(=O)c1ccc(-c2c3nc(c(-c4ccccc4)c4ccc([nH]4)c(-c4ccccc4)c4nc(c(-c5ccccc5)c5ccc2[nH]5)C=C4)C=C3)cc1
REMARK SMILES IDX 15 1 14 2 13 3 11 4 12 5 10 7 7 8 8 9 9 10 6 11 4 12 1 13
REMARK SMILES IDX 2 14 3 15 5 16 16 17 17 18 18 19 19 20 20 22 21 23 22 24
REMARK SMILES IDX 68 25 23 26 67 27 24 28 25 29 26 30 61 31 27 32 66 33 60 34
REMARK SMILES IDX 62 35 28 36 65 37 59 38 58 39 29 41 51 42 36 43 50 44 37 45
REMARK SMILES IDX 40 46 49 47 63 48 38 49 39 50 48 52 64 53 41 54 30 55 31 56
REMARK SMILES IDX 35 57 32 58 34 59 33 60 52 61 53 62 57 63 54 64 56 65 55 66
REMARK SMILES IDX 42 67 43 68 47 69 44 70 46 71 45 72
REMARK H PARENT 13 6 18 21 62 40 40 51
REMARK Flexibility Score: inf
ROOT
ATOM      1  C   UNL     1       0.668   7.098   3.679  1.00  0.00     0.023 C 
ENDROOT
BRANCH   1   2
ATOM      2  C   UNL     1       1.996   6.873   2.959  1.00  0.00     0.116 C 
BRANCH   2   3
ATOM      3  N   UNL     1       2.580   5.623   3.384  1.00  0.00    -0.356 N 
ATOM      4  C   UNL     1       2.627   4.425   2.742  1.00  0.00     0.220 C 
ATOM      5  O   UNL     1       3.035   3.460   3.387  1.00  0.00    -0.275 OA
ATOM      6  H   UNL     1       3.008   5.640   4.270  1.00  0.00     0.163 HD
BRANCH   4   7
ATOM      7  C   UNL     1       2.252   4.314   1.271  1.00  0.00     0.107 C 
BRANCH   7   8
ATOM      8  C   UNL     1       0.797   3.921   0.886  1.00  0.00    -0.018 C 
ATOM      9  C   UNL     1       0.779   3.764  -0.650  1.00  0.00     0.012 C 
ATOM     10  C   UNL     1      -0.228   5.024   1.197  1.00  0.00     0.012 C 
BRANCH   8  11
ATOM     11  C   UNL     1       0.317   2.646   1.629  1.00  0.00     0.107 C 
BRANCH  11  12
ATOM     12  C   UNL     1       0.983   1.352   1.195  1.00  0.00     0.222 C 
ATOM     13  C   UNL     1       1.120  -0.579  -0.272  1.00  0.00     0.146 C 
ATOM     14  N   UNL     1       0.421   0.619   0.161  1.00  0.00    -0.349 N 
ATOM     15  C   UNL     1      -0.843   0.884  -0.509  1.00  0.00     0.146 C 
ATOM     16  O   UNL     1       2.020   0.990   1.753  1.00  0.00    -0.275 OA
ENDBRANCH  11  12
ENDBRANCH   8  11
ENDBRANCH   7   8
ENDBRANCH   4   7
ENDBRANCH   2   3
ENDBRANCH   1   2
BRANCH   1  17
ATOM     17  C   UNL     1       0.796   7.627   5.099  1.00  0.00     0.023 C 
BRANCH  17  18
ATOM     18  C   UNL     1       1.473   8.979   5.205  1.00  0.00     0.116 C 
BRANCH  18  19
ATOM     19  N   UNL     1       0.833  10.011   4.401  1.00  0.00    -0.352 N 
ATOM     20  C   UNL     1       0.587  11.320   4.740  1.00  0.00     0.251 C 
ATOM     21  H   UNL     1       0.539   9.736   3.502  1.00  0.00     0.163 HD
ATOM     22  O   UNL     1      -0.058  12.053   4.005  1.00  0.00    -0.269 OA
BRANCH  20  23
ATOM     23  C   UNL     1       1.088  11.808   6.039  1.00  0.00     0.039 A 
ATOM     24  C   UNL     1       0.203  12.441   6.912  1.00  0.00     0.014 A 
ATOM     25  C   UNL     1       2.406  11.545   6.421  1.00  0.00     0.014 A 
ATOM     26  C   UNL     1       0.627  12.752   8.203  1.00  0.00     0.010 A 
ATOM     27  C   UNL     1       2.791  11.760   7.735  1.00  0.00     0.010 A 
ATOM     28  C   UNL     1       1.911  12.380   8.635  1.00  0.00    -0.014 A 
BRANCH  28  29
ATOM     29  C   UNL     1       2.373  12.659  10.014  1.00  0.00     0.031 A 
ATOM     30  C   UNL     1       3.552  13.568  10.230  1.00  0.00     0.074 A 
ATOM     31  C   UNL     1       1.786  12.043  11.059  1.00  0.00     0.049 A 
ATOM     32  N   UNL     1       4.154  13.888  11.347  1.00  0.00    -0.248 NA
ATOM     33  C   UNL     1       4.160  14.164   9.029  1.00  0.00     0.031 C 
ATOM     34  C   UNL     1       0.680  11.086  10.973  1.00  0.00     0.029 A 
ATOM     35  N   UNL     1       2.048  12.128  12.402  1.00  0.00    -0.354 N 
ATOM     36  C   UNL     1       5.227  14.688  10.977  1.00  0.00     0.074 A 
ATOM     37  C   UNL     1       5.228  14.762   9.534  1.00  0.00     0.031 C 
ATOM     38  C   UNL     1       0.338  10.699  12.213  1.00  0.00     0.029 A 
ATOM     39  C   UNL     1       1.216  11.355  13.175  1.00  0.00     0.049 A 
ATOM     40  H   UNL     1       2.764  12.690  12.777  1.00  0.00     0.167 HD
ATOM     41  C   UNL     1       6.119  15.328  11.768  1.00  0.00     0.031 A 
ATOM     42  C   UNL     1       1.166  11.201  14.511  1.00  0.00     0.031 A 
ATOM     43  C   UNL     1       6.088  15.292  13.203  1.00  0.00     0.049 A 
ATOM     44  C   UNL     1       2.128  11.971  15.372  1.00  0.00     0.074 A 
ATOM     45  C   UNL     1       6.894  15.969  14.101  1.00  0.00     0.029 A 
ATOM     46  N   UNL     1       5.193  14.543  13.950  1.00  0.00    -0.354 N 
ATOM     47  N   UNL     1       3.088  12.788  15.011  1.00  0.00    -0.248 NA
ATOM     48  C   UNL     1       1.986  11.812  16.826  1.00  0.00     0.031 C 
ATOM     49  C   UNL     1       6.506  15.604  15.394  1.00  0.00     0.029 A 
ATOM     50  C   UNL     1       5.432  14.734  15.299  1.00  0.00     0.049 A 
ATOM     51  H   UNL     1       4.492  13.962  13.576  1.00  0.00     0.167 HD
ATOM     52  C   UNL     1       3.645  13.262  16.191  1.00  0.00     0.074 A 
ATOM     53  C   UNL     1       2.905  12.653  17.278  1.00  0.00     0.031 C 
ATOM     54  C   UNL     1       4.678  14.123  16.361  1.00  0.00     0.031 A 
BRANCH  41  55
ATOM     55  C   UNL     1       7.195  16.126  11.088  1.00  0.00    -0.014 A 
ATOM     56  C   UNL     1       6.897  17.322  10.415  1.00  0.00     0.009 A 
ATOM     57  C   UNL     1       8.525  15.684  11.134  1.00  0.00     0.009 A 
ATOM     58  C   UNL     1       7.906  18.038   9.767  1.00  0.00     0.001 A 
ATOM     59  C   UNL     1       9.536  16.419  10.511  1.00  0.00     0.001 A 
ATOM     60  C   UNL     1       9.224  17.588   9.820  1.00  0.00     0.000 A 
ENDBRANCH  41  55
BRANCH  42  61
ATOM     61  C   UNL     1       0.146  10.312  15.123  1.00  0.00    -0.014 A 
ATOM     62  C   UNL     1      -0.946  10.856  15.817  1.00  0.00     0.009 A 
ATOM     63  C   UNL     1       0.261   8.917  15.027  1.00  0.00     0.009 A 
ATOM     64  C   UNL     1      -1.885  10.022  16.427  1.00  0.00     0.001 A 
ATOM     65  C   UNL     1      -0.694   8.085  15.616  1.00  0.00     0.001 A 
ATOM     66  C   UNL     1      -1.760   8.638  16.324  1.00  0.00     0.000 A 
ENDBRANCH  42  61
BRANCH  54  67
ATOM     67  C   UNL     1       5.039  14.484  17.772  1.00  0.00    -0.014 A 
ATOM     68  C   UNL     1       5.705  13.575  18.608  1.00  0.00     0.009 A 
ATOM     69  C   UNL     1       4.741  15.768  18.256  1.00  0.00     0.009 A 
ATOM     70  C   UNL     1       6.035  13.935  19.916  1.00  0.00     0.001 A 
ATOM     71  C   UNL     1       5.096  16.132  19.555  1.00  0.00     0.001 A 
ATOM     72  C   UNL     1       5.734  15.213  20.386  1.00  0.00     0.000 A 
ENDBRANCH  54  67
ENDBRANCH  28  29
ENDBRANCH  20  23
ENDBRANCH  18  19
ENDBRANCH  17  18
ENDBRANCH   1  17
TORSDOF 14
