REMARK SMILES C=CCN(CC(=O)NCCCCNC(=O)c1ccc(-c2c3nc(c(-c4ccccc4)c4ccc([nH]4)c(-c4ccccc4)c4nc(c(-c5ccccc5)c5ccc2[nH]5)C=C4)C=C3)cc1)C(=O)C[NH3+]
REMARK SMILES IDX 9 1 8 2 6 3 7 4 5 6 4 7 3 8 2 9 1 10 64 11 65 12 66 13 67 14
REMARK SMILES IDX 10 18 11 19 12 20 13 21 14 22 15 24 16 25 17 26 63 27 18 28
REMARK SMILES IDX 62 29 19 30 20 31 21 32 56 33 22 34 61 35 55 36 57 37 23 38
REMARK SMILES IDX 60 39 54 40 53 41 24 43 46 44 31 45 45 46 32 47 35 48 44 49
REMARK SMILES IDX 58 50 33 51 34 52 43 54 59 55 36 56 25 57 26 58 30 59 27 60
REMARK SMILES IDX 29 61 28 62 47 63 48 64 52 65 49 66 51 67 50 68 37 69 38 70
REMARK SMILES IDX 42 71 39 72 41 73 40 74
REMARK H PARENT 8 5 67 15 67 16 67 17 13 23 57 42 35 53
REMARK Flexibility Score: inf
ROOT
ATOM      1  C   UNL     1      -4.446   0.756   0.576  1.00  0.00     0.116 C 
ENDROOT
BRANCH   1   2
ATOM      2  N   UNL     1      -4.714   0.992   1.977  1.00  0.00    -0.355 N 
ATOM      3  C   UNL     1      -3.904   1.524   2.937  1.00  0.00     0.239 C 
ATOM      4  O   UNL     1      -4.431   1.815   4.015  1.00  0.00    -0.273 OA
ATOM      5  H   UNL     1      -5.613   0.731   2.282  1.00  0.00     0.163 HD
BRANCH   3   6
ATOM      6  C   UNL     1      -2.425   1.852   2.658  1.00  0.00     0.220 C 
BRANCH   6   7
ATOM      7  N   UNL     1      -1.622   0.727   2.155  1.00  0.00    -0.325 N 
BRANCH   7   8
ATOM      8  C   UNL     1      -1.072   0.815   0.807  1.00  0.00     0.147 C 
BRANCH   8   9
ATOM      9  C   UNL     1       0.419   0.961   0.837  1.00  0.00    -0.014 C 
ATOM     10  C   UNL     1       1.246   0.124   0.194  1.00  0.00     0.006 C 
ENDBRANCH   8   9
ENDBRANCH   7   8
BRANCH   7  11
ATOM     11  C   UNL     1      -1.341  -0.411   2.913  1.00  0.00     0.278 C 
ATOM     12  O   UNL     1      -0.777  -1.395   2.424  1.00  0.00    -0.268 OA
BRANCH  11  13
ATOM     13  C   UNL     1      -1.793  -0.465   4.381  1.00  0.00     0.360 C 
BRANCH  13  14
ATOM     14  N   UNL     1      -1.129   0.567   5.189  1.00  0.00    -0.350 N 
ATOM     15  H   UNL     1      -0.121   0.416   5.171  1.00  0.00     0.344 HD
ATOM     16  H   UNL     1      -1.464   0.512   6.151  1.00  0.00     0.344 HD
ATOM     17  H   UNL     1      -1.343   1.488   4.806  1.00  0.00     0.344 HD
ENDBRANCH  13  14
ENDBRANCH  11  13
ENDBRANCH   7  11
ENDBRANCH   6   7
ENDBRANCH   3   6
ENDBRANCH   1   2
BRANCH   1  18
ATOM     18  C   UNL     1      -4.187  -0.717   0.268  1.00  0.00     0.023 C 
BRANCH  18  19
ATOM     19  C   UNL     1      -5.408  -1.628   0.403  1.00  0.00     0.023 C 
BRANCH  19  20
ATOM     20  C   UNL     1      -6.622  -1.220  -0.423  1.00  0.00     0.116 C 
BRANCH  20  21
ATOM     21  N   UNL     1      -6.349  -1.133  -1.849  1.00  0.00    -0.352 N 
ATOM     22  C   UNL     1      -7.153  -1.502  -2.901  1.00  0.00     0.251 C 
ATOM     23  H   UNL     1      -5.472  -0.759  -2.094  1.00  0.00     0.163 HD
ATOM     24  O   UNL     1      -6.729  -1.456  -4.052  1.00  0.00    -0.269 OA
BRANCH  22  25
ATOM     25  C   UNL     1      -8.521  -1.995  -2.635  1.00  0.00     0.039 A 
ATOM     26  C   UNL     1      -8.943  -3.175  -3.253  1.00  0.00     0.014 A 
ATOM     27  C   UNL     1      -9.372  -1.314  -1.761  1.00  0.00     0.014 A 
ATOM     28  C   UNL     1     -10.195  -3.709  -2.940  1.00  0.00     0.010 A 
ATOM     29  C   UNL     1     -10.587  -1.885  -1.395  1.00  0.00     0.010 A 
ATOM     30  C   UNL     1     -11.011  -3.088  -1.979  1.00  0.00    -0.014 A 
BRANCH  30  31
ATOM     31  C   UNL     1     -12.311  -3.679  -1.575  1.00  0.00     0.031 A 
ATOM     32  C   UNL     1     -13.593  -2.943  -1.852  1.00  0.00     0.074 A 
ATOM     33  C   UNL     1     -12.337  -4.851  -0.909  1.00  0.00     0.049 A 
ATOM     34  N   UNL     1     -14.818  -3.264  -1.520  1.00  0.00    -0.248 NA
ATOM     35  C   UNL     1     -13.482  -1.669  -2.581  1.00  0.00     0.031 C 
ATOM     36  C   UNL     1     -11.164  -5.653  -0.553  1.00  0.00     0.029 A 
ATOM     37  N   UNL     1     -13.394  -5.571  -0.410  1.00  0.00    -0.354 N 
ATOM     38  C   UNL     1     -15.618  -2.231  -1.990  1.00  0.00     0.074 A 
ATOM     39  C   UNL     1     -14.737  -1.246  -2.580  1.00  0.00     0.031 C 
ATOM     40  C   UNL     1     -11.569  -6.767   0.079  1.00  0.00     0.029 A 
ATOM     41  C   UNL     1     -13.022  -6.738   0.211  1.00  0.00     0.049 A 
ATOM     42  H   UNL     1     -14.330  -5.277  -0.490  1.00  0.00     0.167 HD
ATOM     43  C   UNL     1     -16.968  -2.120  -1.959  1.00  0.00     0.031 A 
ATOM     44  C   UNL     1     -13.767  -7.678   0.823  1.00  0.00     0.031 A 
ATOM     45  C   UNL     1     -17.848  -3.097  -1.377  1.00  0.00     0.049 A 
ATOM     46  C   UNL     1     -15.261  -7.509   0.880  1.00  0.00     0.074 A 
ATOM     47  C   UNL     1     -19.231  -3.087  -1.320  1.00  0.00     0.029 A 
ATOM     48  N   UNL     1     -17.430  -4.261  -0.754  1.00  0.00    -0.354 N 
ATOM     49  N   UNL     1     -16.005  -6.549   0.387  1.00  0.00    -0.248 NA
ATOM     50  C   UNL     1     -16.018  -8.562   1.573  1.00  0.00     0.031 C 
ATOM     51  C   UNL     1     -19.648  -4.226  -0.624  1.00  0.00     0.029 A 
ATOM     52  C   UNL     1     -18.527  -4.971  -0.296  1.00  0.00     0.049 A 
ATOM     53  H   UNL     1     -16.492  -4.543  -0.651  1.00  0.00     0.167 HD
ATOM     54  C   UNL     1     -17.317  -6.901   0.676  1.00  0.00     0.074 A 
ATOM     55  C   UNL     1     -17.267  -8.168   1.376  1.00  0.00     0.031 C 
ATOM     56  C   UNL     1     -18.461  -6.236   0.388  1.00  0.00     0.031 A 
BRANCH  43  57
ATOM     57  C   UNL     1     -17.573  -0.892  -2.581  1.00  0.00    -0.014 A 
ATOM     58  C   UNL     1     -17.563  -0.709  -3.973  1.00  0.00     0.009 A 
ATOM     59  C   UNL     1     -18.193   0.073  -1.773  1.00  0.00     0.009 A 
ATOM     60  C   UNL     1     -18.131   0.434  -4.541  1.00  0.00     0.001 A 
ATOM     61  C   UNL     1     -18.786   1.200  -2.346  1.00  0.00     0.001 A 
ATOM     62  C   UNL     1     -18.746   1.384  -3.727  1.00  0.00     0.000 A 
ENDBRANCH  43  57
BRANCH  44  63
ATOM     63  C   UNL     1     -13.125  -8.877   1.423  1.00  0.00    -0.014 A 
ATOM     64  C   UNL     1     -13.322 -10.146   0.858  1.00  0.00     0.009 A 
ATOM     65  C   UNL     1     -12.341  -8.766   2.582  1.00  0.00     0.009 A 
ATOM     66  C   UNL     1     -12.780 -11.283   1.460  1.00  0.00     0.001 A 
ATOM     67  C   UNL     1     -11.774  -9.902   3.166  1.00  0.00     0.001 A 
ATOM     68  C   UNL     1     -12.005 -11.160   2.612  1.00  0.00     0.000 A 
ENDBRANCH  44  63
BRANCH  56  69
ATOM     69  C   UNL     1     -19.755  -6.890   0.782  1.00  0.00    -0.014 A 
ATOM     70  C   UNL     1     -20.157  -6.969   2.124  1.00  0.00     0.009 A 
ATOM     71  C   UNL     1     -20.601  -7.405  -0.214  1.00  0.00     0.009 A 
ATOM     72  C   UNL     1     -21.365  -7.582   2.463  1.00  0.00     0.001 A 
ATOM     73  C   UNL     1     -21.821  -7.990   0.126  1.00  0.00     0.001 A 
ATOM     74  C   UNL     1     -22.197  -8.087   1.464  1.00  0.00     0.000 A 
ENDBRANCH  56  69
ENDBRANCH  30  31
ENDBRANCH  22  25
ENDBRANCH  20  21
ENDBRANCH  19  20
ENDBRANCH  18  19
ENDBRANCH   1  18
TORSDOF 17
