REMARK SMILES CC(=O)N[C@@H](C(=O)N(CC(=O)NCCCCNC(=O)c1ccc(-c2c3nc(c(-c4ccccc4)c4ccc([nH]4)c(-c4ccccc4)c4nc(c(-c5ccccc5)c5ccc2[nH]5)C=C4)C=C3)cc1)C(C)(C)C)C(C)C
REMARK SMILES IDX 13 1 12 2 10 3 11 4 9 6 8 7 6 8 7 9 5 10 4 11 1 12 2 13 3 14
REMARK SMILES IDX 72 16 73 17 74 18 68 19 69 20 70 21 71 22 14 23 15 24 16 25
REMARK SMILES IDX 17 26 18 27 19 29 20 30 21 31 67 32 22 33 66 34 23 35 24 36
REMARK SMILES IDX 25 37 60 38 26 39 65 40 59 41 61 42 27 43 64 44 58 45 57 46
REMARK SMILES IDX 28 48 50 49 35 50 49 51 36 52 39 53 48 54 62 55 37 56 38 57
REMARK SMILES IDX 47 59 63 60 40 61 29 62 30 63 34 64 31 65 33 66 32 67 51 68
REMARK SMILES IDX 52 69 56 70 53 71 55 72 54 73 41 74 42 75 46 76 43 77 45 78
REMARK SMILES IDX 44 79
REMARK H PARENT 12 5 4 15 17 28 61 47 39 58
REMARK Flexibility Score: inf
ROOT
ATOM      1  C   UNL     1       1.782   3.550  -2.890  1.00  0.00     0.116 C 
ENDROOT
BRANCH   1   2
ATOM      2  N   UNL     1       2.756   2.690  -3.512  1.00  0.00    -0.355 N 
ATOM      3  C   UNL     1       3.538   1.740  -2.916  1.00  0.00     0.239 C 
ATOM      4  O   UNL     1       4.023   0.867  -3.642  1.00  0.00    -0.273 OA
ATOM      5  H   UNL     1       2.873   2.799  -4.484  1.00  0.00     0.163 HD
BRANCH   3   6
ATOM      6  C   UNL     1       3.709   1.657  -1.380  1.00  0.00     0.220 C 
BRANCH   6   7
ATOM      7  N   UNL     1       4.012   2.902  -0.653  1.00  0.00    -0.327 N 
BRANCH   7   8
ATOM      8  C   UNL     1       3.091   3.516   0.223  1.00  0.00     0.246 C 
ATOM      9  O   UNL     1       3.225   4.709   0.519  1.00  0.00    -0.272 OA
BRANCH   8  10
ATOM     10  C   UNL     1       1.891   2.699   0.886  1.00  0.00     0.174 C 
BRANCH  10  11
ATOM     11  N   UNL     1       0.879   2.274  -0.094  1.00  0.00    -0.344 N 
ATOM     12  C   UNL     1       0.800  -0.132   0.471  1.00  0.00     0.114 C 
ATOM     13  C   UNL     1       0.340   1.048  -0.338  1.00  0.00     0.217 C 
ATOM     14  O   UNL     1      -0.514   0.946  -1.216  1.00  0.00    -0.275 OA
ATOM     15  H   UNL     1       0.536   2.995  -0.669  1.00  0.00     0.164 HD
ENDBRANCH  10  11
BRANCH  10  16
ATOM     16  C   UNL     1       1.160   3.588   1.951  1.00  0.00     0.015 C 
ATOM     17  C   UNL     1      -0.188   3.011   2.415  1.00  0.00     0.010 C 
ATOM     18  C   UNL     1       2.027   3.838   3.189  1.00  0.00     0.010 C 
ENDBRANCH  10  16
ENDBRANCH   8  10
ENDBRANCH   7   8
BRANCH   7  19
ATOM     19  C   UNL     1       5.340   3.589  -0.946  1.00  0.00     0.035 C 
ATOM     20  C   UNL     1       5.163   4.906  -1.726  1.00  0.00     0.034 C 
ATOM     21  C   UNL     1       6.089   3.872   0.377  1.00  0.00     0.034 C 
ATOM     22  C   UNL     1       6.322   2.735  -1.797  1.00  0.00     0.034 C 
ENDBRANCH   7  19
ENDBRANCH   6   7
ENDBRANCH   3   6
ENDBRANCH   1   2
BRANCH   1  23
ATOM     23  C   UNL     1       1.871   5.020  -3.261  1.00  0.00     0.023 C 
BRANCH  23  24
ATOM     24  C   UNL     1       1.455   5.340  -4.684  1.00  0.00     0.023 C 
BRANCH  24  25
ATOM     25  C   UNL     1       0.041   4.903  -5.028  1.00  0.00     0.116 C 
BRANCH  25  26
ATOM     26  N   UNL     1      -0.971   5.506  -4.167  1.00  0.00    -0.352 N 
ATOM     27  C   UNL     1      -2.102   6.196  -4.530  1.00  0.00     0.251 C 
ATOM     28  H   UNL     1      -0.824   5.405  -3.199  1.00  0.00     0.163 HD
ATOM     29  O   UNL     1      -2.795   6.762  -3.692  1.00  0.00    -0.269 OA
BRANCH  27  30
ATOM     30  C   UNL     1      -2.445   6.277  -5.961  1.00  0.00     0.039 A 
ATOM     31  C   UNL     1      -2.672   7.527  -6.537  1.00  0.00     0.014 A 
ATOM     32  C   UNL     1      -2.435   5.118  -6.742  1.00  0.00     0.014 A 
ATOM     33  C   UNL     1      -2.806   7.624  -7.922  1.00  0.00     0.010 A 
ATOM     34  C   UNL     1      -2.468   5.230  -8.124  1.00  0.00     0.010 A 
ATOM     35  C   UNL     1      -2.658   6.483  -8.727  1.00  0.00    -0.014 A 
BRANCH  35  36
ATOM     36  C   UNL     1      -2.708   6.567 -10.206  1.00  0.00     0.031 A 
ATOM     37  C   UNL     1      -3.783   5.831 -10.956  1.00  0.00     0.074 A 
ATOM     38  C   UNL     1      -1.747   7.233 -10.875  1.00  0.00     0.049 A 
ATOM     39  N   UNL     1      -3.953   5.708 -12.247  1.00  0.00    -0.248 NA
ATOM     40  C   UNL     1      -4.780   5.109 -10.147  1.00  0.00     0.031 C 
ATOM     41  C   UNL     1      -0.620   7.944 -10.266  1.00  0.00     0.029 A 
ATOM     42  N   UNL     1      -1.562   7.412 -12.223  1.00  0.00    -0.354 N 
ATOM     43  C   UNL     1      -5.055   4.877 -12.402  1.00  0.00     0.074 A 
ATOM     44  C   UNL     1      -5.480   4.481 -11.078  1.00  0.00     0.031 C 
ATOM     45  C   UNL     1       0.118   8.510 -11.235  1.00  0.00     0.029 A 
ATOM     46  C   UNL     1      -0.457   8.169 -12.531  1.00  0.00     0.049 A 
ATOM     47  H   UNL     1      -2.163   7.035 -12.904  1.00  0.00     0.167 HD
ATOM     48  C   UNL     1      -5.675   4.496 -13.543  1.00  0.00     0.031 A 
ATOM     49  C   UNL     1       0.036   8.544 -13.726  1.00  0.00     0.031 A 
ATOM     50  C   UNL     1      -5.269   4.911 -14.857  1.00  0.00     0.049 A 
ATOM     51  C   UNL     1      -0.675   8.115 -14.979  1.00  0.00     0.074 A 
ATOM     52  C   UNL     1      -5.868   4.634 -16.072  1.00  0.00     0.029 A 
ATOM     53  N   UNL     1      -4.158   5.695 -15.124  1.00  0.00    -0.354 N 
ATOM     54  N   UNL     1      -1.758   7.386 -15.106  1.00  0.00    -0.248 NA
ATOM     55  C   UNL     1      -0.102   8.571 -16.253  1.00  0.00     0.031 C 
ATOM     56  C   UNL     1      -5.095   5.218 -17.081  1.00  0.00     0.029 A 
ATOM     57  C   UNL     1      -4.043   5.898 -16.488  1.00  0.00     0.049 A 
ATOM     58  H   UNL     1      -3.542   6.055 -14.445  1.00  0.00     0.167 HD
ATOM     59  C   UNL     1      -2.010   7.318 -16.470  1.00  0.00     0.074 A 
ATOM     60  C   UNL     1      -0.976   8.092 -17.127  1.00  0.00     0.031 C 
ATOM     61  C   UNL     1      -3.009   6.673 -17.121  1.00  0.00     0.031 A 
BRANCH  48  62
ATOM     62  C   UNL     1      -6.862   3.584 -13.409  1.00  0.00    -0.014 A 
ATOM     63  C   UNL     1      -8.073   4.043 -12.865  1.00  0.00     0.009 A 
ATOM     64  C   UNL     1      -6.774   2.254 -13.846  1.00  0.00     0.009 A 
ATOM     65  C   UNL     1      -9.159   3.178 -12.726  1.00  0.00     0.001 A 
ATOM     66  C   UNL     1      -7.872   1.399 -13.734  1.00  0.00     0.001 A 
ATOM     67  C   UNL     1      -9.059   1.858 -13.165  1.00  0.00     0.000 A 
ENDBRANCH  48  62
BRANCH  49  68
ATOM     68  C   UNL     1       1.253   9.394 -13.799  1.00  0.00    -0.014 A 
ATOM     69  C   UNL     1       1.156  10.739 -14.185  1.00  0.00     0.009 A 
ATOM     70  C   UNL     1       2.515   8.866 -13.489  1.00  0.00     0.009 A 
ATOM     71  C   UNL     1       2.301  11.532 -14.286  1.00  0.00     0.001 A 
ATOM     72  C   UNL     1       3.656   9.669 -13.565  1.00  0.00     0.001 A 
ATOM     73  C   UNL     1       3.550  10.997 -13.972  1.00  0.00     0.000 A 
ENDBRANCH  49  68
BRANCH  61  74
ATOM     74  C   UNL     1      -3.051   6.807 -18.616  1.00  0.00    -0.014 A 
ATOM     75  C   UNL     1      -2.131   6.132 -19.432  1.00  0.00     0.009 A 
ATOM     76  C   UNL     1      -4.055   7.584 -19.214  1.00  0.00     0.009 A 
ATOM     77  C   UNL     1      -2.199   6.257 -20.821  1.00  0.00     0.001 A 
ATOM     78  C   UNL     1      -4.137   7.685 -20.603  1.00  0.00     0.001 A 
ATOM     79  C   UNL     1      -3.204   7.029 -21.405  1.00  0.00     0.000 A 
ENDBRANCH  61  74
ENDBRANCH  35  36
ENDBRANCH  27  30
ENDBRANCH  25  26
ENDBRANCH  24  25
ENDBRANCH  23  24
ENDBRANCH   1  23
TORSDOF 17
