REMARK SMILES Cc1ccc(NC(=O)Cn2c(CCC(=O)NCCCCNC(=O)c3ccc(-c4c5nc(c(-c6ccccc6)c6ccc([nH]6)c(-c6ccccc6)c6nc(c(-c7ccccc7)c7ccc4[nH]7)C=C6)C=C5)cc3)ccc2-c2ccccc2)cc1
REMARK SMILES IDX 17 1 16 2 14 3 15 4 13 6 12 7 11 8 10 9 74 10 72 11 73 12
REMARK SMILES IDX 9 13 7 14 6 15 8 17 5 18 1 19 2 20 3 21 82 22 4 23 81 24
REMARK SMILES IDX 75 25 76 26 80 27 77 28 79 29 78 30 18 31 19 32 20 33 21 34
REMARK SMILES IDX 22 35 23 37 24 38 25 39 71 40 26 41 70 42 27 43 28 44 29 45
REMARK SMILES IDX 64 46 30 47 69 48 63 49 65 50 31 51 68 52 62 53 61 54 32 56
REMARK SMILES IDX 54 57 39 58 53 59 40 60 43 61 52 62 66 63 41 64 42 65 51 67
REMARK SMILES IDX 67 68 44 69 33 70 34 71 38 72 35 73 37 74 36 75 55 76 56 77
REMARK SMILES IDX 60 78 57 79 59 80 58 81 45 82 46 83 50 84 47 85 49 86 48 87
REMARK H PARENT 16 5 6 16 21 36 65 55 43 66
REMARK Flexibility Score: inf
ROOT
ATOM      1  C   UNL     1      -5.545  -2.763  -2.712  1.00  0.00     0.116 C 
ENDROOT
BRANCH   1   2
ATOM      2  N   UNL     1      -5.484  -1.778  -1.642  1.00  0.00    -0.356 N 
ATOM      3  C   UNL     1      -4.811  -0.593  -1.584  1.00  0.00     0.220 C 
ATOM      4  O   UNL     1      -5.079   0.208  -0.685  1.00  0.00    -0.275 OA
ATOM      5  H   UNL     1      -6.008  -2.001  -0.838  1.00  0.00     0.163 HD
BRANCH   3   6
ATOM      6  C   UNL     1      -3.722  -0.267  -2.577  1.00  0.00     0.106 C 
BRANCH   6   7
ATOM      7  C   UNL     1      -2.353  -0.348  -1.911  1.00  0.00     0.064 C 
BRANCH   7   8
ATOM      8  C   UNL     1      -1.712  -1.710  -1.917  1.00  0.00     0.019 A 
ATOM      9  N   UNL     1      -1.729  -2.705  -0.940  1.00  0.00    -0.335 N 
ATOM     10  C   UNL     1      -1.050  -3.832  -1.454  1.00  0.00     0.049 A 
ATOM     11  C   UNL     1      -0.903  -2.162  -2.949  1.00  0.00     0.024 A 
ATOM     12  C   UNL     1      -0.484  -3.465  -2.657  1.00  0.00     0.029 A 
BRANCH   9  13
ATOM     13  C   UNL     1      -2.376  -2.777   0.386  1.00  0.00     0.222 C 
BRANCH  13  14
ATOM     14  C   UNL     1      -2.979  -1.572   1.073  1.00  0.00     0.244 C 
ATOM     15  N   UNL     1      -2.280  -0.436   1.382  1.00  0.00    -0.325 N 
ATOM     16  H   UNL     1      -2.813   0.289   1.782  1.00  0.00     0.169 HD
ATOM     17  O   UNL     1      -4.165  -1.623   1.430  1.00  0.00    -0.273 OA
BRANCH  15  18
ATOM     18  C   UNL     1      -0.918  -0.155   1.213  1.00  0.00     0.041 A 
ATOM     19  C   UNL     1       3.075   0.573  -0.173  1.00  0.00     0.044 C 
ATOM     20  C   UNL     1       1.716   0.379   0.426  1.00  0.00    -0.051 A 
ATOM     21  C   UNL     1       1.374  -0.863   0.966  1.00  0.00     0.005 A 
ATOM     22  C   UNL     1       0.749   1.389   0.376  1.00  0.00     0.005 A 
ATOM     23  C   UNL     1       0.068  -1.121   1.371  1.00  0.00     0.026 A 
ATOM     24  C   UNL     1      -0.558   1.133   0.801  1.00  0.00     0.026 A 
ENDBRANCH  15  18
ENDBRANCH  13  14
ENDBRANCH   9  13
BRANCH  10  25
ATOM     25  C   UNL     1      -1.063  -5.198  -0.910  1.00  0.00    -0.002 A 
ATOM     26  C   UNL     1       0.030  -5.747  -0.239  1.00  0.00     0.010 A 
ATOM     27  C   UNL     1      -2.130  -6.045  -1.232  1.00  0.00     0.010 A 
ATOM     28  C   UNL     1       0.024  -7.102   0.128  1.00  0.00     0.001 A 
ATOM     29  C   UNL     1      -2.157  -7.384  -0.847  1.00  0.00     0.001 A 
ATOM     30  C   UNL     1      -1.073  -7.915  -0.164  1.00  0.00     0.000 A 
ENDBRANCH  10  25
ENDBRANCH   7   8
ENDBRANCH   6   7
ENDBRANCH   3   6
ENDBRANCH   1   2
BRANCH   1  31
ATOM     31  C   UNL     1      -4.892  -4.091  -2.344  1.00  0.00     0.023 C 
BRANCH  31  32
ATOM     32  C   UNL     1      -5.716  -5.038  -1.449  1.00  0.00     0.023 C 
BRANCH  32  33
ATOM     33  C   UNL     1      -6.421  -6.197  -2.201  1.00  0.00     0.116 C 
BRANCH  33  34
ATOM     34  N   UNL     1      -5.484  -7.127  -2.836  1.00  0.00    -0.352 N 
ATOM     35  C   UNL     1      -5.626  -8.365  -3.436  1.00  0.00     0.251 C 
ATOM     36  H   UNL     1      -4.555  -6.800  -2.837  1.00  0.00     0.163 HD
ATOM     37  O   UNL     1      -4.601  -9.023  -3.604  1.00  0.00    -0.269 OA
BRANCH  35  38
ATOM     38  C   UNL     1      -6.922  -8.951  -3.900  1.00  0.00     0.039 A 
ATOM     39  C   UNL     1      -7.083 -10.356  -3.956  1.00  0.00     0.014 A 
ATOM     40  C   UNL     1      -7.947  -8.174  -4.410  1.00  0.00     0.014 A 
ATOM     41  C   UNL     1      -8.300 -10.968  -4.372  1.00  0.00     0.010 A 
ATOM     42  C   UNL     1      -9.118  -8.787  -4.889  1.00  0.00     0.010 A 
ATOM     43  C   UNL     1      -9.367 -10.182  -4.805  1.00  0.00    -0.014 A 
BRANCH  43  44
ATOM     44  C   UNL     1     -10.826 -10.582  -4.675  1.00  0.00     0.031 A 
ATOM     45  C   UNL     1     -11.417  -9.892  -3.529  1.00  0.00     0.074 A 
ATOM     46  C   UNL     1     -11.799 -10.776  -5.614  1.00  0.00     0.049 A 
ATOM     47  N   UNL     1     -11.840  -8.695  -3.744  1.00  0.00    -0.248 NA
ATOM     48  C   UNL     1     -11.397 -10.311  -2.148  1.00  0.00     0.031 C 
ATOM     49  C   UNL     1     -11.584 -11.103  -7.009  1.00  0.00     0.029 A 
ATOM     50  N   UNL     1     -13.198 -10.469  -5.535  1.00  0.00    -0.354 N 
ATOM     51  C   UNL     1     -12.138  -8.143  -2.547  1.00  0.00     0.074 A 
ATOM     52  C   UNL     1     -11.894  -9.201  -1.577  1.00  0.00     0.031 C 
ATOM     53  C   UNL     1     -12.718 -10.847  -7.691  1.00  0.00     0.029 A 
ATOM     54  C   UNL     1     -13.755 -10.273  -6.801  1.00  0.00     0.049 A 
ATOM     55  H   UNL     1     -13.704 -10.405  -4.692  1.00  0.00     0.167 HD
ATOM     56  C   UNL     1     -12.605  -6.870  -2.560  1.00  0.00     0.031 A 
ATOM     57  C   UNL     1     -14.655  -9.336  -7.249  1.00  0.00     0.031 A 
ATOM     58  C   UNL     1     -12.174  -6.038  -3.718  1.00  0.00     0.049 A 
ATOM     59  C   UNL     1     -13.742  -8.340  -7.869  1.00  0.00     0.074 A 
ATOM     60  C   UNL     1     -11.716  -4.739  -3.852  1.00  0.00     0.029 A 
ATOM     61  N   UNL     1     -12.066  -6.566  -5.004  1.00  0.00    -0.354 N 
ATOM     62  N   UNL     1     -13.066  -7.532  -7.116  1.00  0.00    -0.248 NA
ATOM     63  C   UNL     1     -13.532  -8.187  -9.291  1.00  0.00     0.031 C 
ATOM     64  C   UNL     1     -11.271  -4.541  -5.202  1.00  0.00     0.029 A 
ATOM     65  C   UNL     1     -11.456  -5.713  -5.919  1.00  0.00     0.049 A 
ATOM     66  H   UNL     1     -12.393  -7.464  -5.244  1.00  0.00     0.167 HD
ATOM     67  C   UNL     1     -12.195  -6.858  -7.918  1.00  0.00     0.074 A 
ATOM     68  C   UNL     1     -12.557  -7.269  -9.269  1.00  0.00     0.031 C 
ATOM     69  C   UNL     1     -11.207  -6.122  -7.335  1.00  0.00     0.031 A 
BRANCH  56  70
ATOM     70  C   UNL     1     -13.684  -6.488  -1.584  1.00  0.00    -0.014 A 
ATOM     71  C   UNL     1     -14.669  -5.590  -2.028  1.00  0.00     0.009 A 
ATOM     72  C   UNL     1     -13.925  -7.121  -0.351  1.00  0.00     0.009 A 
ATOM     73  C   UNL     1     -15.858  -5.393  -1.315  1.00  0.00     0.001 A 
ATOM     74  C   UNL     1     -15.125  -6.955   0.349  1.00  0.00     0.001 A 
ATOM     75  C   UNL     1     -16.098  -6.096  -0.140  1.00  0.00     0.000 A 
ENDBRANCH  56  70
BRANCH  57  76
ATOM     76  C   UNL     1     -15.903  -8.646  -6.730  1.00  0.00    -0.014 A 
ATOM     77  C   UNL     1     -17.147  -9.277  -6.867  1.00  0.00     0.009 A 
ATOM     78  C   UNL     1     -15.942  -7.249  -6.475  1.00  0.00     0.009 A 
ATOM     79  C   UNL     1     -18.349  -8.536  -6.830  1.00  0.00     0.001 A 
ATOM     80  C   UNL     1     -17.131  -6.507  -6.468  1.00  0.00     0.001 A 
ATOM     81  C   UNL     1     -18.339  -7.151  -6.663  1.00  0.00     0.000 A 
ENDBRANCH  57  76
BRANCH  69  82
ATOM     82  C   UNL     1      -9.902  -5.818  -8.063  1.00  0.00    -0.014 A 
ATOM     83  C   UNL     1      -9.650  -6.046  -9.430  1.00  0.00     0.009 A 
ATOM     84  C   UNL     1      -8.785  -5.393  -7.319  1.00  0.00     0.009 A 
ATOM     85  C   UNL     1      -8.399  -5.834 -10.027  1.00  0.00     0.001 A 
ATOM     86  C   UNL     1      -7.528  -5.173  -7.906  1.00  0.00     0.001 A 
ATOM     87  C   UNL     1      -7.337  -5.387  -9.265  1.00  0.00     0.000 A 
ENDBRANCH  69  82
ENDBRANCH  43  44
ENDBRANCH  35  38
ENDBRANCH  33  34
ENDBRANCH  32  33
ENDBRANCH  31  32
ENDBRANCH   1  31
TORSDOF 17
