REMARK SMILES Cc1nsc(N(C)C(=O)[C@H]2CCOC2)c1C(=O)NCCCCNC(=O)c1ccc(-c2c3nc(c(-c4ccccc4)c4ccc([nH]4)c(-c4ccccc4)c4nc(c(-c5ccccc5)c5ccc2[nH]5)C=C4)C=C3)cc1
REMARK SMILES IDX 20 1 19 2 18 3 16 4 17 5 15 7 1 8 2 9 3 10 4 11 5 12 6 13
REMARK SMILES IDX 7 14 8 15 9 16 10 17 11 18 14 19 12 20 13 21 21 22 22 23
REMARK SMILES IDX 23 24 24 25 25 27 26 28 27 29 73 30 28 31 72 32 29 33 30 34
REMARK SMILES IDX 31 35 66 36 32 37 71 38 65 39 67 40 33 41 70 42 64 43 63 44
REMARK SMILES IDX 34 46 56 47 41 48 55 49 42 50 45 51 54 52 68 53 43 54 44 55
REMARK SMILES IDX 53 57 69 58 46 59 35 60 36 61 40 62 37 63 39 64 38 65 57 66
REMARK SMILES IDX 58 67 62 68 59 69 61 70 60 71 47 72 48 73 52 74 49 75 51 76
REMARK SMILES IDX 50 77
REMARK H PARENT 18 6 23 26 67 45 45 56
REMARK Flexibility Score: inf
ROOT
ATOM      1  C   UNL     1       3.826   6.167  10.342  1.00  0.00     0.023 C 
ENDROOT
BRANCH   1   2
ATOM      2  C   UNL     1       2.447   6.734   9.998  1.00  0.00     0.116 C 
BRANCH   2   3
ATOM      3  N   UNL     1       2.071   6.537   8.614  1.00  0.00    -0.352 N 
ATOM      4  C   UNL     1       0.900   6.005   8.115  1.00  0.00     0.256 C 
ATOM      5  O   UNL     1       0.245   6.744   7.372  1.00  0.00    -0.269 OA
ATOM      6  H   UNL     1       2.736   6.817   7.945  1.00  0.00     0.163 HD
BRANCH   4   7
ATOM      7  C   UNL     1       0.509   4.599   8.314  1.00  0.00     0.097 A 
ATOM      8  C   UNL     1       0.920   4.063  10.916  1.00  0.00     0.069 C 
ATOM      9  C   UNL     1       0.467   3.779   9.529  1.00  0.00     0.066 A 
ATOM     10  N   UNL     1      -0.121   2.590   9.416  1.00  0.00    -0.195 NA
ATOM     11  S   UNL     1      -0.650   2.379   7.896  1.00  0.00    -0.017 S 
ATOM     12  C   UNL     1      -0.034   3.840   7.252  1.00  0.00     0.131 A 
BRANCH  12  13
ATOM     13  N   UNL     1      -0.167   4.026   5.847  1.00  0.00    -0.305 N 
ATOM     14  C   UNL     1      -1.100   3.256   5.015  1.00  0.00     0.154 C 
BRANCH  13  15
ATOM     15  C   UNL     1       0.764   4.871   5.213  1.00  0.00     0.232 C 
ATOM     16  O   UNL     1       1.882   5.106   5.682  1.00  0.00    -0.274 OA
BRANCH  15  17
ATOM     17  C   UNL     1       0.403   5.398   3.818  1.00  0.00     0.107 C 
ATOM     18  C   UNL     1      -0.882   6.195   3.700  1.00  0.00     0.044 C 
ATOM     19  C   UNL     1       1.409   6.436   3.337  1.00  0.00     0.173 C 
ATOM     20  C   UNL     1      -0.657   6.986   2.429  1.00  0.00     0.161 C 
ATOM     21  O   UNL     1       0.750   7.223   2.330  1.00  0.00    -0.381 OA
ENDBRANCH  15  17
ENDBRANCH  13  15
ENDBRANCH  12  13
ENDBRANCH   4   7
ENDBRANCH   2   3
ENDBRANCH   1   2
BRANCH   1  22
ATOM     22  C   UNL     1       5.006   7.118  10.093  1.00  0.00     0.023 C 
BRANCH  22  23
ATOM     23  C   UNL     1       5.007   8.392  10.936  1.00  0.00     0.116 C 
BRANCH  23  24
ATOM     24  N   UNL     1       5.107   8.143  12.374  1.00  0.00    -0.352 N 
ATOM     25  C   UNL     1       4.919   9.062  13.386  1.00  0.00     0.251 C 
ATOM     26  H   UNL     1       5.331   7.224  12.648  1.00  0.00     0.163 HD
ATOM     27  O   UNL     1       5.415   8.908  14.500  1.00  0.00    -0.269 OA
BRANCH  25  28
ATOM     28  C   UNL     1       4.066  10.227  13.113  1.00  0.00     0.039 A 
ATOM     29  C   UNL     1       4.473  11.529  13.416  1.00  0.00     0.014 A 
ATOM     30  C   UNL     1       2.849   9.975  12.480  1.00  0.00     0.014 A 
ATOM     31  C   UNL     1       3.676  12.593  12.999  1.00  0.00     0.010 A 
ATOM     32  C   UNL     1       2.123  11.024  11.976  1.00  0.00     0.010 A 
ATOM     33  C   UNL     1       2.510  12.333  12.263  1.00  0.00    -0.014 A 
BRANCH  33  34
ATOM     34  C   UNL     1       1.766  13.415  11.623  1.00  0.00     0.031 A 
ATOM     35  C   UNL     1       2.563  14.216  10.648  1.00  0.00     0.074 A 
ATOM     36  C   UNL     1       0.417  13.491  11.696  1.00  0.00     0.049 A 
ATOM     37  N   UNL     1       2.825  15.481  10.687  1.00  0.00    -0.248 NA
ATOM     38  C   UNL     1       3.261  13.503   9.561  1.00  0.00     0.031 C 
ATOM     39  C   UNL     1      -0.496  12.561  12.375  1.00  0.00     0.029 A 
ATOM     40  N   UNL     1      -0.443  14.329  11.056  1.00  0.00    -0.354 N 
ATOM     41  C   UNL     1       3.538  15.765   9.523  1.00  0.00     0.074 A 
ATOM     42  C   UNL     1       3.932  14.495   8.973  1.00  0.00     0.031 C 
ATOM     43  C   UNL     1      -1.749  12.726  11.899  1.00  0.00     0.029 A 
ATOM     44  C   UNL     1      -1.761  13.877  11.016  1.00  0.00     0.049 A 
ATOM     45  H   UNL     1      -0.159  15.182  10.654  1.00  0.00     0.167 HD
ATOM     46  C   UNL     1       3.503  17.007   8.960  1.00  0.00     0.031 A 
ATOM     47  C   UNL     1      -2.785  14.385  10.285  1.00  0.00     0.031 A 
ATOM     48  C   UNL     1       2.988  17.985   9.885  1.00  0.00     0.049 A 
ATOM     49  C   UNL     1      -2.400  15.755   9.882  1.00  0.00     0.074 A 
ATOM     50  C   UNL     1       3.365  18.459  11.125  1.00  0.00     0.029 A 
ATOM     51  N   UNL     1       1.672  18.345   9.725  1.00  0.00    -0.354 N 
ATOM     52  N   UNL     1      -2.256  16.733  10.728  1.00  0.00    -0.248 NA
ATOM     53  C   UNL     1      -1.720  15.922   8.608  1.00  0.00     0.031 C 
ATOM     54  C   UNL     1       2.140  18.650  11.830  1.00  0.00     0.029 A 
ATOM     55  C   UNL     1       1.085  18.364  10.960  1.00  0.00     0.049 A 
ATOM     56  H   UNL     1       1.229  18.552   8.870  1.00  0.00     0.167 HD
ATOM     57  C   UNL     1      -1.117  17.397  10.300  1.00  0.00     0.074 A 
ATOM     58  C   UNL     1      -0.895  16.922   8.933  1.00  0.00     0.031 C 
ATOM     59  C   UNL     1      -0.302  18.034  11.193  1.00  0.00     0.031 A 
BRANCH  46  60
ATOM     60  C   UNL     1       3.459  17.249   7.464  1.00  0.00    -0.014 A 
ATOM     61  C   UNL     1       3.321  18.576   7.010  1.00  0.00     0.009 A 
ATOM     62  C   UNL     1       3.226  16.236   6.516  1.00  0.00     0.009 A 
ATOM     63  C   UNL     1       2.855  18.864   5.721  1.00  0.00     0.001 A 
ATOM     64  C   UNL     1       2.802  16.521   5.214  1.00  0.00     0.001 A 
ATOM     65  C   UNL     1       2.579  17.835   4.829  1.00  0.00     0.000 A 
ENDBRANCH  46  60
BRANCH  47  66
ATOM     66  C   UNL     1      -3.954  13.695   9.694  1.00  0.00    -0.014 A 
ATOM     67  C   UNL     1      -5.092  14.413   9.288  1.00  0.00     0.009 A 
ATOM     68  C   UNL     1      -3.844  12.358   9.271  1.00  0.00     0.009 A 
ATOM     69  C   UNL     1      -6.063  13.824   8.463  1.00  0.00     0.001 A 
ATOM     70  C   UNL     1      -4.812  11.770   8.448  1.00  0.00     0.001 A 
ATOM     71  C   UNL     1      -5.915  12.508   8.033  1.00  0.00     0.000 A 
ENDBRANCH  47  66
BRANCH  59  72
ATOM     72  C   UNL     1      -0.798  18.197  12.609  1.00  0.00    -0.014 A 
ATOM     73  C   UNL     1      -1.070  17.114  13.465  1.00  0.00     0.009 A 
ATOM     74  C   UNL     1      -0.837  19.492  13.144  1.00  0.00     0.009 A 
ATOM     75  C   UNL     1      -1.397  17.328  14.809  1.00  0.00     0.001 A 
ATOM     76  C   UNL     1      -1.142  19.704  14.489  1.00  0.00     0.001 A 
ATOM     77  C   UNL     1      -1.427  18.624  15.321  1.00  0.00     0.000 A 
ENDBRANCH  59  72
ENDBRANCH  33  34
ENDBRANCH  25  28
ENDBRANCH  23  24
ENDBRANCH  22  23
ENDBRANCH   1  22
TORSDOF 14
