REMARK SMILES O=C(/C=C/C(=O)N1CCn2c1nc1ccccc12)NCCCCNC(=O)c1ccc(-c2c3nc(c(-c4ccccc4)c4ccc([nH]4)c(-c4ccccc4)c4nc(c(-c5ccccc5)c5ccc2[nH]5)C=C4)C=C3)cc1
REMARK SMILES IDX 21 1 20 2 19 3 1 4 2 5 3 7 4 8 5 9 6 10 7 11 8 12 11 13 9 14
REMARK SMILES IDX 10 15 12 16 18 17 13 18 17 19 14 20 16 21 15 22 22 23 23 24
REMARK SMILES IDX 24 25 25 26 26 28 27 29 28 30 74 31 29 32 73 33 30 34 31 35
REMARK SMILES IDX 32 36 67 37 33 38 72 39 66 40 68 41 34 42 71 43 65 44 64 45
REMARK SMILES IDX 35 47 57 48 42 49 56 50 43 51 46 52 55 53 69 54 44 55 45 56
REMARK SMILES IDX 54 58 70 59 47 60 36 61 37 62 41 63 38 64 40 65 39 66 58 67
REMARK SMILES IDX 59 68 63 69 60 70 62 71 61 72 48 73 49 74 53 75 50 76 52 77
REMARK SMILES IDX 51 78
REMARK H PARENT 19 6 24 27 68 46 46 57
REMARK Flexibility Score: inf
ROOT
ATOM      1  C   UNL     1       2.231  -2.847  -2.122  1.00  0.00     0.023 C 
ENDROOT
BRANCH   1   2
ATOM      2  C   UNL     1       1.706  -2.229  -0.822  1.00  0.00     0.116 C 
BRANCH   2   3
ATOM      3  N   UNL     1       2.407  -1.013  -0.448  1.00  0.00    -0.353 N 
ATOM      4  O   UNL     1       0.513   0.187   0.047  1.00  0.00    -0.270 OA
ATOM      5  C   UNL     1       1.732   0.107  -0.031  1.00  0.00     0.244 C 
ATOM      6  H   UNL     1       3.390  -0.992  -0.496  1.00  0.00     0.163 HD
BRANCH   5   7
ATOM      7  C   UNL     1       2.566   1.308   0.205  1.00  0.00     0.077 C 
ATOM      8  C   UNL     1       3.811   1.303   0.702  1.00  0.00     0.077 C 
BRANCH   8   9
ATOM      9  C   UNL     1       4.625   2.543   0.706  1.00  0.00     0.253 C 
ATOM     10  O   UNL     1       5.725   2.491   0.150  1.00  0.00    -0.269 OA
BRANCH   9  11
ATOM     11  N   UNL     1       4.162   3.697   1.271  1.00  0.00    -0.277 N 
ATOM     12  C   UNL     1       4.815   5.002   1.071  1.00  0.00     0.151 C 
ATOM     13  C   UNL     1       3.111   3.835   2.134  1.00  0.00     0.213 A 
ATOM     14  C   UNL     1       4.032   5.989   1.956  1.00  0.00     0.148 C 
ATOM     15  N   UNL     1       3.004   5.137   2.518  1.00  0.00    -0.308 N 
ATOM     16  N   UNL     1       2.216   3.084   2.710  1.00  0.00    -0.212 NA
ATOM     17  C   UNL     1       1.965   5.288   3.363  1.00  0.00     0.070 A 
ATOM     18  C   UNL     1       1.477   3.978   3.477  1.00  0.00     0.091 A 
ATOM     19  C   UNL     1       1.405   6.381   4.027  1.00  0.00     0.028 A 
ATOM     20  C   UNL     1       0.368   3.742   4.303  1.00  0.00     0.031 A 
ATOM     21  C   UNL     1       0.297   6.118   4.840  1.00  0.00     0.002 A 
ATOM     22  C   UNL     1      -0.213   4.824   4.979  1.00  0.00     0.002 A 
ENDBRANCH   9  11
ENDBRANCH   8   9
ENDBRANCH   5   7
ENDBRANCH   2   3
ENDBRANCH   1   2
BRANCH   1  23
ATOM     23  C   UNL     1       3.714  -3.231  -2.114  1.00  0.00     0.023 C 
BRANCH  23  24
ATOM     24  C   UNL     1       4.111  -4.190  -0.993  1.00  0.00     0.116 C 
BRANCH  24  25
ATOM     25  N   UNL     1       3.844  -5.589  -1.298  1.00  0.00    -0.352 N 
ATOM     26  C   UNL     1       4.628  -6.500  -1.975  1.00  0.00     0.251 C 
ATOM     27  H   UNL     1       2.980  -5.934  -0.975  1.00  0.00     0.163 HD
ATOM     28  O   UNL     1       4.235  -7.634  -2.200  1.00  0.00    -0.269 OA
BRANCH  26  29
ATOM     29  C   UNL     1       5.936  -6.053  -2.489  1.00  0.00     0.039 A 
ATOM     30  C   UNL     1       6.887  -5.522  -1.618  1.00  0.00     0.014 A 
ATOM     31  C   UNL     1       6.146  -6.059  -3.871  1.00  0.00     0.014 A 
ATOM     32  C   UNL     1       7.953  -4.805  -2.140  1.00  0.00     0.010 A 
ATOM     33  C   UNL     1       7.250  -5.393  -4.392  1.00  0.00     0.010 A 
ATOM     34  C   UNL     1       8.106  -4.699  -3.528  1.00  0.00    -0.014 A 
BRANCH  34  35
ATOM     35  C   UNL     1       9.163  -3.797  -4.003  1.00  0.00     0.031 A 
ATOM     36  C   UNL     1      10.289  -4.468  -4.712  1.00  0.00     0.074 A 
ATOM     37  C   UNL     1       8.858  -2.537  -4.376  1.00  0.00     0.049 A 
ATOM     38  N   UNL     1      10.259  -4.788  -5.972  1.00  0.00    -0.248 NA
ATOM     39  C   UNL     1      11.416  -5.034  -3.973  1.00  0.00     0.031 C 
ATOM     40  C   UNL     1       7.628  -2.157  -5.085  1.00  0.00     0.029 A 
ATOM     41  N   UNL     1       9.650  -1.418  -4.445  1.00  0.00    -0.354 N 
ATOM     42  C   UNL     1      11.317  -5.652  -6.188  1.00  0.00     0.074 A 
ATOM     43  C   UNL     1      12.016  -5.762  -4.925  1.00  0.00     0.031 C 
ATOM     44  C   UNL     1       7.827  -0.965  -5.682  1.00  0.00     0.029 A 
ATOM     45  C   UNL     1       9.115  -0.430  -5.264  1.00  0.00     0.049 A 
ATOM     46  H   UNL     1      10.505  -1.326  -3.966  1.00  0.00     0.167 HD
ATOM     47  C   UNL     1      11.566  -6.259  -7.378  1.00  0.00     0.031 A 
ATOM     48  C   UNL     1       9.857   0.481  -5.948  1.00  0.00     0.031 A 
ATOM     49  C   UNL     1      10.694  -5.910  -8.456  1.00  0.00     0.049 A 
ATOM     50  C   UNL     1      10.342  -0.357  -7.103  1.00  0.00     0.074 A 
ATOM     51  C   UNL     1       9.550  -6.419  -9.032  1.00  0.00     0.029 A 
ATOM     52  N   UNL     1      10.930  -4.733  -9.124  1.00  0.00    -0.354 N 
ATOM     53  N   UNL     1       9.664  -0.657  -8.179  1.00  0.00    -0.248 NA
ATOM     54  C   UNL     1      11.522  -1.196  -6.878  1.00  0.00     0.031 C 
ATOM     55  C   UNL     1       8.934  -5.317  -9.702  1.00  0.00     0.029 A 
ATOM     56  C   UNL     1       9.709  -4.189  -9.434  1.00  0.00     0.049 A 
ATOM     57  H   UNL     1      11.811  -4.351  -9.341  1.00  0.00     0.167 HD
ATOM     58  C   UNL     1      10.142  -1.908  -8.581  1.00  0.00     0.074 A 
ATOM     59  C   UNL     1      11.316  -2.156  -7.769  1.00  0.00     0.031 C 
ATOM     60  C   UNL     1       9.446  -2.766  -9.384  1.00  0.00     0.031 A 
BRANCH  47  61
ATOM     61  C   UNL     1      12.715  -7.158  -7.599  1.00  0.00    -0.014 A 
ATOM     62  C   UNL     1      12.685  -8.498  -7.196  1.00  0.00     0.009 A 
ATOM     63  C   UNL     1      13.811  -6.687  -8.336  1.00  0.00     0.009 A 
ATOM     64  C   UNL     1      13.733  -9.355  -7.543  1.00  0.00     0.001 A 
ATOM     65  C   UNL     1      14.852  -7.545  -8.684  1.00  0.00     0.001 A 
ATOM     66  C   UNL     1      14.810  -8.881  -8.291  1.00  0.00     0.000 A 
ENDBRANCH  47  61
BRANCH  48  67
ATOM     67  C   UNL     1      10.731   1.325  -5.075  1.00  0.00    -0.014 A 
ATOM     68  C   UNL     1      12.124   1.431  -5.163  1.00  0.00     0.009 A 
ATOM     69  C   UNL     1      10.093   2.054  -4.047  1.00  0.00     0.009 A 
ATOM     70  C   UNL     1      12.857   2.125  -4.189  1.00  0.00     0.001 A 
ATOM     71  C   UNL     1      10.819   2.768  -3.090  1.00  0.00     0.001 A 
ATOM     72  C   UNL     1      12.207   2.779  -3.146  1.00  0.00     0.000 A 
ENDBRANCH  48  67
BRANCH  60  73
ATOM     73  C   UNL     1       8.196  -2.233 -10.009  1.00  0.00    -0.014 A 
ATOM     74  C   UNL     1       6.936  -2.726  -9.627  1.00  0.00     0.009 A 
ATOM     75  C   UNL     1       8.265  -1.284 -11.036  1.00  0.00     0.009 A 
ATOM     76  C   UNL     1       5.780  -2.324 -10.296  1.00  0.00     0.001 A 
ATOM     77  C   UNL     1       7.105  -0.866 -11.692  1.00  0.00     0.001 A 
ATOM     78  C   UNL     1       5.866  -1.398 -11.333  1.00  0.00     0.000 A 
ENDBRANCH  60  73
ENDBRANCH  34  35
ENDBRANCH  26  29
ENDBRANCH  24  25
ENDBRANCH  23  24
ENDBRANCH   1  23
TORSDOF 13
