REMARK SMILES CCOc1cccc(OCC)c1-c1ccc([C@@H](C)C(=O)NCCCCNC(=O)c2ccc(-c3c4nc(c(-c5ccccc5)c5ccc([nH]5)c(-c5ccccc5)c5nc(c(-c6ccccc6)c6ccc3[nH]6)C=C5)C=C4)cc2)cc1F
REMARK SMILES IDX 22 1 21 2 19 3 20 4 17 6 18 7 16 8 13 9 14 10 78 11 15 12
REMARK SMILES IDX 77 13 79 14 12 15 4 16 5 17 6 18 8 19 7 20 3 21 2 22 1 23
REMARK SMILES IDX 9 24 10 25 11 26 23 27 24 28 25 29 26 30 27 31 28 33 29 34
REMARK SMILES IDX 30 35 76 36 31 37 75 38 32 39 33 40 34 41 69 42 35 43 74 44
REMARK SMILES IDX 68 45 70 46 36 47 73 48 67 49 66 50 37 52 59 53 44 54 58 55
REMARK SMILES IDX 45 56 48 57 57 58 71 59 46 60 47 61 56 63 72 64 49 65 38 66
REMARK SMILES IDX 39 67 43 68 40 69 42 70 41 71 60 72 61 73 65 74 62 75 64 76
REMARK SMILES IDX 63 77 50 78 51 79 55 80 52 81 54 82 53 83
REMARK H PARENT 21 5 26 32 70 51 48 62
REMARK Flexibility Score: inf
ROOT
ATOM      1  C   UNL     1       2.403   0.844  -4.779  1.00  0.00     0.116 C 
ENDROOT
BRANCH   1   2
ATOM      2  N   UNL     1       1.015   1.144  -4.469  1.00  0.00    -0.356 N 
ATOM      3  C   UNL     1       0.403   1.990  -3.593  1.00  0.00     0.227 C 
ATOM      4  O   UNL     1      -0.834   1.918  -3.568  1.00  0.00    -0.274 OA
ATOM      5  H   UNL     1       0.378   0.622  -5.009  1.00  0.00     0.163 HD
BRANCH   3   6
ATOM      6  C   UNL     1       1.120   2.995  -2.662  1.00  0.00     0.105 C 
ATOM      7  C   UNL     1       2.050   3.972  -3.374  1.00  0.00     0.023 C 
BRANCH   6   8
ATOM      8  C   UNL     1       1.726   2.347  -1.429  1.00  0.00    -0.033 A 
ATOM      9  C   UNL     1       2.691   0.800   0.759  1.00  0.00     0.025 A 
ATOM     10  C   UNL     1       3.231   0.682  -0.520  1.00  0.00     0.012 A 
ATOM     11  C   UNL     1       1.667   1.745   0.928  1.00  0.00     0.131 A 
ATOM     12  C   UNL     1       2.847   1.535  -1.545  1.00  0.00     0.005 A 
ATOM     13  C   UNL     1       1.155   2.473  -0.157  1.00  0.00     0.044 A 
ATOM     14  F   UNL     1       1.115   1.938   2.135  1.00  0.00    -0.206 F 
BRANCH   9  15
ATOM     15  C   UNL     1       3.153  -0.127   1.807  1.00  0.00     0.069 A 
ATOM     16  C   UNL     1       2.202  -1.051   2.328  1.00  0.00     0.130 A 
ATOM     17  C   UNL     1       2.550  -2.072   3.217  1.00  0.00     0.047 A 
ATOM     18  C   UNL     1       3.873  -2.223   3.593  1.00  0.00     0.008 A 
ATOM     19  C   UNL     1       4.497  -0.283   2.221  1.00  0.00     0.130 A 
ATOM     20  C   UNL     1       4.827  -1.334   3.104  1.00  0.00     0.047 A 
BRANCH  16  21
ATOM     21  O   UNL     1       0.873  -0.919   1.996  1.00  0.00    -0.493 OA
BRANCH  21  22
ATOM     22  C   UNL     1       0.433  -1.906   1.058  1.00  0.00     0.226 C 
ATOM     23  C   UNL     1      -0.317  -1.200  -0.060  1.00  0.00     0.049 C 
ENDBRANCH  21  22
ENDBRANCH  16  21
BRANCH  19  24
ATOM     24  O   UNL     1       5.637   0.404   1.904  1.00  0.00    -0.493 OA
BRANCH  24  25
ATOM     25  C   UNL     1       5.704   1.580   1.112  1.00  0.00     0.226 C 
ATOM     26  C   UNL     1       6.368   1.243  -0.218  1.00  0.00     0.049 C 
ENDBRANCH  24  25
ENDBRANCH  19  24
ENDBRANCH   9  15
ENDBRANCH   6   8
ENDBRANCH   3   6
ENDBRANCH   1   2
BRANCH   1  27
ATOM     27  C   UNL     1       2.910  -0.389  -4.016  1.00  0.00     0.023 C 
BRANCH  27  28
ATOM     28  C   UNL     1       2.846  -1.714  -4.760  1.00  0.00     0.023 C 
BRANCH  28  29
ATOM     29  C   UNL     1       3.791  -1.819  -5.946  1.00  0.00     0.116 C 
BRANCH  29  30
ATOM     30  N   UNL     1       5.207  -1.735  -5.605  1.00  0.00    -0.352 N 
ATOM     31  C   UNL     1       6.257  -2.370  -6.234  1.00  0.00     0.251 C 
ATOM     32  H   UNL     1       5.439  -1.160  -4.840  1.00  0.00     0.163 HD
ATOM     33  O   UNL     1       7.408  -2.255  -5.830  1.00  0.00    -0.269 OA
BRANCH  31  34
ATOM     34  C   UNL     1       5.947  -3.247  -7.381  1.00  0.00     0.039 A 
ATOM     35  C   UNL     1       6.299  -4.597  -7.319  1.00  0.00     0.014 A 
ATOM     36  C   UNL     1       5.170  -2.757  -8.432  1.00  0.00     0.014 A 
ATOM     37  C   UNL     1       5.777  -5.484  -8.263  1.00  0.00     0.010 A 
ATOM     38  C   UNL     1       4.585  -3.652  -9.315  1.00  0.00     0.010 A 
ATOM     39  C   UNL     1       4.870  -5.026  -9.232  1.00  0.00    -0.014 A 
BRANCH  39  40
ATOM     40  C   UNL     1       4.190  -5.942 -10.181  1.00  0.00     0.031 A 
ATOM     41  C   UNL     1       4.387  -5.744 -11.657  1.00  0.00     0.074 A 
ATOM     42  C   UNL     1       3.299  -6.850  -9.732  1.00  0.00     0.049 A 
ATOM     43  N   UNL     1       3.726  -6.264 -12.658  1.00  0.00    -0.248 NA
ATOM     44  C   UNL     1       5.439  -4.794 -12.058  1.00  0.00     0.031 C 
ATOM     45  C   UNL     1       2.980  -7.115  -8.327  1.00  0.00     0.029 A 
ATOM     46  N   UNL     1       2.473  -7.702 -10.424  1.00  0.00    -0.354 N 
ATOM     47  C   UNL     1       4.241  -5.662 -13.798  1.00  0.00     0.074 A 
ATOM     48  C   UNL     1       5.251  -4.721 -13.367  1.00  0.00     0.031 C 
ATOM     49  C   UNL     1       2.036  -8.069  -8.262  1.00  0.00     0.029 A 
ATOM     50  C   UNL     1       1.650  -8.450  -9.616  1.00  0.00     0.049 A 
ATOM     51  H   UNL     1       2.471  -7.771 -11.406  1.00  0.00     0.167 HD
ATOM     52  C   UNL     1       3.909  -5.881 -15.091  1.00  0.00     0.031 A 
ATOM     53  C   UNL     1       0.679  -9.328  -9.933  1.00  0.00     0.031 A 
ATOM     54  C   UNL     1       2.952  -6.860 -15.524  1.00  0.00     0.049 A 
ATOM     55  C   UNL     1       0.370  -9.594 -11.381  1.00  0.00     0.074 A 
ATOM     56  C   UNL     1       2.608  -7.215 -16.816  1.00  0.00     0.029 A 
ATOM     57  N   UNL     1       2.199  -7.652 -14.672  1.00  0.00    -0.354 N 
ATOM     58  N   UNL     1       0.902  -9.054 -12.450  1.00  0.00    -0.248 NA
ATOM     59  C   UNL     1      -0.669 -10.595 -11.666  1.00  0.00     0.031 C 
ATOM     60  C   UNL     1       1.627  -8.209 -16.747  1.00  0.00     0.029 A 
ATOM     61  C   UNL     1       1.388  -8.493 -15.412  1.00  0.00     0.049 A 
ATOM     62  H   UNL     1       2.236  -7.621 -13.689  1.00  0.00     0.167 HD
ATOM     63  C   UNL     1       0.286  -9.671 -13.531  1.00  0.00     0.074 A 
ATOM     64  C   UNL     1      -0.654 -10.629 -12.991  1.00  0.00     0.031 C 
ATOM     65  C   UNL     1       0.482  -9.460 -14.854  1.00  0.00     0.031 A 
BRANCH  52  66
ATOM     66  C   UNL     1       4.590  -5.043 -16.133  1.00  0.00    -0.014 A 
ATOM     67  C   UNL     1       5.936  -5.252 -16.468  1.00  0.00     0.009 A 
ATOM     68  C   UNL     1       3.861  -4.057 -16.816  1.00  0.00     0.009 A 
ATOM     69  C   UNL     1       6.549  -4.466 -17.446  1.00  0.00     0.001 A 
ATOM     70  C   UNL     1       4.469  -3.291 -17.811  1.00  0.00     0.001 A 
ATOM     71  C   UNL     1       5.814  -3.491 -18.120  1.00  0.00     0.000 A 
ENDBRANCH  52  66
BRANCH  53  72
ATOM     72  C   UNL     1      -0.080 -10.028  -8.864  1.00  0.00    -0.014 A 
ATOM     73  C   UNL     1       0.136 -11.394  -8.622  1.00  0.00     0.009 A 
ATOM     74  C   UNL     1      -1.040  -9.347  -8.102  1.00  0.00     0.009 A 
ATOM     75  C   UNL     1      -0.619 -12.070  -7.660  1.00  0.00     0.001 A 
ATOM     76  C   UNL     1      -1.775 -10.020  -7.123  1.00  0.00     0.001 A 
ATOM     77  C   UNL     1      -1.571 -11.382  -6.910  1.00  0.00     0.000 A 
ENDBRANCH  53  72
BRANCH  65  78
ATOM     78  C   UNL     1      -0.290 -10.316 -15.813  1.00  0.00    -0.014 A 
ATOM     79  C   UNL     1      -1.643 -10.065 -16.084  1.00  0.00     0.009 A 
ATOM     80  C   UNL     1       0.371 -11.340 -16.509  1.00  0.00     0.009 A 
ATOM     81  C   UNL     1      -2.324 -10.838 -17.026  1.00  0.00     0.001 A 
ATOM     82  C   UNL     1      -0.307 -12.096 -17.465  1.00  0.00     0.001 A 
ATOM     83  C   UNL     1      -1.655 -11.847 -17.719  1.00  0.00     0.000 A 
ENDBRANCH  65  78
ENDBRANCH  39  40
ENDBRANCH  31  34
ENDBRANCH  29  30
ENDBRANCH  28  29
ENDBRANCH  27  28
ENDBRANCH   1  27
TORSDOF 17
