REMARK SMILES Cc1ccc(-c2cc(C(=O)NCCCCNC(=O)c3ccc(-c4c5nc(c(-c6ccccc6)c6ccc([nH]6)c(-c6ccccc6)c6nc(c(-c7ccccc7)c7ccc4[nH]7)C=C6)C=C5)cc3)c3cc(C)ccc3n2)c(C)c1
REMARK SMILES IDX 14 1 13 2 12 3 11 4 9 5 10 6 8 8 6 9 7 10 74 11 73 12 67 13
REMARK SMILES IDX 72 14 68 15 71 16 69 17 70 18 5 19 1 20 2 21 3 22 77 23 4 24
REMARK SMILES IDX 75 25 76 26 15 27 16 28 17 29 18 31 19 32 20 33 66 34 21 35
REMARK SMILES IDX 65 36 22 37 23 38 24 39 59 40 25 41 64 42 58 43 60 44 26 45
REMARK SMILES IDX 63 46 57 47 56 48 27 50 49 51 34 52 48 53 35 54 38 55 47 56
REMARK SMILES IDX 61 57 36 58 37 59 46 61 62 62 39 63 28 64 29 65 33 66 30 67
REMARK SMILES IDX 32 68 31 69 50 70 51 71 55 72 52 73 54 74 53 75 40 76 41 77
REMARK SMILES IDX 45 78 42 79 44 80 43 81
REMARK H PARENT 11 7 16 30 60 49 38 60
REMARK Flexibility Score: inf
ROOT
ATOM      1  C   UNL     1      -7.065  -7.825   1.534  1.00  0.00     0.023 C 
ENDROOT
BRANCH   1   2
ATOM      2  C   UNL     1      -6.206  -7.143   0.472  1.00  0.00     0.023 C 
BRANCH   2   3
ATOM      3  C   UNL     1      -5.980  -5.648   0.630  1.00  0.00     0.116 C 
BRANCH   3   4
ATOM      4  N   UNL     1      -5.298  -5.197   1.830  1.00  0.00    -0.352 N 
ATOM      5  C   UNL     1      -4.598  -4.024   2.066  1.00  0.00     0.252 C 
ATOM      6  O   UNL     1      -4.174  -3.822   3.204  1.00  0.00    -0.269 OA
ATOM      7  H   UNL     1      -5.338  -5.819   2.592  1.00  0.00     0.163 HD
BRANCH   5   8
ATOM      8  C   UNL     1      -4.242  -3.052   0.985  1.00  0.00     0.051 A 
ATOM      9  C   UNL     1      -2.485  -1.791  -0.044  1.00  0.00     0.072 A 
ATOM     10  C   UNL     1      -2.928  -2.567   1.014  1.00  0.00     0.043 A 
ATOM     11  N   UNL     1      -3.232  -1.606  -1.157  1.00  0.00    -0.248 NA
ATOM     12  C   UNL     1      -4.498  -2.041  -1.172  1.00  0.00     0.072 A 
ATOM     13  C   UNL     1      -5.100  -2.654  -0.062  1.00  0.00     0.013 A 
ATOM     14  C   UNL     1      -5.240  -1.896  -2.336  1.00  0.00     0.029 A 
ATOM     15  C   UNL     1      -6.498  -2.852  -0.088  1.00  0.00     0.014 A 
ATOM     16  C   UNL     1      -6.569  -2.319  -2.419  1.00  0.00     0.005 A 
ATOM     17  C   UNL     1      -7.220  -2.781  -1.281  1.00  0.00    -0.050 A 
ATOM     18  C   UNL     1      -8.605  -3.352  -1.353  1.00  0.00     0.044 C 
BRANCH   9  19
ATOM     19  C   UNL     1      -1.209  -1.058  -0.015  1.00  0.00     0.003 A 
ATOM     20  C   UNL     1       2.578   1.060   0.013  1.00  0.00     0.044 C 
ATOM     21  C   UNL     1       1.277   0.313   0.010  1.00  0.00    -0.051 A 
ATOM     22  C   UNL     1       1.238  -1.082  -0.011  1.00  0.00     0.004 A 
ATOM     23  C   UNL     1       0.072   1.021   0.022  1.00  0.00     0.007 A 
ATOM     24  C   UNL     1       0.011  -1.757  -0.024  1.00  0.00     0.011 A 
ATOM     25  C   UNL     1      -1.169   0.357   0.022  1.00  0.00    -0.041 A 
ATOM     26  C   UNL     1      -2.410   1.213   0.024  1.00  0.00     0.045 C 
ENDBRANCH   9  19
ENDBRANCH   5   8
ENDBRANCH   3   4
ENDBRANCH   2   3
ENDBRANCH   1   2
BRANCH   1  27
ATOM     27  C   UNL     1      -8.327  -7.102   1.996  1.00  0.00     0.116 C 
BRANCH  27  28
ATOM     28  N   UNL     1      -9.304  -6.845   0.947  1.00  0.00    -0.352 N 
ATOM     29  C   UNL     1     -10.627  -7.212   0.847  1.00  0.00     0.251 C 
ATOM     30  H   UNL     1      -8.962  -6.323   0.185  1.00  0.00     0.163 HD
ATOM     31  O   UNL     1     -11.265  -6.910  -0.160  1.00  0.00    -0.269 OA
BRANCH  29  32
ATOM     32  C   UNL     1     -11.280  -8.005   1.915  1.00  0.00     0.039 A 
ATOM     33  C   UNL     1     -12.101  -9.078   1.551  1.00  0.00     0.014 A 
ATOM     34  C   UNL     1     -11.087  -7.711   3.265  1.00  0.00     0.014 A 
ATOM     35  C   UNL     1     -12.657  -9.897   2.539  1.00  0.00     0.010 A 
ATOM     36  C   UNL     1     -11.549  -8.589   4.241  1.00  0.00     0.010 A 
ATOM     37  C   UNL     1     -12.353  -9.685   3.893  1.00  0.00    -0.014 A 
BRANCH  37  38
ATOM     38  C   UNL     1     -12.895 -10.575   4.955  1.00  0.00     0.031 A 
ATOM     39  C   UNL     1     -13.804 -10.019   6.019  1.00  0.00     0.074 A 
ATOM     40  C   UNL     1     -12.544 -11.876   4.990  1.00  0.00     0.049 A 
ATOM     41  N   UNL     1     -14.383 -10.636   7.020  1.00  0.00    -0.248 NA
ATOM     42  C   UNL     1     -14.078  -8.573   5.971  1.00  0.00     0.031 C 
ATOM     43  C   UNL     1     -11.636 -12.539   4.051  1.00  0.00     0.029 A 
ATOM     44  N   UNL     1     -12.922 -12.880   5.847  1.00  0.00    -0.354 N 
ATOM     45  C   UNL     1     -15.074  -9.654   7.720  1.00  0.00     0.074 A 
ATOM     46  C   UNL     1     -14.780  -8.392   7.077  1.00  0.00     0.031 C 
ATOM     47  C   UNL     1     -11.572 -13.847   4.349  1.00  0.00     0.029 A 
ATOM     48  C   UNL     1     -12.402 -14.110   5.520  1.00  0.00     0.049 A 
ATOM     49  H   UNL     1     -13.511 -12.733   6.623  1.00  0.00     0.167 HD
ATOM     50  C   UNL     1     -15.907  -9.785   8.780  1.00  0.00     0.031 A 
ATOM     51  C   UNL     1     -12.586 -15.316   6.090  1.00  0.00     0.031 A 
ATOM     52  C   UNL     1     -16.205 -11.036   9.422  1.00  0.00     0.049 A 
ATOM     53  C   UNL     1     -13.501 -15.437   7.278  1.00  0.00     0.074 A 
ATOM     54  C   UNL     1     -17.063 -11.283  10.479  1.00  0.00     0.029 A 
ATOM     55  N   UNL     1     -15.650 -12.255   9.064  1.00  0.00    -0.354 N 
ATOM     56  N   UNL     1     -14.199 -14.509   7.885  1.00  0.00    -0.248 NA
ATOM     57  C   UNL     1     -13.666 -16.784   7.844  1.00  0.00     0.031 C 
ATOM     58  C   UNL     1     -16.990 -12.646  10.792  1.00  0.00     0.029 A 
ATOM     59  C   UNL     1     -16.136 -13.257   9.888  1.00  0.00     0.049 A 
ATOM     60  H   UNL     1     -15.005 -12.389   8.332  1.00  0.00     0.167 HD
ATOM     61  C   UNL     1     -14.920 -15.165   8.876  1.00  0.00     0.074 A 
ATOM     62  C   UNL     1     -14.580 -16.570   8.779  1.00  0.00     0.031 C 
ATOM     63  C   UNL     1     -15.791 -14.651   9.779  1.00  0.00     0.031 A 
BRANCH  50  64
ATOM     64  C   UNL     1     -16.547  -8.527   9.305  1.00  0.00    -0.014 A 
ATOM     65  C   UNL     1     -17.490  -7.818   8.541  1.00  0.00     0.009 A 
ATOM     66  C   UNL     1     -16.200  -8.038  10.573  1.00  0.00     0.009 A 
ATOM     67  C   UNL     1     -18.028  -6.618   9.012  1.00  0.00     0.001 A 
ATOM     68  C   UNL     1     -16.767  -6.857  11.057  1.00  0.00     0.001 A 
ATOM     69  C   UNL     1     -17.668  -6.140  10.270  1.00  0.00     0.000 A 
ENDBRANCH  50  64
BRANCH  51  70
ATOM     70  C   UNL     1     -11.940 -16.523   5.509  1.00  0.00    -0.014 A 
ATOM     71  C   UNL     1     -12.716 -17.495   4.856  1.00  0.00     0.009 A 
ATOM     72  C   UNL     1     -10.555 -16.721   5.613  1.00  0.00     0.009 A 
ATOM     73  C   UNL     1     -12.123 -18.652   4.345  1.00  0.00     0.001 A 
ATOM     74  C   UNL     1      -9.960 -17.865   5.075  1.00  0.00     0.001 A 
ATOM     75  C   UNL     1     -10.745 -18.834   4.451  1.00  0.00     0.000 A 
ENDBRANCH  51  70
BRANCH  63  76
ATOM     76  C   UNL     1     -16.483 -15.624  10.695  1.00  0.00    -0.014 A 
ATOM     77  C   UNL     1     -15.792 -16.299  11.713  1.00  0.00     0.009 A 
ATOM     78  C   UNL     1     -17.860 -15.852  10.542  1.00  0.00     0.009 A 
ATOM     79  C   UNL     1     -16.457 -17.219  12.527  1.00  0.00     0.001 A 
ATOM     80  C   UNL     1     -18.529 -16.746  11.379  1.00  0.00     0.001 A 
ATOM     81  C   UNL     1     -17.824 -17.439  12.362  1.00  0.00     0.000 A 
ENDBRANCH  63  76
ENDBRANCH  37  38
ENDBRANCH  29  32
ENDBRANCH  27  28
ENDBRANCH   1  27
TORSDOF 12
