REMARK SMILES CC[C@](C)(NC(=O)N(C)Cc1cccc(C)c1)C(=O)NCCCCNC(=O)c1ccc(-c2c3nc(c(-c4ccccc4)c4ccc([nH]4)c(-c4ccccc4)c4nc(c(-c5ccccc5)c5ccc2[nH]5)C=C4)C=C3)cc1
REMARK SMILES IDX 21 1 20 2 18 3 19 4 3 6 4 7 2 8 1 9 5 10 6 11 7 13 8 14 9 15
REMARK SMILES IDX 10 16 11 17 12 18 17 19 13 20 15 21 14 22 16 23 22 24 23 25
REMARK SMILES IDX 24 26 25 27 26 28 27 30 28 31 29 32 75 33 30 34 74 35 31 36
REMARK SMILES IDX 32 37 33 38 68 39 34 40 73 41 67 42 69 43 35 44 72 45 66 46
REMARK SMILES IDX 65 47 36 49 58 50 43 51 57 52 44 53 47 54 56 55 70 56 45 57
REMARK SMILES IDX 46 58 55 60 71 61 48 62 37 63 38 64 42 65 39 66 41 67 40 68
REMARK SMILES IDX 59 69 60 70 64 71 61 72 63 73 62 74 49 75 50 76 54 77 51 78
REMARK SMILES IDX 53 79 52 80
REMARK H PARENT 20 5 5 12 25 29 69 48 47 59
REMARK Flexibility Score: inf
ROOT
ATOM      1  C   UNL     1       2.257   4.013  -3.438  1.00  0.00     0.116 C 
ENDROOT
BRANCH   1   2
ATOM      2  N   UNL     1       2.852   2.951  -2.632  1.00  0.00    -0.354 N 
ATOM      3  C   UNL     1       2.382   2.109  -1.660  1.00  0.00     0.245 C 
ATOM      4  O   UNL     1       3.099   1.134  -1.401  1.00  0.00    -0.272 OA
ATOM      5  H   UNL     1       3.805   2.808  -2.833  1.00  0.00     0.163 HD
BRANCH   3   6
ATOM      6  C   UNL     1       0.982   2.269  -0.982  1.00  0.00     0.117 C 
ATOM      7  C   UNL     1       0.722   1.317   0.212  1.00  0.00     0.045 C 
BRANCH   6   8
ATOM      8  C   UNL     1      -0.133   1.948  -2.032  1.00  0.00     0.035 C 
ATOM      9  C   UNL     1      -0.041   0.553  -2.662  1.00  0.00     0.007 C 
ENDBRANCH   6   8
BRANCH   6  10
ATOM     10  N   UNL     1       0.863   3.675  -0.527  1.00  0.00    -0.324 N 
ATOM     11  C   UNL     1       1.632   4.502   0.230  1.00  0.00     0.318 C 
ATOM     12  H   UNL     1       0.039   4.110  -0.846  1.00  0.00     0.166 HD
ATOM     13  O   UNL     1       1.230   5.663   0.344  1.00  0.00    -0.249 OA
BRANCH  11  14
ATOM     14  N   UNL     1       2.847   4.097   0.742  1.00  0.00    -0.324 N 
ATOM     15  C   UNL     1       2.918   2.929   1.598  1.00  0.00     0.149 C 
BRANCH  14  16
ATOM     16  C   UNL     1       3.818   5.165   1.031  1.00  0.00     0.156 C 
BRANCH  16  17
ATOM     17  C   UNL     1       5.311   4.899   0.857  1.00  0.00    -0.028 A 
ATOM     18  C   UNL     1       6.165   6.017   0.795  1.00  0.00     0.005 A 
ATOM     19  C   UNL     1       5.912   3.633   0.847  1.00  0.00     0.009 A 
ATOM     20  C   UNL     1       7.555   5.873   0.739  1.00  0.00     0.001 A 
ATOM     21  C   UNL     1       7.309   3.474   0.809  1.00  0.00    -0.051 A 
ATOM     22  C   UNL     1       8.126   4.604   0.762  1.00  0.00     0.003 A 
ATOM     23  C   UNL     1       7.916   2.103   0.907  1.00  0.00     0.044 C 
ENDBRANCH  16  17
ENDBRANCH  14  16
ENDBRANCH  11  14
ENDBRANCH   6  10
ENDBRANCH   3   6
ENDBRANCH   1   2
BRANCH   1  24
ATOM     24  C   UNL     1       2.445   5.454  -2.950  1.00  0.00     0.023 C 
BRANCH  24  25
ATOM     25  C   UNL     1       3.856   5.824  -2.513  1.00  0.00     0.023 C 
BRANCH  25  26
ATOM     26  C   UNL     1       4.813   6.073  -3.665  1.00  0.00     0.116 C 
BRANCH  26  27
ATOM     27  N   UNL     1       4.766   7.435  -4.197  1.00  0.00    -0.352 N 
ATOM     28  C   UNL     1       5.460   7.963  -5.281  1.00  0.00     0.251 C 
ATOM     29  H   UNL     1       4.166   8.058  -3.727  1.00  0.00     0.163 HD
ATOM     30  O   UNL     1       5.310   9.108  -5.639  1.00  0.00    -0.269 OA
BRANCH  28  31
ATOM     31  C   UNL     1       6.295   7.025  -6.072  1.00  0.00     0.039 A 
ATOM     32  C   UNL     1       5.918   6.810  -7.400  1.00  0.00     0.014 A 
ATOM     33  C   UNL     1       7.150   6.146  -5.413  1.00  0.00     0.014 A 
ATOM     34  C   UNL     1       6.159   5.565  -7.966  1.00  0.00     0.010 A 
ATOM     35  C   UNL     1       7.292   4.875  -5.933  1.00  0.00     0.010 A 
ATOM     36  C   UNL     1       6.719   4.564  -7.172  1.00  0.00    -0.014 A 
BRANCH  36  37
ATOM     37  C   UNL     1       6.585   3.147  -7.495  1.00  0.00     0.031 A 
ATOM     38  C   UNL     1       7.757   2.366  -7.927  1.00  0.00     0.074 A 
ATOM     39  C   UNL     1       5.380   2.542  -7.398  1.00  0.00     0.049 A 
ATOM     40  N   UNL     1       7.689   1.302  -8.654  1.00  0.00    -0.248 NA
ATOM     41  C   UNL     1       9.122   2.777  -7.628  1.00  0.00     0.031 C 
ATOM     42  C   UNL     1       5.092   1.110  -7.433  1.00  0.00     0.029 A 
ATOM     43  N   UNL     1       4.128   3.141  -7.478  1.00  0.00    -0.354 N 
ATOM     44  C   UNL     1       8.941   0.737  -8.672  1.00  0.00     0.074 A 
ATOM     45  C   UNL     1       9.813   1.737  -8.102  1.00  0.00     0.031 C 
ATOM     46  C   UNL     1       3.800   0.933  -7.758  1.00  0.00     0.029 A 
ATOM     47  C   UNL     1       3.252   2.237  -8.092  1.00  0.00     0.049 A 
ATOM     48  H   UNL     1       3.898   4.043  -7.160  1.00  0.00     0.167 HD
ATOM     49  C   UNL     1       9.082  -0.569  -9.033  1.00  0.00     0.031 A 
ATOM     50  C   UNL     1       2.636   2.540  -9.272  1.00  0.00     0.031 A 
ATOM     51  C   UNL     1       7.821  -1.151  -9.489  1.00  0.00     0.049 A 
ATOM     52  C   UNL     1       2.980   1.595 -10.405  1.00  0.00     0.074 A 
ATOM     53  C   UNL     1       6.886  -1.975  -8.883  1.00  0.00     0.029 A 
ATOM     54  N   UNL     1       7.224  -0.662 -10.645  1.00  0.00    -0.354 N 
ATOM     55  N   UNL     1       4.010   0.796 -10.405  1.00  0.00    -0.248 NA
ATOM     56  C   UNL     1       2.218   1.520 -11.649  1.00  0.00     0.031 C 
ATOM     57  C   UNL     1       5.698  -1.938  -9.661  1.00  0.00     0.029 A 
ATOM     58  C   UNL     1       5.923  -1.113 -10.748  1.00  0.00     0.049 A 
ATOM     59  H   UNL     1       7.668  -0.075 -11.299  1.00  0.00     0.167 HD
ATOM     60  C   UNL     1       4.079   0.134 -11.604  1.00  0.00     0.074 A 
ATOM     61  C   UNL     1       2.922   0.607 -12.341  1.00  0.00     0.031 C 
ATOM     62  C   UNL     1       5.099  -0.729 -11.888  1.00  0.00     0.031 A 
BRANCH  49  63
ATOM     63  C   UNL     1      10.301  -1.390  -8.678  1.00  0.00    -0.014 A 
ATOM     64  C   UNL     1      10.169  -2.778  -8.482  1.00  0.00     0.009 A 
ATOM     65  C   UNL     1      11.582  -0.860  -8.453  1.00  0.00     0.009 A 
ATOM     66  C   UNL     1      11.219  -3.562  -7.986  1.00  0.00     0.001 A 
ATOM     67  C   UNL     1      12.625  -1.627  -7.917  1.00  0.00     0.001 A 
ATOM     68  C   UNL     1      12.439  -2.979  -7.670  1.00  0.00     0.000 A 
ENDBRANCH  49  63
BRANCH  50  69
ATOM     69  C   UNL     1       2.361   3.993  -9.455  1.00  0.00    -0.014 A 
ATOM     70  C   UNL     1       1.456   4.623  -8.577  1.00  0.00     0.009 A 
ATOM     71  C   UNL     1       3.211   4.795 -10.229  1.00  0.00     0.009 A 
ATOM     72  C   UNL     1       1.482   6.009  -8.395  1.00  0.00     0.001 A 
ATOM     73  C   UNL     1       3.223   6.185 -10.054  1.00  0.00     0.001 A 
ATOM     74  C   UNL     1       2.385   6.786  -9.114  1.00  0.00     0.000 A 
ENDBRANCH  50  69
BRANCH  62  75
ATOM     75  C   UNL     1       5.415  -1.348 -13.232  1.00  0.00    -0.014 A 
ATOM     76  C   UNL     1       4.938  -0.879 -14.463  1.00  0.00     0.009 A 
ATOM     77  C   UNL     1       6.356  -2.403 -13.289  1.00  0.00     0.009 A 
ATOM     78  C   UNL     1       5.346  -1.456 -15.676  1.00  0.00     0.001 A 
ATOM     79  C   UNL     1       6.802  -2.950 -14.495  1.00  0.00     0.001 A 
ATOM     80  C   UNL     1       6.285  -2.482 -15.692  1.00  0.00     0.000 A 
ENDBRANCH  62  75
ENDBRANCH  36  37
ENDBRANCH  28  31
ENDBRANCH  26  27
ENDBRANCH  25  26
ENDBRANCH  24  25
ENDBRANCH   1  24
TORSDOF 16
