REMARK SMILES O=C(NCCCCNC(=O)c1cc(S[C@H]2CCOC2=O)cs1)c1ccc(-c2c3nc(c(-c4ccccc4)c4ccc([nH]4)c(-c4ccccc4)c4nc(c(-c5ccccc5)c5ccc2[nH]5)C=C4)C=C3)cc1
REMARK SMILES IDX 5 1 4 2 3 3 1 4 2 5 23 7 24 8 70 9 25 10 69 11 26 12 27 13
REMARK SMILES IDX 28 14 63 15 29 16 68 17 62 18 64 19 30 20 67 21 61 22 60 23
REMARK SMILES IDX 31 25 53 26 38 27 52 28 39 29 42 30 51 31 65 32 40 33 41 34
REMARK SMILES IDX 50 36 66 37 43 38 32 39 33 40 37 41 34 42 36 43 35 44 54 45
REMARK SMILES IDX 55 46 59 47 56 48 58 49 57 50 44 51 45 52 49 53 46 54 48 55
REMARK SMILES IDX 47 56 6 57 7 58 8 59 9 60 10 62 11 63 12 64 22 65 13 66
REMARK SMILES IDX 21 67 14 68 15 69 16 70 19 71 17 72 18 73 20 74
REMARK H PARENT 3 6 64 24 42 35 8 61
REMARK Flexibility Score: inf
ROOT
ATOM      1  C   UNL     1       4.965  -0.390  -2.655  1.00  0.00     0.023 C 
ENDROOT
BRANCH   1   2
ATOM      2  C   UNL     1       4.597   0.345  -1.376  1.00  0.00     0.116 C 
BRANCH   2   3
ATOM      3  N   UNL     1       3.160   0.455  -1.161  1.00  0.00    -0.352 N 
ATOM      4  O   UNL     1       1.191   0.126  -0.099  1.00  0.00    -0.269 OA
ATOM      5  C   UNL     1       2.415   0.060  -0.071  1.00  0.00     0.251 C 
ATOM      6  H   UNL     1       2.651   0.868  -1.896  1.00  0.00     0.163 HD
BRANCH   5   7
ATOM      7  C   UNL     1       3.107  -0.477   1.120  1.00  0.00     0.039 A 
ATOM      8  C   UNL     1       4.245   0.162   1.610  1.00  0.00     0.014 A 
ATOM      9  C   UNL     1       2.651  -1.656   1.716  1.00  0.00     0.014 A 
ATOM     10  C   UNL     1       5.036  -0.479   2.550  1.00  0.00     0.010 A 
ATOM     11  C   UNL     1       3.385  -2.235   2.756  1.00  0.00     0.010 A 
ATOM     12  C   UNL     1       4.607  -1.673   3.156  1.00  0.00    -0.014 A 
BRANCH  12  13
ATOM     13  C   UNL     1       5.434  -2.246   4.250  1.00  0.00     0.031 A 
ATOM     14  C   UNL     1       6.066  -3.606   4.141  1.00  0.00     0.074 A 
ATOM     15  C   UNL     1       5.668  -1.477   5.333  1.00  0.00     0.049 A 
ATOM     16  N   UNL     1       6.876  -4.202   4.983  1.00  0.00    -0.248 NA
ATOM     17  C   UNL     1       5.753  -4.405   2.947  1.00  0.00     0.031 C 
ATOM     18  C   UNL     1       5.101  -0.143   5.558  1.00  0.00     0.029 A 
ATOM     19  N   UNL     1       6.469  -1.682   6.425  1.00  0.00    -0.354 N 
ATOM     20  C   UNL     1       7.162  -5.443   4.427  1.00  0.00     0.074 A 
ATOM     21  C   UNL     1       6.411  -5.531   3.192  1.00  0.00     0.031 C 
ATOM     22  C   UNL     1       5.625   0.376   6.675  1.00  0.00     0.029 A 
ATOM     23  C   UNL     1       6.496  -0.615   7.290  1.00  0.00     0.049 A 
ATOM     24  H   UNL     1       6.976  -2.513   6.576  1.00  0.00     0.167 HD
ATOM     25  C   UNL     1       7.984  -6.414   4.896  1.00  0.00     0.031 A 
ATOM     26  C   UNL     1       7.133  -0.452   8.463  1.00  0.00     0.031 A 
ATOM     27  C   UNL     1       8.718  -6.329   6.134  1.00  0.00     0.049 A 
ATOM     28  C   UNL     1       7.998  -1.563   8.977  1.00  0.00     0.074 A 
ATOM     29  C   UNL     1       9.578  -7.260   6.693  1.00  0.00     0.029 A 
ATOM     30  N   UNL     1       8.679  -5.252   7.007  1.00  0.00    -0.354 N 
ATOM     31  N   UNL     1       8.276  -2.717   8.422  1.00  0.00    -0.248 NA
ATOM     32  C   UNL     1       8.640  -1.346  10.279  1.00  0.00     0.031 C 
ATOM     33  C   UNL     1      10.015  -6.769   7.928  1.00  0.00     0.029 A 
ATOM     34  C   UNL     1       9.482  -5.504   8.108  1.00  0.00     0.049 A 
ATOM     35  H   UNL     1       8.157  -4.429   6.865  1.00  0.00     0.167 HD
ATOM     36  C   UNL     1       9.139  -3.358   9.300  1.00  0.00     0.074 A 
ATOM     37  C   UNL     1       9.365  -2.448  10.404  1.00  0.00     0.031 C 
ATOM     38  C   UNL     1       9.690  -4.593   9.204  1.00  0.00     0.031 A 
BRANCH  25  39
ATOM     39  C   UNL     1       8.124  -7.669   4.076  1.00  0.00    -0.014 A 
ATOM     40  C   UNL     1       8.814  -7.666   2.853  1.00  0.00     0.009 A 
ATOM     41  C   UNL     1       7.617  -8.885   4.562  1.00  0.00     0.009 A 
ATOM     42  C   UNL     1       8.968  -8.847   2.122  1.00  0.00     0.001 A 
ATOM     43  C   UNL     1       7.797 -10.069   3.843  1.00  0.00     0.001 A 
ATOM     44  C   UNL     1       8.465 -10.048   2.620  1.00  0.00     0.000 A 
ENDBRANCH  25  39
BRANCH  26  45
ATOM     45  C   UNL     1       6.939   0.796   9.246  1.00  0.00    -0.014 A 
ATOM     46  C   UNL     1       8.001   1.686   9.465  1.00  0.00     0.009 A 
ATOM     47  C   UNL     1       5.679   1.097   9.791  1.00  0.00     0.009 A 
ATOM     48  C   UNL     1       7.813   2.831  10.243  1.00  0.00     0.001 A 
ATOM     49  C   UNL     1       5.485   2.262  10.533  1.00  0.00     0.001 A 
ATOM     50  C   UNL     1       6.555   3.120  10.771  1.00  0.00     0.000 A 
ENDBRANCH  26  45
BRANCH  38  51
ATOM     51  C   UNL     1      10.615  -5.008  10.314  1.00  0.00    -0.014 A 
ATOM     52  C   UNL     1      10.134  -5.274  11.607  1.00  0.00     0.009 A 
ATOM     53  C   UNL     1      11.989  -5.134  10.061  1.00  0.00     0.009 A 
ATOM     54  C   UNL     1      11.019  -5.609  12.634  1.00  0.00     0.001 A 
ATOM     55  C   UNL     1      12.867  -5.504  11.082  1.00  0.00     0.001 A 
ATOM     56  C   UNL     1      12.383  -5.727  12.370  1.00  0.00     0.000 A 
ENDBRANCH  38  51
ENDBRANCH  12  13
ENDBRANCH   5   7
ENDBRANCH   2   3
ENDBRANCH   1   2
BRANCH   1  57
ATOM     57  C   UNL     1       4.527   0.303  -3.938  1.00  0.00     0.023 C 
BRANCH  57  58
ATOM     58  C   UNL     1       5.005   1.744  -4.080  1.00  0.00     0.116 C 
BRANCH  58  59
ATOM     59  N   UNL     1       6.452   1.857  -4.160  1.00  0.00    -0.351 N 
ATOM     60  C   UNL     1       7.215   2.344  -5.202  1.00  0.00     0.261 C 
ATOM     61  H   UNL     1       6.951   1.546  -3.370  1.00  0.00     0.163 HD
ATOM     62  O   UNL     1       8.434   2.198  -5.147  1.00  0.00    -0.268 OA
BRANCH  60  63
ATOM     63  C   UNL     1       6.514   2.993  -6.287  1.00  0.00     0.093 A 
ATOM     64  C   UNL     1       5.614   4.041  -6.213  1.00  0.00     0.040 A 
ATOM     65  S   UNL     1       6.718   2.451  -7.889  1.00  0.00    -0.137 S 
ATOM     66  C   UNL     1       4.910   4.233  -7.430  1.00  0.00     0.020 A 
ATOM     67  C   UNL     1       5.449   3.463  -8.440  1.00  0.00     0.080 A 
BRANCH  66  68
ATOM     68  S   UNL     1       3.523   5.280  -7.710  1.00  0.00    -0.110 SA
BRANCH  68  69
ATOM     69  C   UNL     1       2.891   5.816  -6.100  1.00  0.00     0.165 C 
ATOM     70  C   UNL     1       2.464   4.715  -5.152  1.00  0.00     0.068 C 
ATOM     71  C   UNL     1       3.879   6.625  -5.304  1.00  0.00     0.319 C 
ATOM     72  C   UNL     1       2.808   5.275  -3.792  1.00  0.00     0.234 C 
ATOM     73  O   UNL     1       3.841   6.237  -3.992  1.00  0.00    -0.465 OA
ATOM     74  O   UNL     1       4.603   7.512  -5.717  1.00  0.00    -0.251 OA
ENDBRANCH  68  69
ENDBRANCH  66  68
ENDBRANCH  60  63
ENDBRANCH  58  59
ENDBRANCH  57  58
ENDBRANCH   1  57
TORSDOF 13
