REMARK SMILES COCC[N@H+]1C[C@@H]2CN(c3nc(CO)cs3)C[C@@]2(C(=O)NCCCCNC(=O)c2ccc(-c3c4nc(c(-c5ccccc5)c5ccc([nH]5)c(-c5ccccc5)c5nc(c(-c6ccccc6)c6ccc3[nH]6)C=C5)C=C4)cc2)C1
REMARK SMILES IDX 23 1 22 2 21 3 19 4 20 5 18 7 5 8 6 9 77 10 7 12 8 13 17 14
REMARK SMILES IDX 9 15 4 16 3 17 2 18 1 19 10 20 11 21 16 22 12 23 15 24 13 25
REMARK SMILES IDX 14 26 24 28 25 29 26 30 27 31 28 33 29 34 30 35 76 36 31 37
REMARK SMILES IDX 75 38 32 39 33 40 34 41 69 42 35 43 74 44 68 45 70 46 36 47
REMARK SMILES IDX 73 48 67 49 66 50 37 52 59 53 44 54 58 55 45 56 48 57 57 58
REMARK SMILES IDX 71 59 46 60 47 61 56 63 72 64 49 65 38 66 39 67 43 68 40 69
REMARK SMILES IDX 42 70 41 71 60 72 61 73 65 74 62 75 64 76 63 77 50 78 51 79
REMARK SMILES IDX 55 80 52 81 54 82 53 83
REMARK H PARENT 21 6 5 11 14 27 26 32 70 51 48 62
REMARK Flexibility Score: inf
ROOT
ATOM      1  C   UNL     1       4.440   0.111   5.629  1.00  0.00     0.023 C 
ENDROOT
BRANCH   1   2
ATOM      2  C   UNL     1       3.156   0.839   5.241  1.00  0.00     0.116 C 
BRANCH   2   3
ATOM      3  N   UNL     1       3.391   1.783   4.187  1.00  0.00    -0.355 N 
ATOM      4  C   UNL     1       3.575   1.613   2.863  1.00  0.00     0.234 C 
ATOM      5  O   UNL     1       4.382   2.436   2.396  1.00  0.00    -0.274 OA
ATOM      6  H   UNL     1       3.423   2.722   4.483  1.00  0.00     0.163 HD
BRANCH   4   7
ATOM      7  C   UNL     1       2.999   0.501   1.951  1.00  0.00     0.125 C 
ATOM      8  N   UNL     1       1.393   1.794   0.838  1.00  0.00    -0.332 N 
ATOM      9  C   UNL     1       0.635   0.978   1.794  1.00  0.00     0.269 C 
ATOM     10  C   UNL     1       2.758   1.248   0.615  1.00  0.00     0.281 C 
ATOM     11  H   UNL     1       1.602   2.691   1.276  1.00  0.00     0.348 HD
ATOM     12  C   UNL     1       1.611  -0.135   1.966  1.00  0.00     0.087 C 
ATOM     13  C   UNL     1       1.585  -1.229   2.979  1.00  0.00     0.129 C 
ATOM     14  C   UNL     1       3.835  -0.781   2.085  1.00  0.00     0.142 C 
ATOM     15  N   UNL     1       2.979  -1.674   2.923  1.00  0.00    -0.346 N 
BRANCH   8  16
ATOM     16  C   UNL     1       0.648   2.443  -0.229  1.00  0.00     0.291 C 
BRANCH  16  17
ATOM     17  C   UNL     1       0.915   2.036  -1.690  1.00  0.00     0.221 C 
BRANCH  17  18
ATOM     18  O   UNL     1       0.133   0.932  -2.148  1.00  0.00    -0.379 OA
ATOM     19  C   UNL     1       0.638  -0.338  -1.775  1.00  0.00     0.195 C 
ENDBRANCH  17  18
ENDBRANCH  16  17
ENDBRANCH   8  16
BRANCH  15  20
ATOM     20  C   UNL     1       3.444  -2.504   3.888  1.00  0.00     0.185 A 
ATOM     21  N   UNL     1       2.895  -2.564   5.085  1.00  0.00    -0.223 NA
ATOM     22  S   UNL     1       4.804  -3.543   3.690  1.00  0.00    -0.105 S 
ATOM     23  C   UNL     1       3.663  -3.326   5.951  1.00  0.00     0.079 A 
ATOM     24  C   UNL     1       4.682  -4.022   5.334  1.00  0.00     0.095 A 
BRANCH  23  25
ATOM     25  C   UNL     1       3.374  -3.262   7.417  1.00  0.00     0.213 C 
BRANCH  25  26
ATOM     26  O   UNL     1       2.650  -4.391   7.879  1.00  0.00    -0.390 OA
ATOM     27  H   UNL     1       1.792  -4.433   7.427  1.00  0.00     0.211 HD
ENDBRANCH  25  26
ENDBRANCH  23  25
ENDBRANCH  15  20
ENDBRANCH   4   7
ENDBRANCH   2   3
ENDBRANCH   1   2
BRANCH   1  28
ATOM     28  C   UNL     1       5.489   0.951   6.337  1.00  0.00     0.023 C 
BRANCH  28  29
ATOM     29  C   UNL     1       4.968   1.690   7.555  1.00  0.00     0.116 C 
BRANCH  29  30
ATOM     30  N   UNL     1       4.181   0.852   8.455  1.00  0.00    -0.352 N 
ATOM     31  C   UNL     1       4.162   0.850   9.826  1.00  0.00     0.251 C 
ATOM     32  H   UNL     1       3.585   0.202   8.019  1.00  0.00     0.163 HD
ATOM     33  O   UNL     1       3.512   0.012  10.443  1.00  0.00    -0.269 OA
BRANCH  31  34
ATOM     34  C   UNL     1       4.966   1.855  10.540  1.00  0.00     0.039 A 
ATOM     35  C   UNL     1       5.814   1.443  11.568  1.00  0.00     0.014 A 
ATOM     36  C   UNL     1       4.933   3.189  10.129  1.00  0.00     0.014 A 
ATOM     37  C   UNL     1       6.683   2.368  12.144  1.00  0.00     0.010 A 
ATOM     38  C   UNL     1       5.870   4.078  10.626  1.00  0.00     0.010 A 
ATOM     39  C   UNL     1       6.739   3.682  11.652  1.00  0.00    -0.014 A 
BRANCH  39  40
ATOM     40  C   UNL     1       7.660   4.689  12.225  1.00  0.00     0.031 A 
ATOM     41  C   UNL     1       7.088   5.916  12.879  1.00  0.00     0.074 A 
ATOM     42  C   UNL     1       8.991   4.541  12.086  1.00  0.00     0.049 A 
ATOM     43  N   UNL     1       7.708   6.966  13.352  1.00  0.00    -0.248 NA
ATOM     44  C   UNL     1       5.619   5.992  12.974  1.00  0.00     0.031 C 
ATOM     45  C   UNL     1       9.661   3.419  11.426  1.00  0.00     0.029 A 
ATOM     46  N   UNL     1      10.020   5.351  12.492  1.00  0.00    -0.354 N 
ATOM     47  C   UNL     1       6.706   7.835  13.765  1.00  0.00     0.074 A 
ATOM     48  C   UNL     1       5.441   7.220  13.432  1.00  0.00     0.031 C 
ATOM     49  C   UNL     1      10.990   3.594  11.503  1.00  0.00     0.029 A 
ATOM     50  C   UNL     1      11.263   4.856  12.184  1.00  0.00     0.049 A 
ATOM     51  H   UNL     1       9.881   6.206  12.959  1.00  0.00     0.167 HD
ATOM     52  C   UNL     1       6.825   9.027  14.394  1.00  0.00     0.031 A 
ATOM     53  C   UNL     1      12.484   5.365  12.429  1.00  0.00     0.031 A 
ATOM     54  C   UNL     1       8.084   9.617  14.755  1.00  0.00     0.049 A 
ATOM     55  C   UNL     1      12.593   6.676  13.157  1.00  0.00     0.074 A 
ATOM     56  C   UNL     1       8.322  10.792  15.444  1.00  0.00     0.029 A 
ATOM     57  N   UNL     1       9.321   9.062  14.463  1.00  0.00    -0.354 N 
ATOM     58  N   UNL     1      11.638   7.460  13.594  1.00  0.00    -0.248 NA
ATOM     59  C   UNL     1      13.950   7.160  13.442  1.00  0.00     0.031 C 
ATOM     60  C   UNL     1       9.707  10.964  15.541  1.00  0.00     0.029 A 
ATOM     61  C   UNL     1      10.328   9.873  14.955  1.00  0.00     0.049 A 
ATOM     62  H   UNL     1       9.461   8.217  13.977  1.00  0.00     0.167 HD
ATOM     63  C   UNL     1      12.277   8.512  14.237  1.00  0.00     0.074 A 
ATOM     64  C   UNL     1      13.700   8.258  14.141  1.00  0.00     0.031 C 
ATOM     65  C   UNL     1      11.736   9.590  14.856  1.00  0.00     0.031 A 
BRANCH  52  66
ATOM     66  C   UNL     1       5.555   9.757  14.729  1.00  0.00    -0.014 A 
ATOM     67  C   UNL     1       4.672   9.268  15.706  1.00  0.00     0.009 A 
ATOM     68  C   UNL     1       5.234  10.947  14.059  1.00  0.00     0.009 A 
ATOM     69  C   UNL     1       3.472   9.931  15.972  1.00  0.00     0.001 A 
ATOM     70  C   UNL     1       4.050  11.626  14.351  1.00  0.00     0.001 A 
ATOM     71  C   UNL     1       3.164  11.111  15.297  1.00  0.00     0.000 A 
ENDBRANCH  52  66
BRANCH  53  72
ATOM     72  C   UNL     1      13.701   4.614  12.027  1.00  0.00    -0.014 A 
ATOM     73  C   UNL     1      14.502   3.994  12.998  1.00  0.00     0.009 A 
ATOM     74  C   UNL     1      14.070   4.511  10.677  1.00  0.00     0.009 A 
ATOM     75  C   UNL     1      15.664   3.313  12.630  1.00  0.00     0.001 A 
ATOM     76  C   UNL     1      15.219   3.807  10.309  1.00  0.00     0.001 A 
ATOM     77  C   UNL     1      16.020   3.217  11.286  1.00  0.00     0.000 A 
ENDBRANCH  53  72
BRANCH  65  78
ATOM     78  C   UNL     1      12.685  10.543  15.523  1.00  0.00    -0.014 A 
ATOM     79  C   UNL     1      13.490  11.416  14.776  1.00  0.00     0.009 A 
ATOM     80  C   UNL     1      12.740  10.592  16.924  1.00  0.00     0.009 A 
ATOM     81  C   UNL     1      14.359  12.296  15.422  1.00  0.00     0.001 A 
ATOM     82  C   UNL     1      13.588  11.493  17.567  1.00  0.00     0.001 A 
ATOM     83  C   UNL     1      14.404  12.338  16.816  1.00  0.00     0.000 A 
ENDBRANCH  65  78
ENDBRANCH  39  40
ENDBRANCH  31  34
ENDBRANCH  29  30
ENDBRANCH  28  29
ENDBRANCH   1  28
TORSDOF 17
