REMARK SMILES O=C(NCCCCNC(=O)[C@@H](NC(=O)c1ccc(C[NH+]2CCCCC2)cc1)c1ccccc1F)c1ccc(-c2c3nc(c(-c4ccccc4)c4ccc([nH]4)c(-c4ccccc4)c4nc(c(-c5ccccc5)c5ccc2[nH]5)C=C4)C=C3)cc1
REMARK SMILES IDX 6 1 5 2 4 3 3 4 1 5 2 6 35 8 36 9 82 10 37 11 81 12 38 13
REMARK SMILES IDX 39 14 40 15 75 16 41 17 80 18 74 19 76 20 42 21 79 22 73 23
REMARK SMILES IDX 72 24 43 26 65 27 50 28 64 29 51 30 54 31 63 32 77 33 52 34
REMARK SMILES IDX 53 35 62 37 78 38 55 39 44 40 45 41 49 42 46 43 48 44 47 45
REMARK SMILES IDX 66 46 67 47 71 48 68 49 70 50 69 51 56 52 57 53 61 54 58 55
REMARK SMILES IDX 60 56 59 57 7 58 8 59 9 60 10 62 11 63 12 64 13 65 14 67
REMARK SMILES IDX 15 68 16 69 27 70 17 71 26 72 18 73 19 74 20 75 21 76 25 77
REMARK SMILES IDX 22 79 24 80 23 81 28 82 29 83 33 84 30 85 32 86 34 87 31 88
REMARK H PARENT 3 7 76 25 54 36 8 61 12 66 20 78
REMARK Flexibility Score: inf
ROOT
ATOM      1  C   UNL     1       4.493   2.954  -2.291  1.00  0.00     0.023 C 
ENDROOT
BRANCH   1   2
ATOM      2  C   UNL     1       4.878   1.484  -2.167  1.00  0.00     0.023 C 
BRANCH   2   3
ATOM      3  C   UNL     1       4.564   0.845  -0.819  1.00  0.00     0.116 C 
BRANCH   3   4
ATOM      4  N   UNL     1       3.149   0.883  -0.474  1.00  0.00    -0.352 N 
ATOM      5  O   UNL     1       1.146  -0.003   0.112  1.00  0.00    -0.269 OA
ATOM      6  C   UNL     1       2.353  -0.152  -0.044  1.00  0.00     0.251 C 
ATOM      7  H   UNL     1       2.708   1.759  -0.560  1.00  0.00     0.163 HD
BRANCH   6   8
ATOM      8  C   UNL     1       2.981  -1.464   0.197  1.00  0.00     0.039 A 
ATOM      9  C   UNL     1       4.115  -1.548   1.008  1.00  0.00     0.014 A 
ATOM     10  C   UNL     1       2.482  -2.594  -0.455  1.00  0.00     0.014 A 
ATOM     11  C   UNL     1       4.837  -2.732   1.047  1.00  0.00     0.010 A 
ATOM     12  C   UNL     1       3.164  -3.807  -0.342  1.00  0.00     0.010 A 
ATOM     13  C   UNL     1       4.364  -3.877   0.383  1.00  0.00    -0.014 A 
BRANCH  13  14
ATOM     14  C   UNL     1       5.109  -5.151   0.523  1.00  0.00     0.031 A 
ATOM     15  C   UNL     1       5.777  -5.805  -0.653  1.00  0.00     0.074 A 
ATOM     16  C   UNL     1       5.202  -5.700   1.749  1.00  0.00     0.049 A 
ATOM     17  N   UNL     1       6.482  -6.908  -0.685  1.00  0.00    -0.248 NA
ATOM     18  C   UNL     1       5.633  -5.146  -1.960  1.00  0.00     0.031 C 
ATOM     19  C   UNL     1       4.592  -5.152   2.965  1.00  0.00     0.029 A 
ATOM     20  N   UNL     1       5.858  -6.821   2.182  1.00  0.00    -0.354 N 
ATOM     21  C   UNL     1       6.848  -7.088  -2.013  1.00  0.00     0.074 A 
ATOM     22  C   UNL     1       6.272  -5.990  -2.760  1.00  0.00     0.031 C 
ATOM     23  C   UNL     1       4.948  -5.909   4.013  1.00  0.00     0.029 A 
ATOM     24  C   UNL     1       5.749  -7.028   3.535  1.00  0.00     0.049 A 
ATOM     25  H   UNL     1       6.359  -7.420   1.582  1.00  0.00     0.167 HD
ATOM     26  C   UNL     1       7.598  -8.078  -2.556  1.00  0.00     0.031 A 
ATOM     27  C   UNL     1       6.224  -8.020   4.309  1.00  0.00     0.031 A 
ATOM     28  C   UNL     1       8.169  -9.167  -1.807  1.00  0.00     0.049 A 
ATOM     29  C   UNL     1       7.022  -9.117   3.674  1.00  0.00     0.074 A 
ATOM     30  C   UNL     1       8.968 -10.203  -2.264  1.00  0.00     0.029 A 
ATOM     31  N   UNL     1       7.999  -9.366  -0.446  1.00  0.00    -0.354 N 
ATOM     32  N   UNL     1       7.380  -9.257   2.421  1.00  0.00    -0.248 NA
ATOM     33  C   UNL     1       7.478 -10.196   4.560  1.00  0.00     0.031 C 
ATOM     34  C   UNL     1       9.239 -11.054  -1.187  1.00  0.00     0.029 A 
ATOM     35  C   UNL     1       8.655 -10.520  -0.050  1.00  0.00     0.049 A 
ATOM     36  H   UNL     1       7.488  -8.774   0.152  1.00  0.00     0.167 HD
ATOM     37  C   UNL     1       8.115 -10.432   2.369  1.00  0.00     0.074 A 
ATOM     38  C   UNL     1       8.170 -10.953   3.720  1.00  0.00     0.031 C 
ATOM     39  C   UNL     1       8.689 -11.029   1.297  1.00  0.00     0.031 A 
BRANCH  26  40
ATOM     40  C   UNL     1       7.821  -8.048  -4.043  1.00  0.00    -0.014 A 
ATOM     41  C   UNL     1       8.687  -7.115  -4.635  1.00  0.00     0.009 A 
ATOM     42  C   UNL     1       7.198  -9.007  -4.859  1.00  0.00     0.009 A 
ATOM     43  C   UNL     1       8.902  -7.125  -6.016  1.00  0.00     0.001 A 
ATOM     44  C   UNL     1       7.434  -9.030  -6.235  1.00  0.00     0.001 A 
ATOM     45  C   UNL     1       8.279  -8.084  -6.814  1.00  0.00     0.000 A 
ENDBRANCH  26  40
BRANCH  27  46
ATOM     46  C   UNL     1       5.935  -8.018   5.764  1.00  0.00    -0.014 A 
ATOM     47  C   UNL     1       6.954  -7.768   6.694  1.00  0.00     0.009 A 
ATOM     48  C   UNL     1       4.629  -8.240   6.228  1.00  0.00     0.009 A 
ATOM     49  C   UNL     1       6.673  -7.759   8.062  1.00  0.00     0.001 A 
ATOM     50  C   UNL     1       4.345  -8.200   7.593  1.00  0.00     0.001 A 
ATOM     51  C   UNL     1       5.369  -7.968   8.510  1.00  0.00     0.000 A 
ENDBRANCH  27  46
BRANCH  39  52
ATOM     52  C   UNL     1       9.444 -12.301   1.555  1.00  0.00    -0.014 A 
ATOM     53  C   UNL     1       8.771 -13.500   1.836  1.00  0.00     0.009 A 
ATOM     54  C   UNL     1      10.846 -12.301   1.499  1.00  0.00     0.009 A 
ATOM     55  C   UNL     1       9.490 -14.668   2.091  1.00  0.00     0.001 A 
ATOM     56  C   UNL     1      11.561 -13.477   1.728  1.00  0.00     0.001 A 
ATOM     57  C   UNL     1      10.884 -14.656   2.034  1.00  0.00     0.000 A 
ENDBRANCH  39  52
ENDBRANCH  13  14
ENDBRANCH   6   8
ENDBRANCH   3   4
ENDBRANCH   2   3
ENDBRANCH   1   2
BRANCH   1  58
ATOM     58  C   UNL     1       5.019   3.825  -1.164  1.00  0.00     0.116 C 
BRANCH  58  59
ATOM     59  N   UNL     1       6.449   4.017  -1.179  1.00  0.00    -0.354 N 
ATOM     60  C   UNL     1       7.152   5.120  -0.777  1.00  0.00     0.247 C 
ATOM     61  H   UNL     1       6.984   3.264  -1.520  1.00  0.00     0.163 HD
ATOM     62  O   UNL     1       8.348   4.949  -0.508  1.00  0.00    -0.272 OA
BRANCH  60  63
ATOM     63  C   UNL     1       6.493   6.522  -0.591  1.00  0.00     0.205 C 
BRANCH  63  64
ATOM     64  N   UNL     1       5.620   6.906  -1.728  1.00  0.00    -0.336 N 
ATOM     65  C   UNL     1       4.271   7.059  -1.915  1.00  0.00     0.252 C 
ATOM     66  H   UNL     1       6.134   7.097  -2.546  1.00  0.00     0.165 HD
ATOM     67  O   UNL     1       3.797   7.020  -3.046  1.00  0.00    -0.269 OA
BRANCH  65  68
ATOM     68  C   UNL     1       3.379   7.283  -0.774  1.00  0.00     0.039 A 
ATOM     69  C   UNL     1       2.535   6.268  -0.319  1.00  0.00     0.014 A 
ATOM     70  C   UNL     1       3.387   8.533  -0.163  1.00  0.00     0.014 A 
ATOM     71  C   UNL     1       1.815   6.455   0.859  1.00  0.00     0.010 A 
ATOM     72  C   UNL     1       2.663   8.717   1.009  1.00  0.00     0.010 A 
ATOM     73  C   UNL     1       1.900   7.671   1.552  1.00  0.00     0.006 A 
BRANCH  73  74
ATOM     74  C   UNL     1       1.170   7.867   2.864  1.00  0.00     0.299 C 
BRANCH  74  75
ATOM     75  N   UNL     1      -0.176   8.450   2.774  1.00  0.00    -0.331 N 
ATOM     76  C   UNL     1      -0.173   9.793   2.184  1.00  0.00     0.262 C 
ATOM     77  C   UNL     1      -1.131   7.554   2.113  1.00  0.00     0.262 C 
ATOM     78  H   UNL     1      -0.501   8.562   3.735  1.00  0.00     0.348 HD
ATOM     79  C   UNL     1      -1.563  10.425   2.211  1.00  0.00     0.062 C 
ATOM     80  C   UNL     1      -2.546   8.132   2.139  1.00  0.00     0.062 C 
ATOM     81  C   UNL     1      -2.577   9.523   1.518  1.00  0.00     0.012 C 
ENDBRANCH  74  75
ENDBRANCH  73  74
ENDBRANCH  65  68
ENDBRANCH  63  64
BRANCH  63  82
ATOM     82  C   UNL     1       6.071   6.862   0.827  1.00  0.00     0.020 A 
ATOM     83  C   UNL     1       6.151   8.194   1.277  1.00  0.00     0.009 A 
ATOM     84  C   UNL     1       5.624   5.910   1.751  1.00  0.00     0.129 A 
ATOM     85  C   UNL     1       5.742   8.552   2.569  1.00  0.00     0.001 A 
ATOM     86  C   UNL     1       5.213   6.258   3.038  1.00  0.00     0.039 A 
ATOM     87  F   UNL     1       5.593   4.610   1.443  1.00  0.00    -0.207 F 
ATOM     88  C   UNL     1       5.259   7.585   3.446  1.00  0.00     0.003 A 
ENDBRANCH  63  82
ENDBRANCH  60  63
ENDBRANCH  58  59
ENDBRANCH   1  58
TORSDOF 16
