REMARK SMILES Cc1cccc(Cn2c(=O)c3sccc3n(CC(=O)NCCCCNC(=O)c3ccc(-c4c5nc(c(-c6ccccc6)c6ccc([nH]6)c(-c6ccccc6)c6nc(c(-c7ccccc7)c7ccc4[nH]7)C=C6)C=C5)cc3)c2=O)c1
REMARK SMILES IDX 22 1 21 2 20 3 18 4 19 5 17 7 16 8 8 9 9 10 76 11 10 12
REMARK SMILES IDX 11 13 77 14 12 15 15 16 13 17 14 18 7 19 6 20 1 21 2 22 3 23
REMARK SMILES IDX 78 24 4 25 5 26 23 27 24 28 25 29 26 30 27 32 28 33 29 34
REMARK SMILES IDX 75 35 30 36 74 37 31 38 32 39 33 40 68 41 34 42 73 43 67 44
REMARK SMILES IDX 69 45 35 46 72 47 66 48 65 49 36 51 58 52 43 53 57 54 44 55
REMARK SMILES IDX 47 56 56 57 70 58 45 59 46 60 55 62 71 63 48 64 37 65 38 66
REMARK SMILES IDX 42 67 39 68 41 69 40 70 59 71 60 72 64 73 61 74 63 75 62 76
REMARK SMILES IDX 49 77 50 78 54 79 51 80 53 81 52 82
REMARK H PARENT 20 6 25 31 69 50 47 61
REMARK Flexibility Score: inf
ROOT
ATOM      1  C   UNL     1      -6.016   3.712  -0.284  1.00  0.00     0.023 C 
ENDROOT
BRANCH   1   2
ATOM      2  C   UNL     1      -6.792   2.399  -0.477  1.00  0.00     0.116 C 
BRANCH   2   3
ATOM      3  N   UNL     1      -7.391   2.270  -1.792  1.00  0.00    -0.355 N 
ATOM      4  C   UNL     1      -6.957   1.607  -2.901  1.00  0.00     0.240 C 
ATOM      5  O   UNL     1      -7.742   1.522  -3.852  1.00  0.00    -0.273 OA
ATOM      6  H   UNL     1      -8.250   2.737  -1.901  1.00  0.00     0.163 HD
BRANCH   4   7
ATOM      7  C   UNL     1      -5.600   0.899  -2.957  1.00  0.00     0.227 C 
BRANCH   7   8
ATOM      8  N   UNL     1      -4.446   1.766  -2.703  1.00  0.00    -0.283 N 
ATOM      9  N   UNL     1      -2.608   2.375  -1.292  1.00  0.00    -0.254 N 
ATOM     10  C   UNL     1      -2.212   3.452  -2.102  1.00  0.00     0.274 A 
ATOM     11  C   UNL     1      -3.705   1.549  -1.540  1.00  0.00     0.332 A 
ATOM     12  O   UNL     1      -1.287   4.193  -1.817  1.00  0.00    -0.268 OA
ATOM     13  C   UNL     1      -3.045   3.615  -3.270  1.00  0.00     0.116 A 
ATOM     14  O   UNL     1      -4.062   0.688  -0.732  1.00  0.00    -0.247 OA
ATOM     15  S   UNL     1      -2.835   4.871  -4.395  1.00  0.00    -0.136 S 
ATOM     16  C   UNL     1      -4.108   2.808  -3.566  1.00  0.00     0.070 A 
ATOM     17  C   UNL     1      -4.173   4.332  -5.319  1.00  0.00     0.068 A 
ATOM     18  C   UNL     1      -4.757   3.208  -4.771  1.00  0.00     0.039 A 
BRANCH   9  19
ATOM     19  C   UNL     1      -1.910   2.200  -0.018  1.00  0.00     0.166 C 
BRANCH  19  20
ATOM     20  C   UNL     1      -0.990   0.996   0.034  1.00  0.00    -0.028 A 
ATOM     21  C   UNL     1       2.725   0.161  -0.255  1.00  0.00     0.044 C 
ATOM     22  C   UNL     1       1.241   0.020  -0.090  1.00  0.00    -0.051 A 
ATOM     23  C   UNL     1       0.700  -1.246   0.164  1.00  0.00     0.003 A 
ATOM     24  C   UNL     1       0.388   1.131  -0.184  1.00  0.00     0.009 A 
ATOM     25  C   UNL     1      -0.665  -1.395   0.379  1.00  0.00     0.001 A 
ATOM     26  C   UNL     1      -1.495  -0.278   0.340  1.00  0.00     0.005 A 
ENDBRANCH  19  20
ENDBRANCH   9  19
ENDBRANCH   7   8
ENDBRANCH   4   7
ENDBRANCH   2   3
ENDBRANCH   1   2
BRANCH   1  27
ATOM     27  C   UNL     1      -6.843   4.992  -0.440  1.00  0.00     0.023 C 
BRANCH  27  28
ATOM     28  C   UNL     1      -7.924   5.158   0.616  1.00  0.00     0.116 C 
BRANCH  28  29
ATOM     29  N   UNL     1      -7.520   5.865   1.822  1.00  0.00    -0.352 N 
ATOM     30  C   UNL     1      -8.178   5.981   3.035  1.00  0.00     0.251 C 
ATOM     31  H   UNL     1      -6.654   6.329   1.768  1.00  0.00     0.163 HD
ATOM     32  O   UNL     1      -7.725   6.730   3.897  1.00  0.00    -0.269 OA
BRANCH  30  33
ATOM     33  C   UNL     1      -9.333   5.099   3.361  1.00  0.00     0.039 A 
ATOM     34  C   UNL     1      -9.411   4.582   4.661  1.00  0.00     0.014 A 
ATOM     35  C   UNL     1     -10.181   4.603   2.377  1.00  0.00     0.014 A 
ATOM     36  C   UNL     1     -10.109   3.399   4.891  1.00  0.00     0.010 A 
ATOM     37  C   UNL     1     -10.772   3.371   2.565  1.00  0.00     0.010 A 
ATOM     38  C   UNL     1     -10.674   2.738   3.803  1.00  0.00    -0.014 A 
BRANCH  38  39
ATOM     39  C   UNL     1     -11.092   1.345   3.835  1.00  0.00     0.031 A 
ATOM     40  C   UNL     1     -12.521   1.002   3.925  1.00  0.00     0.074 A 
ATOM     41  C   UNL     1     -10.168   0.367   3.730  1.00  0.00     0.049 A 
ATOM     42  N   UNL     1     -12.969  -0.086   4.454  1.00  0.00    -0.248 NA
ATOM     43  C   UNL     1     -13.573   1.893   3.451  1.00  0.00     0.031 C 
ATOM     44  C   UNL     1     -10.392  -1.059   3.510  1.00  0.00     0.029 A 
ATOM     45  N   UNL     1      -8.813   0.444   3.995  1.00  0.00    -0.354 N 
ATOM     46  C   UNL     1     -14.301  -0.178   4.127  1.00  0.00     0.074 A 
ATOM     47  C   UNL     1     -14.650   1.113   3.581  1.00  0.00     0.031 C 
ATOM     48  C   UNL     1      -9.292  -1.736   3.883  1.00  0.00     0.029 A 
ATOM     49  C   UNL     1      -8.374  -0.784   4.489  1.00  0.00     0.049 A 
ATOM     50  H   UNL     1      -8.249   1.239   3.857  1.00  0.00     0.167 HD
ATOM     51  C   UNL     1     -14.931  -1.383   4.205  1.00  0.00     0.031 A 
ATOM     52  C   UNL     1      -7.877  -0.887   5.759  1.00  0.00     0.031 A 
ATOM     53  C   UNL     1     -14.042  -2.429   4.704  1.00  0.00     0.049 A 
ATOM     54  C   UNL     1      -8.742  -1.728   6.679  1.00  0.00     0.074 A 
ATOM     55  C   UNL     1     -13.306  -3.415   4.067  1.00  0.00     0.029 A 
ATOM     56  N   UNL     1     -13.552  -2.348   6.002  1.00  0.00    -0.354 N 
ATOM     57  N   UNL     1      -9.974  -2.068   6.414  1.00  0.00    -0.248 NA
ATOM     58  C   UNL     1      -8.302  -2.226   7.980  1.00  0.00     0.031 C 
ATOM     59  C   UNL     1     -12.310  -3.872   4.970  1.00  0.00     0.029 A 
ATOM     60  C   UNL     1     -12.466  -3.188   6.163  1.00  0.00     0.049 A 
ATOM     61  H   UNL     1     -13.926  -1.773   6.707  1.00  0.00     0.167 HD
ATOM     62  C   UNL     1     -10.490  -2.795   7.454  1.00  0.00     0.074 A 
ATOM     63  C   UNL     1      -9.399  -2.879   8.407  1.00  0.00     0.031 C 
ATOM     64  C   UNL     1     -11.775  -3.257   7.444  1.00  0.00     0.031 A 
BRANCH  51  65
ATOM     65  C   UNL     1     -16.253  -1.654   3.532  1.00  0.00    -0.014 A 
ATOM     66  C   UNL     1     -16.526  -2.938   3.024  1.00  0.00     0.009 A 
ATOM     67  C   UNL     1     -17.246  -0.683   3.321  1.00  0.00     0.009 A 
ATOM     68  C   UNL     1     -17.670  -3.207   2.262  1.00  0.00     0.001 A 
ATOM     69  C   UNL     1     -18.372  -0.932   2.524  1.00  0.00     0.001 A 
ATOM     70  C   UNL     1     -18.578  -2.194   1.984  1.00  0.00     0.000 A 
ENDBRANCH  51  65
BRANCH  52  71
ATOM     71  C   UNL     1      -7.093   0.311   6.178  1.00  0.00    -0.014 A 
ATOM     72  C   UNL     1      -5.867   0.553   5.525  1.00  0.00     0.009 A 
ATOM     73  C   UNL     1      -7.703   1.369   6.866  1.00  0.00     0.009 A 
ATOM     74  C   UNL     1      -5.338   1.845   5.448  1.00  0.00     0.001 A 
ATOM     75  C   UNL     1      -7.161   2.660   6.797  1.00  0.00     0.001 A 
ATOM     76  C   UNL     1      -6.005   2.905   6.055  1.00  0.00     0.000 A 
ENDBRANCH  52  71
BRANCH  64  77
ATOM     77  C   UNL     1     -12.508  -3.881   8.607  1.00  0.00    -0.014 A 
ATOM     78  C   UNL     1     -12.177  -3.676   9.952  1.00  0.00     0.009 A 
ATOM     79  C   UNL     1     -13.692  -4.611   8.351  1.00  0.00     0.009 A 
ATOM     80  C   UNL     1     -12.963  -4.208  10.985  1.00  0.00     0.001 A 
ATOM     81  C   UNL     1     -14.504  -5.101   9.376  1.00  0.00     0.001 A 
ATOM     82  C   UNL     1     -14.132  -4.908  10.697  1.00  0.00     0.000 A 
ENDBRANCH  64  77
ENDBRANCH  38  39
ENDBRANCH  30  33
ENDBRANCH  28  29
ENDBRANCH  27  28
ENDBRANCH   1  27
TORSDOF 14
