REMARK SMILES Cc1ccc(NC(=O)c2ccccc2NC(=O)[C@H]2CCCC[C@H]2C(=O)NCCCCNC(=O)c2ccc(-c3c4nc(c(-c5ccccc5)c5ccc([nH]5)c(-c5ccccc5)c5nc(c(-c6ccccc6)c6ccc3[nH]6)C=C5)C=C4)cc2)cc1
REMARK SMILES IDX 27 1 26 2 24 3 25 4 23 6 18 7 19 8 20 9 22 10 21 11 16 12
REMARK SMILES IDX 15 13 17 15 14 16 9 17 10 18 11 19 13 20 12 21 7 22 6 23
REMARK SMILES IDX 8 25 5 26 1 27 2 28 3 29 83 30 4 31 82 32 28 33 29 34 30 35
REMARK SMILES IDX 31 36 32 37 33 39 34 40 35 41 81 42 36 43 80 44 37 45 38 46
REMARK SMILES IDX 39 47 74 48 40 49 79 50 73 51 75 52 41 53 78 54 72 55 71 56
REMARK SMILES IDX 42 58 64 59 49 60 63 61 50 62 53 63 62 64 76 65 51 66 52 67
REMARK SMILES IDX 61 69 77 70 54 71 43 72 44 73 48 74 45 75 47 76 46 77 65 78
REMARK SMILES IDX 66 79 70 80 67 81 69 82 68 83 55 84 56 85 60 86 57 87 59 88
REMARK SMILES IDX 58 89
REMARK H PARENT 26 5 15 14 6 24 31 38 75 57 53 68
REMARK Flexibility Score: inf
ROOT
ATOM      1  C   UNL     1       0.689  -0.763   6.942  1.00  0.00     0.116 C 
ENDROOT
BRANCH   1   2
ATOM      2  N   UNL     1      -0.630  -0.295   6.540  1.00  0.00    -0.356 N 
ATOM      3  C   UNL     1      -1.562  -0.753   5.671  1.00  0.00     0.223 C 
ATOM      4  O   UNL     1      -2.504   0.019   5.444  1.00  0.00    -0.275 OA
ATOM      5  H   UNL     1      -0.902   0.533   6.998  1.00  0.00     0.163 HD
BRANCH   3   6
ATOM      6  C   UNL     1      -1.534  -2.100   4.940  1.00  0.00     0.091 C 
ATOM      7  C   UNL     1      -0.795  -2.073   3.584  1.00  0.00     0.091 C 
ATOM      8  C   UNL     1      -0.996  -3.397   2.819  1.00  0.00     0.014 C 
ATOM      9  C   UNL     1      -0.769  -4.647   3.681  1.00  0.00     0.001 C 
ATOM     10  C   UNL     1      -1.315  -3.353   5.788  1.00  0.00     0.014 C 
ATOM     11  C   UNL     1      -1.586  -4.617   4.970  1.00  0.00     0.001 C 
BRANCH   7  12
ATOM     12  C   UNL     1       0.691  -1.851   3.722  1.00  0.00     0.228 C 
ATOM     13  N   UNL     1       1.389  -0.859   3.114  1.00  0.00    -0.325 N 
ATOM     14  H   UNL     1       2.311  -0.832   3.456  1.00  0.00     0.169 HD
ATOM     15  O   UNL     1       1.351  -2.582   4.473  1.00  0.00    -0.274 OA
BRANCH  13  16
ATOM     16  C   UNL     1       1.198   0.141   2.146  1.00  0.00     0.054 A 
ATOM     17  C   UNL     1       2.162   1.178   1.994  1.00  0.00     0.063 A 
ATOM     18  C   UNL     1       1.905   2.225   1.079  1.00  0.00     0.016 A 
ATOM     19  C   UNL     1       0.752   2.244   0.302  1.00  0.00     0.001 A 
ATOM     20  C   UNL     1       0.083   0.147   1.299  1.00  0.00     0.027 A 
ATOM     21  C   UNL     1      -0.150   1.197   0.403  1.00  0.00     0.002 A 
BRANCH  17  22
ATOM     22  C   UNL     1       3.375   1.437   2.833  1.00  0.00     0.257 C 
ATOM     23  N   UNL     1       4.285   0.513   3.291  1.00  0.00    -0.322 N 
ATOM     24  H   UNL     1       4.941   0.905   3.912  1.00  0.00     0.170 HD
ATOM     25  O   UNL     1       3.562   2.602   3.207  1.00  0.00    -0.269 OA
BRANCH  23  26
ATOM     26  C   UNL     1       4.495  -0.853   3.081  1.00  0.00     0.041 A 
ATOM     27  C   UNL     1       4.050  -5.106   3.287  1.00  0.00     0.044 C 
ATOM     28  C   UNL     1       4.350  -3.643   3.158  1.00  0.00    -0.051 A 
ATOM     29  C   UNL     1       3.961  -2.942   2.009  1.00  0.00     0.005 A 
ATOM     30  C   UNL     1       4.949  -2.946   4.209  1.00  0.00     0.005 A 
ATOM     31  C   UNL     1       4.047  -1.548   1.963  1.00  0.00     0.026 A 
ATOM     32  C   UNL     1       5.050  -1.557   4.157  1.00  0.00     0.026 A 
ENDBRANCH  23  26
ENDBRANCH  17  22
ENDBRANCH  13  16
ENDBRANCH   7  12
ENDBRANCH   3   6
ENDBRANCH   1   2
BRANCH   1  33
ATOM     33  C   UNL     1       1.783  -0.083   6.116  1.00  0.00     0.023 C 
BRANCH  33  34
ATOM     34  C   UNL     1       2.318   1.248   6.607  1.00  0.00     0.023 C 
BRANCH  34  35
ATOM     35  C   UNL     1       3.223   1.139   7.812  1.00  0.00     0.116 C 
BRANCH  35  36
ATOM     36  N   UNL     1       4.579   0.666   7.546  1.00  0.00    -0.352 N 
ATOM     37  C   UNL     1       5.621   0.415   8.437  1.00  0.00     0.251 C 
ATOM     38  H   UNL     1       4.787   0.500   6.599  1.00  0.00     0.163 HD
ATOM     39  O   UNL     1       6.697   0.032   8.026  1.00  0.00    -0.269 OA
BRANCH  37  40
ATOM     40  C   UNL     1       5.343   0.453   9.904  1.00  0.00     0.039 A 
ATOM     41  C   UNL     1       5.753  -0.654  10.654  1.00  0.00     0.014 A 
ATOM     42  C   UNL     1       4.373   1.304  10.405  1.00  0.00     0.014 A 
ATOM     43  C   UNL     1       4.940  -1.094  11.695  1.00  0.00     0.010 A 
ATOM     44  C   UNL     1       3.463   0.768  11.289  1.00  0.00     0.010 A 
ATOM     45  C   UNL     1       3.709  -0.472  11.883  1.00  0.00    -0.014 A 
BRANCH  45  46
ATOM     46  C   UNL     1       2.590  -1.099  12.580  1.00  0.00     0.031 A 
ATOM     47  C   UNL     1       2.064  -0.478  13.822  1.00  0.00     0.074 A 
ATOM     48  C   UNL     1       1.992  -2.209  12.079  1.00  0.00     0.049 A 
ATOM     49  N   UNL     1       1.437  -1.125  14.746  1.00  0.00    -0.248 NA
ATOM     50  C   UNL     1       2.250   0.933  14.152  1.00  0.00     0.031 C 
ATOM     51  C   UNL     1       0.735  -2.805  12.541  1.00  0.00     0.029 A 
ATOM     52  N   UNL     1       2.423  -3.134  11.131  1.00  0.00    -0.354 N 
ATOM     53  C   UNL     1       0.888  -0.201  15.606  1.00  0.00     0.074 A 
ATOM     54  C   UNL     1       1.493   1.056  15.244  1.00  0.00     0.031 C 
ATOM     55  C   UNL     1       0.692  -4.088  12.145  1.00  0.00     0.029 A 
ATOM     56  C   UNL     1       1.979  -4.394  11.552  1.00  0.00     0.049 A 
ATOM     57  H   UNL     1       2.942  -2.939  10.318  1.00  0.00     0.167 HD
ATOM     58  C   UNL     1      -0.121  -0.578  16.440  1.00  0.00     0.031 A 
ATOM     59  C   UNL     1       2.789  -5.423  11.946  1.00  0.00     0.031 A 
ATOM     60  C   UNL     1      -0.387  -2.013  16.350  1.00  0.00     0.049 A 
ATOM     61  C   UNL     1       2.522  -5.884  13.374  1.00  0.00     0.074 A 
ATOM     62  C   UNL     1      -1.365  -2.753  15.707  1.00  0.00     0.029 A 
ATOM     63  N   UNL     1       0.601  -2.913  16.733  1.00  0.00    -0.354 N 
ATOM     64  N   UNL     1       1.825  -5.198  14.238  1.00  0.00    -0.248 NA
ATOM     65  C   UNL     1       3.062  -7.112  13.961  1.00  0.00     0.031 C 
ATOM     66  C   UNL     1      -0.923  -4.101  15.643  1.00  0.00     0.029 A 
ATOM     67  C   UNL     1       0.306  -4.181  16.273  1.00  0.00     0.049 A 
ATOM     68  H   UNL     1       1.399  -2.678  17.258  1.00  0.00     0.167 HD
ATOM     69  C   UNL     1       1.830  -5.830  15.453  1.00  0.00     0.074 A 
ATOM     70  C   UNL     1       2.606  -7.035  15.226  1.00  0.00     0.031 C 
ATOM     71  C   UNL     1       1.213  -5.290  16.545  1.00  0.00     0.031 A 
BRANCH  58  72
ATOM     72  C   UNL     1      -1.052   0.398  17.125  1.00  0.00    -0.014 A 
ATOM     73  C   UNL     1      -2.340  -0.025  17.504  1.00  0.00     0.009 A 
ATOM     74  C   UNL     1      -0.759   1.750  17.372  1.00  0.00     0.009 A 
ATOM     75  C   UNL     1      -3.301   0.866  18.003  1.00  0.00     0.001 A 
ATOM     76  C   UNL     1      -1.724   2.655  17.836  1.00  0.00     0.001 A 
ATOM     77  C   UNL     1      -3.002   2.214  18.142  1.00  0.00     0.000 A 
ENDBRANCH  58  72
BRANCH  59  78
ATOM     78  C   UNL     1       4.122  -5.448  11.291  1.00  0.00    -0.014 A 
ATOM     79  C   UNL     1       4.184  -5.779   9.925  1.00  0.00     0.009 A 
ATOM     80  C   UNL     1       5.223  -4.811  11.879  1.00  0.00     0.009 A 
ATOM     81  C   UNL     1       5.261  -5.362   9.137  1.00  0.00     0.001 A 
ATOM     82  C   UNL     1       6.303  -4.401  11.087  1.00  0.00     0.001 A 
ATOM     83  C   UNL     1       6.303  -4.640   9.713  1.00  0.00     0.000 A 
ENDBRANCH  59  78
BRANCH  71  84
ATOM     84  C   UNL     1       1.344  -5.765  17.972  1.00  0.00    -0.014 A 
ATOM     85  C   UNL     1       2.426  -6.505  18.463  1.00  0.00     0.009 A 
ATOM     86  C   UNL     1       0.396  -5.324  18.925  1.00  0.00     0.009 A 
ATOM     87  C   UNL     1       2.535  -6.821  19.826  1.00  0.00     0.001 A 
ATOM     88  C   UNL     1       0.524  -5.595  20.289  1.00  0.00     0.001 A 
ATOM     89  C   UNL     1       1.592  -6.356  20.739  1.00  0.00     0.000 A 
ENDBRANCH  71  84
ENDBRANCH  45  46
ENDBRANCH  37  40
ENDBRANCH  35  36
ENDBRANCH  34  35
ENDBRANCH  33  34
ENDBRANCH   1  33
TORSDOF 15
