REMARK SMILES O=C(CCN1C(=O)S/C(=C\c2ccccc2F)C1=O)Nc1ccc(C(=O)NCCCCNC(=O)c2ccc(-c3c4nc(c(-c5ccccc5)c5ccc([nH]5)c(-c5ccccc5)c5nc(c(-c6ccccc6)c6ccc3[nH]6)C=C5)C=C4)cc2)c(O)c1
REMARK SMILES IDX 28 1 27 2 25 3 26 4 24 6 21 7 22 8 85 9 23 10 83 11 20 12
REMARK SMILES IDX 1 13 2 14 3 16 4 17 5 18 6 19 18 20 7 21 8 22 9 23 19 24
REMARK SMILES IDX 10 25 11 26 12 27 16 28 13 29 15 30 17 31 14 32 84 33 29 35
REMARK SMILES IDX 30 36 31 37 32 38 33 39 34 41 35 42 36 43 82 44 37 45 81 46
REMARK SMILES IDX 38 47 39 48 40 49 75 50 41 51 80 52 74 53 76 54 42 55 79 56
REMARK SMILES IDX 73 57 72 58 43 60 65 61 50 62 64 63 51 64 54 65 63 66 77 67
REMARK SMILES IDX 52 68 53 69 62 71 78 72 55 73 44 74 45 75 49 76 46 77 48 78
REMARK SMILES IDX 47 79 66 80 67 81 71 82 68 83 70 84 69 85 56 86 57 87 61 88
REMARK SMILES IDX 58 89 60 90 59 91
REMARK H PARENT 27 5 20 15 84 34 32 40 76 59 54 70
REMARK Flexibility Score: inf
ROOT
ATOM      1  C   UNL     1       1.635  -7.149  -1.084  1.00  0.00     0.116 C 
ENDROOT
BRANCH   1   2
ATOM      2  N   UNL     1       0.800  -6.877  -2.246  1.00  0.00    -0.352 N 
ATOM      3  C   UNL     1       0.543  -5.689  -2.894  1.00  0.00     0.255 C 
ATOM      4  O   UNL     1      -0.231  -5.684  -3.848  1.00  0.00    -0.269 OA
ATOM      5  H   UNL     1       0.349  -7.665  -2.627  1.00  0.00     0.163 HD
BRANCH   3   6
ATOM      6  C   UNL     1       1.162  -4.413  -2.457  1.00  0.00     0.081 A 
ATOM      7  C   UNL     1       2.151  -1.974  -1.454  1.00  0.00     0.044 A 
ATOM      8  C   UNL     1       0.824  -2.071  -1.867  1.00  0.00     0.027 A 
ATOM      9  C   UNL     1       3.000  -3.071  -1.632  1.00  0.00     0.073 A 
ATOM     10  C   UNL     1       0.335  -3.284  -2.375  1.00  0.00     0.020 A 
ATOM     11  C   UNL     1       2.516  -4.270  -2.152  1.00  0.00     0.130 A 
BRANCH   7  12
ATOM     12  N   UNL     1       2.717  -0.829  -0.866  1.00  0.00    -0.326 N 
ATOM     13  O   UNL     1       0.843   0.380  -0.196  1.00  0.00    -0.275 OA
ATOM     14  C   UNL     1       2.057   0.223  -0.261  1.00  0.00     0.226 C 
ATOM     15  H   UNL     1       3.699  -0.770  -0.888  1.00  0.00     0.169 HD
BRANCH  14  16
ATOM     16  C   UNL     1       3.013   1.225   0.367  1.00  0.00     0.122 C 
BRANCH  16  17
ATOM     17  C   UNL     1       3.743   0.678   1.600  1.00  0.00     0.140 C 
BRANCH  17  18
ATOM     18  N   UNL     1       4.786  -0.297   1.288  1.00  0.00    -0.268 N 
ATOM     19  C   UNL     1       5.973   0.090   0.720  1.00  0.00     0.293 C 
ATOM     20  C   UNL     1       4.644  -1.636   1.581  1.00  0.00     0.268 C 
ATOM     21  O   UNL     1       6.296   1.221   0.405  1.00  0.00    -0.261 OA
ATOM     22  S   UNL     1       6.975  -1.313   0.407  1.00  0.00    -0.022 SA
ATOM     23  C   UNL     1       5.812  -2.397   1.060  1.00  0.00     0.083 C 
ATOM     24  O   UNL     1       3.682  -2.156   2.126  1.00  0.00    -0.268 OA
ATOM     25  C   UNL     1       5.827  -3.738   1.046  1.00  0.00     0.032 C 
BRANCH  25  26
ATOM     26  C   UNL     1       6.886  -4.584   0.483  1.00  0.00     0.012 A 
ATOM     27  C   UNL     1       6.601  -5.405  -0.616  1.00  0.00     0.011 A 
ATOM     28  C   UNL     1       8.173  -4.621   1.029  1.00  0.00     0.130 A 
ATOM     29  C   UNL     1       7.590  -6.228  -1.163  1.00  0.00     0.001 A 
ATOM     30  C   UNL     1       9.163  -5.438   0.488  1.00  0.00     0.040 A 
ATOM     31  F   UNL     1       8.473  -3.873   2.102  1.00  0.00    -0.206 F 
ATOM     32  C   UNL     1       8.872  -6.242  -0.613  1.00  0.00     0.003 A 
ENDBRANCH  25  26
ENDBRANCH  17  18
ENDBRANCH  16  17
ENDBRANCH  14  16
ENDBRANCH   7  12
BRANCH  11  33
ATOM     33  O   UNL     1       3.451  -5.245  -2.363  1.00  0.00    -0.507 OA
ATOM     34  H   UNL     1       3.192  -6.076  -2.711  1.00  0.00     0.293 HD
ENDBRANCH  11  33
ENDBRANCH   3   6
ENDBRANCH   1   2
BRANCH   1  35
ATOM     35  C   UNL     1       1.095  -8.228  -0.148  1.00  0.00     0.023 C 
BRANCH  35  36
ATOM     36  C   UNL     1       0.873  -9.610  -0.761  1.00  0.00     0.023 C 
BRANCH  36  37
ATOM     37  C   UNL     1       2.035 -10.182  -1.565  1.00  0.00     0.116 C 
BRANCH  37  38
ATOM     38  N   UNL     1       3.230 -10.434  -0.771  1.00  0.00    -0.352 N 
ATOM     39  C   UNL     1       3.877 -11.622  -0.510  1.00  0.00     0.251 C 
ATOM     40  H   UNL     1       3.636  -9.637  -0.360  1.00  0.00     0.163 HD
ATOM     41  O   UNL     1       4.823 -11.657   0.270  1.00  0.00    -0.269 OA
BRANCH  39  42
ATOM     42  C   UNL     1       3.403 -12.868  -1.148  1.00  0.00     0.039 A 
ATOM     43  C   UNL     1       3.175 -13.999  -0.359  1.00  0.00     0.014 A 
ATOM     44  C   UNL     1       3.138 -12.902  -2.518  1.00  0.00     0.014 A 
ATOM     45  C   UNL     1       2.585 -15.132  -0.928  1.00  0.00     0.010 A 
ATOM     46  C   UNL     1       2.462 -13.989  -3.058  1.00  0.00     0.010 A 
ATOM     47  C   UNL     1       2.177 -15.117  -2.271  1.00  0.00    -0.014 A 
BRANCH  47  48
ATOM     48  C   UNL     1       1.473 -16.265  -2.900  1.00  0.00     0.031 A 
ATOM     49  C   UNL     1       2.093 -16.951  -4.088  1.00  0.00     0.074 A 
ATOM     50  C   UNL     1       0.244 -16.626  -2.481  1.00  0.00     0.049 A 
ATOM     51  N   UNL     1       1.583 -17.859  -4.880  1.00  0.00    -0.248 NA
ATOM     52  C   UNL     1       3.458 -16.534  -4.452  1.00  0.00     0.031 C 
ATOM     53  C   UNL     1      -0.483 -16.031  -1.357  1.00  0.00     0.029 A 
ATOM     54  N   UNL     1      -0.623 -17.575  -2.968  1.00  0.00    -0.354 N 
ATOM     55  C   UNL     1       2.549 -18.094  -5.851  1.00  0.00     0.074 A 
ATOM     56  C   UNL     1       3.650 -17.198  -5.581  1.00  0.00     0.031 C 
ATOM     57  C   UNL     1      -1.673 -16.641  -1.230  1.00  0.00     0.029 A 
ATOM     58  C   UNL     1      -1.819 -17.630  -2.294  1.00  0.00     0.049 A 
ATOM     59  H   UNL     1      -0.406 -18.160  -3.730  1.00  0.00     0.167 HD
ATOM     60  C   UNL     1       2.532 -18.991  -6.865  1.00  0.00     0.031 A 
ATOM     61  C   UNL     1      -2.918 -18.378  -2.518  1.00  0.00     0.031 A 
ATOM     62  C   UNL     1       1.444 -19.893  -7.123  1.00  0.00     0.049 A 
ATOM     63  C   UNL     1      -2.927 -19.345  -3.672  1.00  0.00     0.074 A 
ATOM     64  C   UNL     1       1.351 -20.874  -8.095  1.00  0.00     0.029 A 
ATOM     65  N   UNL     1       0.259 -19.924  -6.405  1.00  0.00    -0.354 N 
ATOM     66  N   UNL     1      -1.985 -19.593  -4.550  1.00  0.00    -0.248 NA
ATOM     67  C   UNL     1      -4.149 -20.141  -3.863  1.00  0.00     0.031 C 
ATOM     68  C   UNL     1       0.086 -21.458  -8.003  1.00  0.00     0.029 A 
ATOM     69  C   UNL     1      -0.580 -20.893  -6.927  1.00  0.00     0.049 A 
ATOM     70  H   UNL     1       0.046 -19.345  -5.638  1.00  0.00     0.167 HD
ATOM     71  C   UNL     1      -2.481 -20.603  -5.365  1.00  0.00     0.074 A 
ATOM     72  C   UNL     1      -3.807 -20.923  -4.878  1.00  0.00     0.031 C 
ATOM     73  C   UNL     1      -1.888 -21.216  -6.417  1.00  0.00     0.031 A 
BRANCH  60  74
ATOM     74  C   UNL     1       3.726 -19.028  -7.778  1.00  0.00    -0.014 A 
ATOM     75  C   UNL     1       4.979 -19.473  -7.326  1.00  0.00     0.009 A 
ATOM     76  C   UNL     1       3.589 -18.642  -9.121  1.00  0.00     0.009 A 
ATOM     77  C   UNL     1       6.079 -19.488  -8.187  1.00  0.00     0.001 A 
ATOM     78  C   UNL     1       4.681 -18.693  -9.989  1.00  0.00     0.001 A 
ATOM     79  C   UNL     1       5.927 -19.104  -9.518  1.00  0.00     0.000 A 
ENDBRANCH  60  74
BRANCH  61  80
ATOM     80  C   UNL     1      -4.105 -18.253  -1.629  1.00  0.00    -0.014 A 
ATOM     81  C   UNL     1      -4.474 -19.310  -0.781  1.00  0.00     0.009 A 
ATOM     82  C   UNL     1      -4.887 -17.088  -1.634  1.00  0.00     0.009 A 
ATOM     83  C   UNL     1      -5.618 -19.214   0.016  1.00  0.00     0.001 A 
ATOM     84  C   UNL     1      -6.011 -16.982  -0.812  1.00  0.00     0.001 A 
ATOM     85  C   UNL     1      -6.383 -18.049   0.004  1.00  0.00     0.000 A 
ENDBRANCH  61  80
BRANCH  73  86
ATOM     86  C   UNL     1      -2.624 -22.349  -7.077  1.00  0.00    -0.014 A 
ATOM     87  C   UNL     1      -3.744 -22.126  -7.892  1.00  0.00     0.009 A 
ATOM     88  C   UNL     1      -2.126 -23.656  -6.947  1.00  0.00     0.009 A 
ATOM     89  C   UNL     1      -4.361 -23.195  -8.546  1.00  0.00     0.001 A 
ATOM     90  C   UNL     1      -2.725 -24.716  -7.627  1.00  0.00     0.001 A 
ATOM     91  C   UNL     1      -3.846 -24.485  -8.421  1.00  0.00     0.000 A 
ENDBRANCH  73  86
ENDBRANCH  47  48
ENDBRANCH  39  42
ENDBRANCH  37  38
ENDBRANCH  36  37
ENDBRANCH  35  36
ENDBRANCH   1  35
TORSDOF 17
