REMARK SMILES Cc1nonc1C[C@@]1(C(=O)NCCCCNC(=O)c2ccc(-c3c4nc(c(-c5ccccc5)c5ccc([nH]5)c(-c5ccccc5)c5nc(c(-c6ccccc6)c6ccc3[nH]6)C=C5)C=C4)cc2)CCC[NH2+]C1
REMARK SMILES IDX 13 1 12 2 11 3 9 4 10 5 8 7 67 8 71 9 68 10 70 11 69 12 7 15
REMARK SMILES IDX 6 16 1 17 2 18 3 19 4 20 5 21 14 22 15 23 16 24 17 25 18 27
REMARK SMILES IDX 19 28 20 29 66 30 21 31 65 32 22 33 23 34 24 35 59 36 25 37
REMARK SMILES IDX 64 38 58 39 60 40 26 41 63 42 57 43 56 44 27 46 49 47 34 48
REMARK SMILES IDX 48 49 35 50 38 51 47 52 61 53 36 54 37 55 46 57 62 58 39 59
REMARK SMILES IDX 28 60 29 61 33 62 30 63 32 64 31 65 50 66 51 67 55 68 52 69
REMARK SMILES IDX 54 70 53 71 40 72 41 73 45 74 42 75 44 76 43 77
REMARK H PARENT 11 6 70 13 70 14 16 26 60 45 38 56
REMARK Flexibility Score: inf
ROOT
ATOM      1  C   UNL     1       3.187   4.733   0.404  1.00  0.00     0.023 C 
ENDROOT
BRANCH   1   2
ATOM      2  C   UNL     1       2.600   3.604  -0.441  1.00  0.00     0.116 C 
BRANCH   2   3
ATOM      3  N   UNL     1       1.508   2.955   0.249  1.00  0.00    -0.355 N 
ATOM      4  C   UNL     1       0.176   2.842   0.008  1.00  0.00     0.232 C 
ATOM      5  O   UNL     1      -0.463   2.294   0.914  1.00  0.00    -0.274 OA
ATOM      6  H   UNL     1       1.791   2.494   1.072  1.00  0.00     0.163 HD
BRANCH   4   7
ATOM      7  C   UNL     1      -0.504   3.336  -1.289  1.00  0.00     0.104 C 
ATOM      8  C   UNL     1      -2.032   3.020  -1.235  1.00  0.00     0.029 C 
ATOM      9  C   UNL     1       0.081   2.590  -2.522  1.00  0.00     0.277 C 
ATOM     10  C   UNL     1      -2.355   1.531  -1.395  1.00  0.00     0.063 C 
ATOM     11  N   UNL     1      -0.226   1.160  -2.573  1.00  0.00    -0.345 N 
ATOM     12  C   UNL     1      -1.667   0.928  -2.611  1.00  0.00     0.260 C 
ATOM     13  H   UNL     1       0.198   0.759  -3.409  1.00  0.00     0.346 HD
ATOM     14  H   UNL     1       0.149   0.720  -1.732  1.00  0.00     0.346 HD
BRANCH   7  15
ATOM     15  C   UNL     1      -0.321   4.865  -1.516  1.00  0.00     0.085 C 
BRANCH  15  16
ATOM     16  C   UNL     1      -0.505   5.793  -0.361  1.00  0.00     0.109 A 
ATOM     17  C   UNL     1       1.108   7.789  -0.920  1.00  0.00     0.073 C 
ATOM     18  C   UNL     1       0.108   7.045  -0.126  1.00  0.00     0.105 A 
ATOM     19  N   UNL     1      -0.361   7.565   1.010  1.00  0.00    -0.055 NA
ATOM     20  O   UNL     1      -1.284   6.636   1.477  1.00  0.00    -0.244 OA
ATOM     21  N   UNL     1      -1.384   5.555   0.613  1.00  0.00    -0.055 NA
ENDBRANCH  15  16
ENDBRANCH   7  15
ENDBRANCH   4   7
ENDBRANCH   2   3
ENDBRANCH   1   2
BRANCH   1  22
ATOM     22  C   UNL     1       3.865   4.274   1.696  1.00  0.00     0.023 C 
BRANCH  22  23
ATOM     23  C   UNL     1       4.991   3.265   1.507  1.00  0.00     0.116 C 
BRANCH  23  24
ATOM     24  N   UNL     1       6.065   3.776   0.667  1.00  0.00    -0.352 N 
ATOM     25  C   UNL     1       7.415   3.812   0.910  1.00  0.00     0.251 C 
ATOM     26  H   UNL     1       5.782   4.148  -0.199  1.00  0.00     0.163 HD
ATOM     27  O   UNL     1       8.161   4.430   0.155  1.00  0.00    -0.269 OA
BRANCH  25  28
ATOM     28  C   UNL     1       7.966   3.130   2.099  1.00  0.00     0.039 A 
ATOM     29  C   UNL     1       8.893   3.805   2.896  1.00  0.00     0.014 A 
ATOM     30  C   UNL     1       7.557   1.837   2.437  1.00  0.00     0.014 A 
ATOM     31  C   UNL     1       9.359   3.208   4.069  1.00  0.00     0.010 A 
ATOM     32  C   UNL     1       7.959   1.278   3.646  1.00  0.00     0.010 A 
ATOM     33  C   UNL     1       8.865   1.957   4.474  1.00  0.00    -0.014 A 
BRANCH  33  34
ATOM     34  C   UNL     1       9.278   1.349   5.765  1.00  0.00     0.031 A 
ATOM     35  C   UNL     1      10.030   0.048   5.785  1.00  0.00     0.074 A 
ATOM     36  C   UNL     1       8.924   1.941   6.923  1.00  0.00     0.049 A 
ATOM     37  N   UNL     1      10.434  -0.656   6.813  1.00  0.00    -0.248 NA
ATOM     38  C   UNL     1      10.353  -0.555   4.481  1.00  0.00     0.031 C 
ATOM     39  C   UNL     1       8.160   3.185   7.042  1.00  0.00     0.029 A 
ATOM     40  N   UNL     1       9.157   1.569   8.224  1.00  0.00    -0.354 N 
ATOM     41  C   UNL     1      11.042  -1.786   6.280  1.00  0.00     0.074 A 
ATOM     42  C   UNL     1      10.909  -1.701   4.843  1.00  0.00     0.031 C 
ATOM     43  C   UNL     1       8.015   3.489   8.342  1.00  0.00     0.029 A 
ATOM     44  C   UNL     1       8.633   2.441   9.148  1.00  0.00     0.049 A 
ATOM     45  H   UNL     1       9.653   0.755   8.471  1.00  0.00     0.167 HD
ATOM     46  C   UNL     1      11.674  -2.794   6.928  1.00  0.00     0.031 A 
ATOM     47  C   UNL     1       8.641   2.398  10.494  1.00  0.00     0.031 A 
ATOM     48  C   UNL     1      11.809  -2.879   8.358  1.00  0.00     0.049 A 
ATOM     49  C   UNL     1       9.321   1.250  11.188  1.00  0.00     0.074 A 
ATOM     50  C   UNL     1      12.478  -3.833   9.104  1.00  0.00     0.029 A 
ATOM     51  N   UNL     1      11.259  -1.980   9.257  1.00  0.00    -0.354 N 
ATOM     52  N   UNL     1       9.958   0.229  10.668  1.00  0.00    -0.248 NA
ATOM     53  C   UNL     1       9.290   1.256  12.657  1.00  0.00     0.031 C 
ATOM     54  C   UNL     1      12.280  -3.546  10.458  1.00  0.00     0.029 A 
ATOM     55  C   UNL     1      11.546  -2.375  10.554  1.00  0.00     0.049 A 
ATOM     56  H   UNL     1      10.741  -1.179   9.012  1.00  0.00     0.167 HD
ATOM     57  C   UNL     1      10.426  -0.513  11.745  1.00  0.00     0.074 A 
ATOM     58  C   UNL     1      10.018   0.187  12.945  1.00  0.00     0.031 C 
ATOM     59  C   UNL     1      11.130  -1.671  11.740  1.00  0.00     0.031 A 
BRANCH  46  60
ATOM     60  C   UNL     1      12.261  -3.897   6.089  1.00  0.00    -0.014 A 
ATOM     61  C   UNL     1      13.376  -3.671   5.265  1.00  0.00     0.009 A 
ATOM     62  C   UNL     1      11.716  -5.189   6.152  1.00  0.00     0.009 A 
ATOM     63  C   UNL     1      13.908  -4.707   4.494  1.00  0.00     0.001 A 
ATOM     64  C   UNL     1      12.269  -6.230   5.405  1.00  0.00     0.001 A 
ATOM     65  C   UNL     1      13.358  -5.986   4.569  1.00  0.00     0.000 A 
ENDBRANCH  46  60
BRANCH  47  66
ATOM     66  C   UNL     1       7.988   3.478  11.280  1.00  0.00    -0.014 A 
ATOM     67  C   UNL     1       8.757   4.366  12.048  1.00  0.00     0.009 A 
ATOM     68  C   UNL     1       6.591   3.617  11.282  1.00  0.00     0.009 A 
ATOM     69  C   UNL     1       8.140   5.349  12.825  1.00  0.00     0.001 A 
ATOM     70  C   UNL     1       5.978   4.622  12.034  1.00  0.00     0.001 A 
ATOM     71  C   UNL     1       6.752   5.479  12.814  1.00  0.00     0.000 A 
ENDBRANCH  47  66
BRANCH  59  72
ATOM     72  C   UNL     1      11.534  -2.237  13.073  1.00  0.00    -0.014 A 
ATOM     73  C   UNL     1      10.590  -2.803  13.944  1.00  0.00     0.009 A 
ATOM     74  C   UNL     1      12.888  -2.238  13.446  1.00  0.00     0.009 A 
ATOM     75  C   UNL     1      10.989  -3.325  15.176  1.00  0.00     0.001 A 
ATOM     76  C   UNL     1      13.288  -2.790  14.663  1.00  0.00     0.001 A 
ATOM     77  C   UNL     1      12.337  -3.324  15.531  1.00  0.00     0.000 A 
ENDBRANCH  59  72
ENDBRANCH  33  34
ENDBRANCH  25  28
ENDBRANCH  23  24
ENDBRANCH  22  23
ENDBRANCH   1  22
TORSDOF 13
