REMARK SMILES O=C(NCCCCNC(=O)[C@@H]1CC[C@@H](CN2C(=O)CC3(CCCC3)CC2=O)O1)c1ccc(-c2c3nc(c(-c4ccccc4)c4ccc([nH]4)c(-c4ccccc4)c4nc(c(-c5ccccc5)c5ccc2[nH]5)C=C4)C=C3)cc1
REMARK SMILES IDX 5 1 4 2 3 3 1 4 2 5 29 7 30 8 76 9 31 10 75 11 32 12 33 13
REMARK SMILES IDX 34 14 69 15 35 16 74 17 68 18 70 19 36 20 73 21 67 22 66 23
REMARK SMILES IDX 37 25 59 26 44 27 58 28 45 29 48 30 57 31 71 32 46 33 47 34
REMARK SMILES IDX 56 36 72 37 49 38 38 39 39 40 43 41 40 42 42 43 41 44 60 45
REMARK SMILES IDX 61 46 65 47 62 48 64 49 63 50 50 51 51 52 55 53 52 54 54 55
REMARK SMILES IDX 53 56 6 57 7 58 8 59 9 60 10 62 11 63 12 64 28 65 13 66
REMARK SMILES IDX 14 67 15 68 16 69 17 70 26 71 18 72 19 73 25 74 27 75 20 76
REMARK SMILES IDX 21 77 24 78 22 79 23 80
REMARK H PARENT 3 6 70 24 48 35 8 61
REMARK Flexibility Score: inf
ROOT
ATOM      1  C   UNL     1       4.811   0.435  -2.885  1.00  0.00     0.023 C 
ENDROOT
BRANCH   1   2
ATOM      2  C   UNL     1       4.539   0.453  -1.387  1.00  0.00     0.116 C 
BRANCH   2   3
ATOM      3  N   UNL     1       3.124   0.522  -1.055  1.00  0.00    -0.352 N 
ATOM      4  O   UNL     1       1.222  -0.065   0.020  1.00  0.00    -0.269 OA
ATOM      5  C   UNL     1       2.446  -0.141  -0.056  1.00  0.00     0.251 C 
ATOM      6  H   UNL     1       2.580   1.120  -1.618  1.00  0.00     0.163 HD
BRANCH   5   7
ATOM      7  C   UNL     1       3.196  -0.977   0.908  1.00  0.00     0.039 A 
ATOM      8  C   UNL     1       4.378  -0.508   1.482  1.00  0.00     0.014 A 
ATOM      9  C   UNL     1       2.721  -2.253   1.229  1.00  0.00     0.014 A 
ATOM     10  C   UNL     1       5.160  -1.364   2.247  1.00  0.00     0.010 A 
ATOM     11  C   UNL     1       3.467  -3.084   2.074  1.00  0.00     0.010 A 
ATOM     12  C   UNL     1       4.712  -2.659   2.562  1.00  0.00    -0.014 A 
BRANCH  12  13
ATOM     13  C   UNL     1       5.550  -3.504   3.451  1.00  0.00     0.031 A 
ATOM     14  C   UNL     1       6.200  -4.767   2.958  1.00  0.00     0.074 A 
ATOM     15  C   UNL     1       5.787  -3.070   4.705  1.00  0.00     0.049 A 
ATOM     16  N   UNL     1       7.048  -5.549   3.580  1.00  0.00    -0.248 NA
ATOM     17  C   UNL     1       5.857  -5.217   1.600  1.00  0.00     0.031 C 
ATOM     18  C   UNL     1       5.199  -1.869   5.305  1.00  0.00     0.029 A 
ATOM     19  N   UNL     1       6.614  -3.559   5.683  1.00  0.00    -0.354 N 
ATOM     20  C   UNL     1       7.331  -6.585   2.699  1.00  0.00     0.074 A 
ATOM     21  C   UNL     1       6.544  -6.348   1.507  1.00  0.00     0.031 C 
ATOM     22  C   UNL     1       5.738  -1.675   6.517  1.00  0.00     0.029 A 
ATOM     23  C   UNL     1       6.662  -2.765   6.803  1.00  0.00     0.049 A 
ATOM     24  H   UNL     1       7.123  -4.397   5.591  1.00  0.00     0.167 HD
ATOM     25  C   UNL     1       8.174  -7.633   2.865  1.00  0.00     0.031 A 
ATOM     26  C   UNL     1       7.372  -2.895   7.938  1.00  0.00     0.031 A 
ATOM     27  C   UNL     1       8.955  -7.872   4.051  1.00  0.00     0.049 A 
ATOM     28  C   UNL     1       8.299  -4.062   8.091  1.00  0.00     0.074 A 
ATOM     29  C   UNL     1       9.841  -8.906   4.309  1.00  0.00     0.029 A 
ATOM     30  N   UNL     1       8.948  -7.065   5.178  1.00  0.00    -0.354 N 
ATOM     31  N   UNL     1       8.566  -5.020   7.237  1.00  0.00    -0.248 NA
ATOM     32  C   UNL     1       9.023  -4.165   9.365  1.00  0.00     0.031 C 
ATOM     33  C   UNL     1      10.340  -8.745   5.606  1.00  0.00     0.029 A 
ATOM     34  C   UNL     1       9.802  -7.585   6.138  1.00  0.00     0.049 A 
ATOM     35  H   UNL     1       8.415  -6.244   5.281  1.00  0.00     0.167 HD
ATOM     36  C   UNL     1       9.488  -5.841   7.870  1.00  0.00     0.074 A 
ATOM     37  C   UNL     1       9.762  -5.246   9.163  1.00  0.00     0.031 C 
ATOM     38  C   UNL     1      10.048  -6.991   7.425  1.00  0.00     0.031 A 
BRANCH  25  39
ATOM     39  C   UNL     1       8.289  -8.620   1.736  1.00  0.00    -0.014 A 
ATOM     40  C   UNL     1       8.995  -8.303   0.565  1.00  0.00     0.009 A 
ATOM     41  C   UNL     1       7.739  -9.905   1.870  1.00  0.00     0.009 A 
ATOM     42  C   UNL     1       9.128  -9.245  -0.458  1.00  0.00     0.001 A 
ATOM     43  C   UNL     1       7.894 -10.852   0.856  1.00  0.00     0.001 A 
ATOM     44  C   UNL     1       8.582 -10.520  -0.309  1.00  0.00     0.000 A 
ENDBRANCH  25  39
BRANCH  26  45
ATOM     45  C   UNL     1       7.217  -1.891   9.022  1.00  0.00    -0.014 A 
ATOM     46  C   UNL     1       8.255  -1.000   9.330  1.00  0.00     0.009 A 
ATOM     47  C   UNL     1       6.017  -1.815   9.746  1.00  0.00     0.009 A 
ATOM     48  C   UNL     1       8.100  -0.066  10.357  1.00  0.00     0.001 A 
ATOM     49  C   UNL     1       5.854  -0.861  10.751  1.00  0.00     0.001 A 
ATOM     50  C   UNL     1       6.899   0.007  11.061  1.00  0.00     0.000 A 
ENDBRANCH  26  45
BRANCH  38  51
ATOM     51  C   UNL     1      11.013  -7.671   8.353  1.00  0.00    -0.014 A 
ATOM     52  C   UNL     1      10.561  -8.345   9.498  1.00  0.00     0.009 A 
ATOM     53  C   UNL     1      12.389  -7.638   8.079  1.00  0.00     0.009 A 
ATOM     54  C   UNL     1      11.472  -8.936  10.375  1.00  0.00     0.001 A 
ATOM     55  C   UNL     1      13.295  -8.252   8.944  1.00  0.00     0.001 A 
ATOM     56  C   UNL     1      12.838  -8.890  10.096  1.00  0.00     0.000 A 
ENDBRANCH  38  51
ENDBRANCH  12  13
ENDBRANCH   5   7
ENDBRANCH   2   3
ENDBRANCH   1   2
BRANCH   1  57
ATOM     57  C   UNL     1       4.458   1.725  -3.631  1.00  0.00     0.023 C 
BRANCH  57  58
ATOM     58  C   UNL     1       5.175   2.978  -3.120  1.00  0.00     0.116 C 
BRANCH  58  59
ATOM     59  N   UNL     1       6.618   2.854  -3.231  1.00  0.00    -0.354 N 
ATOM     60  C   UNL     1       7.451   3.386  -4.182  1.00  0.00     0.249 C 
ATOM     61  H   UNL     1       7.056   2.317  -2.532  1.00  0.00     0.163 HD
ATOM     62  O   UNL     1       8.647   3.096  -4.148  1.00  0.00    -0.272 OA
BRANCH  60  63
ATOM     63  C   UNL     1       6.842   4.304  -5.247  1.00  0.00     0.207 C 
ATOM     64  C   UNL     1       7.752   4.631  -6.417  1.00  0.00     0.045 C 
ATOM     65  O   UNL     1       6.489   5.566  -4.658  1.00  0.00    -0.363 OA
ATOM     66  C   UNL     1       7.196   5.960  -6.879  1.00  0.00     0.037 C 
ATOM     67  C   UNL     1       6.848   6.634  -5.556  1.00  0.00     0.139 C 
BRANCH  67  68
ATOM     68  C   UNL     1       5.714   7.684  -5.608  1.00  0.00     0.160 C 
BRANCH  68  69
ATOM     69  N   UNL     1       4.480   7.085  -6.123  1.00  0.00    -0.280 N 
ATOM     70  C   UNL     1       4.059   7.416  -7.398  1.00  0.00     0.229 C 
ATOM     71  C   UNL     1       3.737   6.300  -5.255  1.00  0.00     0.229 C 
ATOM     72  O   UNL     1       4.543   8.345  -8.046  1.00  0.00    -0.274 OA
ATOM     73  C   UNL     1       3.037   6.506  -8.046  1.00  0.00     0.108 C 
ATOM     74  C   UNL     1       2.989   5.182  -5.927  1.00  0.00     0.108 C 
ATOM     75  O   UNL     1       3.716   6.431  -4.034  1.00  0.00    -0.274 OA
ATOM     76  C   UNL     1       2.159   5.676  -7.103  1.00  0.00    -0.012 C 
ATOM     77  C   UNL     1       1.575   4.465  -7.880  1.00  0.00     0.008 C 
ATOM     78  C   UNL     1       0.923   6.468  -6.617  1.00  0.00     0.008 C 
ATOM     79  C   UNL     1       0.072   4.506  -7.660  1.00  0.00     0.001 C 
ATOM     80  C   UNL     1      -0.222   5.985  -7.497  1.00  0.00     0.001 C 
ENDBRANCH  68  69
ENDBRANCH  67  68
ENDBRANCH  60  63
ENDBRANCH  58  59
ENDBRANCH  57  58
ENDBRANCH   1  57
TORSDOF 13
