REMARK SMILES C[C@@H]1[NH2+]CC[C@H]1C(=O)NCc1cccc(C(=O)NCCCCNC(=O)c2ccc(-c3c4nc(c(-c5ccccc5)c5ccc([nH]5)c(-c5ccccc5)c5nc(c(-c6ccccc6)c6ccc3[nH]6)C=C5)C=C4)cc2)c1
REMARK SMILES IDX 20 1 19 2 18 3 16 4 17 5 15 7 11 8 12 9 74 10 13 11 14 12
REMARK SMILES IDX 10 13 9 14 7 15 8 16 6 18 1 19 2 20 3 21 4 22 5 25 21 26
REMARK SMILES IDX 22 27 23 28 24 29 25 31 26 32 27 33 73 34 28 35 72 36 29 37
REMARK SMILES IDX 30 38 31 39 66 40 32 41 71 42 65 43 67 44 33 45 70 46 64 47
REMARK SMILES IDX 63 48 34 50 56 51 41 52 55 53 42 54 45 55 54 56 68 57 43 58
REMARK SMILES IDX 44 59 53 61 69 62 46 63 35 64 36 65 40 66 37 67 39 68 38 69
REMARK SMILES IDX 57 70 58 71 62 72 59 73 61 74 60 75 47 76 48 77 52 78 49 79
REMARK SMILES IDX 51 80 50 81
REMARK H PARENT 18 6 9 17 3 23 3 24 23 30 67 49 45 60
REMARK Flexibility Score: inf
ROOT
ATOM      1  C   UNL     1      -0.036   4.132   6.394  1.00  0.00     0.023 C 
ENDROOT
BRANCH   1   2
ATOM      2  C   UNL     1       0.901   3.170   5.680  1.00  0.00     0.116 C 
BRANCH   2   3
ATOM      3  N   UNL     1       1.812   2.421   6.533  1.00  0.00    -0.352 N 
ATOM      4  C   UNL     1       2.145   1.078   6.555  1.00  0.00     0.251 C 
ATOM      5  O   UNL     1       2.981   0.692   7.370  1.00  0.00    -0.269 OA
ATOM      6  H   UNL     1       2.271   2.964   7.213  1.00  0.00     0.163 HD
BRANCH   4   7
ATOM      7  C   UNL     1       1.452   0.077   5.694  1.00  0.00     0.040 A 
ATOM      8  C   UNL     1      -0.088  -0.356   3.874  1.00  0.00    -0.028 A 
ATOM      9  C   UNL     1      -0.330  -1.633   4.394  1.00  0.00     0.005 A 
ATOM     10  C   UNL     1       0.936   0.408   4.444  1.00  0.00     0.019 A 
ATOM     11  C   UNL     1       0.361  -2.077   5.522  1.00  0.00     0.001 A 
ATOM     12  C   UNL     1       1.211  -1.203   6.203  1.00  0.00     0.014 A 
BRANCH   8  13
ATOM     13  C   UNL     1      -1.043   0.234   2.861  1.00  0.00     0.151 C 
BRANCH  13  14
ATOM     14  N   UNL     1      -0.680   1.570   2.427  1.00  0.00    -0.352 N 
ATOM     15  C   UNL     1      -0.172   2.026   1.254  1.00  0.00     0.229 C 
ATOM     16  O   UNL     1       0.186   3.206   1.219  1.00  0.00    -0.275 OA
ATOM     17  H   UNL     1      -0.829   2.270   3.103  1.00  0.00     0.163 HD
BRANCH  15  18
ATOM     18  C   UNL     1      -0.068   1.144   0.023  1.00  0.00     0.142 C 
ATOM     19  C   UNL     1       2.083   0.010  -0.689  1.00  0.00     0.076 C 
ATOM     20  C   UNL     1       0.852  -0.061   0.211  1.00  0.00     0.192 C 
ATOM     21  N   UNL     1       0.080  -1.265  -0.132  1.00  0.00    -0.343 N 
ATOM     22  C   UNL     1      -1.154  -0.845  -0.795  1.00  0.00     0.261 C 
ATOM     23  H   UNL     1      -0.144  -1.785   0.717  1.00  0.00     0.346 HD
ATOM     24  H   UNL     1       0.623  -1.867  -0.750  1.00  0.00     0.346 HD
ATOM     25  C   UNL     1      -1.417   0.598  -0.419  1.00  0.00     0.081 C 
ENDBRANCH  15  18
ENDBRANCH  13  14
ENDBRANCH   8  13
ENDBRANCH   4   7
ENDBRANCH   2   3
ENDBRANCH   1   2
BRANCH   1  26
ATOM     26  C   UNL     1       0.612   5.309   7.100  1.00  0.00     0.023 C 
BRANCH  26  27
ATOM     27  C   UNL     1       1.603   6.112   6.271  1.00  0.00     0.116 C 
BRANCH  27  28
ATOM     28  N   UNL     1       1.046   6.662   5.044  1.00  0.00    -0.352 N 
ATOM     29  C   UNL     1       1.125   7.946   4.547  1.00  0.00     0.251 C 
ATOM     30  H   UNL     1       0.541   6.025   4.488  1.00  0.00     0.163 HD
ATOM     31  O   UNL     1       0.512   8.258   3.539  1.00  0.00    -0.269 OA
BRANCH  29  32
ATOM     32  C   UNL     1       1.929   8.961   5.266  1.00  0.00     0.039 A 
ATOM     33  C   UNL     1       1.394  10.239   5.447  1.00  0.00     0.014 A 
ATOM     34  C   UNL     1       3.193   8.653   5.771  1.00  0.00     0.014 A 
ATOM     35  C   UNL     1       2.103  11.186   6.191  1.00  0.00     0.010 A 
ATOM     36  C   UNL     1       3.849   9.559   6.595  1.00  0.00     0.010 A 
ATOM     37  C   UNL     1       3.322  10.843   6.798  1.00  0.00    -0.014 A 
BRANCH  37  38
ATOM     38  C   UNL     1       4.087  11.827   7.604  1.00  0.00     0.031 A 
ATOM     39  C   UNL     1       5.460  12.252   7.155  1.00  0.00     0.074 A 
ATOM     40  C   UNL     1       3.577  12.298   8.758  1.00  0.00     0.049 A 
ATOM     41  N   UNL     1       6.305  13.065   7.737  1.00  0.00    -0.248 NA
ATOM     42  C   UNL     1       5.963  11.662   5.903  1.00  0.00     0.031 C 
ATOM     43  C   UNL     1       2.279  11.931   9.329  1.00  0.00     0.029 A 
ATOM     44  N   UNL     1       4.095  13.192   9.662  1.00  0.00    -0.354 N 
ATOM     45  C   UNL     1       7.440  13.063   6.936  1.00  0.00     0.074 A 
ATOM     46  C   UNL     1       7.203  12.123   5.864  1.00  0.00     0.031 C 
ATOM     47  C   UNL     1       2.088  12.621  10.465  1.00  0.00     0.029 A 
ATOM     48  C   UNL     1       3.261  13.449  10.723  1.00  0.00     0.049 A 
ATOM     49  H   UNL     1       4.981  13.609   9.560  1.00  0.00     0.167 HD
ATOM     50  C   UNL     1       8.571  13.799   7.061  1.00  0.00     0.031 A 
ATOM     51  C   UNL     1       3.424  14.265  11.782  1.00  0.00     0.031 A 
ATOM     52  C   UNL     1       8.800  14.750   8.113  1.00  0.00     0.049 A 
ATOM     53  C   UNL     1       4.684  15.078  11.895  1.00  0.00     0.074 A 
ATOM     54  C   UNL     1       9.888  15.584   8.301  1.00  0.00     0.029 A 
ATOM     55  N   UNL     1       7.920  14.996   9.155  1.00  0.00    -0.354 N 
ATOM     56  N   UNL     1       5.721  15.114  11.092  1.00  0.00    -0.248 NA
ATOM     57  C   UNL     1       4.787  15.979  13.052  1.00  0.00     0.031 C 
ATOM     58  C   UNL     1       9.686  16.302   9.484  1.00  0.00     0.029 A 
ATOM     59  C   UNL     1       8.446  15.960   9.998  1.00  0.00     0.049 A 
ATOM     60  H   UNL     1       7.050  14.552   9.278  1.00  0.00     0.167 HD
ATOM     61  C   UNL     1       6.578  16.069  11.624  1.00  0.00     0.074 A 
ATOM     62  C   UNL     1       5.935  16.595  12.811  1.00  0.00     0.031 C 
ATOM     63  C   UNL     1       7.787  16.479  11.168  1.00  0.00     0.031 A 
BRANCH  50  64
ATOM     64  C   UNL     1       9.643  13.595   6.026  1.00  0.00    -0.014 A 
ATOM     65  C   UNL     1       9.458  14.004   4.694  1.00  0.00     0.009 A 
ATOM     66  C   UNL     1      10.862  13.004   6.389  1.00  0.00     0.009 A 
ATOM     67  C   UNL     1      10.454  13.784   3.740  1.00  0.00     0.001 A 
ATOM     68  C   UNL     1      11.869  12.815   5.440  1.00  0.00     0.001 A 
ATOM     69  C   UNL     1      11.660  13.194   4.115  1.00  0.00     0.000 A 
ENDBRANCH  50  64
BRANCH  51  70
ATOM     70  C   UNL     1       2.351  14.386  12.805  1.00  0.00    -0.014 A 
ATOM     71  C   UNL     1       1.601  15.569  12.913  1.00  0.00     0.009 A 
ATOM     72  C   UNL     1       2.080  13.330  13.687  1.00  0.00     0.009 A 
ATOM     73  C   UNL     1       0.627  15.702  13.905  1.00  0.00     0.001 A 
ATOM     74  C   UNL     1       1.083  13.455  14.658  1.00  0.00     0.001 A 
ATOM     75  C   UNL     1       0.366  14.645  14.774  1.00  0.00     0.000 A 
ENDBRANCH  51  70
BRANCH  63  76
ATOM     76  C   UNL     1       8.466  17.589  11.921  1.00  0.00    -0.014 A 
ATOM     77  C   UNL     1       9.015  17.387  13.196  1.00  0.00     0.009 A 
ATOM     78  C   UNL     1       8.587  18.853  11.320  1.00  0.00     0.009 A 
ATOM     79  C   UNL     1       9.635  18.440  13.871  1.00  0.00     0.001 A 
ATOM     80  C   UNL     1       9.236  19.894  11.984  1.00  0.00     0.001 A 
ATOM     81  C   UNL     1       9.749  19.690  13.264  1.00  0.00     0.000 A 
ENDBRANCH  63  76
ENDBRANCH  37  38
ENDBRANCH  29  32
ENDBRANCH  27  28
ENDBRANCH  26  27
ENDBRANCH   1  26
TORSDOF 14
