REMARK SMILES C[N@H+]1CCO[C@@H](C[N@H+]2CCCC[C@@H]2CCC(=O)NCCCCNC(=O)c2ccc(-c3c4nc(c(-c5ccccc5)c5ccc([nH]5)c(-c5ccccc5)c5nc(c(-c6ccccc6)c6ccc3[nH]6)C=C5)C=C4)cc2)C1
REMARK SMILES IDX 19 1 18 2 16 3 17 4 15 6 14 7 13 8 8 9 9 10 10 12 12 13
REMARK SMILES IDX 11 14 7 15 6 16 1 17 2 18 3 19 74 20 4 22 5 23 20 24 21 25
REMARK SMILES IDX 22 26 23 27 24 28 25 30 26 31 27 32 73 33 28 34 72 35 29 36
REMARK SMILES IDX 30 37 31 38 66 39 32 40 71 41 65 42 67 43 33 44 70 45 64 46
REMARK SMILES IDX 63 47 34 49 56 50 41 51 55 52 42 53 45 54 54 55 68 56 43 57
REMARK SMILES IDX 44 58 53 60 69 61 46 62 35 63 36 64 40 65 37 66 39 67 38 68
REMARK SMILES IDX 57 69 58 70 62 71 59 72 61 73 60 74 47 75 48 76 52 77 49 78
REMARK SMILES IDX 51 79 50 80
REMARK H PARENT 18 5 8 11 2 21 23 29 67 48 45 59
REMARK Flexibility Score: inf
ROOT
ATOM      1  C   UNL     1       4.295  -3.696   2.852  1.00  0.00     0.116 C 
ENDROOT
BRANCH   1   2
ATOM      2  N   UNL     1       3.300  -3.632   3.903  1.00  0.00    -0.356 N 
ATOM      3  C   UNL     1       2.056  -4.205   3.897  1.00  0.00     0.220 C 
ATOM      4  O   UNL     1       1.245  -3.862   4.757  1.00  0.00    -0.275 OA
ATOM      5  H   UNL     1       3.544  -3.122   4.709  1.00  0.00     0.163 HD
BRANCH   3   6
ATOM      6  C   UNL     1       1.738  -5.298   2.887  1.00  0.00     0.106 C 
BRANCH   6   7
ATOM      7  C   UNL     1       0.506  -5.036   2.007  1.00  0.00     0.075 C 
BRANCH   7   8
ATOM      8  C   UNL     1       0.810  -4.474   0.574  1.00  0.00     0.184 C 
ATOM      9  N   UNL     1       0.564  -3.021   0.463  1.00  0.00    -0.330 N 
ATOM     10  C   UNL     1      -0.846  -2.657   0.552  1.00  0.00     0.262 C 
ATOM     11  H   UNL     1       0.959  -2.623   1.316  1.00  0.00     0.348 HD
ATOM     12  C   UNL     1      -1.748  -3.415  -0.424  1.00  0.00     0.062 C 
ATOM     13  C   UNL     1      -0.001  -5.227  -0.495  1.00  0.00     0.065 C 
ATOM     14  C   UNL     1      -1.492  -4.918  -0.403  1.00  0.00     0.012 C 
BRANCH   9  15
ATOM     15  C   UNL     1       1.367  -2.320  -0.565  1.00  0.00     0.300 C 
BRANCH  15  16
ATOM     16  C   UNL     1       0.877  -1.931  -1.986  1.00  0.00     0.228 C 
ATOM     17  C   UNL     1       0.734   1.059  -0.633  1.00  0.00     0.332 C 
ATOM     18  N   UNL     1       0.487   0.629  -2.003  1.00  0.00    -0.333 N 
ATOM     19  C   UNL     1       1.691   0.718  -2.846  1.00  0.00     0.290 C 
ATOM     20  C   UNL     1      -0.087  -0.725  -2.121  1.00  0.00     0.300 C 
ATOM     21  H   UNL     1      -0.214   1.288  -2.341  1.00  0.00     0.348 HD
ATOM     22  C   UNL     1       2.663  -0.457  -2.657  1.00  0.00     0.222 C 
ATOM     23  O   UNL     1       2.022  -1.725  -2.857  1.00  0.00    -0.361 OA
ENDBRANCH  15  16
ENDBRANCH   9  15
ENDBRANCH   7   8
ENDBRANCH   6   7
ENDBRANCH   3   6
ENDBRANCH   1   2
BRANCH   1  24
ATOM     24  C   UNL     1       3.801  -2.911   1.646  1.00  0.00     0.023 C 
BRANCH  24  25
ATOM     25  C   UNL     1       4.276  -1.468   1.588  1.00  0.00     0.023 C 
BRANCH  25  26
ATOM     26  C   UNL     1       5.606  -1.325   0.879  1.00  0.00     0.116 C 
BRANCH  26  27
ATOM     27  N   UNL     1       5.561  -1.665  -0.540  1.00  0.00    -0.352 N 
ATOM     28  C   UNL     1       6.274  -1.119  -1.584  1.00  0.00     0.251 C 
ATOM     29  H   UNL     1       4.934  -2.384  -0.785  1.00  0.00     0.163 HD
ATOM     30  O   UNL     1       6.074  -1.488  -2.736  1.00  0.00    -0.269 OA
BRANCH  28  31
ATOM     31  C   UNL     1       7.228  -0.023  -1.314  1.00  0.00     0.039 A 
ATOM     32  C   UNL     1       7.245   1.087  -2.163  1.00  0.00     0.014 A 
ATOM     33  C   UNL     1       8.036  -0.049  -0.179  1.00  0.00     0.014 A 
ATOM     34  C   UNL     1       8.002   2.207  -1.815  1.00  0.00     0.010 A 
ATOM     35  C   UNL     1       8.668   1.111   0.236  1.00  0.00     0.010 A 
ATOM     36  C   UNL     1       8.676   2.247  -0.585  1.00  0.00    -0.014 A 
BRANCH  36  37
ATOM     37  C   UNL     1       9.428   3.442  -0.131  1.00  0.00     0.031 A 
ATOM     38  C   UNL     1      10.887   3.311   0.217  1.00  0.00     0.074 A 
ATOM     39  C   UNL     1       8.786   4.608   0.077  1.00  0.00     0.049 A 
ATOM     40  N   UNL     1      11.687   4.182   0.776  1.00  0.00    -0.248 NA
ATOM     41  C   UNL     1      11.514   2.002  -0.042  1.00  0.00     0.031 C 
ATOM     42  C   UNL     1       7.358   4.849  -0.141  1.00  0.00     0.029 A 
ATOM     43  N   UNL     1       9.258   5.811   0.536  1.00  0.00    -0.354 N 
ATOM     44  C   UNL     1      12.884   3.508   0.984  1.00  0.00     0.074 A 
ATOM     45  C   UNL     1      12.685   2.143   0.557  1.00  0.00     0.031 C 
ATOM     46  C   UNL     1       7.078   6.130   0.150  1.00  0.00     0.029 A 
ATOM     47  C   UNL     1       8.296   6.788   0.611  1.00  0.00     0.049 A 
ATOM     48  H   UNL     1      10.198   5.960   0.789  1.00  0.00     0.167 HD
ATOM     49  C   UNL     1      14.059   3.987   1.457  1.00  0.00     0.031 A 
ATOM     50  C   UNL     1       8.386   8.071   1.004  1.00  0.00     0.031 A 
ATOM     51  C   UNL     1      14.274   5.359   1.821  1.00  0.00     0.049 A 
ATOM     52  C   UNL     1       9.719   8.609   1.442  1.00  0.00     0.074 A 
ATOM     53  C   UNL     1      15.445   5.973   2.229  1.00  0.00     0.029 A 
ATOM     54  N   UNL     1      13.292   6.338   1.801  1.00  0.00    -0.354 N 
ATOM     55  N   UNL     1      10.861   7.978   1.571  1.00  0.00    -0.248 NA
ATOM     56  C   UNL     1       9.778  10.040   1.768  1.00  0.00     0.031 C 
ATOM     57  C   UNL     1      15.164   7.321   2.480  1.00  0.00     0.029 A 
ATOM     58  C   UNL     1      13.828   7.552   2.189  1.00  0.00     0.049 A 
ATOM     59  H   UNL     1      12.352   6.190   1.548  1.00  0.00     0.167 HD
ATOM     60  C   UNL     1      11.780   8.937   1.973  1.00  0.00     0.074 A 
ATOM     61  C   UNL     1      11.065  10.196   2.049  1.00  0.00     0.031 C 
ATOM     62  C   UNL     1      13.097   8.791   2.256  1.00  0.00     0.031 A 
BRANCH  49  63
ATOM     63  C   UNL     1      15.193   3.008   1.587  1.00  0.00    -0.014 A 
ATOM     64  C   UNL     1      15.796   2.438   0.453  1.00  0.00     0.009 A 
ATOM     65  C   UNL     1      15.650   2.631   2.858  1.00  0.00     0.009 A 
ATOM     66  C   UNL     1      16.790   1.467   0.591  1.00  0.00     0.001 A 
ATOM     67  C   UNL     1      16.669   1.686   2.993  1.00  0.00     0.001 A 
ATOM     68  C   UNL     1      17.226   1.093   1.861  1.00  0.00     0.000 A 
ENDBRANCH  49  63
BRANCH  50  69
ATOM     69  C   UNL     1       7.186   8.944   0.956  1.00  0.00    -0.014 A 
ATOM     70  C   UNL     1       7.052   9.908  -0.056  1.00  0.00     0.009 A 
ATOM     71  C   UNL     1       6.157   8.802   1.900  1.00  0.00     0.009 A 
ATOM     72  C   UNL     1       5.922  10.727  -0.108  1.00  0.00     0.001 A 
ATOM     73  C   UNL     1       5.018   9.606   1.830  1.00  0.00     0.001 A 
ATOM     74  C   UNL     1       4.904  10.572   0.831  1.00  0.00     0.000 A 
ENDBRANCH  50  69
BRANCH  62  75
ATOM     75  C   UNL     1      13.855  10.027   2.642  1.00  0.00    -0.014 A 
ATOM     76  C   UNL     1      13.694  10.611   3.908  1.00  0.00     0.009 A 
ATOM     77  C   UNL     1      14.774  10.587   1.741  1.00  0.00     0.009 A 
ATOM     78  C   UNL     1      14.420  11.753   4.252  1.00  0.00     0.001 A 
ATOM     79  C   UNL     1      15.515  11.713   2.098  1.00  0.00     0.001 A 
ATOM     80  C   UNL     1      15.332  12.300   3.349  1.00  0.00     0.000 A 
ENDBRANCH  62  75
ENDBRANCH  36  37
ENDBRANCH  28  31
ENDBRANCH  26  27
ENDBRANCH  25  26
ENDBRANCH  24  25
ENDBRANCH   1  24
TORSDOF 15
