REMARK SMILES CCNc1nc(C)c(C(=O)N2CC[NH2+][C@H](C(=O)NCCCCNC(=O)c3ccc(-c4c5nc(c(-c6ccccc6)c6ccc([nH]6)c(-c6ccccc6)c6nc(c(-c7ccccc7)c7ccc4[nH]7)C=C6)C=C5)cc3)C2)s1
REMARK SMILES IDX 19 1 18 2 16 3 17 4 15 6 11 7 12 8 74 9 13 10 14 11 9 14
REMARK SMILES IDX 10 15 8 16 4 17 5 18 75 19 6 20 7 21 3 22 2 24 1 25 20 26
REMARK SMILES IDX 21 27 22 28 23 29 24 30 25 32 26 33 27 34 73 35 28 36 72 37
REMARK SMILES IDX 29 38 30 39 31 40 66 41 32 42 71 43 65 44 67 45 33 46 70 47
REMARK SMILES IDX 64 48 63 49 34 51 56 52 41 53 55 54 42 55 45 56 54 57 68 58
REMARK SMILES IDX 43 59 44 60 53 62 69 63 46 64 35 65 36 66 40 67 37 68 39 69
REMARK SMILES IDX 38 70 57 71 58 72 62 73 59 74 61 75 60 76 47 77 48 78 52 79
REMARK SMILES IDX 49 80 51 81 50 82
REMARK H PARENT 18 5 14 12 14 13 3 23 23 31 67 50 45 61
REMARK Flexibility Score: inf
ROOT
ATOM      1  C   UNL     1      -5.725   8.564   2.321  1.00  0.00     0.116 C 
ENDROOT
BRANCH   1   2
ATOM      2  N   UNL     1      -4.436   8.868   1.731  1.00  0.00    -0.351 N 
ATOM      3  C   UNL     1      -3.169   8.658   2.185  1.00  0.00     0.280 C 
ATOM      4  O   UNL     1      -2.242   9.069   1.481  1.00  0.00    -0.268 OA
ATOM      5  H   UNL     1      -4.485   9.304   0.850  1.00  0.00     0.163 HD
BRANCH   3   6
ATOM      6  C   UNL     1      -2.888   7.859   3.462  1.00  0.00     0.292 C 
ATOM      7  N   UNL     1      -3.106   5.587   4.454  1.00  0.00    -0.326 N 
ATOM      8  C   UNL     1      -3.778   6.169   5.616  1.00  0.00     0.181 C 
ATOM      9  C   UNL     1      -3.239   6.373   3.228  1.00  0.00     0.195 C 
ATOM     10  C   UNL     1      -3.312   7.619   5.844  1.00  0.00     0.283 C 
ATOM     11  N   UNL     1      -3.491   8.493   4.670  1.00  0.00    -0.333 N 
ATOM     12  H   UNL     1      -3.034   9.389   4.843  1.00  0.00     0.347 HD
ATOM     13  H   UNL     1      -4.488   8.637   4.509  1.00  0.00     0.347 HD
BRANCH   7  14
ATOM     14  C   UNL     1      -2.721   4.248   4.504  1.00  0.00     0.266 C 
ATOM     15  O   UNL     1      -3.257   3.509   5.335  1.00  0.00    -0.268 OA
BRANCH  14  16
ATOM     16  C   UNL     1      -1.651   3.776   3.636  1.00  0.00     0.117 A 
ATOM     17  C   UNL     1      -0.062   2.287   2.518  1.00  0.00     0.183 A 
ATOM     18  N   UNL     1       0.372   3.521   2.497  1.00  0.00    -0.225 NA
ATOM     19  S   UNL     1      -1.610   2.097   3.227  1.00  0.00    -0.092 S 
ATOM     20  C   UNL     1      -0.509   4.381   3.128  1.00  0.00     0.063 A 
ATOM     21  C   UNL     1      -0.053   5.791   3.225  1.00  0.00     0.068 C 
BRANCH  17  22
ATOM     22  N   UNL     1       0.720   1.301   2.042  1.00  0.00    -0.362 N 
ATOM     23  H   UNL     1       1.692   1.459   2.042  1.00  0.00     0.162 HD
BRANCH  22  24
ATOM     24  C   UNL     1       0.260   0.034   1.532  1.00  0.00     0.112 C 
ATOM     25  C   UNL     1       0.798  -0.135   0.117  1.00  0.00     0.027 C 
ENDBRANCH  22  24
ENDBRANCH  17  22
ENDBRANCH  14  16
ENDBRANCH   7  14
ENDBRANCH   3   6
ENDBRANCH   1   2
BRANCH   1  26
ATOM     26  C   UNL     1      -6.425   9.833   2.799  1.00  0.00     0.023 C 
BRANCH  26  27
ATOM     27  C   UNL     1      -6.829  10.785   1.671  1.00  0.00     0.023 C 
BRANCH  27  28
ATOM     28  C   UNL     1      -7.672  10.154   0.569  1.00  0.00     0.116 C 
BRANCH  28  29
ATOM     29  N   UNL     1      -8.899   9.554   1.070  1.00  0.00    -0.352 N 
ATOM     30  C   UNL     1     -10.168   9.637   0.553  1.00  0.00     0.251 C 
ATOM     31  H   UNL     1      -8.807   9.015   1.889  1.00  0.00     0.163 HD
ATOM     32  O   UNL     1     -11.124   9.184   1.175  1.00  0.00    -0.269 OA
BRANCH  30  33
ATOM     33  C   UNL     1     -10.377  10.309  -0.745  1.00  0.00     0.039 A 
ATOM     34  C   UNL     1     -11.382  11.273  -0.852  1.00  0.00     0.014 A 
ATOM     35  C   UNL     1      -9.556  10.016  -1.837  1.00  0.00     0.014 A 
ATOM     36  C   UNL     1     -11.520  11.992  -2.039  1.00  0.00     0.010 A 
ATOM     37  C   UNL     1      -9.643  10.788  -2.989  1.00  0.00     0.010 A 
ATOM     38  C   UNL     1     -10.627  11.782  -3.103  1.00  0.00    -0.014 A 
BRANCH  38  39
ATOM     39  C   UNL     1     -10.701  12.596  -4.341  1.00  0.00     0.031 A 
ATOM     40  C   UNL     1     -11.019  11.943  -5.657  1.00  0.00     0.074 A 
ATOM     41  C   UNL     1     -10.415  13.911  -4.292  1.00  0.00     0.049 A 
ATOM     42  N   UNL     1     -11.089  12.480  -6.849  1.00  0.00    -0.248 NA
ATOM     43  C   UNL     1     -11.264  10.492  -5.636  1.00  0.00     0.031 C 
ATOM     44  C   UNL     1     -10.055  14.657  -3.084  1.00  0.00     0.029 A 
ATOM     45  N   UNL     1     -10.382  14.855  -5.287  1.00  0.00    -0.354 N 
ATOM     46  C   UNL     1     -11.362  11.432  -7.719  1.00  0.00     0.074 A 
ATOM     47  C   UNL     1     -11.394  10.222  -6.926  1.00  0.00     0.031 C 
ATOM     48  C   UNL     1      -9.880  15.949  -3.402  1.00  0.00     0.029 A 
ATOM     49  C   UNL     1     -10.069  16.115  -4.840  1.00  0.00     0.049 A 
ATOM     50  H   UNL     1     -10.565  14.648  -6.232  1.00  0.00     0.167 HD
ATOM     51  C   UNL     1     -11.582  11.472  -9.054  1.00  0.00     0.031 A 
ATOM     52  C   UNL     1      -9.947  17.275  -5.512  1.00  0.00     0.031 A 
ATOM     53  C   UNL     1     -11.558  12.677  -9.840  1.00  0.00     0.049 A 
ATOM     54  C   UNL     1     -10.172  17.291  -6.998  1.00  0.00     0.074 A 
ATOM     55  C   UNL     1     -11.840  12.834 -11.186  1.00  0.00     0.029 A 
ATOM     56  N   UNL     1     -11.222  13.930  -9.352  1.00  0.00    -0.354 N 
ATOM     57  N   UNL     1     -10.510  16.305  -7.793  1.00  0.00    -0.248 NA
ATOM     58  C   UNL     1     -10.005  18.584  -7.676  1.00  0.00     0.031 C 
ATOM     59  C   UNL     1     -11.613  14.171 -11.526  1.00  0.00     0.029 A 
ATOM     60  C   UNL     1     -11.253  14.860 -10.379  1.00  0.00     0.049 A 
ATOM     61  H   UNL     1     -10.994  14.130  -8.416  1.00  0.00     0.167 HD
ATOM     62  C   UNL     1     -10.628  16.864  -9.059  1.00  0.00     0.074 A 
ATOM     63  C   UNL     1     -10.337  18.277  -8.922  1.00  0.00     0.031 C 
ATOM     64  C   UNL     1     -10.954  16.262 -10.229  1.00  0.00     0.031 A 
BRANCH  51  65
ATOM     65  C   UNL     1     -11.844  10.163  -9.749  1.00  0.00    -0.014 A 
ATOM     66  C   UNL     1     -13.021   9.432  -9.518  1.00  0.00     0.009 A 
ATOM     67  C   UNL     1     -10.902   9.660 -10.659  1.00  0.00     0.009 A 
ATOM     68  C   UNL     1     -13.224   8.200 -10.145  1.00  0.00     0.001 A 
ATOM     69  C   UNL     1     -11.123   8.444 -11.310  1.00  0.00     0.001 A 
ATOM     70  C   UNL     1     -12.277   7.709 -11.042  1.00  0.00     0.000 A 
ENDBRANCH  51  65
BRANCH  52  71
ATOM     71  C   UNL     1      -9.630  18.529  -4.779  1.00  0.00    -0.014 A 
ATOM     72  C   UNL     1     -10.608  19.523  -4.626  1.00  0.00     0.009 A 
ATOM     73  C   UNL     1      -8.357  18.738  -4.226  1.00  0.00     0.009 A 
ATOM     74  C   UNL     1     -10.313  20.710  -3.953  1.00  0.00     0.001 A 
ATOM     75  C   UNL     1      -8.073  19.914  -3.529  1.00  0.00     0.001 A 
ATOM     76  C   UNL     1      -9.048  20.902  -3.400  1.00  0.00     0.000 A 
ENDBRANCH  52  71
BRANCH  64  77
ATOM     77  C   UNL     1     -11.048  17.135 -11.450  1.00  0.00    -0.014 A 
ATOM     78  C   UNL     1      -9.903  17.681 -12.050  1.00  0.00     0.009 A 
ATOM     79  C   UNL     1     -12.303  17.382 -12.029  1.00  0.00     0.009 A 
ATOM     80  C   UNL     1     -10.018  18.485 -13.186  1.00  0.00     0.001 A 
ATOM     81  C   UNL     1     -12.411  18.160 -13.183  1.00  0.00     0.001 A 
ATOM     82  C   UNL     1     -11.270  18.719 -13.754  1.00  0.00     0.000 A 
ENDBRANCH  64  77
ENDBRANCH  38  39
ENDBRANCH  30  33
ENDBRANCH  28  29
ENDBRANCH  27  28
ENDBRANCH  26  27
ENDBRANCH   1  26
TORSDOF 15
