REMARK SMILES O=C(NCCCCNC(=O)[C@@H]1CCC[N@@H+](Cc2ccc(F)cc2Cl)C1)c1ccc(-c2c3nc(c(-c4ccccc4)c4ccc([nH]4)c(-c4ccccc4)c4nc(c(-c5ccccc5)c5ccc2[nH]5)C=C4)C=C3)cc1
REMARK SMILES IDX 5 1 4 2 3 3 1 4 2 5 26 7 27 8 73 9 28 10 72 11 29 12 30 13
REMARK SMILES IDX 31 14 66 15 32 16 71 17 65 18 67 19 33 20 70 21 64 22 63 23
REMARK SMILES IDX 34 25 56 26 41 27 55 28 42 29 45 30 54 31 68 32 43 33 44 34
REMARK SMILES IDX 53 36 69 37 46 38 35 39 36 40 40 41 37 42 39 43 38 44 57 45
REMARK SMILES IDX 58 46 62 47 59 48 61 49 60 50 47 51 48 52 52 53 49 54 51 55
REMARK SMILES IDX 50 56 6 57 7 58 8 59 9 60 10 62 11 63 12 64 25 65 13 66
REMARK SMILES IDX 15 67 14 68 16 70 17 71 18 72 23 73 19 74 22 75 24 76 20 77
REMARK SMILES IDX 21 78
REMARK H PARENT 3 6 67 24 45 35 8 61 15 69
REMARK Flexibility Score: inf
ROOT
ATOM      1  C   UNL     1       5.331  -1.613  -2.013  1.00  0.00     0.023 C 
ENDROOT
BRANCH   1   2
ATOM      2  C   UNL     1       4.787  -0.687  -0.934  1.00  0.00     0.116 C 
BRANCH   2   3
ATOM      3  N   UNL     1       3.359  -0.413  -1.029  1.00  0.00    -0.352 N 
ATOM      4  O   UNL     1       1.298   0.036  -0.183  1.00  0.00    -0.269 OA
ATOM      5  C   UNL     1       2.493  -0.133   0.008  1.00  0.00     0.251 C 
ATOM      6  H   UNL     1       2.969  -0.429  -1.933  1.00  0.00     0.163 HD
BRANCH   5   7
ATOM      7  C   UNL     1       3.049  -0.096   1.375  1.00  0.00     0.039 A 
ATOM      8  C   UNL     1       4.152   0.714   1.649  1.00  0.00     0.014 A 
ATOM      9  C   UNL     1       2.545  -0.972   2.338  1.00  0.00     0.014 A 
ATOM     10  C   UNL     1       4.855   0.524   2.829  1.00  0.00     0.010 A 
ATOM     11  C   UNL     1       3.205  -1.097   3.562  1.00  0.00     0.010 A 
ATOM     12  C   UNL     1       4.391  -0.383   3.798  1.00  0.00    -0.014 A 
BRANCH  12  13
ATOM     13  C   UNL     1       5.150  -0.536   5.062  1.00  0.00     0.031 A 
ATOM     14  C   UNL     1       5.835  -1.828   5.413  1.00  0.00     0.074 A 
ATOM     15  C   UNL     1       5.260   0.532   5.874  1.00  0.00     0.049 A 
ATOM     16  N   UNL     1       6.555  -2.113   6.469  1.00  0.00    -0.248 NA
ATOM     17  C   UNL     1       5.694  -2.944   4.464  1.00  0.00     0.031 C 
ATOM     18  C   UNL     1       4.646   1.841   5.631  1.00  0.00     0.029 A 
ATOM     19  N   UNL     1       5.950   0.700   7.045  1.00  0.00    -0.354 N 
ATOM     20  C   UNL     1       6.930  -3.444   6.327  1.00  0.00     0.074 A 
ATOM     21  C   UNL     1       6.349  -3.915   5.088  1.00  0.00     0.031 C 
ATOM     22  C   UNL     1       5.038   2.693   6.589  1.00  0.00     0.029 A 
ATOM     23  C   UNL     1       5.869   1.975   7.546  1.00  0.00     0.049 A 
ATOM     24  H   UNL     1       6.454  -0.023   7.484  1.00  0.00     0.167 HD
ATOM     25  C   UNL     1       7.690  -4.201   7.155  1.00  0.00     0.031 A 
ATOM     26  C   UNL     1       6.393   2.509   8.663  1.00  0.00     0.031 A 
ATOM     27  C   UNL     1       8.274  -3.726   8.383  1.00  0.00     0.049 A 
ATOM     28  C   UNL     1       7.210   1.642   9.570  1.00  0.00     0.074 A 
ATOM     29  C   UNL     1       9.071  -4.415   9.283  1.00  0.00     0.029 A 
ATOM     30  N   UNL     1       8.128  -2.441   8.881  1.00  0.00    -0.354 N 
ATOM     31  N   UNL     1       7.551   0.386   9.421  1.00  0.00    -0.248 NA
ATOM     32  C   UNL     1       7.707   2.265  10.804  1.00  0.00     0.031 C 
ATOM     33  C   UNL     1       9.375  -3.555  10.345  1.00  0.00     0.029 A 
ATOM     34  C   UNL     1       8.804  -2.321  10.084  1.00  0.00     0.049 A 
ATOM     35  H   UNL     1       7.620  -1.720   8.444  1.00  0.00     0.167 HD
ATOM     36  C   UNL     1       8.305   0.066  10.540  1.00  0.00     0.074 A 
ATOM     37  C   UNL     1       8.394   1.268  11.344  1.00  0.00     0.031 C 
ATOM     38  C   UNL     1       8.868  -1.120  10.875  1.00  0.00     0.031 A 
BRANCH  25  39
ATOM     39  C   UNL     1       7.912  -5.639   6.777  1.00  0.00    -0.014 A 
ATOM     40  C   UNL     1       8.799  -5.995   5.750  1.00  0.00     0.009 A 
ATOM     41  C   UNL     1       7.264  -6.655   7.497  1.00  0.00     0.009 A 
ATOM     42  C   UNL     1       9.014  -7.339   5.436  1.00  0.00     0.001 A 
ATOM     43  C   UNL     1       7.497  -7.998   7.196  1.00  0.00     0.001 A 
ATOM     44  C   UNL     1       8.367  -8.339   6.162  1.00  0.00     0.000 A 
ENDBRANCH  25  39
BRANCH  26  45
ATOM     45  C   UNL     1       6.134   3.934   8.984  1.00  0.00    -0.014 A 
ATOM     46  C   UNL     1       7.157   4.886   8.877  1.00  0.00     0.009 A 
ATOM     47  C   UNL     1       4.849   4.352   9.365  1.00  0.00     0.009 A 
ATOM     48  C   UNL     1       6.900   6.230   9.158  1.00  0.00     0.001 A 
ATOM     49  C   UNL     1       4.589   5.700   9.617  1.00  0.00     0.001 A 
ATOM     50  C   UNL     1       5.616   6.636   9.520  1.00  0.00     0.000 A 
ENDBRANCH  26  45
BRANCH  38  51
ATOM     51  C   UNL     1       9.637  -1.159  12.162  1.00  0.00    -0.014 A 
ATOM     52  C   UNL     1       8.973  -1.182  13.398  1.00  0.00     0.009 A 
ATOM     53  C   UNL     1      11.039  -1.182  12.137  1.00  0.00     0.009 A 
ATOM     54  C   UNL     1       9.701  -1.193  14.588  1.00  0.00     0.001 A 
ATOM     55  C   UNL     1      11.764  -1.216  13.328  1.00  0.00     0.001 A 
ATOM     56  C   UNL     1      11.096  -1.212  14.552  1.00  0.00     0.000 A 
ENDBRANCH  38  51
ENDBRANCH  12  13
ENDBRANCH   5   7
ENDBRANCH   2   3
ENDBRANCH   1   2
BRANCH   1  57
ATOM     57  C   UNL     1       5.031  -1.195  -3.448  1.00  0.00     0.023 C 
BRANCH  57  58
ATOM     58  C   UNL     1       5.430   0.235  -3.794  1.00  0.00     0.116 C 
BRANCH  58  59
ATOM     59  N   UNL     1       6.797   0.367  -4.229  1.00  0.00    -0.356 N 
ATOM     60  C   UNL     1       7.297   0.646  -5.461  1.00  0.00     0.228 C 
ATOM     61  H   UNL     1       7.473   0.235  -3.526  1.00  0.00     0.163 HD
ATOM     62  O   UNL     1       8.526   0.767  -5.540  1.00  0.00    -0.275 OA
BRANCH  60  63
ATOM     63  C   UNL     1       6.446   0.755  -6.732  1.00  0.00     0.133 C 
ATOM     64  C   UNL     1       5.364   1.841  -6.786  1.00  0.00     0.025 C 
ATOM     65  C   UNL     1       5.999  -0.614  -7.240  1.00  0.00     0.276 C 
ATOM     66  C   UNL     1       3.904   1.375  -6.714  1.00  0.00     0.062 C 
ATOM     67  N   UNL     1       4.687  -1.002  -6.727  1.00  0.00    -0.330 N 
ATOM     68  C   UNL     1       3.646  -0.066  -7.155  1.00  0.00     0.262 C 
ATOM     69  H   UNL     1       4.722  -0.932  -5.710  1.00  0.00     0.348 HD
BRANCH  67  70
ATOM     70  C   UNL     1       4.370  -2.425  -6.977  1.00  0.00     0.300 C 
BRANCH  70  71
ATOM     71  C   UNL     1       3.675  -2.736  -8.289  1.00  0.00     0.025 A 
ATOM     72  C   UNL     1       4.413  -2.671  -9.488  1.00  0.00     0.014 A 
ATOM     73  C   UNL     1       2.297  -3.015  -8.367  1.00  0.00     0.052 A 
ATOM     74  C   UNL     1       3.780  -2.805 -10.723  1.00  0.00     0.040 A 
ATOM     75  C   UNL     1       1.669  -3.161  -9.605  1.00  0.00     0.060 A 
ATOM     76  Cl  UNL     1       1.301  -3.175  -6.963  1.00  0.00    -0.084 Cl
ATOM     77  C   UNL     1       2.413  -3.036 -10.769  1.00  0.00     0.124 A 
ATOM     78  F   UNL     1       1.802  -3.137 -11.956  1.00  0.00    -0.207 F 
ENDBRANCH  70  71
ENDBRANCH  67  70
ENDBRANCH  60  63
ENDBRANCH  58  59
ENDBRANCH  57  58
ENDBRANCH   1  57
TORSDOF 13
