REMARK SMILES O=C(NCCCCNC(=O)[C@H]1CCCN(C(=O)C2CC[NH+](Cc3ccco3)CC2)C1)c1ccc(-c2c3nc(c(-c4ccccc4)c4ccc([nH]4)c(-c4ccccc4)c4nc(c(-c5ccccc5)c5ccc2[nH]5)C=C4)C=C3)cc1
REMARK SMILES IDX 6 1 5 2 4 3 3 4 1 5 2 6 31 8 32 9 78 10 33 11 77 12 34 13
REMARK SMILES IDX 35 14 36 15 71 16 37 17 76 18 70 19 72 20 38 21 75 22 69 23
REMARK SMILES IDX 68 24 39 26 61 27 46 28 60 29 47 30 50 31 59 32 73 33 48 34
REMARK SMILES IDX 49 35 58 37 74 38 51 39 40 40 41 41 45 42 42 43 44 44 43 45
REMARK SMILES IDX 62 46 63 47 67 48 64 49 66 50 65 51 52 52 53 53 57 54 54 55
REMARK SMILES IDX 56 56 55 57 7 58 8 59 9 60 10 62 11 63 12 64 30 65 13 66
REMARK SMILES IDX 15 67 14 68 16 69 17 70 18 71 19 72 29 73 20 74 28 75 21 76
REMARK SMILES IDX 22 78 23 79 24 80 27 81 25 82 26 83
REMARK H PARENT 3 7 72 25 50 36 8 61 21 77
REMARK Flexibility Score: inf
ROOT
ATOM      1  C   UNL     1       9.847  -2.205  -7.618  1.00  0.00     0.023 C 
ENDROOT
BRANCH   1   2
ATOM      2  C   UNL     1      10.802  -2.150  -8.808  1.00  0.00     0.023 C 
BRANCH   2   3
ATOM      3  C   UNL     1      12.181  -1.617  -8.469  1.00  0.00     0.116 C 
BRANCH   3   4
ATOM      4  N   UNL     1      12.795  -2.301  -7.341  1.00  0.00    -0.352 N 
ATOM      5  O   UNL     1      14.539  -3.160  -6.176  1.00  0.00    -0.269 OA
ATOM      6  C   UNL     1      14.135  -2.512  -7.124  1.00  0.00     0.251 C 
ATOM      7  H   UNL     1      12.181  -2.652  -6.657  1.00  0.00     0.163 HD
BRANCH   6   8
ATOM      8  C   UNL     1      15.067  -1.955  -8.118  1.00  0.00     0.039 A 
ATOM      9  C   UNL     1      15.008  -0.595  -8.428  1.00  0.00     0.014 A 
ATOM     10  C   UNL     1      15.902  -2.826  -8.816  1.00  0.00     0.014 A 
ATOM     11  C   UNL     1      15.703  -0.124  -9.529  1.00  0.00     0.010 A 
ATOM     12  C   UNL     1      16.668  -2.330  -9.868  1.00  0.00     0.010 A 
ATOM     13  C   UNL     1      16.556  -0.982 -10.243  1.00  0.00    -0.014 A 
BRANCH  13  14
ATOM     14  C   UNL     1      17.397  -0.422 -11.322  1.00  0.00     0.031 A 
ATOM     15  C   UNL     1      17.214  -0.836 -12.752  1.00  0.00     0.074 A 
ATOM     16  C   UNL     1      18.329   0.486 -10.980  1.00  0.00     0.049 A 
ATOM     17  N   UNL     1      17.881  -0.445 -13.807  1.00  0.00    -0.248 NA
ATOM     18  C   UNL     1      16.156  -1.818 -13.037  1.00  0.00     0.031 C 
ATOM     19  C   UNL     1      18.587   0.955  -9.614  1.00  0.00     0.029 A 
ATOM     20  N   UNL     1      19.216   1.191 -11.746  1.00  0.00    -0.354 N 
ATOM     21  C   UNL     1      17.343  -1.147 -14.878  1.00  0.00     0.074 A 
ATOM     22  C   UNL     1      16.304  -2.001 -14.343  1.00  0.00     0.031 C 
ATOM     23  C   UNL     1      19.527   1.908  -9.647  1.00  0.00     0.029 A 
ATOM     24  C   UNL     1      19.990   2.061 -11.019  1.00  0.00     0.049 A 
ATOM     25  H   UNL     1      19.293   1.085 -12.722  1.00  0.00     0.167 HD
ATOM     26  C   UNL     1      17.691  -1.082 -16.185  1.00  0.00     0.031 A 
ATOM     27  C   UNL     1      20.982   2.879 -11.410  1.00  0.00     0.031 A 
ATOM     28  C   UNL     1      18.729  -0.228 -16.703  1.00  0.00     0.049 A 
ATOM     29  C   UNL     1      21.363   2.905 -12.857  1.00  0.00     0.074 A 
ATOM     30  C   UNL     1      19.144  -0.071 -18.014  1.00  0.00     0.029 A 
ATOM     31  N   UNL     1      19.518   0.612 -15.930  1.00  0.00    -0.354 N 
ATOM     32  N   UNL     1      20.835   2.246 -13.860  1.00  0.00    -0.248 NA
ATOM     33  C   UNL     1      22.481   3.782 -13.226  1.00  0.00     0.031 C 
ATOM     34  C   UNL     1      20.216   0.830 -18.028  1.00  0.00     0.029 A 
ATOM     35  C   UNL     1      20.433   1.273 -16.733  1.00  0.00     0.049 A 
ATOM     36  H   UNL     1      19.439   0.722 -14.955  1.00  0.00     0.167 HD
ATOM     37  C   UNL     1      21.548   2.636 -14.983  1.00  0.00     0.074 A 
ATOM     38  C   UNL     1      22.529   3.607 -14.539  1.00  0.00     0.031 C 
ATOM     39  C   UNL     1      21.407   2.225 -16.266  1.00  0.00     0.031 A 
BRANCH  26  40
ATOM     40  C   UNL     1      16.963  -1.981 -17.146  1.00  0.00    -0.014 A 
ATOM     41  C   UNL     1      15.634  -1.729 -17.519  1.00  0.00     0.009 A 
ATOM     42  C   UNL     1      17.635  -3.071 -17.722  1.00  0.00     0.009 A 
ATOM     43  C   UNL     1      14.985  -2.567 -18.430  1.00  0.00     0.001 A 
ATOM     44  C   UNL     1      16.991  -3.892 -18.650  1.00  0.00     0.001 A 
ATOM     45  C   UNL     1      15.665  -3.644 -18.997  1.00  0.00     0.000 A 
ENDBRANCH  26  40
BRANCH  27  46
ATOM     46  C   UNL     1      21.683   3.714 -10.405  1.00  0.00    -0.014 A 
ATOM     47  C   UNL     1      21.503   5.104 -10.382  1.00  0.00     0.009 A 
ATOM     48  C   UNL     1      22.511   3.118  -9.439  1.00  0.00     0.009 A 
ATOM     49  C   UNL     1      22.152   5.883  -9.421  1.00  0.00     0.001 A 
ATOM     50  C   UNL     1      23.133   3.895  -8.462  1.00  0.00     0.001 A 
ATOM     51  C   UNL     1      22.960   5.278  -8.459  1.00  0.00     0.000 A 
ENDBRANCH  27  46
BRANCH  39  52
ATOM     52  C   UNL     1      22.327   2.847 -17.275  1.00  0.00    -0.014 A 
ATOM     53  C   UNL     1      23.683   2.491 -17.336  1.00  0.00     0.009 A 
ATOM     54  C   UNL     1      21.825   3.791 -18.183  1.00  0.00     0.009 A 
ATOM     55  C   UNL     1      24.528   3.098 -18.267  1.00  0.00     0.001 A 
ATOM     56  C   UNL     1      22.666   4.375 -19.130  1.00  0.00     0.001 A 
ATOM     57  C   UNL     1      24.018   4.036 -19.164  1.00  0.00     0.000 A 
ENDBRANCH  39  52
ENDBRANCH  13  14
ENDBRANCH   6   8
ENDBRANCH   3   4
ENDBRANCH   2   3
ENDBRANCH   1   2
BRANCH   1  58
ATOM     58  C   UNL     1       9.811  -0.921  -6.790  1.00  0.00     0.116 C 
BRANCH  58  59
ATOM     59  N   UNL     1       9.307   0.179  -7.583  1.00  0.00    -0.356 N 
ATOM     60  C   UNL     1       8.060   0.720  -7.573  1.00  0.00     0.224 C 
ATOM     61  H   UNL     1       9.948   0.587  -8.209  1.00  0.00     0.163 HD
ATOM     62  O   UNL     1       7.784   1.556  -8.432  1.00  0.00    -0.275 OA
BRANCH  60  63
ATOM     63  C   UNL     1       7.083   0.278  -6.501  1.00  0.00     0.098 C 
ATOM     64  C   UNL     1       5.994   1.353  -6.341  1.00  0.00     0.017 C 
ATOM     65  C   UNL     1       6.512  -1.118  -6.830  1.00  0.00     0.133 C 
ATOM     66  C   UNL     1       4.890   0.854  -5.429  1.00  0.00     0.022 C 
ATOM     67  N   UNL     1       5.369  -1.458  -5.982  1.00  0.00    -0.342 N 
ATOM     68  C   UNL     1       4.360  -0.436  -6.022  1.00  0.00     0.119 C 
BRANCH  67  69
ATOM     69  C   UNL     1       5.321  -2.653  -5.291  1.00  0.00     0.226 C 
ATOM     70  O   UNL     1       6.235  -3.479  -5.443  1.00  0.00    -0.275 OA
BRANCH  69  71
ATOM     71  C   UNL     1       4.165  -3.053  -4.334  1.00  0.00     0.090 C 
ATOM     72  C   UNL     1       2.981  -3.747  -4.996  1.00  0.00     0.075 C 
ATOM     73  C   UNL     1       3.701  -2.074  -3.257  1.00  0.00     0.075 C 
ATOM     74  C   UNL     1       1.938  -2.772  -5.513  1.00  0.00     0.263 C 
ATOM     75  C   UNL     1       2.420  -1.269  -3.546  1.00  0.00     0.263 C 
ATOM     76  N   UNL     1       1.474  -1.796  -4.531  1.00  0.00    -0.329 N 
ATOM     77  H   UNL     1       0.912  -2.409  -3.938  1.00  0.00     0.348 HD
BRANCH  76  78
ATOM     78  C   UNL     1       0.576  -0.756  -5.094  1.00  0.00     0.338 C 
BRANCH  78  79
ATOM     79  C   UNL     1       1.073  -0.008  -6.304  1.00  0.00     0.157 A 
ATOM     80  C   UNL     1       1.145  -0.319  -7.652  1.00  0.00     0.052 A 
ATOM     81  O   UNL     1       1.559   1.257  -6.109  1.00  0.00    -0.463 OA
ATOM     82  C   UNL     1       1.741   0.790  -8.301  1.00  0.00     0.042 A 
ATOM     83  C   UNL     1       1.954   1.731  -7.322  1.00  0.00     0.195 A 
ENDBRANCH  78  79
ENDBRANCH  76  78
ENDBRANCH  69  71
ENDBRANCH  67  69
ENDBRANCH  60  63
ENDBRANCH  58  59
ENDBRANCH   1  58
TORSDOF 15
