REMARK SMILES Cc1oc2cc(OCC(=O)NCCCCNC(=O)c3ccc(-c4c5nc(c(-c6ccccc6)c6ccc([nH]6)c(-c6ccccc6)c6nc(c(-c7ccccc7)c7ccc4[nH]7)C=C6)C=C5)cc3)ccc2c(=O)c1Oc1ccc(Cl)cc1Cl
REMARK SMILES IDX 12 1 11 2 9 3 10 4 8 6 7 7 6 8 1 9 2 10 3 11 72 12 4 13
REMARK SMILES IDX 70 14 5 15 69 16 71 17 68 18 67 19 73 20 74 21 75 22 80 23
REMARK SMILES IDX 76 24 79 25 81 26 77 27 78 28 13 29 14 30 15 31 16 32 17 33
REMARK SMILES IDX 18 35 19 36 20 37 66 38 21 39 65 40 22 41 23 42 24 43 59 44
REMARK SMILES IDX 25 45 64 46 58 47 60 48 26 49 63 50 57 51 56 52 27 54 49 55
REMARK SMILES IDX 34 56 48 57 35 58 38 59 47 60 61 61 36 62 37 63 46 65 62 66
REMARK SMILES IDX 39 67 28 68 29 69 33 70 30 71 32 72 31 73 50 74 51 75 55 76
REMARK SMILES IDX 52 77 54 78 53 79 40 80 41 81 45 82 42 83 44 84 43 85
REMARK H PARENT 11 5 16 34 60 53 38 64
REMARK Flexibility Score: inf
ROOT
ATOM      1  C   UNL     1       5.192   2.970  -2.324  1.00  0.00     0.116 C 
ENDROOT
BRANCH   1   2
ATOM      2  N   UNL     1       4.009   3.785  -2.137  1.00  0.00    -0.353 N 
ATOM      3  C   UNL     1       3.321   4.010  -0.979  1.00  0.00     0.257 C 
ATOM      4  O   UNL     1       2.356   4.776  -1.001  1.00  0.00    -0.271 OA
ATOM      5  H   UNL     1       3.659   4.231  -2.942  1.00  0.00     0.163 HD
BRANCH   3   6
ATOM      6  C   UNL     1       3.785   3.335   0.318  1.00  0.00     0.329 C 
BRANCH   6   7
ATOM      7  O   UNL     1       3.863   1.915   0.284  1.00  0.00    -0.484 OA
BRANCH   7   8
ATOM      8  C   UNL     1       2.689   1.217   0.229  1.00  0.00     0.123 A 
ATOM      9  C   UNL     1      -3.228   1.781   0.536  1.00  0.00     0.092 C 
ATOM     10  C   UNL     1      -2.081   0.843   0.286  1.00  0.00     0.148 A 
ATOM     11  O   UNL     1      -0.914   1.587   0.221  1.00  0.00    -0.457 OA
ATOM     12  C   UNL     1      -2.119  -0.510   0.157  1.00  0.00     0.213 A 
ATOM     13  C   UNL     1       0.290   0.954   0.180  1.00  0.00     0.142 A 
ATOM     14  C   UNL     1      -0.806  -1.224   0.006  1.00  0.00     0.235 A 
ATOM     15  C   UNL     1       1.414   1.774   0.257  1.00  0.00     0.094 A 
ATOM     16  C   UNL     1       0.418  -0.417   0.073  1.00  0.00     0.069 A 
ATOM     17  O   UNL     1      -0.736  -2.440  -0.138  1.00  0.00    -0.285 OA
ATOM     18  C   UNL     1       1.690  -0.994   0.049  1.00  0.00     0.020 A 
ATOM     19  C   UNL     1       2.821  -0.173   0.131  1.00  0.00     0.047 A 
BRANCH  12  20
ATOM     20  O   UNL     1      -3.210  -1.374   0.174  1.00  0.00    -0.448 OA
BRANCH  20  21
ATOM     21  C   UNL     1      -4.494  -0.906   0.131  1.00  0.00     0.146 A 
ATOM     22  C   UNL     1      -5.233  -0.995   1.315  1.00  0.00     0.050 A 
ATOM     23  C   UNL     1      -5.080  -0.388  -1.030  1.00  0.00     0.085 A 
ATOM     24  C   UNL     1      -6.522  -0.464   1.369  1.00  0.00     0.024 A 
ATOM     25  C   UNL     1      -6.368   0.148  -0.974  1.00  0.00     0.045 A 
ATOM     26  Cl  UNL     1      -4.239  -0.355  -2.535  1.00  0.00    -0.080 Cl
ATOM     27  C   UNL     1      -7.073   0.123   0.230  1.00  0.00     0.042 A 
ATOM     28  Cl  UNL     1      -8.636   0.836   0.316  1.00  0.00    -0.084 Cl
ENDBRANCH  20  21
ENDBRANCH  12  20
ENDBRANCH   7   8
ENDBRANCH   6   7
ENDBRANCH   3   6
ENDBRANCH   1   2
BRANCH   1  29
ATOM     29  C   UNL     1       4.890   1.659  -3.047  1.00  0.00     0.023 C 
BRANCH  29  30
ATOM     30  C   UNL     1       4.346   1.810  -4.469  1.00  0.00     0.023 C 
BRANCH  30  31
ATOM     31  C   UNL     1       5.157   2.709  -5.396  1.00  0.00     0.116 C 
BRANCH  31  32
ATOM     32  N   UNL     1       6.543   2.290  -5.538  1.00  0.00    -0.352 N 
ATOM     33  C   UNL     1       7.310   2.194  -6.675  1.00  0.00     0.251 C 
ATOM     34  H   UNL     1       6.996   2.040  -4.701  1.00  0.00     0.163 HD
ATOM     35  O   UNL     1       8.442   1.724  -6.617  1.00  0.00    -0.269 OA
BRANCH  33  36
ATOM     36  C   UNL     1       6.754   2.620  -7.976  1.00  0.00     0.039 A 
ATOM     37  C   UNL     1       6.873   1.760  -9.071  1.00  0.00     0.014 A 
ATOM     38  C   UNL     1       6.098   3.846  -8.113  1.00  0.00     0.014 A 
ATOM     39  C   UNL     1       6.261   2.090 -10.281  1.00  0.00     0.010 A 
ATOM     40  C   UNL     1       5.434   4.145  -9.300  1.00  0.00     0.010 A 
ATOM     41  C   UNL     1       5.499   3.264 -10.392  1.00  0.00    -0.014 A 
BRANCH  41  42
ATOM     42  C   UNL     1       4.734   3.574 -11.626  1.00  0.00     0.031 A 
ATOM     43  C   UNL     1       5.076   4.784 -12.449  1.00  0.00     0.074 A 
ATOM     44  C   UNL     1       3.676   2.809 -11.962  1.00  0.00     0.049 A 
ATOM     45  N   UNL     1       4.467   5.261 -13.506  1.00  0.00    -0.248 NA
ATOM     46  C   UNL     1       6.239   5.574 -12.016  1.00  0.00     0.031 C 
ATOM     47  C   UNL     1       3.215   1.629 -11.227  1.00  0.00     0.029 A 
ATOM     48  N   UNL     1       2.788   2.920 -13.002  1.00  0.00    -0.354 N 
ATOM     49  C   UNL     1       5.159   6.415 -13.850  1.00  0.00     0.074 A 
ATOM     50  C   UNL     1       6.208   6.588 -12.868  1.00  0.00     0.031 C 
ATOM     51  C   UNL     1       2.142   1.115 -11.850  1.00  0.00     0.029 A 
ATOM     52  C   UNL     1       1.814   1.951 -13.001  1.00  0.00     0.049 A 
ATOM     53  H   UNL     1       2.843   3.628 -13.685  1.00  0.00     0.167 HD
ATOM     54  C   UNL     1       4.951   7.247 -14.898  1.00  0.00     0.031 A 
ATOM     55  C   UNL     1       0.766   1.761 -13.824  1.00  0.00     0.031 A 
ATOM     56  C   UNL     1       3.916   7.072 -15.882  1.00  0.00     0.049 A 
ATOM     57  C   UNL     1       0.545   2.711 -14.968  1.00  0.00     0.074 A 
ATOM     58  C   UNL     1       3.667   7.828 -17.014  1.00  0.00     0.029 A 
ATOM     59  N   UNL     1       2.956   6.073 -15.848  1.00  0.00    -0.354 N 
ATOM     60  N   UNL     1       1.252   3.757 -15.319  1.00  0.00    -0.248 NA
ATOM     61  C   UNL     1      -0.615   2.448 -15.832  1.00  0.00     0.031 C 
ATOM     62  C   UNL     1       2.525   7.316 -17.639  1.00  0.00     0.029 A 
ATOM     63  C   UNL     1       2.095   6.210 -16.924  1.00  0.00     0.049 A 
ATOM     64  H   UNL     1       2.894   5.371 -15.160  1.00  0.00     0.167 HD
ATOM     65  C   UNL     1       0.637   4.263 -16.457  1.00  0.00     0.074 A 
ATOM     66  C   UNL     1      -0.490   3.400 -16.746  1.00  0.00     0.031 C 
ATOM     67  C   UNL     1       0.977   5.346 -17.197  1.00  0.00     0.031 A 
BRANCH  54  68
ATOM     68  C   UNL     1       5.860   8.437 -15.028  1.00  0.00    -0.014 A 
ATOM     69  C   UNL     1       7.204   8.287 -15.405  1.00  0.00     0.009 A 
ATOM     70  C   UNL     1       5.356   9.728 -14.809  1.00  0.00     0.009 A 
ATOM     71  C   UNL     1       8.034   9.403 -15.525  1.00  0.00     0.001 A 
ATOM     72  C   UNL     1       6.181  10.845 -14.956  1.00  0.00     0.001 A 
ATOM     73  C   UNL     1       7.521  10.681 -15.305  1.00  0.00     0.000 A 
ENDBRANCH  54  68
BRANCH  55  74
ATOM     74  C   UNL     1      -0.157   0.619 -13.602  1.00  0.00    -0.014 A 
ATOM     75  C   UNL     1      -0.159  -0.475 -14.480  1.00  0.00     0.009 A 
ATOM     76  C   UNL     1      -1.044   0.618 -12.514  1.00  0.00     0.009 A 
ATOM     77  C   UNL     1      -1.048  -1.535 -14.289  1.00  0.00     0.001 A 
ATOM     78  C   UNL     1      -1.913  -0.457 -12.309  1.00  0.00     0.001 A 
ATOM     79  C   UNL     1      -1.920  -1.527 -13.201  1.00  0.00     0.000 A 
ENDBRANCH  55  74
BRANCH  67  80
ATOM     80  C   UNL     1       0.138   5.643 -18.407  1.00  0.00    -0.014 A 
ATOM     81  C   UNL     1      -1.153   6.178 -18.284  1.00  0.00     0.009 A 
ATOM     82  C   UNL     1       0.666   5.426 -19.690  1.00  0.00     0.009 A 
ATOM     83  C   UNL     1      -1.909   6.465 -19.422  1.00  0.00     0.001 A 
ATOM     84  C   UNL     1      -0.081   5.738 -20.826  1.00  0.00     0.001 A 
ATOM     85  C   UNL     1      -1.371   6.250 -20.691  1.00  0.00     0.000 A 
ENDBRANCH  67  80
ENDBRANCH  41  42
ENDBRANCH  33  36
ENDBRANCH  31  32
ENDBRANCH  30  31
ENDBRANCH  29  30
ENDBRANCH   1  29
TORSDOF 15
