REMARK SMILES Cc1ccc(C(=O)NCCCCNC(=O)c2ccc(-c3c4nc(c(-c5ccccc5)c5ccc([nH]5)c(-c5ccccc5)c5nc(c(-c6ccccc6)c6ccc3[nH]6)C=C5)C=C4)cc2)cc1S(=O)(=O)N(CC1CC1)C(C)C
REMARK SMILES IDX 9 1 8 2 6 3 7 4 5 6 1 7 2 8 3 9 65 10 4 11 64 12 66 13 67 14
REMARK SMILES IDX 68 15 69 16 70 17 71 18 72 19 73 20 74 21 75 22 76 23 10 24
REMARK SMILES IDX 11 25 12 26 13 27 14 28 15 30 16 31 17 32 63 33 18 34 62 35
REMARK SMILES IDX 19 36 20 37 21 38 56 39 22 40 61 41 55 42 57 43 23 44 60 45
REMARK SMILES IDX 54 46 53 47 24 49 46 50 31 51 45 52 32 53 35 54 44 55 58 56
REMARK SMILES IDX 33 57 34 58 43 60 59 61 36 62 25 63 26 64 30 65 27 66 29 67
REMARK SMILES IDX 28 68 47 69 48 70 52 71 49 72 51 73 50 74 37 75 38 76 42 77
REMARK SMILES IDX 39 78 41 79 40 80
REMARK H PARENT 8 5 13 29 57 48 35 59
REMARK Flexibility Score: inf
ROOT
ATOM      1  C   UNL     1      -3.524   2.503  -0.043  1.00  0.00     0.116 C 
ENDROOT
BRANCH   1   2
ATOM      2  N   UNL     1      -3.824   1.107  -0.330  1.00  0.00    -0.352 N 
ATOM      3  C   UNL     1      -3.045  -0.016  -0.473  1.00  0.00     0.251 C 
ATOM      4  O   UNL     1      -3.629  -1.083  -0.672  1.00  0.00    -0.269 OA
ATOM      5  H   UNL     1      -4.786   0.931  -0.445  1.00  0.00     0.163 HD
BRANCH   3   6
ATOM      6  C   UNL     1      -1.558  -0.026  -0.340  1.00  0.00     0.041 A 
ATOM      7  C   UNL     1       2.632  -0.263   0.767  1.00  0.00     0.046 C 
ATOM      8  C   UNL     1       1.220  -0.115   0.286  1.00  0.00    -0.031 A 
ATOM      9  C   UNL     1       0.428  -1.281   0.282  1.00  0.00     0.005 A 
ATOM     10  C   UNL     1       0.622   1.078  -0.143  1.00  0.00     0.086 A 
ATOM     11  C   UNL     1      -0.943  -1.233   0.002  1.00  0.00     0.014 A 
ATOM     12  C   UNL     1      -0.745   1.092  -0.494  1.00  0.00     0.035 A 
BRANCH  10  13
ATOM     13  S   UNL     1       1.316   2.727   0.024  1.00  0.00     0.243 S 
ATOM     14  O   UNL     1       0.672   3.567  -0.945  1.00  0.00    -0.207 OA
ATOM     15  O   UNL     1       1.127   3.006   1.445  1.00  0.00    -0.207 OA
BRANCH  13  16
ATOM     16  N   UNL     1       2.969   2.694  -0.324  1.00  0.00    -0.195 NA
BRANCH  16  17
ATOM     17  C   UNL     1       3.475   2.103  -1.587  1.00  0.00     0.106 C 
BRANCH  17  18
ATOM     18  C   UNL     1       2.739   2.378  -2.865  1.00  0.00     0.004 C 
ATOM     19  C   UNL     1       2.303   3.719  -3.410  1.00  0.00     0.005 C 
ATOM     20  C   UNL     1       3.518   3.059  -3.977  1.00  0.00     0.005 C 
ENDBRANCH  17  18
ENDBRANCH  16  17
BRANCH  16  21
ATOM     21  C   UNL     1       3.870   3.776   0.229  1.00  0.00     0.067 C 
ATOM     22  C   UNL     1       3.846   5.049  -0.609  1.00  0.00     0.025 C 
ATOM     23  C   UNL     1       3.622   4.129   1.694  1.00  0.00     0.025 C 
ENDBRANCH  16  21
ENDBRANCH  13  16
ENDBRANCH  10  13
ENDBRANCH   3   6
ENDBRANCH   1   2
BRANCH   1  24
ATOM     24  C   UNL     1      -3.368   3.332  -1.330  1.00  0.00     0.023 C 
BRANCH  24  25
ATOM     25  C   UNL     1      -4.667   3.542  -2.113  1.00  0.00     0.023 C 
BRANCH  25  26
ATOM     26  C   UNL     1      -5.631   4.503  -1.432  1.00  0.00     0.116 C 
BRANCH  26  27
ATOM     27  N   UNL     1      -5.399   5.912  -1.714  1.00  0.00    -0.352 N 
ATOM     28  C   UNL     1      -5.915   7.037  -1.094  1.00  0.00     0.251 C 
ATOM     29  H   UNL     1      -4.780   6.093  -2.458  1.00  0.00     0.163 HD
ATOM     30  O   UNL     1      -5.680   8.147  -1.565  1.00  0.00    -0.269 OA
BRANCH  28  31
ATOM     31  C   UNL     1      -6.627   6.928   0.207  1.00  0.00     0.039 A 
ATOM     32  C   UNL     1      -6.381   7.914   1.174  1.00  0.00     0.014 A 
ATOM     33  C   UNL     1      -7.349   5.792   0.556  1.00  0.00     0.014 A 
ATOM     34  C   UNL     1      -6.618   7.636   2.518  1.00  0.00     0.010 A 
ATOM     35  C   UNL     1      -7.470   5.463   1.889  1.00  0.00     0.010 A 
ATOM     36  C   UNL     1      -7.043   6.360   2.871  1.00  0.00    -0.014 A 
BRANCH  36  37
ATOM     37  C   UNL     1      -6.964   5.819   4.221  1.00  0.00     0.031 A 
ATOM     38  C   UNL     1      -8.194   5.534   4.984  1.00  0.00     0.074 A 
ATOM     39  C   UNL     1      -5.759   5.433   4.695  1.00  0.00     0.049 A 
ATOM     40  N   UNL     1      -8.217   5.284   6.250  1.00  0.00    -0.248 NA
ATOM     41  C   UNL     1      -9.529   5.585   4.387  1.00  0.00     0.031 C 
ATOM     42  C   UNL     1      -5.478   4.529   5.807  1.00  0.00     0.029 A 
ATOM     43  N   UNL     1      -4.517   5.991   4.382  1.00  0.00    -0.354 N 
ATOM     44  C   UNL     1      -9.473   4.813   6.543  1.00  0.00     0.074 A 
ATOM     45  C   UNL     1     -10.284   5.166   5.406  1.00  0.00     0.031 C 
ATOM     46  C   UNL     1      -4.233   4.762   6.253  1.00  0.00     0.029 A 
ATOM     47  C   UNL     1      -3.748   5.944   5.561  1.00  0.00     0.049 A 
ATOM     48  H   UNL     1      -4.235   6.348   3.509  1.00  0.00     0.167 HD
ATOM     49  C   UNL     1      -9.639   4.021   7.636  1.00  0.00     0.031 A 
ATOM     50  C   UNL     1      -3.353   7.093   6.187  1.00  0.00     0.031 A 
ATOM     51  C   UNL     1      -8.476   4.072   8.521  1.00  0.00     0.049 A 
ATOM     52  C   UNL     1      -3.877   7.231   7.600  1.00  0.00     0.074 A 
ATOM     53  C   UNL     1      -7.462   3.178   8.816  1.00  0.00     0.029 A 
ATOM     54  N   UNL     1      -8.086   5.301   9.048  1.00  0.00    -0.354 N 
ATOM     55  N   UNL     1      -4.902   6.571   8.067  1.00  0.00    -0.248 NA
ATOM     56  C   UNL     1      -3.311   8.149   8.586  1.00  0.00     0.031 C 
ATOM     57  C   UNL     1      -6.403   3.910   9.421  1.00  0.00     0.029 A 
ATOM     58  C   UNL     1      -6.800   5.231   9.540  1.00  0.00     0.049 A 
ATOM     59  H   UNL     1      -8.651   6.107   9.066  1.00  0.00     0.167 HD
ATOM     60  C   UNL     1      -5.137   6.946   9.362  1.00  0.00     0.074 A 
ATOM     61  C   UNL     1      -4.111   7.933   9.646  1.00  0.00     0.031 C 
ATOM     62  C   UNL     1      -6.163   6.420  10.093  1.00  0.00     0.031 A 
BRANCH  49  63
ATOM     63  C   UNL     1     -10.755   3.008   7.781  1.00  0.00    -0.014 A 
ATOM     64  C   UNL     1     -10.774   2.156   8.901  1.00  0.00     0.009 A 
ATOM     65  C   UNL     1     -11.732   2.746   6.801  1.00  0.00     0.009 A 
ATOM     66  C   UNL     1     -11.696   1.104   9.020  1.00  0.00     0.001 A 
ATOM     67  C   UNL     1     -12.675   1.717   6.926  1.00  0.00     0.001 A 
ATOM     68  C   UNL     1     -12.650   0.887   8.034  1.00  0.00     0.000 A 
ENDBRANCH  49  63
BRANCH  50  69
ATOM     69  C   UNL     1      -3.134   8.234   5.253  1.00  0.00    -0.014 A 
ATOM     70  C   UNL     1      -2.094   8.132   4.306  1.00  0.00     0.009 A 
ATOM     71  C   UNL     1      -4.135   9.193   5.046  1.00  0.00     0.009 A 
ATOM     72  C   UNL     1      -2.124   8.880   3.126  1.00  0.00     0.001 A 
ATOM     73  C   UNL     1      -4.150   9.955   3.870  1.00  0.00     0.001 A 
ATOM     74  C   UNL     1      -3.169   9.770   2.895  1.00  0.00     0.000 A 
ENDBRANCH  50  69
BRANCH  62  75
ATOM     75  C   UNL     1      -6.637   6.933  11.429  1.00  0.00    -0.014 A 
ATOM     76  C   UNL     1      -6.470   8.253  11.869  1.00  0.00     0.009 A 
ATOM     77  C   UNL     1      -7.424   6.087  12.242  1.00  0.00     0.009 A 
ATOM     78  C   UNL     1      -7.017   8.690  13.084  1.00  0.00     0.001 A 
ATOM     79  C   UNL     1      -8.008   6.531  13.431  1.00  0.00     0.001 A 
ATOM     80  C   UNL     1      -7.792   7.833  13.859  1.00  0.00     0.000 A 
ENDBRANCH  62  75
ENDBRANCH  36  37
ENDBRANCH  28  31
ENDBRANCH  26  27
ENDBRANCH  25  26
ENDBRANCH  24  25
ENDBRANCH   1  24
TORSDOF 16
