REMARK SMILES Cc1ccccc1C(=O)Nc1ccc(N2CCC(n3c(C)nc4cccnc43)CC2)c(C(=O)NCCCCNC(=O)c2ccc(-c3c4nc(c(-c5ccccc5)c5ccc([nH]5)c(-c5ccccc5)c5nc(c(-c6ccccc6)c6ccc3[nH]6)C=C5)C=C4)cc2)c1
REMARK SMILES IDX 36 1 35 2 34 3 32 4 33 5 31 7 11 8 12 9 90 10 13 11 14 12
REMARK SMILES IDX 10 13 8 14 9 15 7 17 1 18 2 19 3 20 4 21 6 22 5 23 15 24
REMARK SMILES IDX 16 25 30 26 17 27 29 28 18 29 19 30 20 31 28 32 21 33 22 34
REMARK SMILES IDX 23 35 27 36 24 37 26 38 25 39 37 40 38 41 39 42 40 43 41 45
REMARK SMILES IDX 42 46 43 47 89 48 44 49 88 50 45 51 46 52 47 53 82 54 48 55
REMARK SMILES IDX 87 56 81 57 83 58 49 59 86 60 80 61 79 62 50 64 72 65 57 66
REMARK SMILES IDX 71 67 58 68 61 69 70 70 84 71 59 72 60 73 69 75 85 76 62 77
REMARK SMILES IDX 51 78 52 79 56 80 53 81 55 82 54 83 73 84 74 85 78 86 75 87
REMARK SMILES IDX 77 88 76 89 63 90 64 91 68 92 65 93 67 94 66 95
REMARK H PARENT 34 6 10 16 39 44 83 63 61 74
REMARK Flexibility Score: inf
ROOT
ATOM      1  C   UNL     1       9.378  -1.900  -0.270  1.00  0.00     0.023 C 
ENDROOT
BRANCH   1   2
ATOM      2  C   UNL     1       7.944  -1.681   0.203  1.00  0.00     0.116 C 
BRANCH   2   3
ATOM      3  N   UNL     1       7.631  -0.804   1.302  1.00  0.00    -0.352 N 
ATOM      4  C   UNL     1       6.458  -0.079   1.497  1.00  0.00     0.253 C 
ATOM      5  O   UNL     1       6.346   0.501   2.582  1.00  0.00    -0.269 OA
ATOM      6  H   UNL     1       8.325  -0.706   1.993  1.00  0.00     0.163 HD
BRANCH   4   7
ATOM      7  C   UNL     1       5.347   0.099   0.473  1.00  0.00     0.065 A 
ATOM      8  C   UNL     1       3.445   1.528  -0.150  1.00  0.00     0.042 A 
ATOM      9  C   UNL     1       3.184   0.747  -1.257  1.00  0.00     0.028 A 
ATOM     10  C   UNL     1       4.602   1.298   0.612  1.00  0.00     0.042 A 
ATOM     11  C   UNL     1       3.920  -0.415  -1.434  1.00  0.00     0.029 A 
ATOM     12  C   UNL     1       4.898  -0.833  -0.495  1.00  0.00     0.050 A 
BRANCH   8  13
ATOM     13  N   UNL     1       2.516   2.466   0.309  1.00  0.00    -0.322 N 
ATOM     14  C   UNL     1       1.132   2.427   0.330  1.00  0.00     0.255 C 
ATOM     15  O   UNL     1       0.549   3.491   0.562  1.00  0.00    -0.269 OA
ATOM     16  H   UNL     1       2.910   3.289   0.678  1.00  0.00     0.170 HD
BRANCH  14  17
ATOM     17  C   UNL     1       0.282   1.185   0.170  1.00  0.00     0.043 A 
ATOM     18  C   UNL     1       1.765  -0.546   1.407  1.00  0.00     0.045 C 
ATOM     19  C   UNL     1       0.565  -0.125   0.615  1.00  0.00    -0.038 A 
ATOM     20  C   UNL     1      -0.365  -1.164   0.371  1.00  0.00     0.004 A 
ATOM     21  C   UNL     1      -1.619  -0.904  -0.165  1.00  0.00     0.000 A 
ATOM     22  C   UNL     1      -1.011   1.422  -0.349  1.00  0.00     0.014 A 
ATOM     23  C   UNL     1      -1.957   0.399  -0.493  1.00  0.00     0.001 A 
ENDBRANCH  14  17
ENDBRANCH   8  13
BRANCH  12  24
ATOM     24  N   UNL     1       5.160  -2.208  -0.475  1.00  0.00    -0.371 N 
ATOM     25  C   UNL     1       5.627  -2.838  -1.702  1.00  0.00     0.118 C 
ATOM     26  C   UNL     1       4.902  -2.915   0.772  1.00  0.00     0.118 C 
ATOM     27  C   UNL     1       5.461  -4.332  -1.773  1.00  0.00     0.047 C 
ATOM     28  C   UNL     1       4.391  -4.314   0.517  1.00  0.00     0.047 C 
ATOM     29  C   UNL     1       5.251  -5.100  -0.464  1.00  0.00     0.094 C 
BRANCH  29  30
ATOM     30  N   UNL     1       4.731  -6.428  -0.828  1.00  0.00    -0.310 N 
ATOM     31  C   UNL     1       3.474  -6.989  -0.675  1.00  0.00     0.108 A 
ATOM     32  C   UNL     1       5.450  -7.286  -1.635  1.00  0.00     0.160 A 
ATOM     33  C   UNL     1       2.450  -6.609   0.332  1.00  0.00     0.088 C 
ATOM     34  N   UNL     1       3.307  -7.999  -1.513  1.00  0.00    -0.232 NA
ATOM     35  C   UNL     1       4.528  -8.216  -2.087  1.00  0.00     0.108 A 
ATOM     36  N   UNL     1       6.764  -7.222  -1.929  1.00  0.00    -0.237 NA
ATOM     37  C   UNL     1       4.980  -9.230  -2.938  1.00  0.00     0.034 A 
ATOM     38  C   UNL     1       7.170  -8.251  -2.713  1.00  0.00     0.113 A 
ATOM     39  C   UNL     1       6.348  -9.251  -3.230  1.00  0.00     0.022 A 
ENDBRANCH  29  30
ENDBRANCH  12  24
ENDBRANCH   4   7
ENDBRANCH   2   3
ENDBRANCH   1   2
BRANCH   1  40
ATOM     40  C   UNL     1      10.341  -2.702   0.596  1.00  0.00     0.023 C 
BRANCH  40  41
ATOM     41  C   UNL     1       9.872  -4.067   1.062  1.00  0.00     0.116 C 
BRANCH  41  42
ATOM     42  N   UNL     1       9.989  -5.193   0.159  1.00  0.00    -0.352 N 
ATOM     43  C   UNL     1       9.962  -6.556   0.456  1.00  0.00     0.251 C 
ATOM     44  H   UNL     1      10.103  -4.966  -0.792  1.00  0.00     0.163 HD
ATOM     45  O   UNL     1      10.256  -7.352  -0.414  1.00  0.00    -0.269 OA
BRANCH  43  46
ATOM     46  C   UNL     1       9.474  -7.069   1.781  1.00  0.00     0.039 A 
ATOM     47  C   UNL     1       9.356  -8.463   1.966  1.00  0.00     0.014 A 
ATOM     48  C   UNL     1       8.958  -6.233   2.762  1.00  0.00     0.014 A 
ATOM     49  C   UNL     1       8.571  -8.975   3.002  1.00  0.00     0.010 A 
ATOM     50  C   UNL     1       8.123  -6.715   3.721  1.00  0.00     0.010 A 
ATOM     51  C   UNL     1       7.873  -8.078   3.789  1.00  0.00    -0.014 A 
BRANCH  51  52
ATOM     52  C   UNL     1       6.847  -8.360   4.767  1.00  0.00     0.031 A 
ATOM     53  C   UNL     1       7.247  -8.389   6.177  1.00  0.00     0.074 A 
ATOM     54  C   UNL     1       5.603  -8.065   4.333  1.00  0.00     0.049 A 
ATOM     55  N   UNL     1       6.458  -8.656   7.152  1.00  0.00    -0.248 NA
ATOM     56  C   UNL     1       8.622  -8.118   6.599  1.00  0.00     0.031 C 
ATOM     57  C   UNL     1       4.428  -7.597   5.056  1.00  0.00     0.029 A 
ATOM     58  N   UNL     1       5.123  -8.328   3.054  1.00  0.00    -0.354 N 
ATOM     59  C   UNL     1       7.105  -8.257   8.301  1.00  0.00     0.074 A 
ATOM     60  C   UNL     1       8.484  -8.070   7.926  1.00  0.00     0.031 C 
ATOM     61  C   UNL     1       3.333  -7.867   4.316  1.00  0.00     0.029 A 
ATOM     62  C   UNL     1       3.782  -8.702   3.205  1.00  0.00     0.049 A 
ATOM     63  H   UNL     1       5.626  -8.263   2.210  1.00  0.00     0.167 HD
ATOM     64  C   UNL     1       6.353  -7.944   9.391  1.00  0.00     0.031 A 
ATOM     65  C   UNL     1       3.448 -10.026   3.059  1.00  0.00     0.031 A 
ATOM     66  C   UNL     1       4.936  -8.186   9.117  1.00  0.00     0.049 A 
ATOM     67  C   UNL     1       2.878 -10.594   4.326  1.00  0.00     0.074 A 
ATOM     68  C   UNL     1       3.904  -7.340   8.745  1.00  0.00     0.029 A 
ATOM     69  N   UNL     1       4.516  -9.478   8.825  1.00  0.00    -0.354 N 
ATOM     70  N   UNL     1       3.285 -10.264   5.520  1.00  0.00    -0.248 NA
ATOM     71  C   UNL     1       1.770 -11.539   4.331  1.00  0.00     0.031 C 
ATOM     72  C   UNL     1       2.886  -8.135   8.153  1.00  0.00     0.029 A 
ATOM     73  C   UNL     1       3.287  -9.461   8.196  1.00  0.00     0.049 A 
ATOM     74  H   UNL     1       5.025 -10.294   9.037  1.00  0.00     0.167 HD
ATOM     75  C   UNL     1       2.490 -10.887   6.441  1.00  0.00     0.074 A 
ATOM     76  C   UNL     1       1.566 -11.681   5.650  1.00  0.00     0.031 C 
ATOM     77  C   UNL     1       2.652 -10.706   7.782  1.00  0.00     0.031 A 
BRANCH  64  78
ATOM     78  C   UNL     1       6.840  -7.155  10.582  1.00  0.00    -0.014 A 
ATOM     79  C   UNL     1       5.892  -6.544  11.425  1.00  0.00     0.009 A 
ATOM     80  C   UNL     1       8.186  -6.935  10.919  1.00  0.00     0.009 A 
ATOM     81  C   UNL     1       6.263  -5.725  12.500  1.00  0.00     0.001 A 
ATOM     82  C   UNL     1       8.568  -6.101  11.980  1.00  0.00     0.001 A 
ATOM     83  C   UNL     1       7.604  -5.492  12.770  1.00  0.00     0.000 A 
ENDBRANCH  64  78
BRANCH  65  84
ATOM     84  C   UNL     1       4.403 -10.781   2.180  1.00  0.00    -0.014 A 
ATOM     85  C   UNL     1       4.596 -10.282   0.883  1.00  0.00     0.009 A 
ATOM     86  C   UNL     1       5.396 -11.613   2.724  1.00  0.00     0.009 A 
ATOM     87  C   UNL     1       5.848 -10.390   0.280  1.00  0.00     0.001 A 
ATOM     88  C   UNL     1       6.613 -11.799   2.052  1.00  0.00     0.001 A 
ATOM     89  C   UNL     1       6.862 -11.131   0.860  1.00  0.00     0.000 A 
ENDBRANCH  65  84
BRANCH  77  90
ATOM     90  C   UNL     1       2.195 -11.683   8.835  1.00  0.00    -0.014 A 
ATOM     91  C   UNL     1       1.732 -12.976   8.556  1.00  0.00     0.009 A 
ATOM     92  C   UNL     1       2.391 -11.367  10.197  1.00  0.00     0.009 A 
ATOM     93  C   UNL     1       1.435 -13.885   9.576  1.00  0.00     0.001 A 
ATOM     94  C   UNL     1       2.160 -12.293  11.216  1.00  0.00     0.001 A 
ATOM     95  C   UNL     1       1.665 -13.550  10.904  1.00  0.00     0.000 A 
ENDBRANCH  77  90
ENDBRANCH  51  52
ENDBRANCH  43  46
ENDBRANCH  41  42
ENDBRANCH  40  41
ENDBRANCH   1  40
TORSDOF 15
