REMARK SMILES [NH3+][C@@H](CCCCC(=O)NCCCCNC(=O)c1ccc(-c2c3nc(c(-c4ccccc4)c4ccc([nH]4)c(-c4ccccc4)c4nc(c(-c5ccccc5)c5ccc2[nH]5)C=C4)C=C3)cc1)c1ccc2[nH]c(=O)[nH]c2c1
REMARK SMILES IDX 10 1 9 2 7 3 8 4 6 6 5 7 4 8 3 9 2 10 1 11 65 15 66 16 74 17
REMARK SMILES IDX 67 18 73 19 68 20 72 21 69 22 70 23 71 26 11 27 12 28 13 29
REMARK SMILES IDX 14 30 15 31 16 33 17 34 18 35 64 36 19 37 63 38 20 39 21 40
REMARK SMILES IDX 22 41 57 42 23 43 62 44 56 45 58 46 24 47 61 48 55 49 54 50
REMARK SMILES IDX 25 52 47 53 32 54 46 55 33 56 36 57 45 58 59 59 34 60 35 61
REMARK SMILES IDX 44 63 60 64 37 65 26 66 27 67 31 68 28 69 30 70 29 71 48 72
REMARK SMILES IDX 49 73 53 74 50 75 52 76 51 77 38 78 39 79 43 80 40 81 42 82
REMARK SMILES IDX 41 83
REMARK H PARENT 9 5 1 12 1 13 1 14 72 24 69 25 14 32 58 51 36 62
REMARK Flexibility Score: inf
ROOT
ATOM      1  C   UNL     1       1.544   2.247   4.696  1.00  0.00     0.116 C 
ENDROOT
BRANCH   1   2
ATOM      2  N   UNL     1       0.385   2.906   5.245  1.00  0.00    -0.356 N 
ATOM      3  C   UNL     1      -0.917   2.782   4.867  1.00  0.00     0.219 C 
ATOM      4  O   UNL     1      -1.754   3.513   5.397  1.00  0.00    -0.275 OA
ATOM      5  H   UNL     1       0.557   3.527   5.990  1.00  0.00     0.163 HD
BRANCH   3   6
ATOM      6  C   UNL     1      -1.313   1.741   3.836  1.00  0.00     0.100 C 
BRANCH   6   7
ATOM      7  C   UNL     1      -1.161   2.194   2.382  1.00  0.00     0.010 C 
BRANCH   7   8
ATOM      8  C   UNL     1       0.095   1.802   1.577  1.00  0.00     0.007 C 
BRANCH   8   9
ATOM      9  C   UNL     1       0.657   0.372   1.709  1.00  0.00     0.070 C 
BRANCH   9  10
ATOM     10  C   UNL     1       0.302  -0.607   0.566  1.00  0.00     0.212 C 
BRANCH  10  11
ATOM     11  N   UNL     1       0.977  -0.249  -0.680  1.00  0.00    -0.351 N 
ATOM     12  H   UNL     1       1.984  -0.200  -0.520  1.00  0.00     0.345 HD
ATOM     13  H   UNL     1       0.640   0.659  -1.002  1.00  0.00     0.345 HD
ATOM     14  H   UNL     1       0.780  -0.955  -1.389  1.00  0.00     0.345 HD
ENDBRANCH  10  11
BRANCH  10  15
ATOM     15  C   UNL     1      -1.209  -0.712   0.459  1.00  0.00     0.011 A 
ATOM     16  C   UNL     1      -1.957   0.128  -0.414  1.00  0.00     0.012 A 
ATOM     17  C   UNL     1      -1.878  -1.510   1.408  1.00  0.00     0.038 A 
ATOM     18  C   UNL     1      -3.344   0.264  -0.291  1.00  0.00     0.029 A 
ATOM     19  C   UNL     1      -3.237  -1.350   1.512  1.00  0.00     0.067 A 
ATOM     20  C   UNL     1      -3.947  -0.469   0.701  1.00  0.00     0.066 A 
ATOM     21  N   UNL     1      -4.122  -1.904   2.427  1.00  0.00    -0.306 N 
ATOM     22  N   UNL     1      -5.268  -0.466   1.131  1.00  0.00    -0.306 N 
ATOM     23  C   UNL     1      -5.393  -1.352   2.211  1.00  0.00     0.323 A 
ATOM     24  H   UNL     1      -3.896  -2.573   3.113  1.00  0.00     0.171 HD
ATOM     25  H   UNL     1      -5.996   0.070   0.742  1.00  0.00     0.171 HD
ATOM     26  O   UNL     1      -6.402  -1.585   2.848  1.00  0.00    -0.248 OA
ENDBRANCH  10  15
ENDBRANCH   9  10
ENDBRANCH   8   9
ENDBRANCH   7   8
ENDBRANCH   6   7
ENDBRANCH   3   6
ENDBRANCH   1   2
BRANCH   1  27
ATOM     27  C   UNL     1       2.285   3.174   3.735  1.00  0.00     0.023 C 
BRANCH  27  28
ATOM     28  C   UNL     1       3.266   4.130   4.386  1.00  0.00     0.023 C 
BRANCH  28  29
ATOM     29  C   UNL     1       4.361   3.443   5.172  1.00  0.00     0.116 C 
BRANCH  29  30
ATOM     30  N   UNL     1       5.160   2.509   4.389  1.00  0.00    -0.352 N 
ATOM     31  C   UNL     1       6.499   2.232   4.546  1.00  0.00     0.251 C 
ATOM     32  H   UNL     1       4.693   2.025   3.671  1.00  0.00     0.163 HD
ATOM     33  O   UNL     1       7.095   1.502   3.763  1.00  0.00    -0.269 OA
BRANCH  31  34
ATOM     34  C   UNL     1       7.206   2.882   5.666  1.00  0.00     0.039 A 
ATOM     35  C   UNL     1       8.374   3.601   5.413  1.00  0.00     0.014 A 
ATOM     36  C   UNL     1       6.630   2.876   6.938  1.00  0.00     0.014 A 
ATOM     37  C   UNL     1       8.938   4.357   6.439  1.00  0.00     0.010 A 
ATOM     38  C   UNL     1       7.113   3.735   7.910  1.00  0.00     0.010 A 
ATOM     39  C   UNL     1       8.297   4.451   7.687  1.00  0.00    -0.014 A 
BRANCH  39  40
ATOM     40  C   UNL     1       8.888   5.228   8.801  1.00  0.00     0.031 A 
ATOM     41  C   UNL     1       9.275   4.517  10.072  1.00  0.00     0.074 A 
ATOM     42  C   UNL     1       9.045   6.561   8.689  1.00  0.00     0.049 A 
ATOM     43  N   UNL     1       9.811   5.004  11.162  1.00  0.00    -0.248 NA
ATOM     44  C   UNL     1       8.987   3.073  10.146  1.00  0.00     0.031 C 
ATOM     45  C   UNL     1       8.653   7.372   7.533  1.00  0.00     0.029 A 
ATOM     46  N   UNL     1       9.589   7.468   9.561  1.00  0.00    -0.354 N 
ATOM     47  C   UNL     1       9.896   3.936  12.046  1.00  0.00     0.074 A 
ATOM     48  C   UNL     1       9.286   2.797  11.404  1.00  0.00     0.031 C 
ATOM     49  C   UNL     1       9.024   8.646   7.745  1.00  0.00     0.029 A 
ATOM     50  C   UNL     1       9.644   8.747   9.062  1.00  0.00     0.049 A 
ATOM     51  H   UNL     1       9.911   7.226  10.460  1.00  0.00     0.167 HD
ATOM     52  C   UNL     1      10.465   3.893  13.273  1.00  0.00     0.031 A 
ATOM     53  C   UNL     1      10.154   9.869   9.604  1.00  0.00     0.031 A 
ATOM     54  C   UNL     1      11.100   5.019  13.896  1.00  0.00     0.049 A 
ATOM     55  C   UNL     1      10.798   9.793  10.962  1.00  0.00     0.074 A 
ATOM     56  C   UNL     1      11.769   5.072  15.105  1.00  0.00     0.029 A 
ATOM     57  N   UNL     1      11.144   6.293  13.352  1.00  0.00    -0.354 N 
ATOM     58  N   UNL     1      10.949   8.756  11.751  1.00  0.00    -0.248 NA
ATOM     59  C   UNL     1      11.361  11.042  11.492  1.00  0.00     0.031 C 
ATOM     60  C   UNL     1      12.172   6.395  15.318  1.00  0.00     0.029 A 
ATOM     61  C   UNL     1      11.812   7.148  14.211  1.00  0.00     0.049 A 
ATOM     62  H   UNL     1      10.758   6.552  12.484  1.00  0.00     0.167 HD
ATOM     63  C   UNL     1      11.659   9.219  12.852  1.00  0.00     0.074 A 
ATOM     64  C   UNL     1      11.920  10.624  12.619  1.00  0.00     0.031 C 
ATOM     65  C   UNL     1      12.063   8.542  13.955  1.00  0.00     0.031 A 
BRANCH  52  66
ATOM     66  C   UNL     1      10.420   2.582  14.009  1.00  0.00    -0.014 A 
ATOM     67  C   UNL     1      11.137   1.461  13.557  1.00  0.00     0.009 A 
ATOM     68  C   UNL     1       9.652   2.466  15.178  1.00  0.00     0.009 A 
ATOM     69  C   UNL     1      11.049   0.242  14.232  1.00  0.00     0.001 A 
ATOM     70  C   UNL     1       9.594   1.256  15.871  1.00  0.00     0.001 A 
ATOM     71  C   UNL     1      10.282   0.142  15.391  1.00  0.00     0.000 A 
ENDBRANCH  52  66
BRANCH  53  72
ATOM     72  C   UNL     1      10.127  11.149   8.846  1.00  0.00    -0.014 A 
ATOM     73  C   UNL     1      11.316  11.713   8.357  1.00  0.00     0.009 A 
ATOM     74  C   UNL     1       8.917  11.823   8.620  1.00  0.00     0.009 A 
ATOM     75  C   UNL     1      11.300  12.940   7.691  1.00  0.00     0.001 A 
ATOM     76  C   UNL     1       8.899  13.035   7.925  1.00  0.00     0.001 A 
ATOM     77  C   UNL     1      10.091  13.598   7.472  1.00  0.00     0.000 A 
ENDBRANCH  53  72
BRANCH  65  78
ATOM     78  C   UNL     1      12.876   9.302  14.966  1.00  0.00    -0.014 A 
ATOM     79  C   UNL     1      12.306  10.306  15.764  1.00  0.00     0.009 A 
ATOM     80  C   UNL     1      14.232   8.981  15.139  1.00  0.00     0.009 A 
ATOM     81  C   UNL     1      13.091  11.005  16.683  1.00  0.00     0.001 A 
ATOM     82  C   UNL     1      15.005   9.656  16.084  1.00  0.00     0.001 A 
ATOM     83  C   UNL     1      14.437  10.677  16.845  1.00  0.00     0.000 A 
ENDBRANCH  65  78
ENDBRANCH  39  40
ENDBRANCH  31  34
ENDBRANCH  29  30
ENDBRANCH  28  29
ENDBRANCH  27  28
ENDBRANCH   1  27
TORSDOF 17
