REMARK SMILES COc1ccc2cc([C@H](C)C(=O)NCCCCNC(=O)c3ccc(-c4c5nc(c(-c6ccccc6)c6ccc([nH]6)c(-c6ccccc6)c6nc(c(-c7ccccc7)c7ccc4[nH]7)C=C6)C=C5)cc3)ccc2c1
REMARK SMILES IDX 15 1 14 2 13 3 11 4 12 5 9 7 10 8 8 9 3 10 4 11 72 12 5 13
REMARK SMILES IDX 71 14 6 15 70 16 7 17 69 18 2 19 1 20 16 21 17 22 18 23
REMARK SMILES IDX 19 24 20 26 21 27 22 28 68 29 23 30 67 31 24 32 25 33 26 34
REMARK SMILES IDX 61 35 27 36 66 37 60 38 62 39 28 40 65 41 59 42 58 43 29 45
REMARK SMILES IDX 51 46 36 47 50 48 37 49 40 50 49 51 63 52 38 53 39 54 48 56
REMARK SMILES IDX 64 57 41 58 30 59 31 60 35 61 32 62 34 63 33 64 52 65 53 66
REMARK SMILES IDX 57 67 54 68 56 69 55 70 42 71 43 72 47 73 44 74 46 75 45 76
REMARK H PARENT 13 6 18 25 62 44 40 55
REMARK Flexibility Score: inf
ROOT
ATOM      1  C   UNL     1       4.139   2.325   5.726  1.00  0.00     0.023 C 
ENDROOT
BRANCH   1   2
ATOM      2  C   UNL     1       3.821   1.857   7.140  1.00  0.00     0.116 C 
BRANCH   2   3
ATOM      3  N   UNL     1       3.295   2.926   7.967  1.00  0.00    -0.356 N 
ATOM      4  C   UNL     1       2.178   2.949   8.753  1.00  0.00     0.227 C 
ATOM      5  O   UNL     1       1.978   3.961   9.433  1.00  0.00    -0.274 OA
ATOM      6  H   UNL     1       3.821   3.758   7.961  1.00  0.00     0.163 HD
BRANCH   4   7
ATOM      7  C   UNL     1       1.196   1.763   8.800  1.00  0.00     0.105 C 
ATOM      8  C   UNL     1       0.437   1.676   7.472  1.00  0.00     0.023 C 
BRANCH   7   9
ATOM      9  C   UNL     1       1.888   0.505   9.317  1.00  0.00    -0.035 A 
ATOM     10  C   UNL     1       5.452  -2.249  11.642  1.00  0.00     0.119 A 
ATOM     11  C   UNL     1       5.172  -1.189  12.500  1.00  0.00     0.047 A 
ATOM     12  C   UNL     1       4.721  -2.404  10.463  1.00  0.00     0.055 A 
ATOM     13  C   UNL     1       4.171  -0.273  12.168  1.00  0.00     0.012 A 
ATOM     14  C   UNL     1       3.703  -1.500  10.123  1.00  0.00    -0.015 A 
ATOM     15  C   UNL     1       3.451  -0.402  10.971  1.00  0.00    -0.018 A 
ATOM     16  C   UNL     1       2.954  -1.642   8.946  1.00  0.00     0.009 A 
ATOM     17  C   UNL     1       2.534   0.578  10.565  1.00  0.00     0.013 A 
ATOM     18  C   UNL     1       2.038  -0.661   8.558  1.00  0.00     0.005 A 
BRANCH  10  19
ATOM     19  O   UNL     1       6.476  -3.137  11.827  1.00  0.00    -0.497 OA
ATOM     20  C   UNL     1       6.616  -3.598  13.166  1.00  0.00     0.278 C 
ENDBRANCH  10  19
ENDBRANCH   7   9
ENDBRANCH   4   7
ENDBRANCH   2   3
ENDBRANCH   1   2
BRANCH   1  21
ATOM     21  C   UNL     1       5.362   3.229   5.620  1.00  0.00     0.023 C 
BRANCH  21  22
ATOM     22  C   UNL     1       6.654   2.632   6.167  1.00  0.00     0.116 C 
BRANCH  22  23
ATOM     23  N   UNL     1       7.025   1.377   5.528  1.00  0.00    -0.352 N 
ATOM     24  C   UNL     1       8.237   1.002   4.999  1.00  0.00     0.251 C 
ATOM     25  H   UNL     1       6.309   0.704   5.466  1.00  0.00     0.163 HD
ATOM     26  O   UNL     1       8.351  -0.051   4.380  1.00  0.00    -0.269 OA
BRANCH  24  27
ATOM     27  C   UNL     1       9.399   1.901   5.152  1.00  0.00     0.039 A 
ATOM     28  C   UNL     1      10.163   2.218   4.027  1.00  0.00     0.014 A 
ATOM     29  C   UNL     1       9.697   2.466   6.394  1.00  0.00     0.014 A 
ATOM     30  C   UNL     1      11.180   3.168   4.133  1.00  0.00     0.010 A 
ATOM     31  C   UNL     1      10.653   3.471   6.479  1.00  0.00     0.010 A 
ATOM     32  C   UNL     1      11.403   3.833   5.350  1.00  0.00    -0.014 A 
BRANCH  32  33
ATOM     33  C   UNL     1      12.416   4.910   5.467  1.00  0.00     0.031 A 
ATOM     34  C   UNL     1      13.600   4.736   6.377  1.00  0.00     0.074 A 
ATOM     35  C   UNL     1      12.238   6.071   4.807  1.00  0.00     0.049 A 
ATOM     36  N   UNL     1      14.560   5.582   6.653  1.00  0.00    -0.248 NA
ATOM     37  C   UNL     1      13.701   3.454   7.090  1.00  0.00     0.031 C 
ATOM     38  C   UNL     1      11.114   6.381   3.921  1.00  0.00     0.029 A 
ATOM     39  N   UNL     1      13.003   7.209   4.784  1.00  0.00    -0.354 N 
ATOM     40  C   UNL     1      15.368   4.939   7.583  1.00  0.00     0.074 A 
ATOM     41  C   UNL     1      14.753   3.662   7.867  1.00  0.00     0.031 C 
ATOM     42  C   UNL     1      11.285   7.611   3.409  1.00  0.00     0.029 A 
ATOM     43  C   UNL     1      12.504   8.191   3.963  1.00  0.00     0.049 A 
ATOM     44  H   UNL     1      13.832   7.313   5.306  1.00  0.00     0.167 HD
ATOM     45  C   UNL     1      16.530   5.362   8.135  1.00  0.00     0.031 A 
ATOM     46  C   UNL     1      12.977   9.420   3.685  1.00  0.00     0.031 A 
ATOM     47  C   UNL     1      17.144   6.632   7.852  1.00  0.00     0.049 A 
ATOM     48  C   UNL     1      14.251   9.882   4.334  1.00  0.00     0.074 A 
ATOM     49  C   UNL     1      18.345   7.134   8.322  1.00  0.00     0.029 A 
ATOM     50  N   UNL     1      16.598   7.603   7.027  1.00  0.00    -0.354 N 
ATOM     51  N   UNL     1      15.036   9.240   5.164  1.00  0.00    -0.248 NA
ATOM     52  C   UNL     1      14.706  11.239   4.000  1.00  0.00     0.031 C 
ATOM     53  C   UNL     1      18.502   8.431   7.819  1.00  0.00     0.029 A 
ATOM     54  C   UNL     1      17.425   8.713   6.993  1.00  0.00     0.049 A 
ATOM     55  H   UNL     1      15.748   7.517   6.538  1.00  0.00     0.167 HD
ATOM     56  C   UNL     1      16.093  10.101   5.428  1.00  0.00     0.074 A 
ATOM     57  C   UNL     1      15.852  11.307   4.662  1.00  0.00     0.031 C 
ATOM     58  C   UNL     1      17.169   9.908   6.230  1.00  0.00     0.031 A 
BRANCH  45  59
ATOM     59  C   UNL     1      17.198   4.434   9.112  1.00  0.00    -0.014 A 
ATOM     60  C   UNL     1      17.767   3.220   8.691  1.00  0.00     0.009 A 
ATOM     61  C   UNL     1      17.255   4.773  10.472  1.00  0.00     0.009 A 
ATOM     62  C   UNL     1      18.330   2.342   9.618  1.00  0.00     0.001 A 
ATOM     63  C   UNL     1      17.849   3.908  11.393  1.00  0.00     0.001 A 
ATOM     64  C   UNL     1      18.373   2.687  10.968  1.00  0.00     0.000 A 
ENDBRANCH  45  59
BRANCH  46  65
ATOM     65  C   UNL     1      12.260  10.288   2.715  1.00  0.00    -0.014 A 
ATOM     66  C   UNL     1      12.805  10.521   1.443  1.00  0.00     0.009 A 
ATOM     67  C   UNL     1      11.031  10.877   3.047  1.00  0.00     0.009 A 
ATOM     68  C   UNL     1      12.142  11.342   0.528  1.00  0.00     0.001 A 
ATOM     69  C   UNL     1      10.358  11.677   2.120  1.00  0.00     0.001 A 
ATOM     70  C   UNL     1      10.917  11.915   0.866  1.00  0.00     0.000 A 
ENDBRANCH  46  65
BRANCH  58  71
ATOM     71  C   UNL     1      18.184  11.014   6.293  1.00  0.00    -0.014 A 
ATOM     72  C   UNL     1      17.918  12.213   6.972  1.00  0.00     0.009 A 
ATOM     73  C   UNL     1      19.441  10.836   5.694  1.00  0.00     0.009 A 
ATOM     74  C   UNL     1      18.880  13.224   7.022  1.00  0.00     0.001 A 
ATOM     75  C   UNL     1      20.411  11.837   5.769  1.00  0.00     0.001 A 
ATOM     76  C   UNL     1      20.126  13.033   6.425  1.00  0.00     0.000 A 
ENDBRANCH  58  71
ENDBRANCH  32  33
ENDBRANCH  24  27
ENDBRANCH  22  23
ENDBRANCH  21  22
ENDBRANCH   1  21
TORSDOF 13
