REMARK SMILES CCOC(=O)c1c(NC(=O)[C@H]2[C@@H]3CC[C@@H](C3)[C@@H]2C(=O)NCCCCNC(=O)c2ccc(-c3c4nc(c(-c5ccccc5)c5ccc([nH]5)c(-c5ccccc5)c5nc(c(-c6ccccc6)c6ccc3[nH]6)C=C5)C=C4)cc2)sc2c1CCCC2
REMARK SMILES IDX 21 1 20 2 18 3 19 4 17 6 11 7 12 8 13 9 16 10 15 11 14 12
REMARK SMILES IDX 9 13 8 14 10 16 7 17 6 18 78 19 76 20 77 21 79 22 82 23
REMARK SMILES IDX 80 24 81 25 4 26 5 27 3 28 2 29 1 30 22 31 23 32 24 33 25 34
REMARK SMILES IDX 26 35 27 37 28 38 29 39 75 40 30 41 74 42 31 43 32 44 33 45
REMARK SMILES IDX 68 46 34 47 73 48 67 49 69 50 35 51 72 52 66 53 65 54 36 56
REMARK SMILES IDX 58 57 43 58 57 59 44 60 47 61 56 62 70 63 45 64 46 65 55 67
REMARK SMILES IDX 71 68 48 69 37 70 38 71 42 72 39 73 41 74 40 75 59 76 60 77
REMARK SMILES IDX 64 78 61 79 63 80 62 81 49 82 50 83 54 84 51 85 53 86 52 87
REMARK H PARENT 20 5 8 15 25 36 69 55 47 66
REMARK Flexibility Score: inf
ROOT
ATOM      1  C   UNL     1       1.589  -4.299  -0.038  1.00  0.00     0.116 C 
ENDROOT
BRANCH   1   2
ATOM      2  N   UNL     1       1.447  -3.098   0.811  1.00  0.00    -0.356 N 
ATOM      3  C   UNL     1       1.857  -1.773   0.602  1.00  0.00     0.224 C 
ATOM      4  O   UNL     1       1.496  -0.915   1.408  1.00  0.00    -0.275 OA
ATOM      5  H   UNL     1       0.988  -3.254   1.668  1.00  0.00     0.163 HD
BRANCH   3   6
ATOM      6  C   UNL     1       2.822  -1.431  -0.552  1.00  0.00     0.094 C 
ATOM      7  C   UNL     1       4.242  -1.408  -0.048  1.00  0.00     0.094 C 
ATOM      8  C   UNL     1       4.825  -0.079  -0.598  1.00  0.00     0.002 C 
ATOM      9  C   UNL     1       4.060   1.158  -0.049  1.00  0.00     0.005 C 
ATOM     10  C   UNL     1       4.298  -0.137  -2.021  1.00  0.00     0.009 C 
ATOM     11  C   UNL     1       2.829  -0.196  -1.530  1.00  0.00     0.002 C 
ATOM     12  C   UNL     1       2.758   1.153  -0.845  1.00  0.00     0.005 C 
BRANCH   7  13
ATOM     13  C   UNL     1       5.028  -2.598  -0.571  1.00  0.00     0.229 C 
ATOM     14  N   UNL     1       4.742  -3.424  -1.615  1.00  0.00    -0.317 N 
ATOM     15  H   UNL     1       5.531  -3.995  -1.761  1.00  0.00     0.170 HD
ATOM     16  O   UNL     1       6.101  -2.850   0.004  1.00  0.00    -0.274 OA
BRANCH  14  17
ATOM     17  C   UNL     1       3.781  -3.792  -2.567  1.00  0.00     0.110 A 
ATOM     18  C   UNL     1       2.545  -3.514  -3.197  1.00  0.00     0.098 A 
ATOM     19  C   UNL     1       2.146  -4.633  -4.042  1.00  0.00    -0.017 A 
ATOM     20  S   UNL     1       4.422  -5.304  -3.147  1.00  0.00    -0.122 S 
ATOM     21  C   UNL     1       3.050  -5.663  -4.039  1.00  0.00     0.011 A 
ATOM     22  C   UNL     1       0.888  -4.697  -4.869  1.00  0.00     0.038 C 
ATOM     23  C   UNL     1       2.878  -6.976  -4.730  1.00  0.00     0.047 C 
ATOM     24  C   UNL     1       0.527  -6.139  -5.229  1.00  0.00     0.005 C 
ATOM     25  C   UNL     1       1.747  -6.899  -5.763  1.00  0.00     0.006 C 
BRANCH  18  26
ATOM     26  C   UNL     1       1.596  -2.364  -3.223  1.00  0.00     0.341 C 
ATOM     27  O   UNL     1       1.495  -1.645  -4.196  1.00  0.00    -0.246 OA
BRANCH  26  28
ATOM     28  O   UNL     1       0.688  -2.349  -2.176  1.00  0.00    -0.462 OA
BRANCH  28  29
ATOM     29  C   UNL     1      -0.437  -1.433  -2.240  1.00  0.00     0.230 C 
ATOM     30  C   UNL     1      -0.664  -0.677  -0.932  1.00  0.00     0.049 C 
ENDBRANCH  28  29
ENDBRANCH  26  28
ENDBRANCH  18  26
ENDBRANCH  14  17
ENDBRANCH   7  13
ENDBRANCH   3   6
ENDBRANCH   1   2
BRANCH   1  31
ATOM     31  C   UNL     1       1.487  -5.697   0.609  1.00  0.00     0.023 C 
BRANCH  31  32
ATOM     32  C   UNL     1       0.165  -6.478   0.443  1.00  0.00     0.023 C 
BRANCH  32  33
ATOM     33  C   UNL     1      -0.279  -6.930  -0.964  1.00  0.00     0.116 C 
BRANCH  33  34
ATOM     34  N   UNL     1       0.529  -7.978  -1.585  1.00  0.00    -0.352 N 
ATOM     35  C   UNL     1       0.186  -9.201  -2.135  1.00  0.00     0.251 C 
ATOM     36  H   UNL     1       1.492  -7.777  -1.618  1.00  0.00     0.163 HD
ATOM     37  O   UNL     1       1.064  -9.887  -2.655  1.00  0.00    -0.269 OA
BRANCH  35  38
ATOM     38  C   UNL     1      -1.197  -9.746  -2.073  1.00  0.00     0.039 A 
ATOM     39  C   UNL     1      -1.374 -11.082  -1.684  1.00  0.00     0.014 A 
ATOM     40  C   UNL     1      -2.319  -8.986  -2.406  1.00  0.00     0.014 A 
ATOM     41  C   UNL     1      -2.662 -11.604  -1.494  1.00  0.00     0.010 A 
ATOM     42  C   UNL     1      -3.605  -9.489  -2.164  1.00  0.00     0.010 A 
ATOM     43  C   UNL     1      -3.791 -10.788  -1.663  1.00  0.00    -0.014 A 
BRANCH  43  44
ATOM     44  C   UNL     1      -5.146 -11.235  -1.224  1.00  0.00     0.031 A 
ATOM     45  C   UNL     1      -6.279 -11.392  -2.202  1.00  0.00     0.074 A 
ATOM     46  C   UNL     1      -5.386 -11.413   0.093  1.00  0.00     0.049 A 
ATOM     47  N   UNL     1      -7.537 -11.680  -1.970  1.00  0.00    -0.248 NA
ATOM     48  C   UNL     1      -5.965 -11.177  -3.622  1.00  0.00     0.031 C 
ATOM     49  C   UNL     1      -4.397 -11.257   1.163  1.00  0.00     0.029 A 
ATOM     50  N   UNL     1      -6.541 -11.748   0.760  1.00  0.00    -0.354 N 
ATOM     51  C   UNL     1      -8.167 -11.666  -3.209  1.00  0.00     0.074 A 
ATOM     52  C   UNL     1      -7.159 -11.304  -4.184  1.00  0.00     0.031 C 
ATOM     53  C   UNL     1      -4.980 -11.515   2.344  1.00  0.00     0.029 A 
ATOM     54  C   UNL     1      -6.391 -11.812   2.126  1.00  0.00     0.049 A 
ATOM     55  H   UNL     1      -7.394 -11.926   0.303  1.00  0.00     0.167 HD
ATOM     56  C   UNL     1      -9.460 -11.940  -3.511  1.00  0.00     0.031 A 
ATOM     57  C   UNL     1      -7.286 -12.068   3.100  1.00  0.00     0.031 A 
ATOM     58  C   UNL     1     -10.469 -12.305  -2.550  1.00  0.00     0.049 A 
ATOM     59  C   UNL     1      -8.716 -12.353   2.739  1.00  0.00     0.074 A 
ATOM     60  C   UNL     1     -11.792 -12.648  -2.776  1.00  0.00     0.029 A 
ATOM     61  N   UNL     1     -10.270 -12.371  -1.180  1.00  0.00    -0.354 N 
ATOM     62  N   UNL     1      -9.276 -12.395   1.555  1.00  0.00    -0.248 NA
ATOM     63  C   UNL     1      -9.637 -12.635   3.851  1.00  0.00     0.031 C 
ATOM     64  C   UNL     1     -12.405 -12.879  -1.539  1.00  0.00     0.029 A 
ATOM     65  C   UNL     1     -11.450 -12.729  -0.547  1.00  0.00     0.049 A 
ATOM     66  H   UNL     1      -9.416 -12.191  -0.724  1.00  0.00     0.167 HD
ATOM     67  C   UNL     1     -10.604 -12.736   1.777  1.00  0.00     0.074 A 
ATOM     68  C   UNL     1     -10.764 -12.903   3.207  1.00  0.00     0.031 C 
ATOM     69  C   UNL     1     -11.601 -12.895   0.874  1.00  0.00     0.031 A 
BRANCH  56  70
ATOM     70  C   UNL     1      -9.867 -11.848  -4.957  1.00  0.00    -0.014 A 
ATOM     71  C   UNL     1      -9.441 -12.805  -5.892  1.00  0.00     0.009 A 
ATOM     72  C   UNL     1     -10.725 -10.821  -5.381  1.00  0.00     0.009 A 
ATOM     73  C   UNL     1      -9.835 -12.713  -7.229  1.00  0.00     0.001 A 
ATOM     74  C   UNL     1     -11.139 -10.747  -6.713  1.00  0.00     0.001 A 
ATOM     75  C   UNL     1     -10.686 -11.687  -7.637  1.00  0.00     0.000 A 
ENDBRANCH  56  70
BRANCH  57  76
ATOM     76  C   UNL     1      -6.856 -12.078   4.524  1.00  0.00    -0.014 A 
ATOM     77  C   UNL     1      -6.789 -13.286   5.237  1.00  0.00     0.009 A 
ATOM     78  C   UNL     1      -6.529 -10.883   5.183  1.00  0.00     0.009 A 
ATOM     79  C   UNL     1      -6.430 -13.293   6.586  1.00  0.00     0.001 A 
ATOM     80  C   UNL     1      -6.143 -10.897   6.525  1.00  0.00     0.001 A 
ATOM     81  C   UNL     1      -6.103 -12.100   7.228  1.00  0.00     0.000 A 
ENDBRANCH  57  76
BRANCH  69  82
ATOM     82  C   UNL     1     -12.947 -13.307   1.401  1.00  0.00    -0.014 A 
ATOM     83  C   UNL     1     -13.763 -12.405   2.102  1.00  0.00     0.009 A 
ATOM     84  C   UNL     1     -13.419 -14.607   1.161  1.00  0.00     0.009 A 
ATOM     85  C   UNL     1     -15.013 -12.808   2.579  1.00  0.00     0.001 A 
ATOM     86  C   UNL     1     -14.680 -14.998   1.615  1.00  0.00     0.001 A 
ATOM     87  C   UNL     1     -15.472 -14.102   2.331  1.00  0.00     0.000 A 
ENDBRANCH  69  82
ENDBRANCH  43  44
ENDBRANCH  35  38
ENDBRANCH  33  34
ENDBRANCH  32  33
ENDBRANCH  31  32
ENDBRANCH   1  31
TORSDOF 16
