REMARK SMILES COc1ccccc1CC(=O)NC[C@H]1CC[C@H](C(=O)NCCCCNC(=O)c2ccc(-c3c4nc(c(-c5ccccc5)c5ccc([nH]5)c(-c5ccccc5)c5nc(c(-c6ccccc6)c6ccc3[nH]6)C=C5)C=C4)cc2)O1
REMARK SMILES IDX 21 1 20 2 18 3 19 4 17 6 14 7 15 8 76 9 16 10 13 11 12 12
REMARK SMILES IDX 10 13 11 14 9 16 8 17 3 18 4 19 5 20 7 21 6 22 2 23 1 24
REMARK SMILES IDX 22 25 23 26 24 27 25 28 26 29 27 31 28 32 29 33 75 34 30 35
REMARK SMILES IDX 74 36 31 37 32 38 33 39 68 40 34 41 73 42 67 43 69 44 35 45
REMARK SMILES IDX 72 46 66 47 65 48 36 50 58 51 43 52 57 53 44 54 47 55 56 56
REMARK SMILES IDX 70 57 45 58 46 59 55 61 71 62 48 63 37 64 38 65 42 66 39 67
REMARK SMILES IDX 41 68 40 69 59 70 60 71 64 72 61 73 63 74 62 75 49 76 50 77
REMARK SMILES IDX 54 78 51 79 53 80 52 81
REMARK H PARENT 20 5 12 15 25 30 69 49 47 60
REMARK Flexibility Score: inf
ROOT
ATOM      1  C   UNL     1       4.751   1.742  -3.276  1.00  0.00     0.116 C 
ENDROOT
BRANCH   1   2
ATOM      2  N   UNL     1       4.345   3.025  -3.803  1.00  0.00    -0.354 N 
ATOM      3  C   UNL     1       3.365   3.322  -4.705  1.00  0.00     0.249 C 
ATOM      4  O   UNL     1       3.219   4.511  -5.007  1.00  0.00    -0.272 OA
ATOM      5  H   UNL     1       4.849   3.798  -3.461  1.00  0.00     0.163 HD
BRANCH   3   6
ATOM      6  C   UNL     1       2.524   2.222  -5.396  1.00  0.00     0.207 C 
ATOM      7  C   UNL     1       2.418  -0.117  -5.194  1.00  0.00     0.138 C 
ATOM      8  C   UNL     1       3.346   0.175  -6.357  1.00  0.00     0.037 C 
ATOM      9  O   UNL     1       2.096   1.136  -4.582  1.00  0.00    -0.363 OA
ATOM     10  C   UNL     1       3.212   1.652  -6.623  1.00  0.00     0.045 C 
BRANCH   7  11
ATOM     11  C   UNL     1       1.139  -0.882  -5.577  1.00  0.00     0.147 C 
BRANCH  11  12
ATOM     12  N   UNL     1       0.679  -1.707  -4.461  1.00  0.00    -0.353 N 
ATOM     13  C   UNL     1      -0.399  -1.551  -3.643  1.00  0.00     0.224 C 
ATOM     14  O   UNL     1      -0.512  -2.309  -2.676  1.00  0.00    -0.275 OA
ATOM     15  H   UNL     1       1.234  -2.498  -4.271  1.00  0.00     0.163 HD
BRANCH  13  16
ATOM     16  C   UNL     1      -1.450  -0.508  -3.955  1.00  0.00     0.139 C 
BRANCH  16  17
ATOM     17  C   UNL     1      -1.080   0.890  -3.530  1.00  0.00     0.003 A 
ATOM     18  C   UNL     1      -1.084   1.965  -4.429  1.00  0.00     0.122 A 
ATOM     19  C   UNL     1      -0.670   3.238  -4.026  1.00  0.00     0.047 A 
ATOM     20  C   UNL     1      -0.278   3.460  -2.708  1.00  0.00     0.004 A 
ATOM     21  C   UNL     1      -0.715   1.139  -2.195  1.00  0.00     0.008 A 
ATOM     22  C   UNL     1      -0.309   2.413  -1.790  1.00  0.00     0.001 A 
BRANCH  18  23
ATOM     23  O   UNL     1      -1.355   1.784  -5.761  1.00  0.00    -0.496 OA
ATOM     24  C   UNL     1      -2.759   1.862  -6.009  1.00  0.00     0.278 C 
ENDBRANCH  18  23
ENDBRANCH  16  17
ENDBRANCH  13  16
ENDBRANCH  11  12
ENDBRANCH   7  11
ENDBRANCH   3   6
ENDBRANCH   1   2
BRANCH   1  25
ATOM     25  C   UNL     1       5.943   1.174  -4.043  1.00  0.00     0.023 C 
BRANCH  25  26
ATOM     26  C   UNL     1       7.303   1.614  -3.501  1.00  0.00     0.023 C 
BRANCH  26  27
ATOM     27  C   UNL     1       7.574   1.213  -2.056  1.00  0.00     0.116 C 
BRANCH  27  28
ATOM     28  N   UNL     1       7.461  -0.216  -1.810  1.00  0.00    -0.352 N 
ATOM     29  C   UNL     1       8.101  -0.961  -0.847  1.00  0.00     0.251 C 
ATOM     30  H   UNL     1       6.852  -0.710  -2.406  1.00  0.00     0.163 HD
ATOM     31  O   UNL     1       7.987  -2.178  -0.817  1.00  0.00    -0.269 OA
BRANCH  29  32
ATOM     32  C   UNL     1       8.969  -0.266   0.124  1.00  0.00     0.039 A 
ATOM     33  C   UNL     1      10.272  -0.729   0.316  1.00  0.00     0.014 A 
ATOM     34  C   UNL     1       8.511   0.866   0.802  1.00  0.00     0.014 A 
ATOM     35  C   UNL     1      11.137  -0.018   1.148  1.00  0.00     0.010 A 
ATOM     36  C   UNL     1       9.396   1.617   1.564  1.00  0.00     0.010 A 
ATOM     37  C   UNL     1      10.714   1.176   1.755  1.00  0.00    -0.014 A 
BRANCH  37  38
ATOM     38  C   UNL     1      11.623   1.959   2.625  1.00  0.00     0.031 A 
ATOM     39  C   UNL     1      11.303   2.121   4.085  1.00  0.00     0.074 A 
ATOM     40  C   UNL     1      12.698   2.571   2.094  1.00  0.00     0.049 A 
ATOM     41  N   UNL     1      11.947   2.798   5.002  1.00  0.00    -0.248 NA
ATOM     42  C   UNL     1      10.081   1.461   4.574  1.00  0.00     0.031 C 
ATOM     43  C   UNL     1      13.088   2.535   0.683  1.00  0.00     0.029 A 
ATOM     44  N   UNL     1      13.662   3.349   2.685  1.00  0.00    -0.354 N 
ATOM     45  C   UNL     1      11.196   2.664   6.163  1.00  0.00     0.074 A 
ATOM     46  C   UNL     1      10.022   1.892   5.824  1.00  0.00     0.031 C 
ATOM     47  C   UNL     1      14.226   3.231   0.524  1.00  0.00     0.029 A 
ATOM     48  C   UNL     1      14.629   3.785   1.813  1.00  0.00     0.049 A 
ATOM     49  H   UNL     1      13.660   3.572   3.644  1.00  0.00     0.167 HD
ATOM     50  C   UNL     1      11.470   3.121   7.408  1.00  0.00     0.031 A 
ATOM     51  C   UNL     1      15.720   4.541   2.030  1.00  0.00     0.031 A 
ATOM     52  C   UNL     1      12.648   3.869   7.750  1.00  0.00     0.049 A 
ATOM     53  C   UNL     1      16.018   5.016   3.426  1.00  0.00     0.074 A 
ATOM     54  C   UNL     1      13.049   4.328   8.992  1.00  0.00     0.029 A 
ATOM     55  N   UNL     1      13.619   4.263   6.843  1.00  0.00    -0.354 N 
ATOM     56  N   UNL     1      15.335   4.821   4.528  1.00  0.00    -0.248 NA
ATOM     57  C   UNL     1      17.249   5.796   3.608  1.00  0.00     0.031 C 
ATOM     58  C   UNL     1      14.246   5.033   8.830  1.00  0.00     0.029 A 
ATOM     59  C   UNL     1      14.615   4.969   7.496  1.00  0.00     0.049 A 
ATOM     60  H   UNL     1      13.604   4.069   5.878  1.00  0.00     0.167 HD
ATOM     61  C   UNL     1      16.069   5.426   5.540  1.00  0.00     0.074 A 
ATOM     62  C   UNL     1      17.255   5.982   4.921  1.00  0.00     0.031 C 
ATOM     63  C   UNL     1      15.790   5.510   6.863  1.00  0.00     0.031 A 
BRANCH  50  64
ATOM     64  C   UNL     1      10.466   2.819   8.485  1.00  0.00    -0.014 A 
ATOM     65  C   UNL     1      10.280   1.510   8.960  1.00  0.00     0.009 A 
ATOM     66  C   UNL     1       9.701   3.856   9.039  1.00  0.00     0.009 A 
ATOM     67  C   UNL     1       9.316   1.240   9.933  1.00  0.00     0.001 A 
ATOM     68  C   UNL     1       8.760   3.588  10.035  1.00  0.00     0.001 A 
ATOM     69  C   UNL     1       8.560   2.279  10.473  1.00  0.00     0.000 A 
ENDBRANCH  50  64
BRANCH  51  70
ATOM     70  C   UNL     1      16.640   4.862   0.908  1.00  0.00    -0.014 A 
ATOM     71  C   UNL     1      17.902   4.254   0.830  1.00  0.00     0.009 A 
ATOM     72  C   UNL     1      16.264   5.776  -0.087  1.00  0.00     0.009 A 
ATOM     73  C   UNL     1      18.781   4.576  -0.206  1.00  0.00     0.001 A 
ATOM     74  C   UNL     1      17.135   6.077  -1.137  1.00  0.00     0.001 A 
ATOM     75  C   UNL     1      18.395   5.484  -1.191  1.00  0.00     0.000 A 
ENDBRANCH  51  70
BRANCH  63  76
ATOM     76  C   UNL     1      16.806   6.188   7.737  1.00  0.00    -0.014 A 
ATOM     77  C   UNL     1      16.984   7.580   7.708  1.00  0.00     0.009 A 
ATOM     78  C   UNL     1      17.572   5.421   8.628  1.00  0.00     0.009 A 
ATOM     79  C   UNL     1      17.936   8.185   8.530  1.00  0.00     0.001 A 
ATOM     80  C   UNL     1      18.503   6.032   9.469  1.00  0.00     0.001 A 
ATOM     81  C   UNL     1      18.691   7.412   9.412  1.00  0.00     0.000 A 
ENDBRANCH  63  76
ENDBRANCH  37  38
ENDBRANCH  29  32
ENDBRANCH  27  28
ENDBRANCH  26  27
ENDBRANCH  25  26
ENDBRANCH   1  25
TORSDOF 16
