REMARK SMILES CCC[C@@H](C[NH2+]C(C)C)C(=O)NCCCCNC(=O)c1ccc(-c2c3nc(c(-c4ccccc4)c4ccc([nH]4)c(-c4ccccc4)c4nc(c(-c5ccccc5)c5ccc2[nH]5)C=C4)C=C3)cc1
REMARK SMILES IDX 14 1 13 2 12 3 10 4 11 5 4 7 3 8 2 9 1 10 5 11 6 12 7 15
REMARK SMILES IDX 8 16 9 17 15 18 16 19 17 20 18 21 19 23 20 24 21 25 67 26
REMARK SMILES IDX 22 27 66 28 23 29 24 30 25 31 60 32 26 33 65 34 59 35 61 36
REMARK SMILES IDX 27 37 64 38 58 39 57 40 28 42 50 43 35 44 49 45 36 46 39 47
REMARK SMILES IDX 48 48 62 49 37 50 38 51 47 53 63 54 40 55 29 56 30 57 34 58
REMARK SMILES IDX 31 59 33 60 32 61 51 62 52 63 56 64 53 65 55 66 54 67 41 68
REMARK SMILES IDX 42 69 46 70 43 71 45 72 44 73
REMARK H PARENT 12 6 6 13 6 14 17 22 61 41 39 52
REMARK Flexibility Score: inf
ROOT
ATOM      1  C   UNL     1       1.107  -5.087   3.493  1.00  0.00     0.023 C 
ENDROOT
BRANCH   1   2
ATOM      2  C   UNL     1       0.259  -3.837   3.679  1.00  0.00     0.116 C 
BRANCH   2   3
ATOM      3  N   UNL     1       0.983  -2.748   4.301  1.00  0.00    -0.356 N 
ATOM      4  C   UNL     1       1.063  -1.436   3.944  1.00  0.00     0.228 C 
ATOM      5  O   UNL     1       1.637  -0.675   4.731  1.00  0.00    -0.275 OA
ATOM      6  H   UNL     1       1.496  -2.993   5.104  1.00  0.00     0.163 HD
BRANCH   4   7
ATOM      7  C   UNL     1       0.489  -0.892   2.632  1.00  0.00     0.133 C 
BRANCH   7   8
ATOM      8  C   UNL     1       1.151  -1.540   1.399  1.00  0.00     0.019 C 
BRANCH   8   9
ATOM      9  C   UNL     1       0.674  -1.038   0.037  1.00  0.00    -0.002 C 
ATOM     10  C   UNL     1       1.073   0.398  -0.249  1.00  0.00     0.004 C 
ENDBRANCH   8   9
ENDBRANCH   7   8
BRANCH   7  11
ATOM     11  C   UNL     1      -1.052  -0.775   2.675  1.00  0.00     0.274 C 
BRANCH  11  12
ATOM     12  N   UNL     1      -1.772  -2.015   2.397  1.00  0.00    -0.344 N 
ATOM     13  H   UNL     1      -1.371  -2.753   2.976  1.00  0.00     0.346 HD
ATOM     14  H   UNL     1      -1.669  -2.193   1.397  1.00  0.00     0.346 HD
BRANCH  12  15
ATOM     15  C   UNL     1      -3.209  -1.956   2.664  1.00  0.00     0.176 C 
ATOM     16  C   UNL     1      -3.974  -1.520   1.416  1.00  0.00     0.075 C 
ATOM     17  C   UNL     1      -3.648  -3.357   3.094  1.00  0.00     0.075 C 
ENDBRANCH  12  15
ENDBRANCH  11  12
ENDBRANCH   7  11
ENDBRANCH   4   7
ENDBRANCH   2   3
ENDBRANCH   1   2
BRANCH   1  18
ATOM     18  C   UNL     1       1.401  -5.853   4.776  1.00  0.00     0.023 C 
BRANCH  18  19
ATOM     19  C   UNL     1       0.179  -6.197   5.619  1.00  0.00     0.116 C 
BRANCH  19  20
ATOM     20  N   UNL     1      -0.852  -6.918   4.885  1.00  0.00    -0.352 N 
ATOM     21  C   UNL     1      -1.540  -8.054   5.244  1.00  0.00     0.251 C 
ATOM     22  H   UNL     1      -1.090  -6.540   4.008  1.00  0.00     0.163 HD
ATOM     23  O   UNL     1      -2.307  -8.594   4.458  1.00  0.00    -0.269 OA
BRANCH  21  24
ATOM     24  C   UNL     1      -1.313  -8.640   6.582  1.00  0.00     0.039 A 
ATOM     25  C   UNL     1      -1.063 -10.009   6.683  1.00  0.00     0.014 A 
ATOM     26  C   UNL     1      -1.299  -7.832   7.721  1.00  0.00     0.014 A 
ATOM     27  C   UNL     1      -0.722 -10.554   7.921  1.00  0.00     0.010 A 
ATOM     28  C   UNL     1      -0.869  -8.359   8.933  1.00  0.00     0.010 A 
ATOM     29  C   UNL     1      -0.580  -9.726   9.048  1.00  0.00    -0.014 A 
BRANCH  29  30
ATOM     30  C   UNL     1      -0.127 -10.280  10.348  1.00  0.00     0.031 A 
ATOM     31  C   UNL     1      -1.029 -10.234  11.550  1.00  0.00     0.074 A 
ATOM     32  C   UNL     1       1.117 -10.786  10.458  1.00  0.00     0.049 A 
ATOM     33  N   UNL     1      -0.812 -10.681  12.761  1.00  0.00    -0.248 NA
ATOM     34  C   UNL     1      -2.335  -9.576  11.379  1.00  0.00     0.031 C 
ATOM     35  C   UNL     1       2.114 -10.833   9.385  1.00  0.00     0.029 A 
ATOM     36  N   UNL     1       1.754 -11.365  11.526  1.00  0.00    -0.354 N 
ATOM     37  C   UNL     1      -1.945 -10.348  13.494  1.00  0.00     0.074 A 
ATOM     38  C   UNL     1      -2.818  -9.608  12.611  1.00  0.00     0.031 C 
ATOM     39  C   UNL     1       3.217 -11.451   9.836  1.00  0.00     0.029 A 
ATOM     40  C   UNL     1       3.020 -11.813  11.235  1.00  0.00     0.049 A 
ATOM     41  H   UNL     1       1.343 -11.452  12.417  1.00  0.00     0.167 HD
ATOM     42  C   UNL     1      -2.246 -10.654  14.778  1.00  0.00     0.031 A 
ATOM     43  C   UNL     1       3.917 -12.456  12.006  1.00  0.00     0.031 A 
ATOM     44  C   UNL     1      -1.382 -11.396  15.656  1.00  0.00     0.049 A 
ATOM     45  C   UNL     1       3.555 -12.794  13.425  1.00  0.00     0.074 A 
ATOM     46  C   UNL     1      -1.618 -11.804  16.957  1.00  0.00     0.029 A 
ATOM     47  N   UNL     1      -0.113 -11.842  15.320  1.00  0.00    -0.354 N 
ATOM     48  N   UNL     1       2.446 -12.543  14.079  1.00  0.00    -0.248 NA
ATOM     49  C   UNL     1       4.564 -13.524  14.205  1.00  0.00     0.031 C 
ATOM     50  C   UNL     1      -0.472 -12.456  17.425  1.00  0.00     0.029 A 
ATOM     51  C   UNL     1       0.454 -12.505  16.395  1.00  0.00     0.049 A 
ATOM     52  H   UNL     1       0.320 -11.707  14.447  1.00  0.00     0.167 HD
ATOM     53  C   UNL     1       2.612 -13.110  15.336  1.00  0.00     0.074 A 
ATOM     54  C   UNL     1       3.920 -13.734  15.344  1.00  0.00     0.031 C 
ATOM     55  C   UNL     1       1.759 -13.114  16.390  1.00  0.00     0.031 A 
BRANCH  42  56
ATOM     56  C   UNL     1      -3.572 -10.178  15.305  1.00  0.00    -0.014 A 
ATOM     57  C   UNL     1      -4.779 -10.726  14.839  1.00  0.00     0.009 A 
ATOM     58  C   UNL     1      -3.617  -9.182  16.293  1.00  0.00     0.009 A 
ATOM     59  C   UNL     1      -6.003 -10.257  15.321  1.00  0.00     0.001 A 
ATOM     60  C   UNL     1      -4.842  -8.738  16.796  1.00  0.00     0.001 A 
ATOM     61  C   UNL     1      -6.033  -9.267  16.301  1.00  0.00     0.000 A 
ENDBRANCH  42  56
BRANCH  43  62
ATOM     62  C   UNL     1       5.231 -12.862  11.442  1.00  0.00    -0.014 A 
ATOM     63  C   UNL     1       5.513 -14.216  11.202  1.00  0.00     0.009 A 
ATOM     64  C   UNL     1       6.211 -11.902  11.148  1.00  0.00     0.009 A 
ATOM     65  C   UNL     1       6.761 -14.603  10.709  1.00  0.00     0.001 A 
ATOM     66  C   UNL     1       7.448 -12.290  10.627  1.00  0.00     0.001 A 
ATOM     67  C   UNL     1       7.726 -13.640  10.418  1.00  0.00     0.000 A 
ENDBRANCH  43  62
BRANCH  55  68
ATOM     68  C   UNL     1       2.204 -13.849  17.623  1.00  0.00    -0.014 A 
ATOM     69  C   UNL     1       3.237 -13.357  18.436  1.00  0.00     0.009 A 
ATOM     70  C   UNL     1       1.569 -15.048  17.982  1.00  0.00     0.009 A 
ATOM     71  C   UNL     1       3.656 -14.077  19.557  1.00  0.00     0.001 A 
ATOM     72  C   UNL     1       1.968 -15.748  19.121  1.00  0.00     0.001 A 
ATOM     73  C   UNL     1       3.020 -15.269  19.899  1.00  0.00     0.000 A 
ENDBRANCH  55  68
ENDBRANCH  29  30
ENDBRANCH  21  24
ENDBRANCH  19  20
ENDBRANCH  18  19
ENDBRANCH   1  18
TORSDOF 16
