REMARK SMILES O=C(CCCN1C(=O)/C(=C/c2cc(Br)ccc2O)SC1=S)NCCCCNC(=O)c1ccc(-c2c3nc(c(-c4ccccc4)c4ccc([nH]4)c(-c4ccccc4)c4nc(c(-c5ccccc5)c5ccc2[nH]5)C=C4)C=C3)cc1
REMARK SMILES IDX 23 1 22 2 1 3 2 4 3 6 4 7 5 8 6 9 7 10 20 11 8 12 9 13 19 14
REMARK SMILES IDX 21 15 10 16 11 17 12 18 17 19 13 20 16 21 14 22 15 23 18 24
REMARK SMILES IDX 24 26 25 27 26 28 27 29 28 30 29 32 30 33 31 34 77 35 32 36
REMARK SMILES IDX 76 37 33 38 34 39 35 40 70 41 36 42 75 43 69 44 71 45 37 46
REMARK SMILES IDX 74 47 68 48 67 49 38 51 60 52 45 53 59 54 46 55 49 56 58 57
REMARK SMILES IDX 72 58 47 59 48 60 57 62 73 63 50 64 39 65 40 66 44 67 41 68
REMARK SMILES IDX 43 69 42 70 61 71 62 72 66 73 63 74 65 75 64 76 51 77 52 78
REMARK SMILES IDX 56 79 53 80 55 81 54 82
REMARK H PARENT 22 5 18 25 27 31 71 50 49 61
REMARK Flexibility Score: inf
ROOT
ATOM      1  C   UNL     1       1.767   0.618  -2.498  1.00  0.00     0.116 C 
ENDROOT
BRANCH   1   2
ATOM      2  N   UNL     1       2.373   0.379  -1.207  1.00  0.00    -0.356 N 
ATOM      3  O   UNL     1       0.737  -0.958  -0.324  1.00  0.00    -0.275 OA
ATOM      4  C   UNL     1       1.821  -0.395  -0.219  1.00  0.00     0.220 C 
ATOM      5  H   UNL     1       3.243   0.802  -1.024  1.00  0.00     0.163 HD
BRANCH   4   6
ATOM      6  C   UNL     1       2.672  -0.511   1.041  1.00  0.00     0.102 C 
BRANCH   6   7
ATOM      7  C   UNL     1       3.795  -1.551   0.942  1.00  0.00     0.032 C 
BRANCH   7   8
ATOM      8  C   UNL     1       4.979  -1.239   0.009  1.00  0.00     0.128 C 
BRANCH   8   9
ATOM      9  N   UNL     1       5.868  -0.168   0.484  1.00  0.00    -0.293 N 
ATOM     10  C   UNL     1       5.517   1.140   0.253  1.00  0.00     0.266 C 
ATOM     11  C   UNL     1       7.100  -0.349   1.083  1.00  0.00     0.148 C 
ATOM     12  O   UNL     1       4.494   1.517  -0.307  1.00  0.00    -0.268 OA
ATOM     13  C   UNL     1       6.535   2.082   0.743  1.00  0.00     0.081 C 
ATOM     14  S   UNL     1       7.837   1.219   1.437  1.00  0.00    -0.054 SA
ATOM     15  S   UNL     1       7.869  -1.783   1.444  1.00  0.00    -0.052 S 
ATOM     16  C   UNL     1       6.341   3.398   0.596  1.00  0.00     0.033 C 
BRANCH  16  17
ATOM     17  C   UNL     1       7.277   4.450   0.985  1.00  0.00     0.019 A 
ATOM     18  C   UNL     1       6.931   5.295   2.045  1.00  0.00     0.027 A 
ATOM     19  C   UNL     1       8.484   4.653   0.304  1.00  0.00     0.122 A 
ATOM     20  C   UNL     1       7.809   6.303   2.438  1.00  0.00     0.018 A 
ATOM     21  C   UNL     1       9.364   5.656   0.703  1.00  0.00     0.048 A 
ATOM     22  Br  UNL     1       7.344   7.438   3.876  1.00  0.00    -0.051 Br
ATOM     23  C   UNL     1       9.026   6.480   1.780  1.00  0.00     0.019 A 
BRANCH  19  24
ATOM     24  O   UNL     1       8.781   3.864  -0.774  1.00  0.00    -0.507 OA
ATOM     25  H   UNL     1       8.187   3.190  -1.040  1.00  0.00     0.293 HD
ENDBRANCH  19  24
ENDBRANCH  16  17
ENDBRANCH   8   9
ENDBRANCH   7   8
ENDBRANCH   6   7
ENDBRANCH   4   6
ENDBRANCH   1   2
BRANCH   1  26
ATOM     26  C   UNL     1       2.179   1.972  -3.088  1.00  0.00     0.023 C 
BRANCH  26  27
ATOM     27  C   UNL     1       3.665   2.156  -3.423  1.00  0.00     0.023 C 
BRANCH  27  28
ATOM     28  C   UNL     1       4.278   1.119  -4.354  1.00  0.00     0.116 C 
BRANCH  28  29
ATOM     29  N   UNL     1       3.757   1.224  -5.706  1.00  0.00    -0.352 N 
ATOM     30  C   UNL     1       4.417   1.452  -6.890  1.00  0.00     0.251 C 
ATOM     31  H   UNL     1       2.782   1.115  -5.787  1.00  0.00     0.163 HD
ATOM     32  O   UNL     1       3.773   1.711  -7.903  1.00  0.00    -0.269 OA
BRANCH  30  33
ATOM     33  C   UNL     1       5.897   1.411  -6.958  1.00  0.00     0.039 A 
ATOM     34  C   UNL     1       6.559   2.367  -7.735  1.00  0.00     0.014 A 
ATOM     35  C   UNL     1       6.636   0.424  -6.300  1.00  0.00     0.014 A 
ATOM     36  C   UNL     1       7.956   2.370  -7.803  1.00  0.00     0.010 A 
ATOM     37  C   UNL     1       8.030   0.472  -6.308  1.00  0.00     0.010 A 
ATOM     38  C   UNL     1       8.707   1.444  -7.061  1.00  0.00    -0.014 A 
BRANCH  38  39
ATOM     39  C   UNL     1      10.194   1.488  -7.056  1.00  0.00     0.031 A 
ATOM     40  C   UNL     1      10.997   0.335  -7.598  1.00  0.00     0.074 A 
ATOM     41  C   UNL     1      10.830   2.546  -6.515  1.00  0.00     0.049 A 
ATOM     42  N   UNL     1      12.297   0.176  -7.629  1.00  0.00    -0.248 NA
ATOM     43  C   UNL     1      10.241  -0.797  -8.158  1.00  0.00     0.031 C 
ATOM     44  C   UNL     1      10.177   3.719  -5.930  1.00  0.00     0.029 A 
ATOM     45  N   UNL     1      12.171   2.806  -6.366  1.00  0.00    -0.354 N 
ATOM     46  C   UNL     1      12.513  -1.073  -8.200  1.00  0.00     0.074 A 
ATOM     47  C   UNL     1      11.211  -1.652  -8.450  1.00  0.00     0.031 C 
ATOM     48  C   UNL     1      11.116   4.583  -5.513  1.00  0.00     0.029 A 
ATOM     49  C   UNL     1      12.435   4.008  -5.755  1.00  0.00     0.049 A 
ATOM     50  H   UNL     1      12.876   2.189  -6.669  1.00  0.00     0.167 HD
ATOM     51  C   UNL     1      13.686  -1.678  -8.507  1.00  0.00     0.031 A 
ATOM     52  C   UNL     1      13.605   4.581  -5.415  1.00  0.00     0.031 A 
ATOM     53  C   UNL     1      14.984  -1.107  -8.258  1.00  0.00     0.049 A 
ATOM     54  C   UNL     1      14.894   3.873  -5.732  1.00  0.00     0.074 A 
ATOM     55  C   UNL     1      16.229  -1.626  -8.573  1.00  0.00     0.029 A 
ATOM     56  N   UNL     1      15.206   0.108  -7.628  1.00  0.00    -0.354 N 
ATOM     57  N   UNL     1      15.078   2.720  -6.326  1.00  0.00    -0.248 NA
ATOM     58  C   UNL     1      16.137   4.554  -5.340  1.00  0.00     0.031 C 
ATOM     59  C   UNL     1      17.204  -0.755  -8.078  1.00  0.00     0.029 A 
ATOM     60  C   UNL     1      16.568   0.341  -7.519  1.00  0.00     0.049 A 
ATOM     61  H   UNL     1      14.501   0.715  -7.307  1.00  0.00     0.167 HD
ATOM     62  C   UNL     1      16.455   2.551  -6.407  1.00  0.00     0.074 A 
ATOM     63  C   UNL     1      17.057   3.728  -5.817  1.00  0.00     0.031 C 
ATOM     64  C   UNL     1      17.157   1.514  -6.926  1.00  0.00     0.031 A 
BRANCH  51  65
ATOM     65  C   UNL     1      13.619  -3.042  -9.140  1.00  0.00    -0.014 A 
ATOM     66  C   UNL     1      13.133  -3.217 -10.447  1.00  0.00     0.009 A 
ATOM     67  C   UNL     1      14.085  -4.164  -8.437  1.00  0.00     0.009 A 
ATOM     68  C   UNL     1      13.078  -4.490 -11.018  1.00  0.00     0.001 A 
ATOM     69  C   UNL     1      14.060  -5.431  -9.023  1.00  0.00     0.001 A 
ATOM     70  C   UNL     1      13.546  -5.595 -10.308  1.00  0.00     0.000 A 
ENDBRANCH  51  65
BRANCH  52  71
ATOM     71  C   UNL     1      13.617   5.902  -4.730  1.00  0.00    -0.014 A 
ATOM     72  C   UNL     1      14.105   7.043  -5.384  1.00  0.00     0.009 A 
ATOM     73  C   UNL     1      13.152   6.025  -3.411  1.00  0.00     0.009 A 
ATOM     74  C   UNL     1      14.155   8.272  -4.722  1.00  0.00     0.001 A 
ATOM     75  C   UNL     1      13.171   7.261  -2.763  1.00  0.00     0.001 A 
ATOM     76  C   UNL     1      13.683   8.382  -3.415  1.00  0.00     0.000 A 
ENDBRANCH  52  71
BRANCH  64  77
ATOM     77  C   UNL     1      18.658   1.621  -6.914  1.00  0.00    -0.014 A 
ATOM     78  C   UNL     1      19.391   1.535  -5.719  1.00  0.00     0.009 A 
ATOM     79  C   UNL     1      19.352   1.770  -8.125  1.00  0.00     0.009 A 
ATOM     80  C   UNL     1      20.784   1.635  -5.736  1.00  0.00     0.001 A 
ATOM     81  C   UNL     1      20.745   1.836  -8.143  1.00  0.00     0.001 A 
ATOM     82  C   UNL     1      21.460   1.779  -6.948  1.00  0.00     0.000 A 
ENDBRANCH  64  77
ENDBRANCH  38  39
ENDBRANCH  30  33
ENDBRANCH  28  29
ENDBRANCH  27  28
ENDBRANCH  26  27
ENDBRANCH   1  26
TORSDOF 16
