REMARK SMILES C[C@@](O)(CSc1ccc(N)c(F)c1)C(=O)NCCCCNC(=O)c1ccc(-c2c3nc(c(-c4ccccc4)c4ccc([nH]4)c(-c4ccccc4)c4nc(c(-c5ccccc5)c5ccc2[nH]5)C=C4)C=C3)cc1
REMARK SMILES IDX 17 1 16 2 14 3 15 4 2 6 1 7 3 8 4 10 5 11 6 12 7 13 13 14
REMARK SMILES IDX 8 15 11 16 9 17 12 18 10 19 18 22 19 23 20 24 21 25 22 26
REMARK SMILES IDX 23 28 24 29 25 30 71 31 26 32 70 33 27 34 28 35 29 36 64 37
REMARK SMILES IDX 30 38 69 39 63 40 65 41 31 42 68 43 62 44 61 45 32 47 54 48
REMARK SMILES IDX 39 49 53 50 40 51 43 52 52 53 66 54 41 55 42 56 51 58 67 59
REMARK SMILES IDX 44 60 33 61 34 62 38 63 35 64 37 65 36 66 55 67 56 68 60 69
REMARK SMILES IDX 57 70 59 71 58 72 45 73 46 74 50 75 47 76 49 77 48 78
REMARK H PARENT 16 5 3 9 10 20 10 21 21 27 65 46 43 57
REMARK Flexibility Score: inf
ROOT
ATOM      1  C   UNL     1      -0.293   0.072  -4.287  1.00  0.00     0.116 C 
ENDROOT
BRANCH   1   2
ATOM      2  N   UNL     1       0.535   0.997  -3.537  1.00  0.00    -0.354 N 
ATOM      3  C   UNL     1       0.919   0.986  -2.229  1.00  0.00     0.252 C 
ATOM      4  O   UNL     1       1.643   1.914  -1.859  1.00  0.00    -0.272 OA
ATOM      5  H   UNL     1       0.876   1.758  -4.059  1.00  0.00     0.163 HD
BRANCH   3   6
ATOM      6  C   UNL     1       0.506  -0.166  -1.272  1.00  0.00     0.149 C 
ATOM      7  C   UNL     1       1.346  -0.095   0.010  1.00  0.00     0.054 C 
BRANCH   6   8
ATOM      8  O   UNL     1       0.841  -1.435  -1.874  1.00  0.00    -0.379 OA
ATOM      9  H   UNL     1       0.584  -2.154  -1.276  1.00  0.00     0.212 HD
ENDBRANCH   6   8
BRANCH   6  10
ATOM     10  C   UNL     1      -1.011  -0.190  -0.979  1.00  0.00     0.120 C 
BRANCH  10  11
ATOM     11  S   UNL     1      -1.826   1.346  -0.388  1.00  0.00    -0.122 SA
BRANCH  11  12
ATOM     12  C   UNL     1      -1.302   1.447   1.312  1.00  0.00     0.010 A 
ATOM     13  C   UNL     1      -1.240   0.335   2.159  1.00  0.00     0.017 A 
ATOM     14  C   UNL     1      -0.923   2.696   1.808  1.00  0.00     0.056 A 
ATOM     15  C   UNL     1      -0.726   0.453   3.456  1.00  0.00     0.030 A 
ATOM     16  C   UNL     1      -0.429   2.804   3.105  1.00  0.00     0.147 A 
ATOM     17  C   UNL     1      -0.315   1.691   3.947  1.00  0.00     0.068 A 
ATOM     18  F   UNL     1      -0.042   4.011   3.550  1.00  0.00    -0.205 F 
BRANCH  17  19
ATOM     19  N   UNL     1       0.279   1.792   5.196  1.00  0.00    -0.396 N 
ATOM     20  H   UNL     1       0.349   0.997   5.773  1.00  0.00     0.156 HD
ATOM     21  H   UNL     1       0.631   2.658   5.506  1.00  0.00     0.156 HD
ENDBRANCH  17  19
ENDBRANCH  11  12
ENDBRANCH  10  11
ENDBRANCH   6  10
ENDBRANCH   3   6
ENDBRANCH   1   2
BRANCH   1  22
ATOM     22  C   UNL     1      -1.639   0.695  -4.653  1.00  0.00     0.023 C 
BRANCH  22  23
ATOM     23  C   UNL     1      -1.551   1.909  -5.581  1.00  0.00     0.023 C 
BRANCH  23  24
ATOM     24  C   UNL     1      -0.819   1.667  -6.895  1.00  0.00     0.116 C 
BRANCH  24  25
ATOM     25  N   UNL     1      -1.435   0.635  -7.715  1.00  0.00    -0.352 N 
ATOM     26  C   UNL     1      -1.581   0.614  -9.082  1.00  0.00     0.251 C 
ATOM     27  H   UNL     1      -1.793  -0.144  -7.231  1.00  0.00     0.163 HD
ATOM     28  O   UNL     1      -2.220  -0.275  -9.635  1.00  0.00    -0.269 OA
BRANCH  26  29
ATOM     29  C   UNL     1      -0.982   1.704  -9.878  1.00  0.00     0.039 A 
ATOM     30  C   UNL     1      -1.790   2.420 -10.764  1.00  0.00     0.014 A 
ATOM     31  C   UNL     1       0.360   2.048  -9.699  1.00  0.00     0.014 A 
ATOM     32  C   UNL     1      -1.267   3.535 -11.424  1.00  0.00     0.010 A 
ATOM     33  C   UNL     1       0.859   3.193 -10.308  1.00  0.00     0.010 A 
ATOM     34  C   UNL     1       0.050   3.950 -11.172  1.00  0.00    -0.014 A 
BRANCH  34  35
ATOM     35  C   UNL     1       0.626   5.160 -11.807  1.00  0.00     0.031 A 
ATOM     36  C   UNL     1       1.787   5.017 -12.751  1.00  0.00     0.074 A 
ATOM     37  C   UNL     1       0.176   6.384 -11.469  1.00  0.00     0.049 A 
ATOM     38  N   UNL     1       2.547   5.944 -13.274  1.00  0.00    -0.248 NA
ATOM     39  C   UNL     1       2.159   3.645 -13.133  1.00  0.00     0.031 C 
ATOM     40  C   UNL     1      -0.936   6.661 -10.557  1.00  0.00     0.029 A 
ATOM     41  N   UNL     1       0.616   7.628 -11.844  1.00  0.00    -0.354 N 
ATOM     42  C   UNL     1       3.502   5.268 -14.022  1.00  0.00     0.074 A 
ATOM     43  C   UNL     1       3.250   3.853 -13.854  1.00  0.00     0.031 C 
ATOM     44  C   UNL     1      -1.099   7.991 -10.455  1.00  0.00     0.029 A 
ATOM     45  C   UNL     1      -0.076   8.659 -11.254  1.00  0.00     0.049 A 
ATOM     46  H   UNL     1       1.358   7.770 -12.476  1.00  0.00     0.167 HD
ATOM     47  C   UNL     1       4.492   5.777 -14.791  1.00  0.00     0.031 A 
ATOM     48  C   UNL     1       0.106   9.990 -11.336  1.00  0.00     0.031 A 
ATOM     49  C   UNL     1       4.732   7.182 -14.975  1.00  0.00     0.049 A 
ATOM     50  C   UNL     1       1.226  10.531 -12.181  1.00  0.00     0.074 A 
ATOM     51  C   UNL     1       5.695   7.798 -15.754  1.00  0.00     0.029 A 
ATOM     52  N   UNL     1       3.992   8.190 -14.378  1.00  0.00    -0.354 N 
ATOM     53  N   UNL     1       2.109   9.879 -12.898  1.00  0.00    -0.248 NA
ATOM     54  C   UNL     1       1.371  11.993 -12.232  1.00  0.00     0.031 C 
ATOM     55  C   UNL     1       5.555   9.182 -15.607  1.00  0.00     0.029 A 
ATOM     56  C   UNL     1       4.477   9.425 -14.771  1.00  0.00     0.049 A 
ATOM     57  H   UNL     1       3.234   8.049 -13.766  1.00  0.00     0.167 HD
ATOM     58  C   UNL     1       2.887  10.850 -13.515  1.00  0.00     0.074 A 
ATOM     59  C   UNL     1       2.371  12.135 -13.091  1.00  0.00     0.031 C 
ATOM     60  C   UNL     1       3.933  10.691 -14.360  1.00  0.00     0.031 A 
BRANCH  47  61
ATOM     61  C   UNL     1       5.392   4.800 -15.491  1.00  0.00    -0.014 A 
ATOM     62  C   UNL     1       4.931   4.045 -16.581  1.00  0.00     0.009 A 
ATOM     63  C   UNL     1       6.724   4.652 -15.075  1.00  0.00     0.009 A 
ATOM     64  C   UNL     1       5.776   3.135 -17.218  1.00  0.00     0.001 A 
ATOM     65  C   UNL     1       7.575   3.761 -15.732  1.00  0.00     0.001 A 
ATOM     66  C   UNL     1       7.098   2.997 -16.796  1.00  0.00     0.000 A 
ENDBRANCH  47  61
BRANCH  48  67
ATOM     67  C   UNL     1      -0.797  10.918 -10.606  1.00  0.00    -0.014 A 
ATOM     68  C   UNL     1      -1.720  11.707 -11.311  1.00  0.00     0.009 A 
ATOM     69  C   UNL     1      -0.726  11.041  -9.210  1.00  0.00     0.009 A 
ATOM     70  C   UNL     1      -2.530  12.623 -10.637  1.00  0.00     0.001 A 
ATOM     71  C   UNL     1      -1.557  11.939  -8.536  1.00  0.00     0.001 A 
ATOM     72  C   UNL     1      -2.450  12.736  -9.250  1.00  0.00     0.000 A 
ENDBRANCH  48  67
BRANCH  60  73
ATOM     73  C   UNL     1       4.548  11.933 -14.939  1.00  0.00    -0.014 A 
ATOM     74  C   UNL     1       5.388  12.757 -14.177  1.00  0.00     0.009 A 
ATOM     75  C   UNL     1       4.324  12.245 -16.289  1.00  0.00     0.009 A 
ATOM     76  C   UNL     1       5.975  13.885 -14.752  1.00  0.00     0.001 A 
ATOM     77  C   UNL     1       4.931  13.360 -16.867  1.00  0.00     0.001 A 
ATOM     78  C   UNL     1       5.751  14.182 -16.097  1.00  0.00     0.000 A 
ENDBRANCH  60  73
ENDBRANCH  34  35
ENDBRANCH  26  29
ENDBRANCH  24  25
ENDBRANCH  23  24
ENDBRANCH  22  23
ENDBRANCH   1  22
TORSDOF 16
