REMARK SMILES C=CCN1C[C@]2(C(=O)NCCCCNC(=O)c3ccc(-c4c5nc(c(-c6ccccc6)c6ccc([nH]6)c(-c6ccccc6)c6nc(c(-c7ccccc7)c7ccc4[nH]7)C=C6)C=C5)cc3)CN(C(=O)c3cccc(C#N)c3)C[C@H]2C1=O
REMARK SMILES IDX 11 1 10 2 9 3 7 4 8 5 6 7 4 8 5 9 79 10 78 11 80 12 65 13
REMARK SMILES IDX 77 14 66 15 3 16 2 17 1 18 67 19 68 20 69 21 70 22 76 23
REMARK SMILES IDX 71 24 73 25 72 26 74 27 75 28 12 29 13 30 14 31 15 32 16 34
REMARK SMILES IDX 17 35 18 36 64 37 19 38 63 39 20 40 21 41 22 42 57 43 23 44
REMARK SMILES IDX 62 45 56 46 58 47 24 48 61 49 55 50 54 51 25 53 47 54 32 55
REMARK SMILES IDX 46 56 33 57 36 58 45 59 59 60 34 61 35 62 44 64 60 65 37 66
REMARK SMILES IDX 26 67 27 68 31 69 28 70 30 71 29 72 48 73 49 74 53 75 50 76
REMARK SMILES IDX 52 77 51 78 38 79 39 80 43 81 40 82 42 83 41 84
REMARK H PARENT 9 6 14 33 58 52 36 63
REMARK Flexibility Score: inf
ROOT
ATOM      1  C   UNL     1      -1.182  -7.365   2.432  1.00  0.00     0.023 C 
ENDROOT
BRANCH   1   2
ATOM      2  C   UNL     1      -0.871  -5.885   2.311  1.00  0.00     0.116 C 
BRANCH   2   3
ATOM      3  N   UNL     1       0.019  -5.710   1.185  1.00  0.00    -0.355 N 
ATOM      4  C   UNL     1      -0.416  -5.560  -0.113  1.00  0.00     0.230 C 
ATOM      5  O   UNL     1       0.336  -5.818  -1.049  1.00  0.00    -0.274 OA
ATOM      6  H   UNL     1       0.988  -5.698   1.355  1.00  0.00     0.163 HD
BRANCH   4   7
ATOM      7  C   UNL     1      -1.828  -4.977  -0.234  1.00  0.00     0.097 C 
ATOM      8  N   UNL     1      -1.927  -2.570  -0.169  1.00  0.00    -0.337 N 
ATOM      9  C   UNL     1      -1.059  -3.622  -0.661  1.00  0.00     0.139 C 
ATOM     10  C   UNL     1      -3.232  -2.988  -0.288  1.00  0.00     0.229 C 
ATOM     11  C   UNL     1      -3.123  -4.369  -0.862  1.00  0.00     0.117 C 
ATOM     12  O   UNL     1      -4.242  -2.363  -0.035  1.00  0.00    -0.274 OA
ATOM     13  C   UNL     1      -2.283  -6.412  -0.828  1.00  0.00     0.139 C 
ATOM     14  C   UNL     1      -4.290  -5.238  -0.467  1.00  0.00     0.134 C 
ATOM     15  N   UNL     1      -3.689  -6.543  -0.406  1.00  0.00    -0.337 N 
BRANCH   8  16
ATOM     16  C   UNL     1      -1.558  -1.252   0.329  1.00  0.00     0.146 C 
BRANCH  16  17
ATOM     17  C   UNL     1      -0.085  -1.063   0.502  1.00  0.00    -0.014 C 
ATOM     18  C   UNL     1       0.642  -0.134  -0.133  1.00  0.00     0.006 C 
ENDBRANCH  16  17
ENDBRANCH   8  16
BRANCH  15  19
ATOM     19  C   UNL     1      -4.421  -7.579   0.164  1.00  0.00     0.253 C 
ATOM     20  O   UNL     1      -5.581  -7.431   0.547  1.00  0.00    -0.269 OA
BRANCH  19  21
ATOM     21  C   UNL     1      -3.831  -8.912   0.401  1.00  0.00     0.041 A 
ATOM     22  C   UNL     1      -3.671  -9.812  -0.652  1.00  0.00     0.014 A 
ATOM     23  C   UNL     1      -3.595  -9.335   1.721  1.00  0.00     0.033 A 
ATOM     24  C   UNL     1      -3.206 -11.106  -0.395  1.00  0.00     0.002 A 
ATOM     25  C   UNL     1      -3.041 -10.597   1.965  1.00  0.00     0.053 A 
ATOM     26  C   UNL     1      -2.861 -11.485   0.902  1.00  0.00     0.019 A 
BRANCH  25  27
ATOM     27  C   UNL     1      -2.586 -10.998   3.261  1.00  0.00     0.099 C 
ATOM     28  N   UNL     1      -2.114 -11.384   4.253  1.00  0.00    -0.192 NA
ENDBRANCH  25  27
ENDBRANCH  19  21
ENDBRANCH  15  19
ENDBRANCH   4   7
ENDBRANCH   2   3
ENDBRANCH   1   2
BRANCH   1  29
ATOM     29  C   UNL     1      -0.076  -8.166   3.087  1.00  0.00     0.023 C 
BRANCH  29  30
ATOM     30  C   UNL     1       0.004  -7.906   4.575  1.00  0.00     0.116 C 
BRANCH  30  31
ATOM     31  N   UNL     1      -1.251  -8.162   5.281  1.00  0.00    -0.352 N 
ATOM     32  C   UNL     1      -1.506  -9.022   6.325  1.00  0.00     0.251 C 
ATOM     33  H   UNL     1      -2.026  -7.645   4.962  1.00  0.00     0.163 HD
ATOM     34  O   UNL     1      -2.648  -9.190   6.735  1.00  0.00    -0.269 OA
BRANCH  32  35
ATOM     35  C   UNL     1      -0.363  -9.721   6.939  1.00  0.00     0.039 A 
ATOM     36  C   UNL     1      -0.405 -11.097   7.163  1.00  0.00     0.014 A 
ATOM     37  C   UNL     1       0.799  -8.993   7.184  1.00  0.00     0.014 A 
ATOM     38  C   UNL     1       0.762 -11.755   7.556  1.00  0.00     0.010 A 
ATOM     39  C   UNL     1       1.983  -9.667   7.399  1.00  0.00     0.010 A 
ATOM     40  C   UNL     1       1.972 -11.048   7.635  1.00  0.00    -0.014 A 
BRANCH  40  41
ATOM     41  C   UNL     1       3.244 -11.677   8.057  1.00  0.00     0.031 A 
ATOM     42  C   UNL     1       3.948 -11.125   9.269  1.00  0.00     0.074 A 
ATOM     43  C   UNL     1       3.808 -12.650   7.319  1.00  0.00     0.049 A 
ATOM     44  N   UNL     1       5.135 -11.408   9.738  1.00  0.00    -0.248 NA
ATOM     45  C   UNL     1       3.245 -10.070  10.024  1.00  0.00     0.031 C 
ATOM     46  C   UNL     1       3.245 -13.237   6.101  1.00  0.00     0.029 A 
ATOM     47  N   UNL     1       4.998 -13.310   7.487  1.00  0.00    -0.354 N 
ATOM     48  C   UNL     1       5.324 -10.547  10.812  1.00  0.00     0.074 A 
ATOM     49  C   UNL     1       4.179  -9.672  10.870  1.00  0.00     0.031 C 
ATOM     50  C   UNL     1       4.074 -14.195   5.653  1.00  0.00     0.029 A 
ATOM     51  C   UNL     1       5.247 -14.254   6.520  1.00  0.00     0.049 A 
ATOM     52  H   UNL     1       5.617 -13.125   8.230  1.00  0.00     0.167 HD
ATOM     53  C   UNL     1       6.344 -10.510  11.699  1.00  0.00     0.031 A 
ATOM     54  C   UNL     1       6.307 -15.066   6.353  1.00  0.00     0.031 A 
ATOM     55  C   UNL     1       7.467 -11.402  11.655  1.00  0.00     0.049 A 
ATOM     56  C   UNL     1       7.440 -14.996   7.342  1.00  0.00     0.074 A 
ATOM     57  C   UNL     1       8.526 -11.497  12.537  1.00  0.00     0.029 A 
ATOM     58  N   UNL     1       7.671 -12.357  10.671  1.00  0.00    -0.354 N 
ATOM     59  N   UNL     1       7.575 -14.226   8.396  1.00  0.00    -0.248 NA
ATOM     60  C   UNL     1       8.563 -15.918   7.125  1.00  0.00     0.031 C 
ATOM     61  C   UNL     1       9.408 -12.464  12.049  1.00  0.00     0.029 A 
ATOM     62  C   UNL     1       8.859 -13.025  10.906  1.00  0.00     0.049 A 
ATOM     63  H   UNL     1       7.063 -12.532   9.917  1.00  0.00     0.167 HD
ATOM     64  C   UNL     1       8.778 -14.595   8.985  1.00  0.00     0.074 A 
ATOM     65  C   UNL     1       9.323 -15.670   8.182  1.00  0.00     0.031 C 
ATOM     66  C   UNL     1       9.380 -14.093  10.092  1.00  0.00     0.031 A 
BRANCH  53  67
ATOM     67  C   UNL     1       6.279  -9.470  12.784  1.00  0.00    -0.014 A 
ATOM     68  C   UNL     1       5.290  -9.512  13.782  1.00  0.00     0.009 A 
ATOM     69  C   UNL     1       7.228  -8.437  12.815  1.00  0.00     0.009 A 
ATOM     70  C   UNL     1       5.226  -8.518  14.759  1.00  0.00     0.001 A 
ATOM     71  C   UNL     1       7.186  -7.466  13.817  1.00  0.00     0.001 A 
ATOM     72  C   UNL     1       6.178  -7.500  14.780  1.00  0.00     0.000 A 
ENDBRANCH  53  67
BRANCH  54  73
ATOM     73  C   UNL     1       6.347 -16.026   5.217  1.00  0.00    -0.014 A 
ATOM     74  C   UNL     1       6.285 -17.410   5.449  1.00  0.00     0.009 A 
ATOM     75  C   UNL     1       6.467 -15.569   3.895  1.00  0.00     0.009 A 
ATOM     76  C   UNL     1       6.378 -18.314   4.388  1.00  0.00     0.001 A 
ATOM     77  C   UNL     1       6.525 -16.474   2.832  1.00  0.00     0.001 A 
ATOM     78  C   UNL     1       6.494 -17.845   3.080  1.00  0.00     0.000 A 
ENDBRANCH  54  73
BRANCH  66  79
ATOM     79  C   UNL     1      10.673 -14.728  10.523  1.00  0.00    -0.014 A 
ATOM     80  C   UNL     1      11.852 -14.573   9.779  1.00  0.00     0.009 A 
ATOM     81  C   UNL     1      10.717 -15.456  11.724  1.00  0.00     0.009 A 
ATOM     82  C   UNL     1      13.040 -15.169  10.208  1.00  0.00     0.001 A 
ATOM     83  C   UNL     1      11.913 -16.016  12.170  1.00  0.00     0.001 A 
ATOM     84  C   UNL     1      13.071 -15.883  11.405  1.00  0.00     0.000 A 
ENDBRANCH  66  79
ENDBRANCH  40  41
ENDBRANCH  32  35
ENDBRANCH  30  31
ENDBRANCH  29  30
ENDBRANCH   1  29
TORSDOF 16
