REMARK SMILES CC[C@@](C)(C(=O)NCCCCNC(=O)c1ccc(-c2c3nc(c(-c4ccccc4)c4ccc([nH]4)c(-c4ccccc4)c4nc(c(-c5ccccc5)c5ccc2[nH]5)C=C4)C=C3)cc1)n1nnnc1Cc1cccs1
REMARK SMILES IDX 9 1 8 2 7 3 5 4 6 5 3 7 4 8 2 9 1 10 63 11 64 12 67 13 65 14
REMARK SMILES IDX 66 15 68 16 69 17 70 18 73 19 71 20 72 21 10 22 11 23 12 24
REMARK SMILES IDX 13 25 14 27 15 28 16 29 62 30 17 31 61 32 18 33 19 34 20 35
REMARK SMILES IDX 55 36 21 37 60 38 54 39 56 40 22 41 59 42 53 43 52 44 23 46
REMARK SMILES IDX 45 47 30 48 44 49 31 50 34 51 43 52 57 53 32 54 33 55 42 57
REMARK SMILES IDX 58 58 35 59 24 60 25 61 29 62 26 63 28 64 27 65 46 66 47 67
REMARK SMILES IDX 51 68 48 69 50 70 49 71 36 72 37 73 41 74 38 75 40 76 39 77
REMARK H PARENT 7 6 12 26 56 45 34 56
REMARK Flexibility Score: inf
ROOT
ATOM      1  C   UNL     1      -2.933   1.752  -2.201  1.00  0.00     0.023 C 
ENDROOT
BRANCH   1   2
ATOM      2  C   UNL     1      -2.106   0.564  -2.677  1.00  0.00     0.116 C 
BRANCH   2   3
ATOM      3  N   UNL     1      -0.955   0.957  -3.473  1.00  0.00    -0.354 N 
ATOM      4  C   UNL     1       0.373   0.627  -3.412  1.00  0.00     0.247 C 
ATOM      5  O   UNL     1       1.015   0.908  -4.430  1.00  0.00    -0.272 OA
ATOM      6  H   UNL     1      -1.173   1.583  -4.200  1.00  0.00     0.163 HD
BRANCH   4   7
ATOM      7  C   UNL     1       1.013  -0.120  -2.201  1.00  0.00     0.142 C 
ATOM      8  C   UNL     1       0.416  -1.536  -2.211  1.00  0.00     0.048 C 
BRANCH   7   9
ATOM      9  C   UNL     1       0.689   0.638  -0.871  1.00  0.00     0.037 C 
ATOM     10  C   UNL     1       1.194  -0.036   0.401  1.00  0.00     0.007 C 
ENDBRANCH   7   9
BRANCH   7  11
ATOM     11  N   UNL     1       2.489  -0.103  -2.370  1.00  0.00    -0.214 N 
ATOM     12  N   UNL     1       3.097   1.113  -2.331  1.00  0.00    -0.044 NA
ATOM     13  C   UNL     1       3.482  -1.070  -2.386  1.00  0.00     0.157 A 
ATOM     14  N   UNL     1       4.395   0.886  -2.353  1.00  0.00    -0.024 NA
ATOM     15  N   UNL     1       4.650  -0.448  -2.371  1.00  0.00    -0.113 NA
BRANCH  13  16
ATOM     16  C   UNL     1       3.382  -2.557  -2.364  1.00  0.00     0.125 C 
BRANCH  16  17
ATOM     17  C   UNL     1       3.670  -3.184  -3.700  1.00  0.00     0.012 A 
ATOM     18  C   UNL     1       4.903  -3.379  -4.293  1.00  0.00     0.016 A 
ATOM     19  S   UNL     1       2.407  -3.806  -4.676  1.00  0.00    -0.148 S 
ATOM     20  C   UNL     1       4.804  -4.024  -5.559  1.00  0.00     0.012 A 
ATOM     21  C   UNL     1       3.498  -4.302  -5.893  1.00  0.00     0.065 A 
ENDBRANCH  16  17
ENDBRANCH  13  16
ENDBRANCH   7  11
ENDBRANCH   4   7
ENDBRANCH   2   3
ENDBRANCH   1   2
BRANCH   1  22
ATOM     22  C   UNL     1      -3.704   2.484  -3.298  1.00  0.00     0.023 C 
BRANCH  22  23
ATOM     23  C   UNL     1      -4.590   1.605  -4.178  1.00  0.00     0.116 C 
BRANCH  23  24
ATOM     24  N   UNL     1      -5.555   0.814  -3.425  1.00  0.00    -0.352 N 
ATOM     25  C   UNL     1      -6.912   0.696  -3.607  1.00  0.00     0.251 C 
ATOM     26  H   UNL     1      -5.181   0.290  -2.679  1.00  0.00     0.163 HD
ATOM     27  O   UNL     1      -7.595   0.053  -2.815  1.00  0.00    -0.269 OA
BRANCH  25  28
ATOM     28  C   UNL     1      -7.550   1.389  -4.742  1.00  0.00     0.039 A 
ATOM     29  C   UNL     1      -8.613   2.260  -4.490  1.00  0.00     0.014 A 
ATOM     30  C   UNL     1      -7.046   1.238  -6.036  1.00  0.00     0.014 A 
ATOM     31  C   UNL     1      -9.100   3.066  -5.521  1.00  0.00     0.010 A 
ATOM     32  C   UNL     1      -7.489   2.085  -7.046  1.00  0.00     0.010 A 
ATOM     33  C   UNL     1      -8.500   3.026  -6.790  1.00  0.00    -0.014 A 
BRANCH  33  34
ATOM     34  C   UNL     1      -8.855   4.005  -7.847  1.00  0.00     0.031 A 
ATOM     35  C   UNL     1      -9.468   3.538  -9.136  1.00  0.00     0.074 A 
ATOM     36  C   UNL     1      -8.510   5.298  -7.691  1.00  0.00     0.049 A 
ATOM     37  N   UNL     1      -9.713   4.221 -10.225  1.00  0.00    -0.248 NA
ATOM     38  C   UNL     1      -9.828   2.114  -9.223  1.00  0.00     0.031 C 
ATOM     39  C   UNL     1      -7.863   5.870  -6.507  1.00  0.00     0.029 A 
ATOM     40  N   UNL     1      -8.628   6.365  -8.549  1.00  0.00    -0.354 N 
ATOM     41  C   UNL     1     -10.226   3.307 -11.135  1.00  0.00     0.074 A 
ATOM     42  C   UNL     1     -10.236   2.016 -10.481  1.00  0.00     0.031 C 
ATOM     43  C   UNL     1      -7.643   7.178  -6.713  1.00  0.00     0.029 A 
ATOM     44  C   UNL     1      -8.092   7.530  -8.055  1.00  0.00     0.049 A 
ATOM     45  H   UNL     1      -9.056   6.300  -9.433  1.00  0.00     0.167 HD
ATOM     46  C   UNL     1     -10.657   3.526 -12.399  1.00  0.00     0.031 A 
ATOM     47  C   UNL     1      -7.952   8.741  -8.627  1.00  0.00     0.031 A 
ATOM     48  C   UNL     1     -10.675   4.813 -13.039  1.00  0.00     0.049 A 
ATOM     49  C   UNL     1      -8.434   8.952 -10.034  1.00  0.00     0.074 A 
ATOM     50  C   UNL     1     -11.190   5.149 -14.280  1.00  0.00     0.029 A 
ATOM     51  N   UNL     1     -10.148   5.973 -12.496  1.00  0.00    -0.354 N 
ATOM     52  N   UNL     1      -9.005   8.096 -10.846  1.00  0.00    -0.248 NA
ATOM     53  C   UNL     1      -8.252  10.295 -10.603  1.00  0.00     0.031 C 
ATOM     54  C   UNL     1     -10.929   6.503 -14.508  1.00  0.00     0.029 A 
ATOM     55  C   UNL     1     -10.290   7.018 -13.392  1.00  0.00     0.049 A 
ATOM     56  H   UNL     1      -9.734   6.043 -11.605  1.00  0.00     0.167 HD
ATOM     57  C   UNL     1      -9.264   8.801 -12.014  1.00  0.00     0.074 A 
ATOM     58  C   UNL     1      -8.806  10.158 -11.799  1.00  0.00     0.031 C 
ATOM     59  C   UNL     1      -9.827   8.361 -13.164  1.00  0.00     0.031 A 
BRANCH  46  60
ATOM     60  C   UNL     1     -11.143   2.345 -13.187  1.00  0.00    -0.014 A 
ATOM     61  C   UNL     1     -12.388   1.756 -12.920  1.00  0.00     0.009 A 
ATOM     62  C   UNL     1     -10.373   1.860 -14.256  1.00  0.00     0.009 A 
ATOM     63  C   UNL     1     -12.844   0.689 -13.697  1.00  0.00     0.001 A 
ATOM     64  C   UNL     1     -10.841   0.807 -15.044  1.00  0.00     0.001 A 
ATOM     65  C   UNL     1     -12.073   0.220 -14.761  1.00  0.00     0.000 A 
ENDBRANCH  46  60
BRANCH  47  66
ATOM     66  C   UNL     1      -7.302   9.850  -7.882  1.00  0.00    -0.014 A 
ATOM     67  C   UNL     1      -8.057  10.939  -7.422  1.00  0.00     0.009 A 
ATOM     68  C   UNL     1      -5.917   9.836  -7.651  1.00  0.00     0.009 A 
ATOM     69  C   UNL     1      -7.434  12.006  -6.771  1.00  0.00     0.001 A 
ATOM     70  C   UNL     1      -5.302  10.893  -6.976  1.00  0.00     0.001 A 
ATOM     71  C   UNL     1      -6.059  11.981  -6.547  1.00  0.00     0.000 A 
ENDBRANCH  47  66
BRANCH  59  72
ATOM     72  C   UNL     1      -9.995   9.359 -14.272  1.00  0.00    -0.014 A 
ATOM     73  C   UNL     1      -8.897   9.774 -15.041  1.00  0.00     0.009 A 
ATOM     74  C   UNL     1     -11.272   9.851 -14.581  1.00  0.00     0.009 A 
ATOM     75  C   UNL     1      -9.073  10.682 -16.086  1.00  0.00     0.001 A 
ATOM     76  C   UNL     1     -11.448  10.741 -15.642  1.00  0.00     0.001 A 
ATOM     77  C   UNL     1     -10.348  11.160 -16.388  1.00  0.00     0.000 A 
ENDBRANCH  59  72
ENDBRANCH  33  34
ENDBRANCH  25  28
ENDBRANCH  23  24
ENDBRANCH  22  23
ENDBRANCH   1  22
TORSDOF 15
