REMARK SMILES CCc1nn2c(nnc3c(=O)n([C@H](C(=O)NCCCCNC(=O)c4ccc(-c5c6nc(c(-c7ccccc7)c7ccc([nH]7)c(-c7ccccc7)c7nc(c(-c8ccccc8)c8ccc5[nH]8)C=C7)C=C6)cc4)C(C)C)ccc32)c1-c1ccc(Cl)cc1
REMARK SMILES IDX 18 1 17 2 16 3 14 4 15 5 13 7 12 8 3 9 4 10 78 11 5 12 6 13
REMARK SMILES IDX 77 14 7 15 9 16 76 17 8 18 10 19 75 20 11 21 2 22 1 23 79 24
REMARK SMILES IDX 80 25 85 26 81 27 84 28 82 29 83 30 72 31 73 32 74 33 19 34
REMARK SMILES IDX 20 35 21 36 22 37 23 39 24 40 25 41 71 42 26 43 70 44 27 45
REMARK SMILES IDX 28 46 29 47 64 48 30 49 69 50 63 51 65 52 31 53 68 54 62 55
REMARK SMILES IDX 61 56 32 58 54 59 39 60 53 61 40 62 43 63 52 64 66 65 41 66
REMARK SMILES IDX 42 67 51 69 67 70 44 71 33 72 34 73 38 74 35 75 37 76 36 77
REMARK SMILES IDX 55 78 56 79 60 80 57 81 59 82 58 83 45 84 46 85 50 86 47 87
REMARK SMILES IDX 49 88 48 89
REMARK H PARENT 16 6 21 38 65 57 43 68
REMARK Flexibility Score: inf
ROOT
ATOM      1  C   UNL     1       3.633   2.091  -6.976  1.00  0.00     0.023 C 
ENDROOT
BRANCH   1   2
ATOM      2  C   UNL     1       2.703   3.309  -7.011  1.00  0.00     0.116 C 
BRANCH   2   3
ATOM      3  N   UNL     1       2.806   4.091  -5.798  1.00  0.00    -0.354 N 
ATOM      4  C   UNL     1       3.464   5.267  -5.565  1.00  0.00     0.243 C 
ATOM      5  O   UNL     1       3.600   5.591  -4.384  1.00  0.00    -0.273 OA
ATOM      6  H   UNL     1       2.329   3.720  -5.021  1.00  0.00     0.163 HD
BRANCH   4   7
ATOM      7  C   UNL     1       3.985   6.121  -6.759  1.00  0.00     0.182 C 
BRANCH   7   8
ATOM      8  N   UNL     1       2.819   6.735  -7.461  1.00  0.00    -0.301 N 
ATOM      9  C   UNL     1      -1.930   9.267 -10.775  1.00  0.00     0.073 A 
ATOM     10  N   UNL     1      -0.781   8.573 -10.739  1.00  0.00    -0.170 NA
ATOM     11  C   UNL     1      -2.374   9.610  -9.474  1.00  0.00     0.052 A 
ATOM     12  N   UNL     1      -0.449   8.505  -9.414  1.00  0.00    -0.210 N 
ATOM     13  C   UNL     1      -1.400   9.139  -8.624  1.00  0.00     0.186 A 
ATOM     14  C   UNL     1       0.667   7.925  -8.798  1.00  0.00     0.102 A 
ATOM     15  N   UNL     1      -1.253   9.200  -7.271  1.00  0.00    -0.129 NA
ATOM     16  C   UNL     1       0.744   8.075  -7.462  1.00  0.00     0.177 A 
ATOM     17  C   UNL     1       1.695   7.197  -9.512  1.00  0.00     0.049 A 
ATOM     18  N   UNL     1      -0.228   8.722  -6.723  1.00  0.00    -0.141 NA
ATOM     19  C   UNL     1       1.930   7.530  -6.722  1.00  0.00     0.281 A 
ATOM     20  C   UNL     1       2.701   6.619  -8.841  1.00  0.00     0.092 A 
ATOM     21  O   UNL     1       2.066   7.778  -5.527  1.00  0.00    -0.267 OA
BRANCH   9  22
ATOM     22  C   UNL     1      -2.610   9.647 -12.057  1.00  0.00     0.055 C 
ATOM     23  C   UNL     1      -1.943   9.168 -13.335  1.00  0.00     0.011 C 
ENDBRANCH   9  22
BRANCH  11  24
ATOM     24  C   UNL     1      -3.548  10.313  -9.006  1.00  0.00    -0.013 A 
ATOM     25  C   UNL     1      -4.808   9.710  -9.092  1.00  0.00     0.010 A 
ATOM     26  C   UNL     1      -3.419  11.569  -8.401  1.00  0.00     0.010 A 
ATOM     27  C   UNL     1      -5.929  10.352  -8.558  1.00  0.00     0.021 A 
ATOM     28  C   UNL     1      -4.540  12.212  -7.872  1.00  0.00     0.021 A 
ATOM     29  C   UNL     1      -5.789  11.598  -7.946  1.00  0.00     0.041 A 
ATOM     30  Cl  UNL     1      -7.164  12.376  -7.266  1.00  0.00    -0.084 Cl
ENDBRANCH  11  24
ENDBRANCH   7   8
BRANCH   7  31
ATOM     31  C   UNL     1       5.069   7.160  -6.352  1.00  0.00     0.015 C 
ATOM     32  C   UNL     1       6.258   6.500  -5.634  1.00  0.00     0.010 C 
ATOM     33  C   UNL     1       5.617   7.900  -7.581  1.00  0.00     0.010 C 
ENDBRANCH   7  31
ENDBRANCH   4   7
ENDBRANCH   2   3
ENDBRANCH   1   2
BRANCH   1  34
ATOM     34  C   UNL     1       3.395   1.091  -5.833  1.00  0.00     0.023 C 
BRANCH  34  35
ATOM     35  C   UNL     1       1.989   0.512  -5.774  1.00  0.00     0.116 C 
BRANCH  35  36
ATOM     36  N   UNL     1       1.642  -0.256  -6.965  1.00  0.00    -0.352 N 
ATOM     37  C   UNL     1       0.445  -0.879  -7.261  1.00  0.00     0.251 C 
ATOM     38  H   UNL     1       2.350  -0.340  -7.644  1.00  0.00     0.163 HD
ATOM     39  O   UNL     1       0.397  -1.786  -8.077  1.00  0.00    -0.269 OA
BRANCH  37  40
ATOM     40  C   UNL     1      -0.785  -0.425  -6.583  1.00  0.00     0.039 A 
ATOM     41  C   UNL     1      -1.773  -1.336  -6.201  1.00  0.00     0.014 A 
ATOM     42  C   UNL     1      -0.952   0.939  -6.354  1.00  0.00     0.014 A 
ATOM     43  C   UNL     1      -2.901  -0.861  -5.537  1.00  0.00     0.010 A 
ATOM     44  C   UNL     1      -1.988   1.389  -5.575  1.00  0.00     0.010 A 
ATOM     45  C   UNL     1      -2.995   0.504  -5.219  1.00  0.00    -0.014 A 
BRANCH  45  46
ATOM     46  C   UNL     1      -4.125   1.013  -4.459  1.00  0.00     0.031 A 
ATOM     47  C   UNL     1      -4.361   0.342  -3.158  1.00  0.00     0.074 A 
ATOM     48  C   UNL     1      -4.840   2.101  -4.811  1.00  0.00     0.049 A 
ATOM     49  N   UNL     1      -5.313  -0.481  -2.876  1.00  0.00    -0.248 NA
ATOM     50  C   UNL     1      -3.370   0.513  -2.086  1.00  0.00     0.031 C 
ATOM     51  C   UNL     1      -4.599   3.063  -5.894  1.00  0.00     0.029 A 
ATOM     52  N   UNL     1      -5.931   2.619  -4.190  1.00  0.00    -0.354 N 
ATOM     53  C   UNL     1      -5.157  -0.804  -1.535  1.00  0.00     0.074 A 
ATOM     54  C   UNL     1      -3.872  -0.282  -1.137  1.00  0.00     0.031 C 
ATOM     55  C   UNL     1      -5.386   4.151  -5.719  1.00  0.00     0.029 A 
ATOM     56  C   UNL     1      -6.308   3.879  -4.634  1.00  0.00     0.049 A 
ATOM     57  H   UNL     1      -6.415   2.139  -3.480  1.00  0.00     0.167 HD
ATOM     58  C   UNL     1      -6.192  -1.285  -0.795  1.00  0.00     0.031 A 
ATOM     59  C   UNL     1      -7.318   4.631  -4.135  1.00  0.00     0.031 A 
ATOM     60  C   UNL     1      -7.294  -1.711  -1.618  1.00  0.00     0.049 A 
ATOM     61  C   UNL     1      -8.258   3.694  -3.477  1.00  0.00     0.074 A 
ATOM     62  C   UNL     1      -7.458  -2.662  -2.606  1.00  0.00     0.029 A 
ATOM     63  N   UNL     1      -8.340  -0.831  -1.766  1.00  0.00    -0.354 N 
ATOM     64  N   UNL     1      -8.950   2.800  -4.123  1.00  0.00    -0.248 NA
ATOM     65  C   UNL     1      -8.116   3.468  -2.049  1.00  0.00     0.031 C 
ATOM     66  C   UNL     1      -8.290  -2.036  -3.582  1.00  0.00     0.029 A 
ATOM     67  C   UNL     1      -8.636  -0.770  -3.104  1.00  0.00     0.049 A 
ATOM     68  H   UNL     1      -8.793  -0.337  -1.045  1.00  0.00     0.167 HD
ATOM     69  C   UNL     1      -8.961   1.694  -3.288  1.00  0.00     0.074 A 
ATOM     70  C   UNL     1      -8.525   2.198  -1.987  1.00  0.00     0.031 C 
ATOM     71  C   UNL     1      -9.060   0.430  -3.792  1.00  0.00     0.031 A 
BRANCH  58  72
ATOM     72  C   UNL     1      -6.351  -1.008   0.672  1.00  0.00    -0.014 A 
ATOM     73  C   UNL     1      -7.329  -1.702   1.403  1.00  0.00     0.009 A 
ATOM     74  C   UNL     1      -5.751   0.103   1.297  1.00  0.00     0.009 A 
ATOM     75  C   UNL     1      -7.707  -1.282   2.685  1.00  0.00     0.001 A 
ATOM     76  C   UNL     1      -6.099   0.500   2.589  1.00  0.00     0.001 A 
ATOM     77  C   UNL     1      -7.093  -0.181   3.276  1.00  0.00     0.000 A 
ENDBRANCH  58  72
BRANCH  59  78
ATOM     78  C   UNL     1      -7.364   6.088  -3.888  1.00  0.00    -0.014 A 
ATOM     79  C   UNL     1      -8.573   6.692  -3.499  1.00  0.00     0.009 A 
ATOM     80  C   UNL     1      -6.179   6.823  -3.713  1.00  0.00     0.009 A 
ATOM     81  C   UNL     1      -8.586   7.950  -2.882  1.00  0.00     0.001 A 
ATOM     82  C   UNL     1      -6.193   8.084  -3.104  1.00  0.00     0.001 A 
ATOM     83  C   UNL     1      -7.394   8.636  -2.666  1.00  0.00     0.000 A 
ENDBRANCH  59  78
BRANCH  71  84
ATOM     84  C   UNL     1      -9.384   0.278  -5.259  1.00  0.00    -0.014 A 
ATOM     85  C   UNL     1      -8.504   0.675  -6.282  1.00  0.00     0.009 A 
ATOM     86  C   UNL     1     -10.529  -0.450  -5.611  1.00  0.00     0.009 A 
ATOM     87  C   UNL     1      -8.769   0.353  -7.619  1.00  0.00     0.001 A 
ATOM     88  C   UNL     1     -10.785  -0.784  -6.942  1.00  0.00     0.001 A 
ATOM     89  C   UNL     1      -9.906  -0.385  -7.946  1.00  0.00     0.000 A 
ENDBRANCH  71  84
ENDBRANCH  45  46
ENDBRANCH  37  40
ENDBRANCH  35  36
ENDBRANCH  34  35
ENDBRANCH   1  34
TORSDOF 15
