REMARK SMILES COC(=O)c1c(NC(=O)[C@@H]2C[C@@H]2C(=O)NCCCCNC(=O)c2ccc(-c3c4nc(c(-c5ccccc5)c5ccc([nH]5)c(-c5ccccc5)c5nc(c(-c6ccccc6)c6ccc3[nH]6)C=C5)C=C4)cc2)sc2c1CC[N@@H+](Cc1ccccc1)C2
REMARK SMILES IDX 16 1 15 2 13 3 14 4 12 6 10 7 11 8 8 9 7 10 9 12 6 13 5 14
REMARK SMILES IDX 73 15 71 16 72 17 74 18 84 19 75 20 76 21 3 23 4 24 2 25
REMARK SMILES IDX 1 26 77 27 78 28 79 29 83 30 80 31 82 32 81 33 17 34 18 35
REMARK SMILES IDX 19 36 20 37 21 38 22 40 23 41 24 42 70 43 25 44 69 45 26 46
REMARK SMILES IDX 27 47 28 48 63 49 29 50 68 51 62 52 64 53 30 54 67 55 61 56
REMARK SMILES IDX 60 57 31 59 53 60 38 61 52 62 39 63 42 64 51 65 65 66 40 67
REMARK SMILES IDX 41 68 50 70 66 71 43 72 32 73 33 74 37 75 34 76 36 77 35 78
REMARK SMILES IDX 54 79 55 80 59 81 56 82 58 83 57 84 44 85 45 86 49 87 46 88
REMARK SMILES IDX 48 89 47 90
REMARK H PARENT 15 5 7 11 76 22 20 39 64 58 42 69
REMARK Flexibility Score: inf
ROOT
ATOM      1  C   UNL     1      -3.136  -2.502  -3.662  1.00  0.00     0.116 C 
ENDROOT
BRANCH   1   2
ATOM      2  N   UNL     1      -2.687  -1.381  -4.437  1.00  0.00    -0.356 N 
ATOM      3  C   UNL     1      -1.629  -0.540  -4.235  1.00  0.00     0.223 C 
ATOM      4  O   UNL     1      -1.212   0.068  -5.221  1.00  0.00    -0.275 OA
ATOM      5  H   UNL     1      -3.226  -1.187  -5.238  1.00  0.00     0.163 HD
BRANCH   3   6
ATOM      6  C   UNL     1      -0.971  -0.241  -2.933  1.00  0.00     0.091 C 
ATOM      7  C   UNL     1      -1.151  -0.460  -1.454  1.00  0.00     0.092 C 
ATOM      8  C   UNL     1      -1.811   0.715  -2.093  1.00  0.00     0.028 C 
BRANCH   7   9
ATOM      9  C   UNL     1      -1.913  -1.504  -0.755  1.00  0.00     0.228 C 
ATOM     10  N   UNL     1      -1.492  -2.811  -0.744  1.00  0.00    -0.317 N 
ATOM     11  H   UNL     1      -1.969  -3.404  -0.119  1.00  0.00     0.170 HD
ATOM     12  O   UNL     1      -2.944  -1.202  -0.160  1.00  0.00    -0.274 OA
BRANCH  10  13
ATOM     13  C   UNL     1      -0.497  -3.406  -1.484  1.00  0.00     0.110 A 
ATOM     14  C   UNL     1       0.766  -3.095  -1.955  1.00  0.00     0.098 A 
ATOM     15  C   UNL     1       1.224  -4.120  -2.875  1.00  0.00    -0.006 A 
ATOM     16  S   UNL     1      -1.014  -4.958  -1.964  1.00  0.00    -0.116 S 
ATOM     17  C   UNL     1       0.357  -5.191  -2.915  1.00  0.00     0.065 A 
ATOM     18  C   UNL     1       2.570  -4.218  -3.546  1.00  0.00     0.099 C 
ATOM     19  C   UNL     1       0.669  -6.497  -3.563  1.00  0.00     0.310 C 
ATOM     20  C   UNL     1       2.879  -5.643  -4.088  1.00  0.00     0.267 C 
ATOM     21  N   UNL     1       2.111  -6.775  -3.539  1.00  0.00    -0.326 N 
ATOM     22  H   UNL     1       2.279  -7.550  -4.179  1.00  0.00     0.348 HD
BRANCH  14  23
ATOM     23  C   UNL     1       1.603  -1.981  -1.522  1.00  0.00     0.341 C 
ATOM     24  O   UNL     1       2.444  -1.458  -2.232  1.00  0.00    -0.246 OA
BRANCH  23  25
ATOM     25  O   UNL     1       1.365  -1.629  -0.222  1.00  0.00    -0.465 OA
ATOM     26  C   UNL     1       2.132  -0.514   0.232  1.00  0.00     0.282 C 
ENDBRANCH  23  25
ENDBRANCH  14  23
BRANCH  21  27
ATOM     27  C   UNL     1       2.609  -7.355  -2.277  1.00  0.00     0.299 C 
BRANCH  27  28
ATOM     28  C   UNL     1       2.532  -6.512  -1.020  1.00  0.00     0.006 A 
ATOM     29  C   UNL     1       3.566  -5.628  -0.685  1.00  0.00     0.009 A 
ATOM     30  C   UNL     1       1.395  -6.549  -0.197  1.00  0.00     0.009 A 
ATOM     31  C   UNL     1       3.422  -4.731   0.376  1.00  0.00     0.001 A 
ATOM     32  C   UNL     1       1.244  -5.642   0.855  1.00  0.00     0.001 A 
ATOM     33  C   UNL     1       2.251  -4.721   1.129  1.00  0.00     0.000 A 
ENDBRANCH  27  28
ENDBRANCH  21  27
ENDBRANCH  10  13
ENDBRANCH   7   9
ENDBRANCH   3   6
ENDBRANCH   1   2
BRANCH   1  34
ATOM     34  C   UNL     1      -4.550  -2.386  -3.098  1.00  0.00     0.023 C 
BRANCH  34  35
ATOM     35  C   UNL     1      -5.620  -3.126  -3.914  1.00  0.00     0.023 C 
BRANCH  35  36
ATOM     36  C   UNL     1      -5.456  -4.647  -3.968  1.00  0.00     0.116 C 
BRANCH  36  37
ATOM     37  N   UNL     1      -5.776  -5.332  -2.719  1.00  0.00    -0.352 N 
ATOM     38  C   UNL     1      -5.709  -6.695  -2.486  1.00  0.00     0.251 C 
ATOM     39  H   UNL     1      -6.069  -4.768  -1.967  1.00  0.00     0.163 HD
ATOM     40  O   UNL     1      -6.328  -7.219  -1.568  1.00  0.00    -0.269 OA
BRANCH  38  41
ATOM     41  C   UNL     1      -4.854  -7.518  -3.365  1.00  0.00     0.039 A 
ATOM     42  C   UNL     1      -5.324  -8.687  -3.963  1.00  0.00     0.014 A 
ATOM     43  C   UNL     1      -3.562  -7.067  -3.617  1.00  0.00     0.014 A 
ATOM     44  C   UNL     1      -4.514  -9.343  -4.893  1.00  0.00     0.010 A 
ATOM     45  C   UNL     1      -2.792  -7.670  -4.589  1.00  0.00     0.010 A 
ATOM     46  C   UNL     1      -3.254  -8.819  -5.225  1.00  0.00    -0.014 A 
BRANCH  46  47
ATOM     47  C   UNL     1      -2.493  -9.369  -6.350  1.00  0.00     0.031 A 
ATOM     48  C   UNL     1      -3.199  -9.393  -7.662  1.00  0.00     0.074 A 
ATOM     49  C   UNL     1      -1.166  -9.621  -6.328  1.00  0.00     0.049 A 
ATOM     50  N   UNL     1      -3.474 -10.429  -8.384  1.00  0.00    -0.248 NA
ATOM     51  C   UNL     1      -3.705  -8.127  -8.214  1.00  0.00     0.031 C 
ATOM     52  C   UNL     1      -0.218  -9.369  -5.244  1.00  0.00     0.029 A 
ATOM     53  N   UNL     1      -0.356 -10.037  -7.344  1.00  0.00    -0.354 N 
ATOM     54  C   UNL     1      -4.048  -9.949  -9.558  1.00  0.00     0.074 A 
ATOM     55  C   UNL     1      -4.274  -8.539  -9.350  1.00  0.00     0.031 C 
ATOM     56  C   UNL     1       1.042  -9.379  -5.734  1.00  0.00     0.029 A 
ATOM     57  C   UNL     1       0.997  -9.825  -7.113  1.00  0.00     0.049 A 
ATOM     58  H   UNL     1      -0.701 -10.451  -8.168  1.00  0.00     0.167 HD
ATOM     59  C   UNL     1      -4.116 -10.708 -10.687  1.00  0.00     0.031 A 
ATOM     60  C   UNL     1       2.013  -9.986  -7.994  1.00  0.00     0.031 A 
ATOM     61  C   UNL     1      -3.845 -12.097 -10.421  1.00  0.00     0.049 A 
ATOM     62  C   UNL     1       1.538 -10.885  -9.066  1.00  0.00     0.074 A 
ATOM     63  C   UNL     1      -4.406 -13.068  -9.616  1.00  0.00     0.029 A 
ATOM     64  N   UNL     1      -2.608 -12.577 -10.775  1.00  0.00    -0.354 N 
ATOM     65  N   UNL     1       1.283 -12.147  -8.883  1.00  0.00    -0.248 NA
ATOM     66  C   UNL     1       0.968 -10.301 -10.268  1.00  0.00     0.031 C 
ATOM     67  C   UNL     1      -3.299 -13.826  -9.131  1.00  0.00     0.029 A 
ATOM     68  C   UNL     1      -2.141 -13.307  -9.714  1.00  0.00     0.049 A 
ATOM     69  H   UNL     1      -2.144 -12.425 -11.630  1.00  0.00     0.167 HD
ATOM     70  C   UNL     1       0.168 -12.394  -9.668  1.00  0.00     0.074 A 
ATOM     71  C   UNL     1       0.107 -11.268 -10.597  1.00  0.00     0.031 C 
ATOM     72  C   UNL     1      -0.756 -13.332  -9.301  1.00  0.00     0.031 A 
BRANCH  59  73
ATOM     73  C   UNL     1      -4.059 -10.152 -12.088  1.00  0.00    -0.014 A 
ATOM     74  C   UNL     1      -4.234 -11.030 -13.174  1.00  0.00     0.009 A 
ATOM     75  C   UNL     1      -3.560  -8.870 -12.384  1.00  0.00     0.009 A 
ATOM     76  C   UNL     1      -3.861 -10.668 -14.474  1.00  0.00     0.001 A 
ATOM     77  C   UNL     1      -3.228  -8.490 -13.688  1.00  0.00     0.001 A 
ATOM     78  C   UNL     1      -3.351  -9.399 -14.729  1.00  0.00     0.000 A 
ENDBRANCH  59  73
BRANCH  60  79
ATOM     79  C   UNL     1       3.305  -9.277  -8.082  1.00  0.00    -0.014 A 
ATOM     80  C   UNL     1       4.368  -9.818  -8.821  1.00  0.00     0.009 A 
ATOM     81  C   UNL     1       3.404  -7.935  -7.673  1.00  0.00     0.009 A 
ATOM     82  C   UNL     1       5.466  -9.028  -9.186  1.00  0.00     0.001 A 
ATOM     83  C   UNL     1       4.501  -7.147  -8.034  1.00  0.00     0.001 A 
ATOM     84  C   UNL     1       5.523  -7.688  -8.807  1.00  0.00     0.000 A 
ENDBRANCH  60  79
BRANCH  72  85
ATOM     85  C   UNL     1      -0.397 -14.281  -8.181  1.00  0.00    -0.014 A 
ATOM     86  C   UNL     1      -0.033 -13.851  -6.892  1.00  0.00     0.009 A 
ATOM     87  C   UNL     1      -0.551 -15.658  -8.398  1.00  0.00     0.009 A 
ATOM     88  C   UNL     1       0.218 -14.772  -5.870  1.00  0.00     0.001 A 
ATOM     89  C   UNL     1      -0.327 -16.577  -7.371  1.00  0.00     0.001 A 
ATOM     90  C   UNL     1       0.069 -16.135  -6.110  1.00  0.00     0.000 A 
ENDBRANCH  72  85
ENDBRANCH  46  47
ENDBRANCH  38  41
ENDBRANCH  36  37
ENDBRANCH  35  36
ENDBRANCH  34  35
ENDBRANCH   1  34
TORSDOF 17
