REMARK SMILES O=C(NCCCCNC(=O)[C@H]1[C@H]2CC[C@H](C2)[C@@H]1C(=O)N[C@H]1CCCc2ccccc21)c1ccc(-c2c3nc(c(-c4ccccc4)c4ccc([nH]4)c(-c4ccccc4)c4nc(c(-c5ccccc5)c5ccc2[nH]5)C=C4)C=C3)cc1
REMARK SMILES IDX 5 1 4 2 3 3 1 4 2 5 31 7 32 8 78 9 33 10 77 11 34 12 35 13
REMARK SMILES IDX 36 14 71 15 37 16 76 17 70 18 72 19 38 20 75 21 69 22 68 23
REMARK SMILES IDX 39 25 61 26 46 27 60 28 47 29 50 30 59 31 73 32 48 33 49 34
REMARK SMILES IDX 58 36 74 37 51 38 40 39 41 40 45 41 42 42 44 43 43 44 62 45
REMARK SMILES IDX 63 46 67 47 64 48 66 49 65 50 52 51 53 52 57 53 54 54 56 55
REMARK SMILES IDX 55 56 6 57 7 58 8 59 9 60 10 62 11 63 12 64 17 65 13 66
REMARK SMILES IDX 16 67 15 68 14 69 18 70 19 71 20 72 21 74 22 75 30 76 23 77
REMARK SMILES IDX 25 78 29 79 24 80 26 81 28 82 27 83
REMARK H PARENT 3 6 72 24 50 35 8 61 20 73
REMARK Flexibility Score: inf
ROOT
ATOM      1  C   UNL     1       8.569  11.648  -6.542  1.00  0.00     0.023 C 
ENDROOT
BRANCH   1   2
ATOM      2  C   UNL     1       8.408  11.007  -7.906  1.00  0.00     0.116 C 
BRANCH   2   3
ATOM      3  N   UNL     1       7.136  10.328  -8.080  1.00  0.00    -0.352 N 
ATOM      4  O   UNL     1       5.362   9.569  -9.261  1.00  0.00    -0.269 OA
ATOM      5  C   UNL     1       6.447  10.119  -9.253  1.00  0.00     0.251 C 
ATOM      6  H   UNL     1       6.718   9.975  -7.262  1.00  0.00     0.163 HD
BRANCH   5   7
ATOM      7  C   UNL     1       7.045  10.620 -10.506  1.00  0.00     0.039 A 
ATOM      8  C   UNL     1       8.325  10.212 -10.886  1.00  0.00     0.014 A 
ATOM      9  C   UNL     1       6.324  11.536 -11.275  1.00  0.00     0.014 A 
ATOM     10  C   UNL     1       8.925  10.796 -11.994  1.00  0.00     0.010 A 
ATOM     11  C   UNL     1       6.910  12.084 -12.416  1.00  0.00     0.010 A 
ATOM     12  C   UNL     1       8.221  11.734 -12.770  1.00  0.00    -0.014 A 
BRANCH  12  13
ATOM     13  C   UNL     1       8.855  12.285 -13.989  1.00  0.00     0.031 A 
ATOM     14  C   UNL     1       9.292  13.719 -14.058  1.00  0.00     0.074 A 
ATOM     15  C   UNL     1       9.063  11.452 -15.026  1.00  0.00     0.049 A 
ATOM     16  N   UNL     1       9.877  14.352 -15.043  1.00  0.00    -0.248 NA
ATOM     17  C   UNL     1       9.035  14.556 -12.875  1.00  0.00     0.031 C 
ATOM     18  C   UNL     1       8.670  10.041 -15.062  1.00  0.00     0.029 A 
ATOM     19  N   UNL     1       9.678  11.659 -16.232  1.00  0.00    -0.354 N 
ATOM     20  C   UNL     1      10.032  15.664 -14.613  1.00  0.00     0.074 A 
ATOM     21  C   UNL     1       9.480  15.740 -13.278  1.00  0.00     0.031 C 
ATOM     22  C   UNL     1       9.105   9.494 -16.206  1.00  0.00     0.029 A 
ATOM     23  C   UNL     1       9.757  10.526 -17.004  1.00  0.00     0.049 A 
ATOM     24  H   UNL     1      10.029  12.533 -16.518  1.00  0.00     0.167 HD
ATOM     25  C   UNL     1      10.584  16.708 -15.278  1.00  0.00     0.031 A 
ATOM     26  C   UNL     1      10.289  10.338 -18.224  1.00  0.00     0.031 A 
ATOM     27  C   UNL     1      11.151  16.616 -16.599  1.00  0.00     0.049 A 
ATOM     28  C   UNL     1      10.906  11.506 -18.929  1.00  0.00     0.074 A 
ATOM     29  C   UNL     1      11.759  17.606 -17.350  1.00  0.00     0.029 A 
ATOM     30  N   UNL     1      11.183  15.458 -17.362  1.00  0.00    -0.354 N 
ATOM     31  N   UNL     1      11.045  12.739 -18.507  1.00  0.00    -0.248 NA
ATOM     32  C   UNL     1      11.425  11.262 -20.280  1.00  0.00     0.031 C 
ATOM     33  C   UNL     1      12.141  17.052 -18.578  1.00  0.00     0.029 A 
ATOM     34  C   UNL     1      11.790  15.711 -18.580  1.00  0.00     0.049 A 
ATOM     35  H   UNL     1      10.827  14.585 -17.079  1.00  0.00     0.167 HD
ATOM     36  C   UNL     1      11.658  13.425 -19.544  1.00  0.00     0.074 A 
ATOM     37  C   UNL     1      11.891  12.461 -20.603  1.00  0.00     0.031 C 
ATOM     38  C   UNL     1      11.991  14.736 -19.619  1.00  0.00     0.031 A 
BRANCH  25  39
ATOM     39  C   UNL     1      10.585  18.048 -14.598  1.00  0.00    -0.014 A 
ATOM     40  C   UNL     1      11.510  18.351 -13.588  1.00  0.00     0.009 A 
ATOM     41  C   UNL     1       9.684  19.041 -15.015  1.00  0.00     0.009 A 
ATOM     42  C   UNL     1      11.520  19.617 -12.996  1.00  0.00     0.001 A 
ATOM     43  C   UNL     1       9.707  20.310 -14.433  1.00  0.00     0.001 A 
ATOM     44  C   UNL     1      10.623  20.596 -13.421  1.00  0.00     0.000 A 
ENDBRANCH  25  39
BRANCH  26  45
ATOM     45  C   UNL     1      10.243   8.989 -18.840  1.00  0.00    -0.014 A 
ATOM     46  C   UNL     1      11.398   8.197 -18.907  1.00  0.00     0.009 A 
ATOM     47  C   UNL     1       9.026   8.462 -19.301  1.00  0.00     0.009 A 
ATOM     48  C   UNL     1      11.333   6.899 -19.420  1.00  0.00     0.001 A 
ATOM     49  C   UNL     1       8.961   7.157 -19.792  1.00  0.00     0.001 A 
ATOM     50  C   UNL     1      10.114   6.377 -19.852  1.00  0.00     0.000 A 
ENDBRANCH  26  45
BRANCH  38  51
ATOM     51  C   UNL     1      12.631  15.185 -20.896  1.00  0.00    -0.014 A 
ATOM     52  C   UNL     1      11.854  15.414 -22.042  1.00  0.00     0.009 A 
ATOM     53  C   UNL     1      14.018  15.379 -20.956  1.00  0.00     0.009 A 
ATOM     54  C   UNL     1      12.462  15.799 -23.237  1.00  0.00     0.001 A 
ATOM     55  C   UNL     1      14.621  15.780 -22.148  1.00  0.00     0.001 A 
ATOM     56  C   UNL     1      13.844  15.981 -23.289  1.00  0.00     0.000 A 
ENDBRANCH  38  51
ENDBRANCH  12  13
ENDBRANCH   5   7
ENDBRANCH   2   3
ENDBRANCH   1   2
BRANCH   1  57
ATOM     57  C   UNL     1       8.310  10.731  -5.353  1.00  0.00     0.023 C 
BRANCH  57  58
ATOM     58  C   UNL     1       9.142   9.445  -5.293  1.00  0.00     0.116 C 
BRANCH  58  59
ATOM     59  N   UNL     1      10.567   9.670  -5.148  1.00  0.00    -0.356 N 
ATOM     60  C   UNL     1      11.402   9.587  -4.078  1.00  0.00     0.224 C 
ATOM     61  H   UNL     1      11.016   9.934  -5.984  1.00  0.00     0.163 HD
ATOM     62  O   UNL     1      12.605   9.497  -4.349  1.00  0.00    -0.275 OA
BRANCH  60  63
ATOM     63  C   UNL     1      10.944   9.483  -2.616  1.00  0.00     0.094 C 
ATOM     64  C   UNL     1      11.855  10.187  -1.584  1.00  0.00     0.002 C 
ATOM     65  C   UNL     1       9.632  10.066  -2.180  1.00  0.00     0.094 C 
ATOM     66  C   UNL     1      12.220  11.572  -2.102  1.00  0.00     0.005 C 
ATOM     67  C   UNL     1      10.982  10.670  -0.362  1.00  0.00     0.009 C 
ATOM     68  C   UNL     1       9.959  11.290  -1.235  1.00  0.00     0.002 C 
ATOM     69  C   UNL     1      10.940  12.361  -1.772  1.00  0.00     0.005 C 
BRANCH  65  70
ATOM     70  C   UNL     1       8.678   8.895  -1.783  1.00  0.00     0.224 C 
ATOM     71  O   UNL     1       7.459   9.123  -1.877  1.00  0.00    -0.275 OA
ATOM     72  N   UNL     1       9.001   7.562  -1.624  1.00  0.00    -0.349 N 
ATOM     73  H   UNL     1       8.398   7.040  -2.200  1.00  0.00     0.164 HD
BRANCH  72  74
ATOM     74  C   UNL     1       9.939   6.561  -0.898  1.00  0.00     0.112 C 
ATOM     75  C   UNL     1      10.141   5.286  -1.746  1.00  0.00     0.030 C 
ATOM     76  C   UNL     1      11.285   6.918  -0.282  1.00  0.00    -0.022 A 
ATOM     77  C   UNL     1      10.878   4.224  -0.909  1.00  0.00     0.007 C 
ATOM     78  C   UNL     1      12.398   6.082  -0.147  1.00  0.00    -0.043 A 
ATOM     79  C   UNL     1      11.382   8.067   0.437  1.00  0.00     0.006 A 
ATOM     80  C   UNL     1      12.298   4.636  -0.515  1.00  0.00     0.036 C 
ATOM     81  C   UNL     1      13.621   6.555   0.406  1.00  0.00     0.004 A 
ATOM     82  C   UNL     1      12.598   8.610   0.888  1.00  0.00     0.000 A 
ATOM     83  C   UNL     1      13.749   7.866   0.824  1.00  0.00     0.000 A 
ENDBRANCH  72  74
ENDBRANCH  65  70
ENDBRANCH  60  63
ENDBRANCH  58  59
ENDBRANCH  57  58
ENDBRANCH   1  57
TORSDOF 13
