REMARK SMILES O=C(NCCCCNC(=O)[C@H]1CCCCN1C(=O)CCl)c1ccc(-c2c3nc(c(-c4ccccc4)c4ccc([nH]4)c(-c4ccccc4)c4nc(c(-c5ccccc5)c5ccc2[nH]5)C=C4)C=C3)cc1
REMARK SMILES IDX 5 1 4 2 3 3 1 4 2 5 21 7 22 8 68 9 23 10 67 11 24 12 25 13
REMARK SMILES IDX 26 14 61 15 27 16 66 17 60 18 62 19 28 20 65 21 59 22 58 23
REMARK SMILES IDX 29 25 51 26 36 27 50 28 37 29 40 30 49 31 63 32 38 33 39 34
REMARK SMILES IDX 48 36 64 37 41 38 30 39 31 40 35 41 32 42 34 43 33 44 52 45
REMARK SMILES IDX 53 46 57 47 54 48 56 49 55 50 42 51 43 52 47 53 44 54 46 55
REMARK SMILES IDX 45 56 6 57 7 58 8 59 9 60 10 62 11 63 12 64 16 65 13 66
REMARK SMILES IDX 15 67 14 68 17 69 18 70 19 71 20 72
REMARK H PARENT 3 6 62 24 40 35 8 61
REMARK Flexibility Score: inf
ROOT
ATOM      1  C   UNL     1       3.233 -10.346   0.719  1.00  0.00     0.023 C 
ENDROOT
BRANCH   1   2
ATOM      2  C   UNL     1       3.255 -11.203  -0.538  1.00  0.00     0.116 C 
BRANCH   2   3
ATOM      3  N   UNL     1       4.146 -12.354  -0.459  1.00  0.00    -0.352 N 
ATOM      4  O   UNL     1       4.798 -14.486  -0.854  1.00  0.00    -0.269 OA
ATOM      5  C   UNL     1       3.997 -13.582  -1.060  1.00  0.00     0.251 C 
ATOM      6  H   UNL     1       4.954 -12.238   0.091  1.00  0.00     0.163 HD
BRANCH   5   7
ATOM      7  C   UNL     1       2.818 -13.801  -1.917  1.00  0.00     0.039 A 
ATOM      8  C   UNL     1       2.498 -12.871  -2.908  1.00  0.00     0.014 A 
ATOM      9  C   UNL     1       1.981 -14.887  -1.656  1.00  0.00     0.014 A 
ATOM     10  C   UNL     1       1.256 -12.932  -3.521  1.00  0.00     0.010 A 
ATOM     11  C   UNL     1       0.772 -14.998  -2.343  1.00  0.00     0.010 A 
ATOM     12  C   UNL     1       0.384 -13.999  -3.249  1.00  0.00    -0.014 A 
BRANCH  12  13
ATOM     13  C   UNL     1      -0.912 -14.069  -3.962  1.00  0.00     0.031 A 
ATOM     14  C   UNL     1      -2.214 -13.952  -3.224  1.00  0.00     0.074 A 
ATOM     15  C   UNL     1      -0.896 -14.208  -5.301  1.00  0.00     0.049 A 
ATOM     16  N   UNL     1      -3.433 -14.008  -3.698  1.00  0.00    -0.248 NA
ATOM     17  C   UNL     1      -2.144 -13.751  -1.768  1.00  0.00     0.031 C 
ATOM     18  C   UNL     1       0.313 -14.319  -6.122  1.00  0.00     0.029 A 
ATOM     19  N   UNL     1      -1.920 -14.255  -6.208  1.00  0.00    -0.354 N 
ATOM     20  C   UNL     1      -4.274 -13.884  -2.599  1.00  0.00     0.074 A 
ATOM     21  C   UNL     1      -3.428 -13.757  -1.432  1.00  0.00     0.031 C 
ATOM     22  C   UNL     1      -0.037 -14.368  -7.415  1.00  0.00     0.029 A 
ATOM     23  C   UNL     1      -1.492 -14.366  -7.507  1.00  0.00     0.049 A 
ATOM     24  H   UNL     1      -2.870 -14.213  -5.953  1.00  0.00     0.167 HD
ATOM     25  C   UNL     1      -5.628 -13.880  -2.571  1.00  0.00     0.031 A 
ATOM     26  C   UNL     1      -2.190 -14.479  -8.649  1.00  0.00     0.031 A 
ATOM     27  C   UNL     1      -6.463 -13.997  -3.738  1.00  0.00     0.049 A 
ATOM     28  C   UNL     1      -3.686 -14.495  -8.586  1.00  0.00     0.074 A 
ATOM     29  C   UNL     1      -7.845 -13.982  -3.816  1.00  0.00     0.029 A 
ATOM     30  N   UNL     1      -5.991 -14.148  -5.033  1.00  0.00    -0.354 N 
ATOM     31  N   UNL     1      -4.465 -14.378  -7.538  1.00  0.00    -0.248 NA
ATOM     32  C   UNL     1      -4.397 -14.665  -9.858  1.00  0.00     0.031 C 
ATOM     33  C   UNL     1      -8.209 -14.167  -5.155  1.00  0.00     0.029 A 
ATOM     34  C   UNL     1      -7.054 -14.249  -5.915  1.00  0.00     0.049 A 
ATOM     35  H   UNL     1      -5.040 -14.180  -5.288  1.00  0.00     0.167 HD
ATOM     36  C   UNL     1      -5.762 -14.456  -8.024  1.00  0.00     0.074 A 
ATOM     37  C   UNL     1      -5.662 -14.606  -9.463  1.00  0.00     0.031 C 
ATOM     38  C   UNL     1      -6.930 -14.411  -7.340  1.00  0.00     0.031 A 
BRANCH  25  39
ATOM     39  C   UNL     1      -6.295 -13.783  -1.227  1.00  0.00    -0.014 A 
ATOM     40  C   UNL     1      -6.329 -12.576  -0.511  1.00  0.00     0.009 A 
ATOM     41  C   UNL     1      -6.935 -14.910  -0.688  1.00  0.00     0.009 A 
ATOM     42  C   UNL     1      -6.967 -12.509   0.731  1.00  0.00     0.001 A 
ATOM     43  C   UNL     1      -7.591 -14.835   0.542  1.00  0.00     0.001 A 
ATOM     44  C   UNL     1      -7.600 -13.636   1.254  1.00  0.00     0.000 A 
ENDBRANCH  25  39
BRANCH  26  45
ATOM     45  C   UNL     1      -1.465 -14.609  -9.937  1.00  0.00    -0.014 A 
ATOM     46  C   UNL     1      -1.437 -13.545 -10.850  1.00  0.00     0.009 A 
ATOM     47  C   UNL     1      -0.753 -15.783 -10.234  1.00  0.00     0.009 A 
ATOM     48  C   UNL     1      -0.715 -13.659 -12.040  1.00  0.00     0.001 A 
ATOM     49  C   UNL     1      -0.011 -15.882 -11.411  1.00  0.00     0.001 A 
ATOM     50  C   UNL     1       0.003 -14.822 -12.315  1.00  0.00     0.000 A 
ENDBRANCH  26  45
BRANCH  38  51
ATOM     51  C   UNL     1      -8.188 -14.509  -8.151  1.00  0.00    -0.014 A 
ATOM     52  C   UNL     1      -8.609 -15.736  -8.686  1.00  0.00     0.009 A 
ATOM     53  C   UNL     1      -8.969 -13.364  -8.366  1.00  0.00     0.009 A 
ATOM     54  C   UNL     1      -9.775 -15.807  -9.449  1.00  0.00     0.001 A 
ATOM     55  C   UNL     1     -10.146 -13.442  -9.111  1.00  0.00     0.001 A 
ATOM     56  C   UNL     1     -10.543 -14.661  -9.659  1.00  0.00     0.000 A 
ENDBRANCH  38  51
ENDBRANCH  12  13
ENDBRANCH   5   7
ENDBRANCH   2   3
ENDBRANCH   1   2
BRANCH   1  57
ATOM     57  C   UNL     1       4.602  -9.849   1.167  1.00  0.00     0.023 C 
BRANCH  57  58
ATOM     58  C   UNL     1       5.297  -8.893   0.199  1.00  0.00     0.116 C 
BRANCH  58  59
ATOM     59  N   UNL     1       4.886  -7.528   0.419  1.00  0.00    -0.354 N 
ATOM     60  C   UNL     1       5.374  -6.534   1.203  1.00  0.00     0.242 C 
ATOM     61  H   UNL     1       4.095  -7.265  -0.103  1.00  0.00     0.163 HD
ATOM     62  O   UNL     1       4.715  -5.483   1.173  1.00  0.00    -0.273 OA
BRANCH  60  63
ATOM     63  C   UNL     1       6.602  -6.640   2.163  1.00  0.00     0.174 C 
ATOM     64  C   UNL     1       6.152  -6.310   3.597  1.00  0.00     0.035 C 
ATOM     65  N   UNL     1       7.542  -7.784   2.126  1.00  0.00    -0.330 N 
ATOM     66  C   UNL     1       5.647  -7.542   4.328  1.00  0.00     0.004 C 
ATOM     67  C   UNL     1       7.337  -8.916   3.038  1.00  0.00     0.120 C 
ATOM     68  C   UNL     1       6.764  -8.567   4.404  1.00  0.00     0.022 C 
BRANCH  65  69
ATOM     69  C   UNL     1       8.549  -7.745   1.154  1.00  0.00     0.238 C 
ATOM     70  O   UNL     1       8.668  -6.788   0.385  1.00  0.00    -0.273 OA
BRANCH  69  71
ATOM     71  C   UNL     1       9.471  -8.942   0.999  1.00  0.00     0.209 C 
ATOM     72  Cl  UNL     1      10.774  -8.861   2.200  1.00  0.00    -0.116 Cl
ENDBRANCH  69  71
ENDBRANCH  65  69
ENDBRANCH  60  63
ENDBRANCH  58  59
ENDBRANCH  57  58
ENDBRANCH   1  57
TORSDOF 13
