REMARK SMILES O=C(NCCCCNC(=O)c1ccc(-n2cc(CSc3nc4ccccc4c(=O)n3-c3ccccc3)nn2)cc1)c1ccc(-c2c3nc(c(-c4ccccc4)c4ccc([nH]4)c(-c4ccccc4)c4nc(c(-c5ccccc5)c5ccc2[nH]5)C=C4)C=C3)cc1
REMARK SMILES IDX 7 1 6 2 5 3 4 4 3 5 1 6 2 7 41 9 42 10 88 11 43 12 87 13
REMARK SMILES IDX 44 14 45 15 46 16 81 17 47 18 86 19 80 20 82 21 48 22 85 23
REMARK SMILES IDX 79 24 78 25 49 27 71 28 56 29 70 30 57 31 60 32 69 33 83 34
REMARK SMILES IDX 58 35 59 36 68 38 84 39 61 40 50 41 51 42 55 43 52 44 54 45
REMARK SMILES IDX 53 46 72 47 73 48 77 49 74 50 76 51 75 52 62 53 63 54 67 55
REMARK SMILES IDX 64 56 66 57 65 58 8 59 9 60 10 62 11 63 12 64 40 65 13 66
REMARK SMILES IDX 39 67 14 68 15 69 16 70 38 71 17 72 37 73 18 74 19 75 20 76
REMARK SMILES IDX 21 77 30 78 22 79 28 80 23 81 27 82 29 83 24 84 26 85 25 86
REMARK SMILES IDX 31 87 32 88 36 89 33 90 35 91 34 92
REMARK H PARENT 3 8 82 26 60 37 8 61
REMARK Flexibility Score: inf
ROOT
ATOM      1  C   UNL     1       4.824  -2.456   3.389  1.00  0.00     0.116 C 
ENDROOT
BRANCH   1   2
ATOM      2  C   UNL     1       4.426  -0.982   3.390  1.00  0.00     0.023 C 
BRANCH   2   3
ATOM      3  C   UNL     1       4.931  -0.150   2.208  1.00  0.00     0.023 C 
BRANCH   3   4
ATOM      4  C   UNL     1       4.644  -0.728   0.824  1.00  0.00     0.116 C 
BRANCH   4   5
ATOM      5  N   UNL     1       3.244  -0.965   0.537  1.00  0.00    -0.352 N 
ATOM      6  O   UNL     1       1.186  -0.797  -0.249  1.00  0.00    -0.269 OA
ATOM      7  C   UNL     1       2.215  -0.195   0.070  1.00  0.00     0.251 C 
ATOM      8  H   UNL     1       2.971  -1.893   0.719  1.00  0.00     0.163 HD
BRANCH   7   9
ATOM      9  C   UNL     1       2.217   1.291   0.007  1.00  0.00     0.039 A 
ATOM     10  C   UNL     1       3.343   2.115   0.038  1.00  0.00     0.014 A 
ATOM     11  C   UNL     1       0.945   1.893  -0.068  1.00  0.00     0.014 A 
ATOM     12  C   UNL     1       3.197   3.501   0.093  1.00  0.00     0.010 A 
ATOM     13  C   UNL     1       0.794   3.272  -0.021  1.00  0.00     0.010 A 
ATOM     14  C   UNL     1       1.922   4.075   0.097  1.00  0.00    -0.014 A 
BRANCH  14  15
ATOM     15  C   UNL     1       1.805   5.530   0.041  1.00  0.00     0.031 A 
ATOM     16  C   UNL     1       2.261   6.131  -1.244  1.00  0.00     0.074 A 
ATOM     17  C   UNL     1       1.194   6.279   0.981  1.00  0.00     0.049 A 
ATOM     18  N   UNL     1       3.242   6.952  -1.431  1.00  0.00    -0.248 NA
ATOM     19  C   UNL     1       1.612   5.682  -2.487  1.00  0.00     0.031 C 
ATOM     20  C   UNL     1       0.435   5.822   2.147  1.00  0.00     0.029 A 
ATOM     21  N   UNL     1       1.032   7.634   1.025  1.00  0.00    -0.354 N 
ATOM     22  C   UNL     1       3.237   7.259  -2.790  1.00  0.00     0.074 A 
ATOM     23  C   UNL     1       2.306   6.350  -3.410  1.00  0.00     0.031 C 
ATOM     24  C   UNL     1      -0.291   6.853   2.640  1.00  0.00     0.029 A 
ATOM     25  C   UNL     1       0.053   8.065   1.914  1.00  0.00     0.049 A 
ATOM     26  H   UNL     1       1.563   8.254   0.474  1.00  0.00     0.167 HD
ATOM     27  C   UNL     1       3.837   8.380  -3.275  1.00  0.00     0.031 A 
ATOM     28  C   UNL     1      -0.473   9.314   2.007  1.00  0.00     0.031 A 
ATOM     29  C   UNL     1       4.734   8.968  -2.318  1.00  0.00     0.049 A 
ATOM     30  C   UNL     1       0.465  10.249   1.347  1.00  0.00     0.074 A 
ATOM     31  C   UNL     1       5.884   8.561  -1.674  1.00  0.00     0.029 A 
ATOM     32  N   UNL     1       4.269  10.053  -1.615  1.00  0.00    -0.354 N 
ATOM     33  N   UNL     1       1.637  10.546   1.826  1.00  0.00    -0.248 NA
ATOM     34  C   UNL     1       0.277  10.527  -0.067  1.00  0.00     0.031 C 
ATOM     35  C   UNL     1       5.777   9.104  -0.360  1.00  0.00     0.029 A 
ATOM     36  C   UNL     1       4.606   9.863  -0.303  1.00  0.00     0.049 A 
ATOM     37  H   UNL     1       3.783  10.824  -1.987  1.00  0.00     0.167 HD
ATOM     38  C   UNL     1       2.461  10.604   0.713  1.00  0.00     0.074 A 
ATOM     39  C   UNL     1       1.552  10.689  -0.429  1.00  0.00     0.031 C 
ATOM     40  C   UNL     1       3.787  10.292   0.806  1.00  0.00     0.031 A 
BRANCH  27  41
ATOM     41  C   UNL     1       3.308   9.177  -4.442  1.00  0.00    -0.014 A 
ATOM     42  C   UNL     1       4.037  10.300  -4.878  1.00  0.00     0.009 A 
ATOM     43  C   UNL     1       1.990   9.053  -4.920  1.00  0.00     0.009 A 
ATOM     44  C   UNL     1       3.447  11.287  -5.678  1.00  0.00     0.001 A 
ATOM     45  C   UNL     1       1.412  10.016  -5.752  1.00  0.00     0.001 A 
ATOM     46  C   UNL     1       2.131  11.149  -6.105  1.00  0.00     0.000 A 
ENDBRANCH  27  41
BRANCH  28  47
ATOM     47  C   UNL     1      -1.843   9.735   2.378  1.00  0.00    -0.014 A 
ATOM     48  C   UNL     1      -2.121  11.070   2.722  1.00  0.00     0.009 A 
ATOM     49  C   UNL     1      -2.935   8.891   2.110  1.00  0.00     0.009 A 
ATOM     50  C   UNL     1      -3.439  11.549   2.754  1.00  0.00     0.001 A 
ATOM     51  C   UNL     1      -4.250   9.369   2.144  1.00  0.00     0.001 A 
ATOM     52  C   UNL     1      -4.501  10.702   2.450  1.00  0.00     0.000 A 
ENDBRANCH  28  47
BRANCH  40  53
ATOM     53  C   UNL     1       4.382  10.131   2.182  1.00  0.00    -0.014 A 
ATOM     54  C   UNL     1       3.941   9.167   3.107  1.00  0.00     0.009 A 
ATOM     55  C   UNL     1       5.527  10.878   2.494  1.00  0.00     0.009 A 
ATOM     56  C   UNL     1       4.612   8.983   4.321  1.00  0.00     0.001 A 
ATOM     57  C   UNL     1       6.209  10.678   3.695  1.00  0.00     0.001 A 
ATOM     58  C   UNL     1       5.748   9.735   4.611  1.00  0.00     0.000 A 
ENDBRANCH  40  53
ENDBRANCH  14  15
ENDBRANCH   7   9
ENDBRANCH   4   5
ENDBRANCH   3   4
ENDBRANCH   2   3
ENDBRANCH   1   2
BRANCH   1  59
ATOM     59  N   UNL     1       6.262  -2.653   3.445  1.00  0.00    -0.352 N 
ATOM     60  C   UNL     1       7.022  -3.322   4.377  1.00  0.00     0.251 C 
ATOM     61  H   UNL     1       6.769  -2.247   2.705  1.00  0.00     0.163 HD
ATOM     62  O   UNL     1       8.239  -3.292   4.313  1.00  0.00    -0.269 OA
BRANCH  60  63
ATOM     63  C   UNL     1       6.361  -4.070   5.470  1.00  0.00     0.039 A 
ATOM     64  C   UNL     1       6.761  -3.825   6.787  1.00  0.00     0.016 A 
ATOM     65  C   UNL     1       5.395  -5.041   5.193  1.00  0.00     0.016 A 
ATOM     66  C   UNL     1       6.157  -4.514   7.843  1.00  0.00     0.029 A 
ATOM     67  C   UNL     1       4.803  -5.745   6.241  1.00  0.00     0.029 A 
ATOM     68  C   UNL     1       5.192  -5.491   7.568  1.00  0.00     0.066 A 
BRANCH  68  69
ATOM     69  N   UNL     1       4.688  -6.286   8.623  1.00  0.00    -0.220 N 
ATOM     70  C   UNL     1       4.110  -7.522   8.514  1.00  0.00     0.141 A 
ATOM     71  N   UNL     1       4.762  -5.947   9.931  1.00  0.00    -0.062 NA
ATOM     72  C   UNL     1       3.966  -7.980   9.803  1.00  0.00     0.093 A 
ATOM     73  N   UNL     1       4.303  -6.965  10.656  1.00  0.00    -0.134 NA
BRANCH  72  74
ATOM     74  C   UNL     1       3.358  -9.246  10.262  1.00  0.00     0.138 C 
BRANCH  74  75
ATOM     75  S   UNL     1       4.341 -10.675  10.725  1.00  0.00    -0.081 SA
BRANCH  75  76
ATOM     76  C   UNL     1       5.984 -10.598  10.141  1.00  0.00     0.176 A 
ATOM     77  N   UNL     1       6.826 -11.091  11.003  1.00  0.00    -0.223 NA
ATOM     78  N   UNL     1       6.406 -10.109   8.912  1.00  0.00    -0.255 N 
ATOM     79  C   UNL     1       8.195 -11.011  10.728  1.00  0.00     0.079 A 
ATOM     80  C   UNL     1       7.651  -9.461   8.949  1.00  0.00     0.266 A 
ATOM     81  C   UNL     1       9.118 -11.787  11.429  1.00  0.00     0.029 A 
ATOM     82  C   UNL     1       8.665 -10.073   9.822  1.00  0.00     0.066 A 
ATOM     83  O   UNL     1       7.958  -8.445   8.329  1.00  0.00    -0.268 OA
ATOM     84  C   UNL     1      10.492 -11.567  11.269  1.00  0.00     0.002 A 
ATOM     85  C   UNL     1      10.030  -9.800   9.691  1.00  0.00     0.016 A 
ATOM     86  C   UNL     1      10.946 -10.547  10.430  1.00  0.00     0.001 A 
BRANCH  78  87
ATOM     87  C   UNL     1       5.713 -10.193   7.639  1.00  0.00     0.051 A 
ATOM     88  C   UNL     1       6.366  -9.807   6.449  1.00  0.00     0.027 A 
ATOM     89  C   UNL     1       4.410 -10.680   7.474  1.00  0.00     0.027 A 
ATOM     90  C   UNL     1       5.698  -9.700   5.225  1.00  0.00     0.002 A 
ATOM     91  C   UNL     1       3.710 -10.513   6.269  1.00  0.00     0.002 A 
ATOM     92  C   UNL     1       4.346  -9.991   5.151  1.00  0.00     0.000 A 
ENDBRANCH  78  87
ENDBRANCH  75  76
ENDBRANCH  74  75
ENDBRANCH  72  74
ENDBRANCH  68  69
ENDBRANCH  60  63
ENDBRANCH   1  59
TORSDOF 16
