REMARK SMILES CC(C)[C@H](NC(N)=O)C(=O)N[C@H](C)C(=O)NCCCCNC(=O)c1ccc(-c2c3nc(c(-c4ccccc4)c4ccc([nH]4)c(-c4ccccc4)c4nc(c(-c5ccccc5)c5ccc2[nH]5)C=C4)C=C3)cc1
REMARK SMILES IDX 18 1 17 2 16 3 14 4 15 5 12 7 13 8 11 9 9 10 10 11 4 13 2 14
REMARK SMILES IDX 1 15 3 16 5 17 6 18 7 20 8 21 19 24 20 25 21 26 22 27 23 29
REMARK SMILES IDX 24 30 25 31 71 32 26 33 70 34 27 35 28 36 29 37 64 38 30 39
REMARK SMILES IDX 69 40 63 41 65 42 31 43 68 44 62 45 61 46 32 48 54 49 39 50
REMARK SMILES IDX 53 51 40 52 43 53 52 54 66 55 41 56 42 57 51 59 67 60 44 61
REMARK SMILES IDX 33 62 34 63 38 64 35 65 37 66 36 67 55 68 56 69 60 70 57 71
REMARK SMILES IDX 59 72 58 73 45 74 46 75 50 76 47 77 49 78 48 79
REMARK H PARENT 16 6 11 12 5 19 7 22 7 23 21 28 65 47 43 58
REMARK Flexibility Score: inf
ROOT
ATOM      1  C   UNL     1      -2.471   5.941   4.162  1.00  0.00     0.023 C 
ENDROOT
BRANCH   1   2
ATOM      2  C   UNL     1      -1.060   5.494   4.557  1.00  0.00     0.116 C 
BRANCH   2   3
ATOM      3  N   UNL     1      -1.017   4.213   5.240  1.00  0.00    -0.354 N 
ATOM      4  C   UNL     1      -0.709   2.967   4.762  1.00  0.00     0.242 C 
ATOM      5  O   UNL     1      -0.703   2.033   5.566  1.00  0.00    -0.273 OA
ATOM      6  H   UNL     1      -1.245   4.245   6.197  1.00  0.00     0.163 HD
BRANCH   4   7
ATOM      7  C   UNL     1      -0.449   2.740   3.253  1.00  0.00     0.168 C 
ATOM      8  C   UNL     1      -1.736   3.073   2.527  1.00  0.00     0.041 C 
BRANCH   7   9
ATOM      9  N   UNL     1       0.729   3.503   2.835  1.00  0.00    -0.343 N 
ATOM     10  C   UNL     1       1.374   3.677   1.659  1.00  0.00     0.243 C 
ATOM     11  O   UNL     1       2.466   4.259   1.738  1.00  0.00    -0.273 OA
ATOM     12  H   UNL     1       1.144   4.002   3.576  1.00  0.00     0.164 HD
BRANCH  10  13
ATOM     13  C   UNL     1       0.846   3.256   0.260  1.00  0.00     0.175 C 
BRANCH  13  14
ATOM     14  C   UNL     1      -0.312   4.157  -0.268  1.00  0.00     0.015 C 
ATOM     15  C   UNL     1       0.242   5.218  -1.246  1.00  0.00     0.010 C 
ATOM     16  C   UNL     1      -1.493   3.483  -0.965  1.00  0.00     0.010 C 
ENDBRANCH  13  14
BRANCH  13  17
ATOM     17  N   UNL     1       0.934   1.830  -0.064  1.00  0.00    -0.326 N 
ATOM     18  C   UNL     1       0.168   0.784   0.313  1.00  0.00     0.312 C 
ATOM     19  H   UNL     1       1.681   1.593  -0.660  1.00  0.00     0.166 HD
ATOM     20  N   UNL     1       0.654  -0.406  -0.108  1.00  0.00    -0.352 N 
ATOM     21  O   UNL     1      -0.858   0.799   0.974  1.00  0.00    -0.249 OA
ATOM     22  H   UNL     1       1.480  -0.439  -0.642  1.00  0.00     0.161 HD
ATOM     23  H   UNL     1       0.181  -1.239   0.120  1.00  0.00     0.161 HD
ENDBRANCH  13  17
ENDBRANCH  10  13
ENDBRANCH   7   9
ENDBRANCH   4   7
ENDBRANCH   2   3
ENDBRANCH   1   2
BRANCH   1  24
ATOM     24  C   UNL     1      -3.449   6.135   5.310  1.00  0.00     0.023 C 
BRANCH  24  25
ATOM     25  C   UNL     1      -2.929   7.008   6.432  1.00  0.00     0.116 C 
BRANCH  25  26
ATOM     26  N   UNL     1      -2.463   8.310   5.974  1.00  0.00    -0.352 N 
ATOM     27  C   UNL     1      -2.616   9.526   6.593  1.00  0.00     0.251 C 
ATOM     28  H   UNL     1      -1.979   8.319   5.117  1.00  0.00     0.163 HD
ATOM     29  O   UNL     1      -2.270  10.564   6.043  1.00  0.00    -0.269 OA
BRANCH  27  30
ATOM     30  C   UNL     1      -3.253   9.553   7.921  1.00  0.00     0.039 A 
ATOM     31  C   UNL     1      -4.344  10.397   8.129  1.00  0.00     0.014 A 
ATOM     32  C   UNL     1      -2.832   8.665   8.914  1.00  0.00     0.014 A 
ATOM     33  C   UNL     1      -5.057  10.303   9.321  1.00  0.00     0.010 A 
ATOM     34  C   UNL     1      -3.604   8.502  10.054  1.00  0.00     0.010 A 
ATOM     35  C   UNL     1      -4.716   9.328  10.274  1.00  0.00    -0.014 A 
BRANCH  35  36
ATOM     36  C   UNL     1      -5.498   9.168  11.522  1.00  0.00     0.031 A 
ATOM     37  C   UNL     1      -4.835   9.401  12.851  1.00  0.00     0.074 A 
ATOM     38  C   UNL     1      -6.780   8.759  11.461  1.00  0.00     0.049 A 
ATOM     39  N   UNL     1      -5.333   9.275  14.054  1.00  0.00    -0.248 NA
ATOM     40  C   UNL     1      -3.417   9.797  12.826  1.00  0.00     0.031 C 
ATOM     41  C   UNL     1      -7.518   8.453  10.232  1.00  0.00     0.029 A 
ATOM     42  N   UNL     1      -7.690   8.528  12.460  1.00  0.00    -0.354 N 
ATOM     43  C   UNL     1      -4.287   9.558  14.922  1.00  0.00     0.074 A 
ATOM     44  C   UNL     1      -3.114   9.798  14.114  1.00  0.00     0.031 C 
ATOM     45  C   UNL     1      -8.777   8.111  10.550  1.00  0.00     0.029 A 
ATOM     46  C   UNL     1      -8.923   8.132  12.002  1.00  0.00     0.049 A 
ATOM     47  H   UNL     1      -7.479   8.636  13.416  1.00  0.00     0.167 HD
ATOM     48  C   UNL     1      -4.307   9.636  16.273  1.00  0.00     0.031 A 
ATOM     49  C   UNL     1     -10.044   7.819  12.678  1.00  0.00     0.031 A 
ATOM     50  C   UNL     1      -5.478   9.407  17.073  1.00  0.00     0.049 A 
ATOM     51  C   UNL     1     -10.037   7.902  14.179  1.00  0.00     0.074 A 
ATOM     52  C   UNL     1      -5.621   9.520  18.444  1.00  0.00     0.029 A 
ATOM     53  N   UNL     1      -6.709   9.013  16.571  1.00  0.00    -0.354 N 
ATOM     54  N   UNL     1      -9.062   8.249  14.984  1.00  0.00    -0.248 NA
ATOM     55  C   UNL     1     -11.292   7.563  14.864  1.00  0.00     0.031 C 
ATOM     56  C   UNL     1      -6.924   9.137  18.778  1.00  0.00     0.029 A 
ATOM     57  C   UNL     1      -7.611   8.850  17.609  1.00  0.00     0.049 A 
ATOM     58  H   UNL     1      -6.912   8.870  15.618  1.00  0.00     0.167 HD
ATOM     59  C   UNL     1      -9.592   8.198  16.266  1.00  0.00     0.074 A 
ATOM     60  C   UNL     1     -10.980   7.804  16.129  1.00  0.00     0.031 C 
ATOM     61  C   UNL     1      -8.987   8.455  17.452  1.00  0.00     0.031 A 
BRANCH  48  62
ATOM     62  C   UNL     1      -3.015   9.976  16.964  1.00  0.00    -0.014 A 
ATOM     63  C   UNL     1      -2.432  11.249  16.839  1.00  0.00     0.009 A 
ATOM     64  C   UNL     1      -2.380   9.017  17.767  1.00  0.00     0.009 A 
ATOM     65  C   UNL     1      -1.220  11.538  17.469  1.00  0.00     0.001 A 
ATOM     66  C   UNL     1      -1.185   9.319  18.422  1.00  0.00     0.001 A 
ATOM     67  C   UNL     1      -0.601  10.575  18.264  1.00  0.00     0.000 A 
ENDBRANCH  48  62
BRANCH  49  68
ATOM     68  C   UNL     1     -11.271   7.417  11.941  1.00  0.00    -0.014 A 
ATOM     69  C   UNL     1     -12.393   8.260  11.910  1.00  0.00     0.009 A 
ATOM     70  C   UNL     1     -11.330   6.187  11.268  1.00  0.00     0.009 A 
ATOM     71  C   UNL     1     -13.557   7.867  11.245  1.00  0.00     0.001 A 
ATOM     72  C   UNL     1     -12.485   5.810  10.578  1.00  0.00     0.001 A 
ATOM     73  C   UNL     1     -13.600   6.646  10.576  1.00  0.00     0.000 A 
ENDBRANCH  49  68
BRANCH  61  74
ATOM     74  C   UNL     1      -9.831   8.353  18.691  1.00  0.00    -0.014 A 
ATOM     75  C   UNL     1     -10.269   7.113  19.179  1.00  0.00     0.009 A 
ATOM     76  C   UNL     1     -10.155   9.518  19.405  1.00  0.00     0.009 A 
ATOM     77  C   UNL     1     -11.045   7.045  20.337  1.00  0.00     0.001 A 
ATOM     78  C   UNL     1     -10.902   9.444  20.580  1.00  0.00     0.001 A 
ATOM     79  C   UNL     1     -11.356   8.209  21.040  1.00  0.00     0.000 A 
ENDBRANCH  61  74
ENDBRANCH  35  36
ENDBRANCH  27  30
ENDBRANCH  25  26
ENDBRANCH  24  25
ENDBRANCH   1  24
TORSDOF 15
