REMARK SMILES O=C(CNC(=O)N1CC(NCCCCNC(=O)c2ccc(-c3c4nc(c(-c5ccccc5)c5ccc([nH]5)c(-c5ccccc5)c5nc(c(-c6ccccc6)c6ccc3[nH]6)C=C5)C=C4)cc2)=[NH+]c2ccccc21)N[C@H](C(=O)[O-])c1ccccc1
REMARK SMILES IDX 11 1 10 2 7 3 8 4 72 5 9 6 67 7 71 8 66 9 68 10 70 11 69 14
REMARK SMILES IDX 5 15 4 16 6 18 3 19 2 20 1 21 73 22 74 24 78 25 79 26 83 27
REMARK SMILES IDX 80 28 82 29 81 30 75 31 76 32 77 33 12 34 13 35 14 36 15 37
REMARK SMILES IDX 16 38 17 40 18 41 19 42 65 43 20 44 64 45 21 46 22 47 23 48
REMARK SMILES IDX 58 49 24 50 63 51 57 52 59 53 25 54 62 55 56 56 55 57 26 59
REMARK SMILES IDX 48 60 33 61 47 62 34 63 37 64 46 65 60 66 35 67 36 68 45 70
REMARK SMILES IDX 61 71 38 72 27 73 28 74 32 75 29 76 31 77 30 78 49 79 50 80
REMARK SMILES IDX 54 81 51 82 53 83 52 84 39 85 40 86 44 87 41 88 43 89 42 90
REMARK H PARENT 10 12 66 13 4 17 73 23 15 39 59 58 37 69
REMARK Flexibility Score: inf
ROOT
ATOM      1  C   UNL     1       0.254   7.290   0.118  1.00  0.00     0.233 C 
ENDROOT
BRANCH   1   2
ATOM      2  N   UNL     1       1.343   6.791   0.920  1.00  0.00    -0.277 N 
ATOM      3  N   UNL     1       4.422   6.818  -1.027  1.00  0.00    -0.278 N 
ATOM      4  C   UNL     1       3.242   7.540  -0.591  1.00  0.00     0.255 C 
ATOM      5  C   UNL     1       5.375   6.578  -0.009  1.00  0.00     0.093 A 
ATOM      6  C   UNL     1       2.692   6.864   0.673  1.00  0.00     0.268 C 
ATOM      7  C   UNL     1       4.879   6.349   1.290  1.00  0.00     0.148 A 
ATOM      8  C   UNL     1       6.742   6.467  -0.289  1.00  0.00     0.031 A 
ATOM      9  N   UNL     1       3.495   6.365   1.578  1.00  0.00    -0.241 N 
ATOM     10  C   UNL     1       5.772   5.923   2.274  1.00  0.00     0.054 A 
ATOM     11  C   UNL     1       7.620   6.057   0.712  1.00  0.00     0.002 A 
ATOM     12  H   UNL     1       1.085   6.337   1.755  1.00  0.00     0.304 HD
ATOM     13  H   UNL     1       3.148   6.013   2.429  1.00  0.00     0.312 HD
ATOM     14  C   UNL     1       7.133   5.768   1.986  1.00  0.00     0.005 A 
BRANCH   3  15
ATOM     15  C   UNL     1       4.462   6.332  -2.309  1.00  0.00     0.323 C 
ATOM     16  N   UNL     1       5.027   5.118  -2.544  1.00  0.00    -0.329 N 
ATOM     17  H   UNL     1       5.267   4.937  -3.481  1.00  0.00     0.165 HD
ATOM     18  O   UNL     1       3.919   6.913  -3.251  1.00  0.00    -0.248 OA
BRANCH  16  19
ATOM     19  C   UNL     1       5.329   4.043  -1.595  1.00  0.00     0.218 C 
BRANCH  19  20
ATOM     20  C   UNL     1       4.710   2.733  -2.045  1.00  0.00     0.240 C 
ATOM     21  O   UNL     1       5.403   1.846  -2.531  1.00  0.00    -0.273 OA
ATOM     22  N   UNL     1       3.336   2.718  -1.918  1.00  0.00    -0.342 N 
ATOM     23  H   UNL     1       2.879   3.549  -1.652  1.00  0.00     0.164 HD
BRANCH  22  24
ATOM     24  C   UNL     1       2.518   1.505  -2.165  1.00  0.00     0.158 C 
BRANCH  24  25
ATOM     25  C   UNL     1       2.693   0.990  -3.590  1.00  0.00    -0.020 A 
ATOM     26  C   UNL     1       2.534  -0.353  -3.945  1.00  0.00     0.006 A 
ATOM     27  C   UNL     1       2.994   1.899  -4.630  1.00  0.00     0.006 A 
ATOM     28  C   UNL     1       2.775  -0.789  -5.252  1.00  0.00     0.000 A 
ATOM     29  C   UNL     1       3.252   1.467  -5.931  1.00  0.00     0.000 A 
ATOM     30  C   UNL     1       3.157   0.116  -6.238  1.00  0.00     0.000 A 
ENDBRANCH  24  25
BRANCH  24  31
ATOM     31  C   UNL     1       2.554   0.567  -0.904  1.00  0.00     0.068 C 
ATOM     32  O   UNL     1       2.859  -0.649  -1.034  1.00  0.00    -0.548 OA
ATOM     33  O   UNL     1       2.234   1.178   0.172  1.00  0.00    -0.548 OA
ENDBRANCH  24  31
ENDBRANCH  22  24
ENDBRANCH  19  20
ENDBRANCH  16  19
ENDBRANCH   3  15
ENDBRANCH   1   2
BRANCH   1  34
ATOM     34  C   UNL     1      -0.527   6.154  -0.540  1.00  0.00     0.048 C 
BRANCH  34  35
ATOM     35  C   UNL     1      -1.312   5.258   0.423  1.00  0.00     0.025 C 
BRANCH  35  36
ATOM     36  C   UNL     1      -2.259   5.980   1.377  1.00  0.00     0.116 C 
BRANCH  36  37
ATOM     37  N   UNL     1      -3.276   6.771   0.698  1.00  0.00    -0.352 N 
ATOM     38  C   UNL     1      -4.621   6.869   0.957  1.00  0.00     0.251 C 
ATOM     39  H   UNL     1      -2.952   7.315  -0.057  1.00  0.00     0.163 HD
ATOM     40  O   UNL     1      -5.349   7.515   0.204  1.00  0.00    -0.269 OA
BRANCH  38  41
ATOM     41  C   UNL     1      -5.210   6.173   2.122  1.00  0.00     0.039 A 
ATOM     42  C   UNL     1      -6.397   5.457   1.945  1.00  0.00     0.014 A 
ATOM     43  C   UNL     1      -4.600   6.215   3.378  1.00  0.00     0.014 A 
ATOM     44  C   UNL     1      -6.931   4.724   3.008  1.00  0.00     0.010 A 
ATOM     45  C   UNL     1      -5.090   5.423   4.415  1.00  0.00     0.010 A 
ATOM     46  C   UNL     1      -6.258   4.665   4.240  1.00  0.00    -0.014 A 
BRANCH  46  47
ATOM     47  C   UNL     1      -6.748   3.789   5.336  1.00  0.00     0.031 A 
ATOM     48  C   UNL     1      -7.199   4.375   6.646  1.00  0.00     0.074 A 
ATOM     49  C   UNL     1      -6.737   2.451   5.170  1.00  0.00     0.049 A 
ATOM     50  N   UNL     1      -7.642   3.762   7.716  1.00  0.00    -0.248 NA
ATOM     51  C   UNL     1      -7.127   5.838   6.781  1.00  0.00     0.031 C 
ATOM     52  C   UNL     1      -6.278   1.751   3.969  1.00  0.00     0.029 A 
ATOM     53  N   UNL     1      -7.119   1.440   6.017  1.00  0.00    -0.354 N 
ATOM     54  C   UNL     1      -7.885   4.760   8.651  1.00  0.00     0.074 A 
ATOM     55  C   UNL     1      -7.497   6.013   8.041  1.00  0.00     0.031 C 
ATOM     56  C   UNL     1      -6.436   0.429   4.142  1.00  0.00     0.029 A 
ATOM     57  C   UNL     1      -6.962   0.184   5.481  1.00  0.00     0.049 A 
ATOM     58  H   UNL     1      -7.472   1.599   6.922  1.00  0.00     0.167 HD
ATOM     59  C   UNL     1      -8.402   4.647   9.899  1.00  0.00     0.031 A 
ATOM     60  C   UNL     1      -7.206  -1.030   6.008  1.00  0.00     0.031 A 
ATOM     61  C   UNL     1      -8.782   3.400  10.509  1.00  0.00     0.049 A 
ATOM     62  C   UNL     1      -7.753  -1.129   7.404  1.00  0.00     0.074 A 
ATOM     63  C   UNL     1      -9.367   3.189  11.746  1.00  0.00     0.029 A 
ATOM     64  N   UNL     1      -8.604   2.151   9.934  1.00  0.00    -0.354 N 
ATOM     65  N   UNL     1      -8.064  -0.170   8.242  1.00  0.00    -0.248 NA
ATOM     66  C   UNL     1      -7.997  -2.483   7.923  1.00  0.00     0.031 C 
ATOM     67  C   UNL     1      -9.485   1.810  11.946  1.00  0.00     0.029 A 
ATOM     68  C   UNL     1      -9.039   1.164  10.805  1.00  0.00     0.049 A 
ATOM     69  H   UNL     1      -8.224   1.989   9.040  1.00  0.00     0.167 HD
ATOM     70  C   UNL     1      -8.563  -0.802   9.374  1.00  0.00     0.074 A 
ATOM     71  C   UNL     1      -8.535  -2.225   9.106  1.00  0.00     0.031 C 
ATOM     72  C   UNL     1      -9.006  -0.250  10.530  1.00  0.00     0.031 A 
BRANCH  59  73
ATOM     73  C   UNL     1      -8.575   5.912  10.695  1.00  0.00    -0.014 A 
ATOM     74  C   UNL     1      -9.531   6.875  10.335  1.00  0.00     0.009 A 
ATOM     75  C   UNL     1      -7.798   6.126  11.845  1.00  0.00     0.009 A 
ATOM     76  C   UNL     1      -9.679   8.043  11.088  1.00  0.00     0.001 A 
ATOM     77  C   UNL     1      -7.970   7.279  12.613  1.00  0.00     0.001 A 
ATOM     78  C   UNL     1      -8.902   8.241  12.229  1.00  0.00     0.000 A 
ENDBRANCH  59  73
BRANCH  60  79
ATOM     79  C   UNL     1      -6.944  -2.256   5.207  1.00  0.00    -0.014 A 
ATOM     80  C   UNL     1      -8.008  -3.054   4.756  1.00  0.00     0.009 A 
ATOM     81  C   UNL     1      -5.631  -2.639   4.893  1.00  0.00     0.009 A 
ATOM     82  C   UNL     1      -7.760  -4.223   4.032  1.00  0.00     0.001 A 
ATOM     83  C   UNL     1      -5.387  -3.789   4.140  1.00  0.00     0.001 A 
ATOM     84  C   UNL     1      -6.450  -4.586   3.720  1.00  0.00     0.000 A 
ENDBRANCH  60  79
BRANCH  72  85
ATOM     85  C   UNL     1      -9.535  -1.186  11.582  1.00  0.00    -0.014 A 
ATOM     86  C   UNL     1      -8.684  -2.042  12.299  1.00  0.00     0.009 A 
ATOM     87  C   UNL     1     -10.906  -1.184  11.884  1.00  0.00     0.009 A 
ATOM     88  C   UNL     1      -9.201  -2.902  13.269  1.00  0.00     0.001 A 
ATOM     89  C   UNL     1     -11.415  -2.021  12.879  1.00  0.00     0.001 A 
ATOM     90  C   UNL     1     -10.564  -2.887  13.562  1.00  0.00     0.000 A 
ENDBRANCH  72  85
ENDBRANCH  46  47
ENDBRANCH  38  41
ENDBRANCH  36  37
ENDBRANCH  35  36
ENDBRANCH  34  35
ENDBRANCH   1  34
TORSDOF 16
