REMARK SMILES CCc1ccc(C[NH+]2CCC(Oc3ccccc3OC)(C(=O)NCCCCNC(=O)c3ccc(-c4c5nc(c(-c6ccccc6)c6ccc([nH]6)c(-c6ccccc6)c6nc(c(-c7ccccc7)c7ccc4[nH]7)C=C6)C=C5)cc3)CC2)nc1
REMARK SMILES IDX 25 1 24 2 23 3 21 4 22 5 11 7 8 8 9 9 80 10 10 12 79 13 7 14
REMARK SMILES IDX 6 15 3 16 4 17 82 18 5 19 81 20 2 21 1 22 12 23 13 24 14 25
REMARK SMILES IDX 18 26 15 27 17 28 16 29 19 30 20 31 26 32 27 33 28 34 29 35
REMARK SMILES IDX 30 37 31 38 32 39 78 40 33 41 77 42 34 43 35 44 36 45 71 46
REMARK SMILES IDX 37 47 76 48 70 49 72 50 38 51 75 52 69 53 68 54 39 56 61 57
REMARK SMILES IDX 46 58 60 59 47 60 50 61 59 62 73 63 48 64 49 65 58 67 74 68
REMARK SMILES IDX 51 69 40 70 41 71 45 72 42 73 44 74 43 75 62 76 63 77 67 78
REMARK SMILES IDX 64 79 66 80 65 81 52 82 53 83 57 84 54 85 56 86 55 87
REMARK H PARENT 23 6 8 11 28 36 72 55 50 66
REMARK Flexibility Score: inf
ROOT
ATOM      1  C   UNL     1      -4.313   0.354   6.680  1.00  0.00     0.023 C 
ENDROOT
BRANCH   1   2
ATOM      2  C   UNL     1      -3.773  -0.771   7.559  1.00  0.00     0.116 C 
BRANCH   2   3
ATOM      3  N   UNL     1      -2.693  -1.508   6.923  1.00  0.00    -0.353 N 
ATOM      4  C   UNL     1      -1.363  -1.596   7.248  1.00  0.00     0.264 C 
ATOM      5  O   UNL     1      -0.717  -2.453   6.635  1.00  0.00    -0.270 OA
ATOM      6  H   UNL     1      -2.960  -2.030   6.132  1.00  0.00     0.163 HD
BRANCH   4   7
ATOM      7  C   UNL     1      -0.713  -0.665   8.317  1.00  0.00     0.197 C 
ATOM      8  N   UNL     1       1.493   0.788   7.005  1.00  0.00    -0.330 N 
ATOM      9  C   UNL     1       0.100   1.075   6.659  1.00  0.00     0.267 C 
ATOM     10  C   UNL     1       1.665  -0.634   7.336  1.00  0.00     0.267 C 
ATOM     11  H   UNL     1       1.718   1.336   7.835  1.00  0.00     0.348 HD
ATOM     12  C   UNL     1      -0.793   0.797   7.864  1.00  0.00     0.120 C 
ATOM     13  C   UNL     1       0.774  -1.031   8.523  1.00  0.00     0.120 C 
BRANCH   8  14
ATOM     14  C   UNL     1       2.445   1.232   5.954  1.00  0.00     0.319 C 
BRANCH  14  15
ATOM     15  C   UNL     1       2.122   0.810   4.529  1.00  0.00     0.095 A 
ATOM     16  C   UNL     1       1.190  -0.110   2.099  1.00  0.00    -0.030 A 
ATOM     17  C   UNL     1       0.993   1.226   2.450  1.00  0.00     0.007 A 
ATOM     18  C   UNL     1       1.902  -0.903   2.992  1.00  0.00     0.115 A 
ATOM     19  C   UNL     1       1.465   1.695   3.673  1.00  0.00     0.030 A 
ATOM     20  N   UNL     1       2.377  -0.473   4.181  1.00  0.00    -0.255 NA
BRANCH  16  21
ATOM     21  C   UNL     1       0.600  -0.697   0.847  1.00  0.00     0.034 C 
ATOM     22  C   UNL     1       1.097  -0.031  -0.426  1.00  0.00     0.009 C 
ENDBRANCH  16  21
ENDBRANCH  14  15
ENDBRANCH   8  14
BRANCH   7  23
ATOM     23  O   UNL     1      -1.558  -0.960   9.458  1.00  0.00    -0.473 OA
BRANCH  23  24
ATOM     24  C   UNL     1      -1.208  -0.524  10.699  1.00  0.00     0.162 A 
ATOM     25  C   UNL     1      -0.375  -1.337  11.469  1.00  0.00     0.050 A 
ATOM     26  C   UNL     1      -1.853   0.567  11.293  1.00  0.00     0.160 A 
ATOM     27  C   UNL     1      -0.115  -1.019  12.801  1.00  0.00     0.004 A 
ATOM     28  C   UNL     1      -1.588   0.893  12.627  1.00  0.00     0.050 A 
ATOM     29  C   UNL     1      -0.708   0.105  13.375  1.00  0.00     0.004 A 
BRANCH  26  30
ATOM     30  O   UNL     1      -2.890   1.185  10.645  1.00  0.00    -0.493 OA
ATOM     31  C   UNL     1      -2.549   2.474  10.147  1.00  0.00     0.278 C 
ENDBRANCH  26  30
ENDBRANCH  23  24
ENDBRANCH   7  23
ENDBRANCH   4   7
ENDBRANCH   2   3
ENDBRANCH   1   2
BRANCH   1  32
ATOM     32  C   UNL     1      -5.098  -0.106   5.457  1.00  0.00     0.023 C 
BRANCH  32  33
ATOM     33  C   UNL     1      -6.308  -0.979   5.756  1.00  0.00     0.116 C 
BRANCH  33  34
ATOM     34  N   UNL     1      -7.284  -0.347   6.634  1.00  0.00    -0.352 N 
ATOM     35  C   UNL     1      -8.658  -0.380   6.541  1.00  0.00     0.251 C 
ATOM     36  H   UNL     1      -6.915   0.167   7.389  1.00  0.00     0.163 HD
ATOM     37  O   UNL     1      -9.363   0.271   7.296  1.00  0.00    -0.269 OA
BRANCH  35  38
ATOM     38  C   UNL     1      -9.264  -1.193   5.467  1.00  0.00     0.039 A 
ATOM     39  C   UNL     1     -10.137  -0.583   4.564  1.00  0.00     0.014 A 
ATOM     40  C   UNL     1      -8.877  -2.525   5.301  1.00  0.00     0.014 A 
ATOM     41  C   UNL     1     -10.552  -1.286   3.432  1.00  0.00     0.010 A 
ATOM     42  C   UNL     1      -9.229  -3.194   4.138  1.00  0.00     0.010 A 
ATOM     43  C   UNL     1     -10.060  -2.578   3.187  1.00  0.00    -0.014 A 
BRANCH  43  44
ATOM     44  C   UNL     1     -10.379  -3.319   1.943  1.00  0.00     0.031 A 
ATOM     45  C   UNL     1     -11.117  -4.623   2.028  1.00  0.00     0.074 A 
ATOM     46  C   UNL     1      -9.890  -2.892   0.763  1.00  0.00     0.049 A 
ATOM     47  N   UNL     1     -11.334  -5.513   1.095  1.00  0.00    -0.248 NA
ATOM     48  C   UNL     1     -11.647  -4.992   3.351  1.00  0.00     0.031 C 
ATOM     49  C   UNL     1      -9.117  -1.667   0.554  1.00  0.00     0.029 A 
ATOM     50  N   UNL     1      -9.947  -3.466  -0.483  1.00  0.00    -0.354 N 
ATOM     51  C   UNL     1     -11.982  -6.566   1.727  1.00  0.00     0.074 A 
ATOM     52  C   UNL     1     -12.094  -6.218   3.127  1.00  0.00     0.031 C 
ATOM     53  C   UNL     1      -8.774  -1.579  -0.742  1.00  0.00     0.029 A 
ATOM     54  C   UNL     1      -9.264  -2.761  -1.444  1.00  0.00     0.049 A 
ATOM     55  H   UNL     1     -10.431  -4.303  -0.670  1.00  0.00     0.167 HD
ATOM     56  C   UNL     1     -12.450  -7.716   1.188  1.00  0.00     0.031 A 
ATOM     57  C   UNL     1      -9.036  -3.045  -2.741  1.00  0.00     0.031 A 
ATOM     58  C   UNL     1     -12.364  -8.045  -0.208  1.00  0.00     0.049 A 
ATOM     59  C   UNL     1      -9.586  -4.315  -3.325  1.00  0.00     0.074 A 
ATOM     60  C   UNL     1     -12.885  -9.144  -0.867  1.00  0.00     0.029 A 
ATOM     61  N   UNL     1     -11.712  -7.276  -1.159  1.00  0.00    -0.354 N 
ATOM     62  N   UNL     1     -10.261  -5.269  -2.731  1.00  0.00    -0.248 NA
ATOM     63  C   UNL     1      -9.350  -4.545  -4.758  1.00  0.00     0.031 C 
ATOM     64  C   UNL     1     -12.509  -9.062  -2.212  1.00  0.00     0.029 A 
ATOM     65  C   UNL     1     -11.797  -7.888  -2.397  1.00  0.00     0.049 A 
ATOM     66  H   UNL     1     -11.256  -6.422  -0.980  1.00  0.00     0.167 HD
ATOM     67  C   UNL     1     -10.553  -6.199  -3.720  1.00  0.00     0.074 A 
ATOM     68  C   UNL     1      -9.988  -5.691  -4.954  1.00  0.00     0.031 C 
ATOM     69  C   UNL     1     -11.233  -7.366  -3.615  1.00  0.00     0.031 A 
BRANCH  56  70
ATOM     70  C   UNL     1     -13.079  -8.707   2.126  1.00  0.00    -0.014 A 
ATOM     71  C   UNL     1     -14.317  -8.453   2.738  1.00  0.00     0.009 A 
ATOM     72  C   UNL     1     -12.424  -9.919   2.395  1.00  0.00     0.009 A 
ATOM     73  C   UNL     1     -14.861  -9.371   3.639  1.00  0.00     0.001 A 
ATOM     74  C   UNL     1     -12.986 -10.848   3.272  1.00  0.00     0.001 A 
ATOM     75  C   UNL     1     -14.197 -10.568   3.902  1.00  0.00     0.000 A 
ENDBRANCH  56  70
BRANCH  57  76
ATOM     76  C   UNL     1      -8.250  -2.099  -3.573  1.00  0.00    -0.014 A 
ATOM     77  C   UNL     1      -8.889  -1.289  -4.523  1.00  0.00     0.009 A 
ATOM     78  C   UNL     1      -6.862  -1.980  -3.402  1.00  0.00     0.009 A 
ATOM     79  C   UNL     1      -8.151  -0.389  -5.297  1.00  0.00     0.001 A 
ATOM     80  C   UNL     1      -6.130  -1.063  -4.161  1.00  0.00     0.001 A 
ATOM     81  C   UNL     1      -6.775  -0.273  -5.111  1.00  0.00     0.000 A 
ENDBRANCH  57  76
BRANCH  69  82
ATOM     82  C   UNL     1     -11.441  -8.162  -4.871  1.00  0.00    -0.014 A 
ATOM     83  C   UNL     1     -10.400  -8.912  -5.438  1.00  0.00     0.009 A 
ATOM     84  C   UNL     1     -12.719  -8.221  -5.449  1.00  0.00     0.009 A 
ATOM     85  C   UNL     1     -10.633  -9.694  -6.571  1.00  0.00     0.001 A 
ATOM     86  C   UNL     1     -12.954  -9.021  -6.567  1.00  0.00     0.001 A 
ATOM     87  C   UNL     1     -11.910  -9.752  -7.130  1.00  0.00     0.000 A 
ENDBRANCH  69  82
ENDBRANCH  43  44
ENDBRANCH  35  38
ENDBRANCH  33  34
ENDBRANCH  32  33
ENDBRANCH   1  32
TORSDOF 17
