REMARK SMILES O=C(NCCCCNC(=O)c1ccc(-c2c3nc(c(-c4ccccc4)c4ccc([nH]4)c(-c4ccccc4)c4nc(c(-c5ccccc5)c5ccc2[nH]5)C=C4)C=C3)cc1)C1=Cc2cc(Cl)cc(Cl)c2O[C@@H]1C(F)(F)F
REMARK SMILES IDX 6 1 5 2 4 3 3 4 1 5 2 6 59 8 60 9 70 10 61 11 69 12 62 13
REMARK SMILES IDX 68 14 63 15 66 16 64 17 65 18 67 19 71 20 72 21 73 22 74 23
REMARK SMILES IDX 7 24 8 25 9 26 10 28 11 29 12 30 58 31 13 32 57 33 14 34
REMARK SMILES IDX 15 35 16 36 51 37 17 38 56 39 50 40 52 41 18 42 55 43 49 44
REMARK SMILES IDX 48 45 19 47 41 48 26 49 40 50 27 51 30 52 39 53 53 54 28 55
REMARK SMILES IDX 29 56 38 58 54 59 31 60 20 61 21 62 25 63 22 64 24 65 23 66
REMARK SMILES IDX 42 67 43 68 47 69 44 70 46 71 45 72 32 73 33 74 37 75 34 76
REMARK SMILES IDX 36 77 35 78
REMARK H PARENT 3 7 8 27 52 46 30 57
REMARK Flexibility Score: inf
ROOT
ATOM      1  C   UNL     1       3.966  -1.862   4.034  1.00  0.00     0.023 C 
ENDROOT
BRANCH   1   2
ATOM      2  C   UNL     1       4.197  -0.619   3.176  1.00  0.00     0.023 C 
BRANCH   2   3
ATOM      3  C   UNL     1       3.675  -0.719   1.741  1.00  0.00     0.116 C 
BRANCH   3   4
ATOM      4  N   UNL     1       2.518   0.133   1.470  1.00  0.00    -0.352 N 
ATOM      5  O   UNL     1       1.067   1.313   0.196  1.00  0.00    -0.270 OA
ATOM      6  C   UNL     1       2.196   0.863   0.347  1.00  0.00     0.251 C 
ATOM      7  H   UNL     1       1.867   0.194   2.205  1.00  0.00     0.163 HD
BRANCH   6   8
ATOM      8  C   UNL     1       3.196   0.956  -0.738  1.00  0.00     0.067 C 
ATOM      9  C   UNL     1       4.384   1.550  -0.563  1.00  0.00     0.025 C 
ATOM     10  C   UNL     1       2.955   0.109  -1.950  1.00  0.00     0.314 C 
ATOM     11  C   UNL     1       5.485   0.617  -0.893  1.00  0.00     0.020 A 
ATOM     12  O   UNL     1       3.978  -0.901  -2.088  1.00  0.00    -0.474 OA
ATOM     13  C   UNL     1       6.697   0.768  -0.203  1.00  0.00     0.032 A 
ATOM     14  C   UNL     1       5.207  -0.613  -1.535  1.00  0.00     0.146 A 
ATOM     15  C   UNL     1       7.592  -0.301  -0.122  1.00  0.00     0.043 A 
ATOM     16  C   UNL     1       6.134  -1.664  -1.467  1.00  0.00     0.085 A 
ATOM     17  Cl  UNL     1       9.000  -0.154   0.857  1.00  0.00    -0.084 Cl
ATOM     18  C   UNL     1       7.318  -1.515  -0.747  1.00  0.00     0.045 A 
ATOM     19  Cl  UNL     1       5.779  -3.213  -2.146  1.00  0.00    -0.080 Cl
BRANCH  10  20
ATOM     20  C   UNL     1       2.849   0.972  -3.223  1.00  0.00     0.429 C 
ATOM     21  F   UNL     1       2.523   0.220  -4.301  1.00  0.00    -0.167 F 
ATOM     22  F   UNL     1       1.896   1.927  -3.107  1.00  0.00    -0.167 F 
ATOM     23  F   UNL     1       4.012   1.604  -3.517  1.00  0.00    -0.167 F 
ENDBRANCH  10  20
ENDBRANCH   6   8
ENDBRANCH   3   4
ENDBRANCH   2   3
ENDBRANCH   1   2
BRANCH   1  24
ATOM     24  C   UNL     1       4.535  -3.175   3.499  1.00  0.00     0.116 C 
BRANCH  24  25
ATOM     25  N   UNL     1       5.973  -3.177   3.278  1.00  0.00    -0.352 N 
ATOM     26  C   UNL     1       6.865  -4.203   3.504  1.00  0.00     0.251 C 
ATOM     27  H   UNL     1       6.357  -2.342   2.924  1.00  0.00     0.163 HD
ATOM     28  O   UNL     1       8.065  -4.050   3.288  1.00  0.00    -0.269 OA
BRANCH  26  29
ATOM     29  C   UNL     1       6.371  -5.481   4.062  1.00  0.00     0.039 A 
ATOM     30  C   UNL     1       6.965  -5.988   5.220  1.00  0.00     0.014 A 
ATOM     31  C   UNL     1       5.277  -6.133   3.487  1.00  0.00     0.014 A 
ATOM     32  C   UNL     1       6.406  -7.102   5.852  1.00  0.00     0.010 A 
ATOM     33  C   UNL     1       4.676  -7.193   4.160  1.00  0.00     0.010 A 
ATOM     34  C   UNL     1       5.231  -7.687   5.352  1.00  0.00    -0.014 A 
BRANCH  34  35
ATOM     35  C   UNL     1       4.577  -8.825   6.048  1.00  0.00     0.031 A 
ATOM     36  C   UNL     1       4.476 -10.162   5.365  1.00  0.00     0.074 A 
ATOM     37  C   UNL     1       4.021  -8.646   7.263  1.00  0.00     0.049 A 
ATOM     38  N   UNL     1       3.882 -11.255   5.773  1.00  0.00    -0.248 NA
ATOM     39  C   UNL     1       5.101 -10.277   4.038  1.00  0.00     0.031 C 
ATOM     40  C   UNL     1       4.005  -7.391   8.018  1.00  0.00     0.029 A 
ATOM     41  N   UNL     1       3.352  -9.528   8.076  1.00  0.00    -0.354 N 
ATOM     42  C   UNL     1       4.049 -12.178   4.748  1.00  0.00     0.074 A 
ATOM     43  C   UNL     1       4.749 -11.502   3.678  1.00  0.00     0.031 C 
ATOM     44  C   UNL     1       3.382  -7.591   9.192  1.00  0.00     0.029 A 
ATOM     45  C   UNL     1       2.928  -8.976   9.261  1.00  0.00     0.049 A 
ATOM     46  H   UNL     1       3.192 -10.469   7.833  1.00  0.00     0.167 HD
ATOM     47  C   UNL     1       3.680 -13.480   4.707  1.00  0.00     0.031 A 
ATOM     48  C   UNL     1       2.251  -9.525  10.288  1.00  0.00     0.031 A 
ATOM     49  C   UNL     1       3.002 -14.165   5.773  1.00  0.00     0.049 A 
ATOM     50  C   UNL     1       1.871 -10.979  10.226  1.00  0.00     0.074 A 
ATOM     51  C   UNL     1       2.603 -15.489   5.834  1.00  0.00     0.029 A 
ATOM     52  N   UNL     1       2.635 -13.579   6.974  1.00  0.00    -0.354 N 
ATOM     53  N   UNL     1       2.077 -11.848   9.266  1.00  0.00    -0.248 NA
ATOM     54  C   UNL     1       1.184 -11.534  11.402  1.00  0.00     0.031 C 
ATOM     55  C   UNL     1       1.976 -15.700   7.066  1.00  0.00     0.029 A 
ATOM     56  C   UNL     1       2.023 -14.517   7.786  1.00  0.00     0.049 A 
ATOM     57  H   UNL     1       2.788 -12.637   7.214  1.00  0.00     0.167 HD
ATOM     58  C   UNL     1       1.582 -13.057   9.737  1.00  0.00     0.074 A 
ATOM     59  C   UNL     1       1.077 -12.813  11.072  1.00  0.00     0.031 C 
ATOM     60  C   UNL     1       1.548 -14.263   9.120  1.00  0.00     0.031 A 
BRANCH  47  61
ATOM     61  C   UNL     1       4.022 -14.252   3.465  1.00  0.00    -0.014 A 
ATOM     62  C   UNL     1       5.351 -14.607   3.182  1.00  0.00     0.009 A 
ATOM     63  C   UNL     1       3.009 -14.652   2.582  1.00  0.00     0.009 A 
ATOM     64  C   UNL     1       5.662 -15.318   2.022  1.00  0.00     0.001 A 
ATOM     65  C   UNL     1       3.320 -15.388   1.436  1.00  0.00     0.001 A 
ATOM     66  C   UNL     1       4.646 -15.712   1.153  1.00  0.00     0.000 A 
ENDBRANCH  47  61
BRANCH  48  67
ATOM     67  C   UNL     1       1.907  -8.713  11.485  1.00  0.00    -0.014 A 
ATOM     68  C   UNL     1       2.550  -8.945  12.711  1.00  0.00     0.009 A 
ATOM     69  C   UNL     1       0.905  -7.733  11.419  1.00  0.00     0.009 A 
ATOM     70  C   UNL     1       2.168  -8.241  13.856  1.00  0.00     0.001 A 
ATOM     71  C   UNL     1       0.546  -7.010  12.560  1.00  0.00     0.001 A 
ATOM     72  C   UNL     1       1.168  -7.273  13.779  1.00  0.00     0.000 A 
ENDBRANCH  48  67
BRANCH  60  73
ATOM     73  C   UNL     1       1.007 -15.422   9.906  1.00  0.00    -0.014 A 
ATOM     74  C   UNL     1      -0.365 -15.555  10.165  1.00  0.00     0.009 A 
ATOM     75  C   UNL     1       1.888 -16.413  10.366  1.00  0.00     0.009 A 
ATOM     76  C   UNL     1      -0.840 -16.642  10.902  1.00  0.00     0.001 A 
ATOM     77  C   UNL     1       1.407 -17.512  11.079  1.00  0.00     0.001 A 
ATOM     78  C   UNL     1       0.045 -17.620  11.354  1.00  0.00     0.000 A 
ENDBRANCH  60  73
ENDBRANCH  34  35
ENDBRANCH  26  29
ENDBRANCH  24  25
ENDBRANCH   1  24
TORSDOF 12
