REMARK SMILES O=C(NCCCCNC(=O)[C@H]1CCCN(C(=O)c2cc(Br)ccc2Cl)C1)c1ccc(-c2c3nc(c(-c4ccccc4)c4ccc([nH]4)c(-c4ccccc4)c4nc(c(-c5ccccc5)c5ccc2[nH]5)C=C4)C=C3)cc1
REMARK SMILES IDX 5 1 4 2 3 3 1 4 2 5 27 7 28 8 74 9 29 10 73 11 30 12 31 13
REMARK SMILES IDX 32 14 67 15 33 16 72 17 66 18 68 19 34 20 71 21 65 22 64 23
REMARK SMILES IDX 35 25 57 26 42 27 56 28 43 29 46 30 55 31 69 32 44 33 45 34
REMARK SMILES IDX 54 36 70 37 47 38 36 39 37 40 41 41 38 42 40 43 39 44 58 45
REMARK SMILES IDX 59 46 63 47 60 48 62 49 61 50 48 51 49 52 53 53 50 54 52 55
REMARK SMILES IDX 51 56 6 57 7 58 8 59 9 60 10 62 11 63 12 64 26 65 13 66
REMARK SMILES IDX 15 67 14 68 16 69 17 70 18 71 19 72 24 73 20 74 23 75 25 76
REMARK SMILES IDX 21 77 22 78
REMARK H PARENT 3 6 68 24 46 35 8 61
REMARK Flexibility Score: inf
ROOT
ATOM      1  C   UNL     1       9.239  -0.503  -8.601  1.00  0.00     0.023 C 
ENDROOT
BRANCH   1   2
ATOM      2  C   UNL     1      10.733  -0.348  -8.352  1.00  0.00     0.116 C 
BRANCH   2   3
ATOM      3  N   UNL     1      11.276  -1.358  -7.457  1.00  0.00    -0.352 N 
ATOM      4  O   UNL     1      12.680  -3.003  -6.798  1.00  0.00    -0.269 OA
ATOM      5  C   UNL     1      12.421  -2.108  -7.597  1.00  0.00     0.251 C 
ATOM      6  H   UNL     1      10.754  -1.527  -6.639  1.00  0.00     0.163 HD
BRANCH   5   7
ATOM      7  C   UNL     1      13.325  -1.855  -8.740  1.00  0.00     0.039 A 
ATOM      8  C   UNL     1      13.685  -0.551  -9.084  1.00  0.00     0.014 A 
ATOM      9  C   UNL     1      13.804  -2.936  -9.486  1.00  0.00     0.014 A 
ATOM     10  C   UNL     1      14.393  -0.321 -10.257  1.00  0.00     0.010 A 
ATOM     11  C   UNL     1      14.591  -2.706 -10.619  1.00  0.00     0.010 A 
ATOM     12  C   UNL     1      14.863  -1.394 -11.033  1.00  0.00    -0.014 A 
BRANCH  12  13
ATOM     13  C   UNL     1      15.680  -1.101 -12.238  1.00  0.00     0.031 A 
ATOM     14  C   UNL     1      15.185  -1.422 -13.621  1.00  0.00     0.074 A 
ATOM     15  C   UNL     1      16.860  -0.474 -12.073  1.00  0.00     0.049 A 
ATOM     16  N   UNL     1      15.742  -1.147 -14.775  1.00  0.00    -0.248 NA
ATOM     17  C   UNL     1      13.909  -2.145 -13.729  1.00  0.00     0.031 C 
ATOM     18  C   UNL     1      17.454  -0.123 -10.779  1.00  0.00     0.029 A 
ATOM     19  N   UNL     1      17.753   0.014 -12.991  1.00  0.00    -0.354 N 
ATOM     20  C   UNL     1      14.894  -1.671 -15.743  1.00  0.00     0.074 A 
ATOM     21  C   UNL     1      13.797  -2.304 -15.042  1.00  0.00     0.031 C 
ATOM     22  C   UNL     1      18.577   0.578 -10.988  1.00  0.00     0.029 A 
ATOM     23  C   UNL     1      18.812   0.678 -12.423  1.00  0.00     0.049 A 
ATOM     24  H   UNL     1      17.646  -0.101 -13.963  1.00  0.00     0.167 HD
ATOM     25  C   UNL     1      15.014  -1.622 -17.092  1.00  0.00     0.031 A 
ATOM     26  C   UNL     1      19.862   1.300 -12.990  1.00  0.00     0.031 A 
ATOM     27  C   UNL     1      16.107  -0.996 -17.790  1.00  0.00     0.049 A 
ATOM     28  C   UNL     1      19.969   1.335 -14.485  1.00  0.00     0.074 A 
ATOM     29  C   UNL     1      16.313  -0.894 -19.156  1.00  0.00     0.029 A 
ATOM     30  N   UNL     1      17.176  -0.362 -17.178  1.00  0.00    -0.354 N 
ATOM     31  N   UNL     1      19.147   0.850 -15.382  1.00  0.00    -0.248 NA
ATOM     32  C   UNL     1      21.150   2.007 -15.044  1.00  0.00     0.031 C 
ATOM     33  C   UNL     1      17.527  -0.229 -19.369  1.00  0.00     0.029 A 
ATOM     34  C   UNL     1      18.052   0.122 -18.136  1.00  0.00     0.049 A 
ATOM     35  H   UNL     1      17.297  -0.270 -16.205  1.00  0.00     0.167 HD
ATOM     36  C   UNL     1      19.707   1.160 -16.612  1.00  0.00     0.074 A 
ATOM     37  C   UNL     1      20.922   1.904 -16.345  1.00  0.00     0.031 C 
ATOM     38  C   UNL     1      19.262   0.847 -17.852  1.00  0.00     0.031 A 
BRANCH  25  39
ATOM     39  C   UNL     1      13.937  -2.278 -17.910  1.00  0.00    -0.014 A 
ATOM     40  C   UNL     1      12.671  -1.688 -18.049  1.00  0.00     0.009 A 
ATOM     41  C   UNL     1      14.209  -3.473 -18.595  1.00  0.00     0.009 A 
ATOM     42  C   UNL     1      11.692  -2.293 -18.840  1.00  0.00     0.001 A 
ATOM     43  C   UNL     1      13.235  -4.064 -19.403  1.00  0.00     0.001 A 
ATOM     44  C   UNL     1      11.976  -3.477 -19.520  1.00  0.00     0.000 A 
ENDBRANCH  25  39
BRANCH  26  45
ATOM     45  C   UNL     1      20.897   1.929 -12.132  1.00  0.00    -0.014 A 
ATOM     46  C   UNL     1      21.020   3.324 -12.061  1.00  0.00     0.009 A 
ATOM     47  C   UNL     1      21.760   1.129 -11.366  1.00  0.00     0.009 A 
ATOM     48  C   UNL     1      22.002   3.905 -11.255  1.00  0.00     0.001 A 
ATOM     49  C   UNL     1      22.720   1.713 -10.539  1.00  0.00     0.001 A 
ATOM     50  C   UNL     1      22.846   3.100 -10.491  1.00  0.00     0.000 A 
ENDBRANCH  26  45
BRANCH  38  51
ATOM     51  C   UNL     1      20.095   1.323 -19.007  1.00  0.00    -0.014 A 
ATOM     52  C   UNL     1      21.319   0.709 -19.315  1.00  0.00     0.009 A 
ATOM     53  C   UNL     1      19.648   2.391 -19.798  1.00  0.00     0.009 A 
ATOM     54  C   UNL     1      22.099   1.184 -20.370  1.00  0.00     0.001 A 
ATOM     55  C   UNL     1      20.418   2.848 -20.868  1.00  0.00     0.001 A 
ATOM     56  C   UNL     1      21.648   2.251 -21.146  1.00  0.00     0.000 A 
ENDBRANCH  38  51
ENDBRANCH  12  13
ENDBRANCH   5   7
ENDBRANCH   2   3
ENDBRANCH   1   2
BRANCH   1  57
ATOM     57  C   UNL     1       8.351  -0.359  -7.365  1.00  0.00     0.023 C 
BRANCH  57  58
ATOM     58  C   UNL     1       8.555   0.928  -6.569  1.00  0.00     0.116 C 
BRANCH  58  59
ATOM     59  N   UNL     1       8.310   2.119  -7.368  1.00  0.00    -0.356 N 
ATOM     60  C   UNL     1       7.364   3.091  -7.211  1.00  0.00     0.224 C 
ATOM     61  H   UNL     1       8.915   2.241  -8.136  1.00  0.00     0.163 HD
ATOM     62  O   UNL     1       7.358   4.035  -8.000  1.00  0.00    -0.275 OA
BRANCH  60  63
ATOM     63  C   UNL     1       6.356   2.961  -6.087  1.00  0.00     0.098 C 
ATOM     64  C   UNL     1       5.696   4.303  -5.735  1.00  0.00     0.017 C 
ATOM     65  C   UNL     1       5.272   1.961  -6.483  1.00  0.00     0.133 C 
ATOM     66  C   UNL     1       4.676   4.110  -4.610  1.00  0.00     0.022 C 
ATOM     67  N   UNL     1       4.328   1.791  -5.380  1.00  0.00    -0.338 N 
ATOM     68  C   UNL     1       3.656   3.020  -4.949  1.00  0.00     0.120 C 
BRANCH  67  69
ATOM     69  C   UNL     1       4.197   0.532  -4.803  1.00  0.00     0.255 C 
ATOM     70  O   UNL     1       4.905  -0.429  -5.097  1.00  0.00    -0.269 OA
BRANCH  69  71
ATOM     71  C   UNL     1       3.212   0.331  -3.728  1.00  0.00     0.059 A 
ATOM     72  C   UNL     1       3.717   0.038  -2.453  1.00  0.00     0.031 A 
ATOM     73  C   UNL     1       1.831   0.373  -3.950  1.00  0.00     0.053 A 
ATOM     74  C   UNL     1       2.835  -0.164  -1.396  1.00  0.00     0.018 A 
ATOM     75  C   UNL     1       0.956   0.181  -2.877  1.00  0.00     0.022 A 
ATOM     76  Cl  UNL     1       1.146   0.638  -5.512  1.00  0.00    -0.083 Cl
ATOM     77  Br  UNL     1       3.509  -0.552   0.326  1.00  0.00    -0.051 Br
ATOM     78  C   UNL     1       1.457  -0.082  -1.598  1.00  0.00     0.017 A 
ENDBRANCH  69  71
ENDBRANCH  67  69
ENDBRANCH  60  63
ENDBRANCH  58  59
ENDBRANCH  57  58
ENDBRANCH   1  57
TORSDOF 13
