REMARK SMILES CC(C)C[C@H](NC(=O)CNC(=O)[C@@H]([NH3+])C(C)C)C(=O)NCCCCNC(=O)c1ccc(-c2c3nc(c(-c4ccccc4)c4ccc([nH]4)c(-c4ccccc4)c4nc(c(-c5ccccc5)c5ccc2[nH]5)C=C4)C=C3)cc1
REMARK SMILES IDX 21 1 20 2 18 3 19 4 5 6 4 7 2 8 1 9 3 10 6 11 7 12 8 14 9 15
REMARK SMILES IDX 10 16 11 17 12 19 13 20 14 21 15 25 16 26 17 27 22 28 23 29
REMARK SMILES IDX 24 30 25 31 26 32 27 34 28 35 29 36 75 37 30 38 74 39 31 40
REMARK SMILES IDX 32 41 33 42 68 43 34 44 73 45 67 46 69 47 35 48 72 49 66 50
REMARK SMILES IDX 65 51 36 53 58 54 43 55 57 56 44 57 47 58 56 59 70 60 45 61
REMARK SMILES IDX 46 62 55 64 71 65 48 66 37 67 38 68 42 69 39 70 41 71 40 72
REMARK SMILES IDX 59 73 60 74 64 75 61 76 63 77 62 78 49 79 50 80 54 81 51 82
REMARK SMILES IDX 53 83 52 84
REMARK H PARENT 20 5 6 13 10 18 14 22 14 23 14 24 25 33 69 52 47 63
REMARK Flexibility Score: inf
ROOT
ATOM      1  C   UNL     1      -3.241   3.456   1.336  1.00  0.00     0.116 C 
ENDROOT
BRANCH   1   2
ATOM      2  N   UNL     1      -3.845   2.163   1.057  1.00  0.00    -0.354 N 
ATOM      3  C   UNL     1      -3.306   0.909   1.113  1.00  0.00     0.242 C 
ATOM      4  O   UNL     1      -4.064  -0.051   0.963  1.00  0.00    -0.273 OA
ATOM      5  H   UNL     1      -4.790   2.197   0.784  1.00  0.00     0.163 HD
BRANCH   3   6
ATOM      6  C   UNL     1      -1.822   0.716   1.477  1.00  0.00     0.171 C 
BRANCH   6   7
ATOM      7  C   UNL     1      -1.591   1.116   2.949  1.00  0.00     0.038 C 
BRANCH   7   8
ATOM      8  C   UNL     1      -2.607   0.630   4.006  1.00  0.00    -0.015 C 
ATOM      9  C   UNL     1      -2.733  -0.891   4.078  1.00  0.00     0.007 C 
ATOM     10  C   UNL     1      -2.181   1.161   5.382  1.00  0.00     0.007 C 
ENDBRANCH   7   8
ENDBRANCH   6   7
BRANCH   6  11
ATOM     11  N   UNL     1      -1.022   1.497   0.516  1.00  0.00    -0.343 N 
ATOM     12  C   UNL     1       0.295   1.539   0.195  1.00  0.00     0.240 C 
ATOM     13  H   UNL     1      -1.565   2.128  -0.010  1.00  0.00     0.164 HD
ATOM     14  O   UNL     1       0.625   2.362  -0.666  1.00  0.00    -0.273 OA
BRANCH  12  15
ATOM     15  C   UNL     1       1.333   0.602   0.810  1.00  0.00     0.216 C 
BRANCH  15  16
ATOM     16  N   UNL     1       1.581   0.861   2.216  1.00  0.00    -0.342 N 
ATOM     17  C   UNL     1       1.630   0.002   3.273  1.00  0.00     0.278 C 
ATOM     18  H   UNL     1       1.739   1.806   2.442  1.00  0.00     0.164 HD
ATOM     19  O   UNL     1       1.820   0.489   4.392  1.00  0.00    -0.268 OA
BRANCH  17  20
ATOM     20  C   UNL     1       1.466  -1.531   3.107  1.00  0.00     0.273 C 
BRANCH  20  21
ATOM     21  N   UNL     1       0.301  -1.855   2.258  1.00  0.00    -0.347 N 
ATOM     22  H   UNL     1       0.442  -1.466   1.326  1.00  0.00     0.345 HD
ATOM     23  H   UNL     1      -0.541  -1.455   2.670  1.00  0.00     0.345 HD
ATOM     24  H   UNL     1       0.200  -2.868   2.193  1.00  0.00     0.345 HD
ENDBRANCH  20  21
BRANCH  20  25
ATOM     25  C   UNL     1       2.781  -2.170   2.617  1.00  0.00     0.051 C 
ATOM     26  C   UNL     1       3.856  -2.034   3.706  1.00  0.00     0.014 C 
ATOM     27  C   UNL     1       2.615  -3.654   2.270  1.00  0.00     0.014 C 
ENDBRANCH  20  25
ENDBRANCH  17  20
ENDBRANCH  15  16
ENDBRANCH  12  15
ENDBRANCH   6  11
ENDBRANCH   3   6
ENDBRANCH   1   2
BRANCH   1  28
ATOM     28  C   UNL     1      -3.584   4.469   0.253  1.00  0.00     0.023 C 
BRANCH  28  29
ATOM     29  C   UNL     1      -5.063   4.844   0.202  1.00  0.00     0.023 C 
BRANCH  29  30
ATOM     30  C   UNL     1      -5.647   5.287   1.538  1.00  0.00     0.116 C 
BRANCH  30  31
ATOM     31  N   UNL     1      -4.929   6.412   2.119  1.00  0.00    -0.352 N 
ATOM     32  C   UNL     1      -5.447   7.572   2.639  1.00  0.00     0.251 C 
ATOM     33  H   UNL     1      -3.948   6.331   2.143  1.00  0.00     0.163 HD
ATOM     34  O   UNL     1      -4.718   8.501   2.967  1.00  0.00    -0.269 OA
BRANCH  32  35
ATOM     35  C   UNL     1      -6.910   7.689   2.764  1.00  0.00     0.039 A 
ATOM     36  C   UNL     1      -7.556   8.771   2.168  1.00  0.00     0.014 A 
ATOM     37  C   UNL     1      -7.636   6.678   3.401  1.00  0.00     0.014 A 
ATOM     38  C   UNL     1      -8.950   8.808   2.154  1.00  0.00     0.010 A 
ATOM     39  C   UNL     1      -9.022   6.679   3.319  1.00  0.00     0.010 A 
ATOM     40  C   UNL     1      -9.691   7.745   2.697  1.00  0.00    -0.014 A 
BRANCH  40  41
ATOM     41  C   UNL     1     -11.171   7.730   2.633  1.00  0.00     0.031 A 
ATOM     42  C   UNL     1     -11.974   7.786   3.901  1.00  0.00     0.074 A 
ATOM     43  C   UNL     1     -11.787   7.596   1.443  1.00  0.00     0.049 A 
ATOM     44  N   UNL     1     -13.271   7.724   4.059  1.00  0.00    -0.248 NA
ATOM     45  C   UNL     1     -11.219   7.897   5.160  1.00  0.00     0.031 C 
ATOM     46  C   UNL     1     -11.117   7.485   0.145  1.00  0.00     0.029 A 
ATOM     47  N   UNL     1     -13.122   7.525   1.134  1.00  0.00    -0.354 N 
ATOM     48  C   UNL     1     -13.484   7.766   5.431  1.00  0.00     0.074 A 
ATOM     49  C   UNL     1     -12.184   7.807   6.062  1.00  0.00     0.031 C 
ATOM     50  C   UNL     1     -12.044   7.390  -0.821  1.00  0.00     0.029 A 
ATOM     51  C   UNL     1     -13.370   7.397  -0.210  1.00  0.00     0.049 A 
ATOM     52  H   UNL     1     -13.834   7.563   1.813  1.00  0.00     0.167 HD
ATOM     53  C   UNL     1     -14.657   7.789   6.105  1.00  0.00     0.031 A 
ATOM     54  C   UNL     1     -14.535   7.295  -0.876  1.00  0.00     0.031 A 
ATOM     55  C   UNL     1     -15.949   7.767   5.476  1.00  0.00     0.049 A 
ATOM     56  C   UNL     1     -15.825   7.327  -0.104  1.00  0.00     0.074 A 
ATOM     57  C   UNL     1     -17.197   7.853   6.068  1.00  0.00     0.029 A 
ATOM     58  N   UNL     1     -16.158   7.652   4.111  1.00  0.00    -0.354 N 
ATOM     59  N   UNL     1     -16.011   7.438   1.188  1.00  0.00    -0.248 NA
ATOM     60  C   UNL     1     -17.065   7.229  -0.887  1.00  0.00     0.031 C 
ATOM     61  C   UNL     1     -18.163   7.745   5.062  1.00  0.00     0.029 A 
ATOM     62  C   UNL     1     -17.515   7.643   3.841  1.00  0.00     0.049 A 
ATOM     63  H   UNL     1     -15.446   7.586   3.434  1.00  0.00     0.167 HD
ATOM     64  C   UNL     1     -17.387   7.451   1.372  1.00  0.00     0.074 A 
ATOM     65  C   UNL     1     -17.987   7.351   0.057  1.00  0.00     0.031 C 
ATOM     66  C   UNL     1     -18.092   7.541   2.526  1.00  0.00     0.031 A 
BRANCH  53  67
ATOM     67  C   UNL     1     -14.587   7.837   7.605  1.00  0.00    -0.014 A 
ATOM     68  C   UNL     1     -14.147   8.989   8.277  1.00  0.00     0.009 A 
ATOM     69  C   UNL     1     -14.983   6.721   8.359  1.00  0.00     0.009 A 
ATOM     70  C   UNL     1     -14.067   9.009   9.670  1.00  0.00     0.001 A 
ATOM     71  C   UNL     1     -14.930   6.754   9.753  1.00  0.00     0.001 A 
ATOM     72  C   UNL     1     -14.462   7.893  10.407  1.00  0.00     0.000 A 
ENDBRANCH  53  67
BRANCH  54  73
ATOM     73  C   UNL     1     -14.539   7.180  -2.357  1.00  0.00    -0.014 A 
ATOM     74  C   UNL     1     -14.962   8.258  -3.150  1.00  0.00     0.009 A 
ATOM     75  C   UNL     1     -14.124   5.996  -2.985  1.00  0.00     0.009 A 
ATOM     76  C   UNL     1     -14.992   8.144  -4.542  1.00  0.00     0.001 A 
ATOM     77  C   UNL     1     -14.131   5.894  -4.378  1.00  0.00     0.001 A 
ATOM     78  C   UNL     1     -14.573   6.964  -5.154  1.00  0.00     0.000 A 
ENDBRANCH  54  73
BRANCH  66  79
ATOM     79  C   UNL     1     -19.589   7.566   2.414  1.00  0.00    -0.014 A 
ATOM     80  C   UNL     1     -20.315   6.407   2.101  1.00  0.00     0.009 A 
ATOM     81  C   UNL     1     -20.284   8.759   2.670  1.00  0.00     0.009 A 
ATOM     82  C   UNL     1     -21.708   6.450   2.015  1.00  0.00     0.001 A 
ATOM     83  C   UNL     1     -21.677   8.792   2.609  1.00  0.00     0.001 A 
ATOM     84  C   UNL     1     -22.387   7.641   2.274  1.00  0.00     0.000 A 
ENDBRANCH  66  79
ENDBRANCH  40  41
ENDBRANCH  32  35
ENDBRANCH  30  31
ENDBRANCH  29  30
ENDBRANCH  28  29
ENDBRANCH   1  28
TORSDOF 19
