REMARK SMILES COc1ccc(-c2noc(CC(=O)NCCCCNC(=O)c3ccc(-c4c5nc(c(-c6ccccc6)c6ccc([nH]6)c(-c6ccccc6)c6nc(c(-c7ccccc7)c7ccc4[nH]7)C=C6)C=C5)cc3)c2-c2ccc(OC)cc2)cc1
REMARK SMILES IDX 16 1 15 2 14 3 12 4 13 5 11 7 10 8 7 9 8 10 70 11 9 12 6 13
REMARK SMILES IDX 3 14 4 15 80 16 5 17 79 18 2 19 1 20 71 21 72 22 78 23 73 24
REMARK SMILES IDX 77 25 74 26 75 27 76 28 17 29 18 30 19 31 20 32 21 34 22 35
REMARK SMILES IDX 23 36 69 37 24 38 68 39 25 40 26 41 27 42 62 43 28 44 67 45
REMARK SMILES IDX 61 46 63 47 29 48 66 49 60 50 59 51 30 53 52 54 37 55 51 56
REMARK SMILES IDX 38 57 41 58 50 59 64 60 39 61 40 62 49 64 65 65 42 66 31 67
REMARK SMILES IDX 32 68 36 69 33 70 35 71 34 72 53 73 54 74 58 75 55 76 57 77
REMARK SMILES IDX 56 78 43 79 44 80 48 81 45 82 47 83 46 84
REMARK H PARENT 14 6 19 33 63 52 41 63
REMARK Flexibility Score: inf
ROOT
ATOM      1  C   UNL     1       0.112  -9.229  -1.704  1.00  0.00     0.023 C 
ENDROOT
BRANCH   1   2
ATOM      2  C   UNL     1       1.394 -10.042  -1.889  1.00  0.00     0.116 C 
BRANCH   2   3
ATOM      3  N   UNL     1       1.556 -10.461  -3.266  1.00  0.00    -0.356 N 
ATOM      4  C   UNL     1       2.309  -9.886  -4.250  1.00  0.00     0.227 C 
ATOM      5  O   UNL     1       2.249 -10.368  -5.383  1.00  0.00    -0.275 OA
ATOM      6  H   UNL     1       1.057 -11.268  -3.528  1.00  0.00     0.163 HD
BRANCH   4   7
ATOM      7  C   UNL     1       3.268  -8.756  -3.923  1.00  0.00     0.179 C 
BRANCH   7   8
ATOM      8  C   UNL     1       2.567  -7.505  -3.546  1.00  0.00     0.154 A 
ATOM      9  C   UNL     1       1.643  -5.651  -2.756  1.00  0.00     0.122 A 
ATOM     10  N   UNL     1       1.056  -5.892  -3.937  1.00  0.00    -0.079 NA
ATOM     11  C   UNL     1       2.607  -6.659  -2.456  1.00  0.00     0.053 A 
ATOM     12  O   UNL     1       1.652  -7.033  -4.437  1.00  0.00    -0.360 OA
BRANCH   9  13
ATOM     13  C   UNL     1       1.298  -4.489  -1.950  1.00  0.00     0.005 A 
ATOM     14  C   UNL     1       0.684  -2.277  -0.346  1.00  0.00     0.118 A 
ATOM     15  C   UNL     1      -0.314  -3.185  -0.701  1.00  0.00     0.047 A 
ATOM     16  C   UNL     1       1.998  -2.489  -0.764  1.00  0.00     0.047 A 
ATOM     17  C   UNL     1      -0.015  -4.281  -1.516  1.00  0.00     0.014 A 
ATOM     18  C   UNL     1       2.302  -3.590  -1.566  1.00  0.00     0.014 A 
BRANCH  14  19
ATOM     19  O   UNL     1       0.300  -1.238   0.457  1.00  0.00    -0.497 OA
ATOM     20  C   UNL     1       0.883   0.012   0.096  1.00  0.00     0.278 C 
ENDBRANCH  14  19
ENDBRANCH   9  13
BRANCH  11  21
ATOM     21  C   UNL     1       3.395  -6.872  -1.258  1.00  0.00    -0.012 A 
ATOM     22  C   UNL     1       2.757  -6.959  -0.015  1.00  0.00     0.013 A 
ATOM     23  C   UNL     1       4.786  -6.997  -1.319  1.00  0.00     0.013 A 
ATOM     24  C   UNL     1       3.499  -7.192   1.144  1.00  0.00     0.047 A 
ATOM     25  C   UNL     1       5.529  -7.224  -0.152  1.00  0.00     0.047 A 
ATOM     26  C   UNL     1       4.887  -7.327   1.083  1.00  0.00     0.118 A 
BRANCH  26  27
ATOM     27  O   UNL     1       5.488  -7.554   2.289  1.00  0.00    -0.497 OA
ATOM     28  C   UNL     1       6.906  -7.657   2.294  1.00  0.00     0.278 C 
ENDBRANCH  26  27
ENDBRANCH  11  21
ENDBRANCH   7   8
ENDBRANCH   4   7
ENDBRANCH   2   3
ENDBRANCH   1   2
BRANCH   1  29
ATOM     29  C   UNL     1      -1.173 -10.056  -1.784  1.00  0.00     0.023 C 
BRANCH  29  30
ATOM     30  C   UNL     1      -1.287 -11.161  -0.742  1.00  0.00     0.116 C 
BRANCH  30  31
ATOM     31  N   UNL     1      -1.240 -10.669   0.626  1.00  0.00    -0.352 N 
ATOM     32  C   UNL     1      -1.935 -11.126   1.720  1.00  0.00     0.251 C 
ATOM     33  H   UNL     1      -0.632  -9.912   0.789  1.00  0.00     0.163 HD
ATOM     34  O   UNL     1      -1.875 -10.531   2.792  1.00  0.00    -0.269 OA
BRANCH  32  35
ATOM     35  C   UNL     1      -2.787 -12.324   1.582  1.00  0.00     0.039 A 
ATOM     36  C   UNL     1      -4.104 -12.273   2.044  1.00  0.00     0.014 A 
ATOM     37  C   UNL     1      -2.297 -13.476   0.962  1.00  0.00     0.014 A 
ATOM     38  C   UNL     1      -4.953 -13.360   1.823  1.00  0.00     0.010 A 
ATOM     39  C   UNL     1      -3.163 -14.525   0.678  1.00  0.00     0.010 A 
ATOM     40  C   UNL     1      -4.498 -14.479   1.108  1.00  0.00    -0.014 A 
BRANCH  40  41
ATOM     41  C   UNL     1      -5.395 -15.620   0.803  1.00  0.00     0.031 A 
ATOM     42  C   UNL     1      -5.108 -16.976   1.385  1.00  0.00     0.074 A 
ATOM     43  C   UNL     1      -6.424 -15.455  -0.049  1.00  0.00     0.049 A 
ATOM     44  N   UNL     1      -5.729 -18.110   1.183  1.00  0.00    -0.248 NA
ATOM     45  C   UNL     1      -3.955 -17.073   2.294  1.00  0.00     0.031 C 
ATOM     46  C   UNL     1      -6.793 -14.199  -0.704  1.00  0.00     0.029 A 
ATOM     47  N   UNL     1      -7.348 -16.357  -0.513  1.00  0.00    -0.354 N 
ATOM     48  C   UNL     1      -5.032 -19.056   1.923  1.00  0.00     0.074 A 
ATOM     49  C   UNL     1      -3.910 -18.375   2.533  1.00  0.00     0.031 C 
ATOM     50  C   UNL     1      -7.885 -14.402  -1.458  1.00  0.00     0.029 A 
ATOM     51  C   UNL     1      -8.267 -15.808  -1.374  1.00  0.00     0.049 A 
ATOM     52  H   UNL     1      -7.353 -17.306  -0.255  1.00  0.00     0.167 HD
ATOM     53  C   UNL     1      -5.309 -20.370   2.099  1.00  0.00     0.031 A 
ATOM     54  C   UNL     1      -9.300 -16.375  -2.024  1.00  0.00     0.031 A 
ATOM     55  C   UNL     1      -6.425 -21.048   1.497  1.00  0.00     0.049 A 
ATOM     56  C   UNL     1      -9.570 -17.842  -1.841  1.00  0.00     0.074 A 
ATOM     57  C   UNL     1      -6.819 -22.366   1.648  1.00  0.00     0.029 A 
ATOM     58  N   UNL     1      -7.325 -20.458   0.623  1.00  0.00    -0.354 N 
ATOM     59  N   UNL     1      -8.934 -18.712  -1.095  1.00  0.00    -0.248 NA
ATOM     60  C   UNL     1     -10.706 -18.401  -2.587  1.00  0.00     0.031 C 
ATOM     61  C   UNL     1      -7.931 -22.586   0.828  1.00  0.00     0.029 A 
ATOM     62  C   UNL     1      -8.262 -21.391   0.209  1.00  0.00     0.049 A 
ATOM     63  H   UNL     1      -7.303 -19.516   0.339  1.00  0.00     0.167 HD
ATOM     64  C   UNL     1      -9.612 -19.914  -1.255  1.00  0.00     0.074 A 
ATOM     65  C   UNL     1     -10.712 -19.657  -2.162  1.00  0.00     0.031 C 
ATOM     66  C   UNL     1      -9.350 -21.120  -0.695  1.00  0.00     0.031 A 
BRANCH  53  67
ATOM     67  C   UNL     1      -4.372 -21.154   2.975  1.00  0.00    -0.014 A 
ATOM     68  C   UNL     1      -4.306 -20.924   4.360  1.00  0.00     0.009 A 
ATOM     69  C   UNL     1      -3.541 -22.134   2.411  1.00  0.00     0.009 A 
ATOM     70  C   UNL     1      -3.392 -21.622   5.152  1.00  0.00     0.001 A 
ATOM     71  C   UNL     1      -2.651 -22.855   3.211  1.00  0.00     0.001 A 
ATOM     72  C   UNL     1      -2.568 -22.589   4.577  1.00  0.00     0.000 A 
ENDBRANCH  53  67
BRANCH  54  73
ATOM     73  C   UNL     1     -10.182 -15.543  -2.884  1.00  0.00    -0.014 A 
ATOM     74  C   UNL     1     -11.487 -15.238  -2.468  1.00  0.00     0.009 A 
ATOM     75  C   UNL     1      -9.727 -15.048  -4.116  1.00  0.00     0.009 A 
ATOM     76  C   UNL     1     -12.326 -14.469  -3.277  1.00  0.00     0.001 A 
ATOM     77  C   UNL     1     -10.561 -14.257  -4.911  1.00  0.00     0.001 A 
ATOM     78  C   UNL     1     -11.861 -13.976  -4.495  1.00  0.00     0.000 A 
ENDBRANCH  54  73
BRANCH  66  79
ATOM     79  C   UNL     1     -10.293 -22.245  -1.015  1.00  0.00    -0.014 A 
ATOM     80  C   UNL     1     -10.296 -22.861  -2.276  1.00  0.00     0.009 A 
ATOM     81  C   UNL     1     -11.163 -22.722  -0.022  1.00  0.00     0.009 A 
ATOM     82  C   UNL     1     -11.175 -23.912  -2.545  1.00  0.00     0.001 A 
ATOM     83  C   UNL     1     -12.021 -23.791  -0.285  1.00  0.00     0.001 A 
ATOM     84  C   UNL     1     -12.032 -24.380  -1.549  1.00  0.00     0.000 A 
ENDBRANCH  66  79
ENDBRANCH  40  41
ENDBRANCH  32  35
ENDBRANCH  30  31
ENDBRANCH  29  30
ENDBRANCH   1  29
TORSDOF 16
