REMARK SMILES C[C@H]1[C@@H](C(=O)NCCCCNC(=O)c2ccc(-c3c4nc(c(-c5ccccc5)c5ccc([nH]5)c(-c5ccccc5)c5nc(c(-c6ccccc6)c6ccc3[nH]6)C=C5)C=C4)cc2)CCN1C(=O)NC1CCCCC1
REMARK SMILES IDX 8 1 7 2 6 3 4 4 5 5 3 7 1 8 2 9 64 10 62 11 63 12 65 13
REMARK SMILES IDX 66 14 67 15 68 17 69 18 73 19 70 20 72 21 71 22 9 23 10 24
REMARK SMILES IDX 11 25 12 26 13 28 14 29 15 30 61 31 16 32 60 33 17 34 18 35
REMARK SMILES IDX 19 36 54 37 20 38 59 39 53 40 55 41 21 42 58 43 52 44 51 45
REMARK SMILES IDX 22 47 44 48 29 49 43 50 30 51 33 52 42 53 56 54 31 55 32 56
REMARK SMILES IDX 41 58 57 59 34 60 23 61 24 62 28 63 25 64 27 65 26 66 45 67
REMARK SMILES IDX 46 68 50 69 47 70 49 71 48 72 35 73 36 74 40 75 37 76 39 77
REMARK SMILES IDX 38 78
REMARK H PARENT 6 6 67 16 11 27 55 46 33 57
REMARK Flexibility Score: inf
ROOT
ATOM      1  C   UNL     1       3.256   0.645  -1.990  1.00  0.00     0.023 C 
ENDROOT
BRANCH   1   2
ATOM      2  C   UNL     1       2.413   1.821  -1.493  1.00  0.00     0.116 C 
BRANCH   2   3
ATOM      3  N   UNL     1       1.188   1.944  -2.261  1.00  0.00    -0.356 N 
ATOM      4  C   UNL     1      -0.070   1.482  -2.002  1.00  0.00     0.225 C 
ATOM      5  O   UNL     1      -0.935   1.706  -2.850  1.00  0.00    -0.275 OA
ATOM      6  H   UNL     1       1.279   2.441  -3.106  1.00  0.00     0.163 HD
BRANCH   4   7
ATOM      7  C   UNL     1      -0.391   0.806  -0.678  1.00  0.00     0.102 C 
ATOM      8  C   UNL     1       0.750  -1.448  -1.410  1.00  0.00     0.032 C 
ATOM      9  C   UNL     1       0.398  -0.456  -0.302  1.00  0.00     0.096 C 
ATOM     10  N   UNL     1      -0.479  -1.108   0.645  1.00  0.00    -0.321 N 
ATOM     11  C   UNL     1      -1.873   0.391  -0.529  1.00  0.00     0.037 C 
ATOM     12  C   UNL     1      -1.846  -0.961   0.172  1.00  0.00     0.122 C 
BRANCH  10  13
ATOM     13  C   UNL     1      -0.190  -2.013   1.601  1.00  0.00     0.317 C 
ATOM     14  O   UNL     1      -1.048  -2.802   2.010  1.00  0.00    -0.249 OA
ATOM     15  N   UNL     1       1.011  -2.123   2.180  1.00  0.00    -0.335 N 
ATOM     16  H   UNL     1       1.013  -2.911   2.771  1.00  0.00     0.165 HD
BRANCH  15  17
ATOM     17  C   UNL     1       2.338  -1.470   2.240  1.00  0.00     0.083 C 
ATOM     18  C   UNL     1       2.301   0.041   2.556  1.00  0.00     0.025 C 
ATOM     19  C   UNL     1       3.122  -2.234   3.339  1.00  0.00     0.025 C 
ATOM     20  C   UNL     1       3.643   0.624   3.008  1.00  0.00     0.002 C 
ATOM     21  C   UNL     1       4.437  -1.600   3.765  1.00  0.00     0.002 C 
ATOM     22  C   UNL     1       4.228  -0.152   4.173  1.00  0.00     0.000 C 
ENDBRANCH  15  17
ENDBRANCH  10  13
ENDBRANCH   4   7
ENDBRANCH   2   3
ENDBRANCH   1   2
BRANCH   1  23
ATOM     23  C   UNL     1       4.193   0.978  -3.140  1.00  0.00     0.023 C 
BRANCH  23  24
ATOM     24  C   UNL     1       5.422   1.759  -2.719  1.00  0.00     0.116 C 
BRANCH  24  25
ATOM     25  N   UNL     1       6.339   0.994  -1.879  1.00  0.00    -0.352 N 
ATOM     26  C   UNL     1       7.690   0.781  -2.037  1.00  0.00     0.251 C 
ATOM     27  H   UNL     1       5.933   0.570  -1.088  1.00  0.00     0.163 HD
ATOM     28  O   UNL     1       8.298   0.030  -1.280  1.00  0.00    -0.269 OA
BRANCH  26  29
ATOM     29  C   UNL     1       8.389   1.429  -3.166  1.00  0.00     0.039 A 
ATOM     30  C   UNL     1       9.207   0.662  -3.997  1.00  0.00     0.014 A 
ATOM     31  C   UNL     1       8.139   2.769  -3.462  1.00  0.00     0.014 A 
ATOM     32  C   UNL     1       9.681   1.213  -5.189  1.00  0.00     0.010 A 
ATOM     33  C   UNL     1       8.498   3.268  -4.705  1.00  0.00     0.010 A 
ATOM     34  C   UNL     1       9.278   2.500  -5.582  1.00  0.00    -0.014 A 
BRANCH  34  35
ATOM     35  C   UNL     1       9.664   3.081  -6.893  1.00  0.00     0.031 A 
ATOM     36  C   UNL     1      10.423   4.381  -6.934  1.00  0.00     0.074 A 
ATOM     37  C   UNL     1       9.254   2.501  -8.039  1.00  0.00     0.049 A 
ATOM     38  N   UNL     1      10.755   5.112  -7.967  1.00  0.00    -0.248 NA
ATOM     39  C   UNL     1      10.819   4.960  -5.639  1.00  0.00     0.031 C 
ATOM     40  C   UNL     1       8.456   1.276  -8.140  1.00  0.00     0.029 A 
ATOM     41  N   UNL     1       9.451   2.873  -9.346  1.00  0.00    -0.354 N 
ATOM     42  C   UNL     1      11.359   6.248  -7.442  1.00  0.00     0.074 A 
ATOM     43  C   UNL     1      11.288   6.142  -6.003  1.00  0.00     0.031 C 
ATOM     44  C   UNL     1       8.269   0.977  -9.436  1.00  0.00     0.029 A 
ATOM     45  C   UNL     1       8.895   2.008 -10.257  1.00  0.00     0.049 A 
ATOM     46  H   UNL     1       9.944   3.685  -9.606  1.00  0.00     0.167 HD
ATOM     47  C   UNL     1      11.950   7.275  -8.096  1.00  0.00     0.031 A 
ATOM     48  C   UNL     1       8.892   2.041 -11.603  1.00  0.00     0.031 A 
ATOM     49  C   UNL     1      12.065   7.357  -9.525  1.00  0.00     0.049 A 
ATOM     50  C   UNL     1       9.587   3.173 -12.308  1.00  0.00     0.074 A 
ATOM     51  C   UNL     1      12.715   8.312 -10.284  1.00  0.00     0.029 A 
ATOM     52  N   UNL     1      11.523   6.438 -10.409  1.00  0.00    -0.354 N 
ATOM     53  N   UNL     1      10.217   4.202 -11.796  1.00  0.00    -0.248 NA
ATOM     54  C   UNL     1       9.579   3.140 -13.777  1.00  0.00     0.031 C 
ATOM     55  C   UNL     1      12.534   7.991 -11.633  1.00  0.00     0.029 A 
ATOM     56  C   UNL     1      11.812   6.811 -11.710  1.00  0.00     0.049 A 
ATOM     57  H   UNL     1      11.009   5.638 -10.150  1.00  0.00     0.167 HD
ATOM     58  C   UNL     1      10.704   4.924 -12.878  1.00  0.00     0.074 A 
ATOM     59  C   UNL     1      10.309   4.206 -14.073  1.00  0.00     0.031 C 
ATOM     60  C   UNL     1      11.413   6.078 -12.883  1.00  0.00     0.031 A 
BRANCH  47  61
ATOM     61  C   UNL     1      12.527   8.382  -7.258  1.00  0.00    -0.014 A 
ATOM     62  C   UNL     1      13.662   8.172  -6.457  1.00  0.00     0.009 A 
ATOM     63  C   UNL     1      11.934   9.653  -7.275  1.00  0.00     0.009 A 
ATOM     64  C   UNL     1      14.162   9.199  -5.655  1.00  0.00     0.001 A 
ATOM     65  C   UNL     1      12.457  10.688  -6.497  1.00  0.00     0.001 A 
ATOM     66  C   UNL     1      13.562  10.457  -5.679  1.00  0.00     0.000 A 
ENDBRANCH  47  61
BRANCH  48  67
ATOM     67  C   UNL     1       8.241   0.952 -12.378  1.00  0.00    -0.014 A 
ATOM     68  C   UNL     1       9.021   0.021 -13.083  1.00  0.00     0.009 A 
ATOM     69  C   UNL     1       6.844   0.839 -12.426  1.00  0.00     0.009 A 
ATOM     70  C   UNL     1       8.415  -0.982 -13.842  1.00  0.00     0.001 A 
ATOM     71  C   UNL     1       6.241  -0.183 -13.165  1.00  0.00     0.001 A 
ATOM     72  C   UNL     1       7.026  -1.086 -13.879  1.00  0.00     0.000 A 
ENDBRANCH  48  67
BRANCH  60  73
ATOM     73  C   UNL     1      11.838   6.617 -14.218  1.00  0.00    -0.014 A 
ATOM     74  C   UNL     1      10.916   7.222 -15.085  1.00  0.00     0.009 A 
ATOM     75  C   UNL     1      13.190   6.560 -14.590  1.00  0.00     0.009 A 
ATOM     76  C   UNL     1      11.336   7.734 -16.313  1.00  0.00     0.001 A 
ATOM     77  C   UNL     1      13.612   7.098 -15.806  1.00  0.00     0.001 A 
ATOM     78  C   UNL     1      12.684   7.676 -16.670  1.00  0.00     0.000 A 
ENDBRANCH  60  73
ENDBRANCH  34  35
ENDBRANCH  26  29
ENDBRANCH  24  25
ENDBRANCH  23  24
ENDBRANCH   1  23
TORSDOF 13
