REMARK SMILES CCOc1c(Br)cc(CNc2cccc(C(=O)NCCCCNC(=O)c3ccc(-c4c5nc(c(-c6ccccc6)c6ccc([nH]6)c(-c6ccccc6)c6nc(c(-c7ccccc7)c7ccc4[nH]7)C=C6)C=C5)cc3)c2C)cc1OC
REMARK SMILES IDX 19 1 18 2 16 3 17 4 15 6 11 7 12 8 74 9 13 10 75 11 14 12
REMARK SMILES IDX 10 13 9 15 8 16 4 17 5 18 77 19 6 20 7 21 76 22 3 23 2 24
REMARK SMILES IDX 1 25 78 26 79 27 20 28 21 29 22 30 23 31 24 32 25 34 26 35
REMARK SMILES IDX 27 36 73 37 28 38 72 39 29 40 30 41 31 42 66 43 32 44 71 45
REMARK SMILES IDX 65 46 67 47 33 48 70 49 64 50 63 51 34 53 56 54 41 55 55 56
REMARK SMILES IDX 42 57 45 58 54 59 68 60 43 61 44 62 53 64 69 65 46 66 35 67
REMARK SMILES IDX 36 68 40 69 37 70 39 71 38 72 57 73 58 74 62 75 59 76 61 77
REMARK SMILES IDX 60 78 47 79 48 80 52 81 49 82 51 83 50 84
REMARK H PARENT 18 5 10 14 23 33 67 52 45 63
REMARK Flexibility Score: inf
ROOT
ATOM      1  C   UNL     1      11.469   2.151  -1.843  1.00  0.00     0.116 C 
ENDROOT
BRANCH   1   2
ATOM      2  N   UNL     1      10.182   1.629  -2.294  1.00  0.00    -0.352 N 
ATOM      3  C   UNL     1       9.090   1.050  -1.680  1.00  0.00     0.251 C 
ATOM      4  O   UNL     1       8.105   0.860  -2.395  1.00  0.00    -0.269 OA
ATOM      5  H   UNL     1      10.066   1.709  -3.268  1.00  0.00     0.163 HD
BRANCH   3   6
ATOM      6  C   UNL     1       9.042   0.655  -0.232  1.00  0.00     0.044 A 
ATOM      7  C   UNL     1       8.202  -0.739   1.618  1.00  0.00     0.038 A 
ATOM      8  C   UNL     1       8.997   0.012   2.494  1.00  0.00     0.026 A 
ATOM      9  C   UNL     1       8.286  -0.469   0.223  1.00  0.00    -0.015 A 
ATOM     10  C   UNL     1       9.705   1.121   2.058  1.00  0.00     0.003 A 
ATOM     11  C   UNL     1       7.481  -1.319  -0.736  1.00  0.00     0.047 C 
ATOM     12  C   UNL     1       9.656   1.479   0.717  1.00  0.00     0.014 A 
BRANCH   7  13
ATOM     13  N   UNL     1       7.293  -1.659   2.135  1.00  0.00    -0.381 N 
ATOM     14  H   UNL     1       7.152  -2.511   1.662  1.00  0.00     0.160 HD
BRANCH  13  15
ATOM     15  C   UNL     1       6.545  -1.394   3.358  1.00  0.00     0.149 C 
BRANCH  15  16
ATOM     16  C   UNL     1       5.087  -1.152   3.039  1.00  0.00    -0.024 A 
ATOM     17  C   UNL     1       2.355  -0.699   2.458  1.00  0.00     0.175 A 
ATOM     18  C   UNL     1       3.343   0.209   2.037  1.00  0.00     0.064 A 
ATOM     19  C   UNL     1       2.731  -1.797   3.248  1.00  0.00     0.162 A 
ATOM     20  Br  UNL     1       2.914   1.822   1.125  1.00  0.00    -0.047 Br
ATOM     21  C   UNL     1       4.695  -0.026   2.306  1.00  0.00     0.025 A 
ATOM     22  C   UNL     1       4.093  -2.018   3.513  1.00  0.00     0.056 A 
BRANCH  17  23
ATOM     23  O   UNL     1       1.048  -0.444   2.128  1.00  0.00    -0.489 OA
BRANCH  23  24
ATOM     24  C   UNL     1       0.590  -1.264   1.042  1.00  0.00     0.226 C 
ATOM     25  C   UNL     1       0.540  -0.475  -0.254  1.00  0.00     0.049 C 
ENDBRANCH  23  24
ENDBRANCH  17  23
BRANCH  19  26
ATOM     26  O   UNL     1       1.932  -2.752   3.817  1.00  0.00    -0.493 OA
ATOM     27  C   UNL     1       0.571  -2.439   4.074  1.00  0.00     0.278 C 
ENDBRANCH  19  26
ENDBRANCH  15  16
ENDBRANCH  13  15
ENDBRANCH   7  13
ENDBRANCH   3   6
ENDBRANCH   1   2
BRANCH   1  28
ATOM     28  C   UNL     1      12.690   1.341  -2.279  1.00  0.00     0.023 C 
BRANCH  28  29
ATOM     29  C   UNL     1      12.947   1.256  -3.781  1.00  0.00     0.023 C 
BRANCH  29  30
ATOM     30  C   UNL     1      13.230   2.582  -4.480  1.00  0.00     0.116 C 
BRANCH  30  31
ATOM     31  N   UNL     1      14.589   3.090  -4.342  1.00  0.00    -0.352 N 
ATOM     32  C   UNL     1      15.125   4.305  -4.763  1.00  0.00     0.251 C 
ATOM     33  H   UNL     1      15.220   2.487  -3.885  1.00  0.00     0.163 HD
ATOM     34  O   UNL     1      16.302   4.545  -4.598  1.00  0.00    -0.269 OA
BRANCH  32  35
ATOM     35  C   UNL     1      14.216   5.359  -5.293  1.00  0.00     0.039 A 
ATOM     36  C   UNL     1      14.370   6.661  -4.800  1.00  0.00     0.014 A 
ATOM     37  C   UNL     1      13.112   5.040  -6.077  1.00  0.00     0.014 A 
ATOM     38  C   UNL     1      13.293   7.542  -4.852  1.00  0.00     0.010 A 
ATOM     39  C   UNL     1      12.008   5.868  -6.039  1.00  0.00     0.010 A 
ATOM     40  C   UNL     1      12.077   7.084  -5.354  1.00  0.00    -0.014 A 
BRANCH  40  41
ATOM     41  C   UNL     1      10.803   7.729  -5.060  1.00  0.00     0.031 A 
ATOM     42  C   UNL     1      10.079   8.484  -6.096  1.00  0.00     0.074 A 
ATOM     43  C   UNL     1      10.255   7.548  -3.839  1.00  0.00     0.049 A 
ATOM     44  N   UNL     1       9.191   9.389  -5.853  1.00  0.00    -0.248 NA
ATOM     45  C   UNL     1      10.355   8.311  -7.517  1.00  0.00     0.031 C 
ATOM     46  C   UNL     1       8.889   7.834  -3.412  1.00  0.00     0.029 A 
ATOM     47  N   UNL     1      10.934   7.255  -2.655  1.00  0.00    -0.354 N 
ATOM     48  C   UNL     1       8.585   9.701  -7.048  1.00  0.00     0.074 A 
ATOM     49  C   UNL     1       9.403   9.074  -8.060  1.00  0.00     0.031 C 
ATOM     50  C   UNL     1       8.870   7.950  -2.074  1.00  0.00     0.029 A 
ATOM     51  C   UNL     1      10.252   7.913  -1.619  1.00  0.00     0.049 A 
ATOM     52  H   UNL     1      11.738   6.694  -2.564  1.00  0.00     0.167 HD
ATOM     53  C   UNL     1       7.375  10.329  -7.045  1.00  0.00     0.031 A 
ATOM     54  C   UNL     1      10.859   8.909  -0.907  1.00  0.00     0.031 A 
ATOM     55  C   UNL     1       6.963  10.707  -5.695  1.00  0.00     0.049 A 
ATOM     56  C   UNL     1      10.166  10.250  -1.024  1.00  0.00     0.074 A 
ATOM     57  C   UNL     1       6.104  10.127  -4.775  1.00  0.00     0.029 A 
ATOM     58  N   UNL     1       7.697  11.662  -5.000  1.00  0.00    -0.354 N 
ATOM     59  N   UNL     1       9.335  10.563  -1.979  1.00  0.00    -0.248 NA
ATOM     60  C   UNL     1      10.403  11.360  -0.102  1.00  0.00     0.031 C 
ATOM     61  C   UNL     1       6.399  10.672  -3.498  1.00  0.00     0.029 A 
ATOM     62  C   UNL     1       7.407  11.607  -3.651  1.00  0.00     0.049 A 
ATOM     63  H   UNL     1       8.334  12.289  -5.413  1.00  0.00     0.167 HD
ATOM     64  C   UNL     1       8.943  11.866  -1.831  1.00  0.00     0.074 A 
ATOM     65  C   UNL     1       9.627  12.320  -0.634  1.00  0.00     0.031 C 
ATOM     66  C   UNL     1       8.102  12.477  -2.713  1.00  0.00     0.031 A 
BRANCH  53  67
ATOM     67  C   UNL     1       6.437  10.312  -8.232  1.00  0.00    -0.014 A 
ATOM     68  C   UNL     1       5.047  10.367  -8.019  1.00  0.00     0.009 A 
ATOM     69  C   UNL     1       6.844  10.167  -9.569  1.00  0.00     0.009 A 
ATOM     70  C   UNL     1       4.125  10.180  -9.059  1.00  0.00     0.001 A 
ATOM     71  C   UNL     1       5.932   9.937 -10.609  1.00  0.00     0.001 A 
ATOM     72  C   UNL     1       4.569   9.930 -10.350  1.00  0.00     0.000 A 
ENDBRANCH  53  67
BRANCH  54  73
ATOM     73  C   UNL     1      12.336   8.748  -0.780  1.00  0.00    -0.014 A 
ATOM     74  C   UNL     1      12.836   7.625  -0.088  1.00  0.00     0.009 A 
ATOM     75  C   UNL     1      13.213   9.473  -1.598  1.00  0.00     0.009 A 
ATOM     76  C   UNL     1      14.143   7.175  -0.301  1.00  0.00     0.001 A 
ATOM     77  C   UNL     1      14.527   9.029  -1.795  1.00  0.00     0.001 A 
ATOM     78  C   UNL     1      14.979   7.863  -1.176  1.00  0.00     0.000 A 
ENDBRANCH  54  73
BRANCH  66  79
ATOM     79  C   UNL     1       7.804  13.950  -2.740  1.00  0.00    -0.014 A 
ATOM     80  C   UNL     1       8.713  14.935  -2.328  1.00  0.00     0.009 A 
ATOM     81  C   UNL     1       6.607  14.394  -3.341  1.00  0.00     0.009 A 
ATOM     82  C   UNL     1       8.418  16.297  -2.464  1.00  0.00     0.001 A 
ATOM     83  C   UNL     1       6.327  15.751  -3.516  1.00  0.00     0.001 A 
ATOM     84  C   UNL     1       7.230  16.704  -3.065  1.00  0.00     0.000 A 
ENDBRANCH  66  79
ENDBRANCH  40  41
ENDBRANCH  32  35
ENDBRANCH  30  31
ENDBRANCH  29  30
ENDBRANCH  28  29
ENDBRANCH   1  28
TORSDOF 17
