REMARK SMILES [NH3+][C@]1(C(=O)NCCCCNC(=O)c2ccc(-c3c4nc(c(-c5ccccc5)c5ccc([nH]5)c(-c5ccccc5)c5nc(c(-c6ccccc6)c6ccc3[nH]6)C=C5)C=C4)cc2)CC[C@@H](Sc2cc3ccccc3[nH]2)C1
REMARK SMILES IDX 7 1 6 2 5 3 3 4 4 5 2 7 61 8 74 9 62 10 63 11 1 12 64 16
REMARK SMILES IDX 65 17 66 18 73 19 67 20 72 21 68 23 71 24 69 25 70 26 8 27
REMARK SMILES IDX 9 28 10 29 11 30 12 32 13 33 14 34 60 35 15 36 59 37 16 38
REMARK SMILES IDX 17 39 18 40 53 41 19 42 58 43 52 44 54 45 20 46 57 47 51 48
REMARK SMILES IDX 50 49 21 51 43 52 28 53 42 54 29 55 32 56 41 57 55 58 30 59
REMARK SMILES IDX 31 60 40 62 56 63 33 64 22 65 23 66 27 67 24 68 26 69 25 70
REMARK SMILES IDX 44 71 45 72 49 73 46 74 48 75 47 76 34 77 35 78 39 79 36 80
REMARK SMILES IDX 38 81 37 82
REMARK H PARENT 5 6 1 13 1 14 1 15 73 22 10 31 54 50 32 61
REMARK Flexibility Score: inf
ROOT
ATOM      1  C   UNL     1       3.456   2.324   0.649  1.00  0.00     0.023 C 
ENDROOT
BRANCH   1   2
ATOM      2  C   UNL     1       3.414   1.006  -0.131  1.00  0.00     0.116 C 
BRANCH   2   3
ATOM      3  N   UNL     1       2.378   0.117   0.358  1.00  0.00    -0.351 N 
ATOM      4  C   UNL     1       1.114  -0.134  -0.088  1.00  0.00     0.281 C 
ATOM      5  O   UNL     1       0.465  -0.969   0.552  1.00  0.00    -0.268 OA
ATOM      6  H   UNL     1       2.634  -0.399   1.156  1.00  0.00     0.163 HD
BRANCH   4   7
ATOM      7  C   UNL     1       0.551   0.481  -1.403  1.00  0.00     0.175 C 
ATOM      8  C   UNL     1      -0.992   0.487  -1.347  1.00  0.00     0.080 C 
ATOM      9  C   UNL     1       0.874   1.953  -1.635  1.00  0.00     0.094 C 
ATOM     10  C   UNL     1      -1.440   1.548  -2.342  1.00  0.00     0.022 C 
ATOM     11  C   UNL     1      -0.325   2.580  -2.338  1.00  0.00     0.060 C 
BRANCH   7  12
ATOM     12  N   UNL     1       1.015  -0.327  -2.553  1.00  0.00    -0.345 N 
ATOM     13  H   UNL     1       0.649   0.071  -3.418  1.00  0.00     0.345 HD
ATOM     14  H   UNL     1       0.680  -1.285  -2.452  1.00  0.00     0.345 HD
ATOM     15  H   UNL     1       2.034  -0.324  -2.582  1.00  0.00     0.345 HD
ENDBRANCH   7  12
BRANCH  11  16
ATOM     16  S   UNL     1      -0.617   4.208  -1.627  1.00  0.00    -0.105 SA
BRANCH  16  17
ATOM     17  C   UNL     1      -1.762   4.061  -0.333  1.00  0.00     0.073 A 
ATOM     18  C   UNL     1      -1.608   4.174   1.036  1.00  0.00     0.043 A 
ATOM     19  N   UNL     1      -3.025   4.510  -0.621  1.00  0.00    -0.350 N 
ATOM     20  C   UNL     1      -2.484   5.257   1.397  1.00  0.00     0.001 A 
ATOM     21  C   UNL     1      -3.301   5.505   0.293  1.00  0.00     0.046 A 
ATOM     22  H   UNL     1      -3.618   4.186  -1.337  1.00  0.00     0.167 HD
ATOM     23  C   UNL     1      -2.534   6.157   2.481  1.00  0.00     0.010 A 
ATOM     24  C   UNL     1      -4.110   6.635   0.167  1.00  0.00     0.027 A 
ATOM     25  C   UNL     1      -3.290   7.331   2.345  1.00  0.00     0.001 A 
ATOM     26  C   UNL     1      -4.047   7.572   1.198  1.00  0.00     0.002 A 
ENDBRANCH  16  17
ENDBRANCH  11  16
ENDBRANCH   4   7
ENDBRANCH   2   3
ENDBRANCH   1   2
BRANCH   1  27
ATOM     27  C   UNL     1       4.033   2.216   2.060  1.00  0.00     0.023 C 
BRANCH  27  28
ATOM     28  C   UNL     1       5.459   1.692   2.135  1.00  0.00     0.116 C 
BRANCH  28  29
ATOM     29  N   UNL     1       6.406   2.475   1.357  1.00  0.00    -0.352 N 
ATOM     30  C   UNL     1       7.705   2.810   1.672  1.00  0.00     0.251 C 
ATOM     31  H   UNL     1       6.076   2.809   0.491  1.00  0.00     0.163 HD
ATOM     32  O   UNL     1       8.353   3.554   0.961  1.00  0.00    -0.269 OA
BRANCH  30  33
ATOM     33  C   UNL     1       8.280   2.283   2.928  1.00  0.00     0.039 A 
ATOM     34  C   UNL     1       8.819   3.184   3.848  1.00  0.00     0.014 A 
ATOM     35  C   UNL     1       8.201   0.920   3.224  1.00  0.00     0.014 A 
ATOM     36  C   UNL     1       9.196   2.727   5.112  1.00  0.00     0.010 A 
ATOM     37  C   UNL     1       8.512   0.480   4.505  1.00  0.00     0.010 A 
ATOM     38  C   UNL     1       8.995   1.383   5.465  1.00  0.00    -0.014 A 
BRANCH  38  39
ATOM     39  C   UNL     1       9.233   0.906   6.849  1.00  0.00     0.031 A 
ATOM     40  C   UNL     1      10.294  -0.120   7.123  1.00  0.00     0.074 A 
ATOM     41  C   UNL     1       8.427   1.330   7.842  1.00  0.00     0.049 A 
ATOM     42  N   UNL     1      10.584  -0.725   8.246  1.00  0.00    -0.248 NA
ATOM     43  C   UNL     1      11.119  -0.543   5.980  1.00  0.00     0.031 C 
ATOM     44  C   UNL     1       7.329   2.289   7.695  1.00  0.00     0.029 A 
ATOM     45  N   UNL     1       8.397   0.993   9.172  1.00  0.00    -0.354 N 
ATOM     46  C   UNL     1      11.610  -1.609   7.943  1.00  0.00     0.074 A 
ATOM     47  C   UNL     1      11.864  -1.494   6.523  1.00  0.00     0.031 C 
ATOM     48  C   UNL     1       6.746   2.476   8.890  1.00  0.00     0.029 A 
ATOM     49  C   UNL     1       7.397   1.621   9.876  1.00  0.00     0.049 A 
ATOM     50  H   UNL     1       9.031   0.362   9.583  1.00  0.00     0.167 HD
ATOM     51  C   UNL     1      12.289  -2.433   8.775  1.00  0.00     0.031 A 
ATOM     52  C   UNL     1       7.035   1.510  11.168  1.00  0.00     0.031 A 
ATOM     53  C   UNL     1      12.044  -2.538  10.188  1.00  0.00     0.049 A 
ATOM     54  C   UNL     1       7.794   0.574  12.066  1.00  0.00     0.074 A 
ATOM     55  C   UNL     1      12.731  -3.287  11.128  1.00  0.00     0.029 A 
ATOM     56  N   UNL     1      11.029  -1.879  10.864  1.00  0.00    -0.354 N 
ATOM     57  N   UNL     1       8.816  -0.195  11.780  1.00  0.00    -0.248 NA
ATOM     58  C   UNL     1       7.351   0.494  13.465  1.00  0.00     0.031 C 
ATOM     59  C   UNL     1      12.098  -3.123  12.364  1.00  0.00     0.029 A 
ATOM     60  C   UNL     1      11.049  -2.232  12.203  1.00  0.00     0.049 A 
ATOM     61  H   UNL     1      10.389  -1.254  10.454  1.00  0.00     0.167 HD
ATOM     62  C   UNL     1       9.149  -0.836  12.966  1.00  0.00     0.074 A 
ATOM     63  C   UNL     1       8.234  -0.351  13.978  1.00  0.00     0.031 C 
ATOM     64  C   UNL     1      10.126  -1.747  13.195  1.00  0.00     0.031 A 
BRANCH  51  65
ATOM     65  C   UNL     1      13.362  -3.295   8.173  1.00  0.00    -0.014 A 
ATOM     66  C   UNL     1      14.573  -2.744   7.726  1.00  0.00     0.009 A 
ATOM     67  C   UNL     1      13.176  -4.684   8.092  1.00  0.00     0.009 A 
ATOM     68  C   UNL     1      15.563  -3.562   7.181  1.00  0.00     0.001 A 
ATOM     69  C   UNL     1      14.179  -5.503   7.570  1.00  0.00     0.001 A 
ATOM     70  C   UNL     1      15.367  -4.941   7.108  1.00  0.00     0.000 A 
ENDBRANCH  51  65
BRANCH  52  71
ATOM     71  C   UNL     1       5.893   2.302  11.692  1.00  0.00    -0.014 A 
ATOM     72  C   UNL     1       6.113   3.370  12.575  1.00  0.00     0.009 A 
ATOM     73  C   UNL     1       4.576   1.992  11.318  1.00  0.00     0.009 A 
ATOM     74  C   UNL     1       5.037   4.094  13.093  1.00  0.00     0.001 A 
ATOM     75  C   UNL     1       3.504   2.735  11.815  1.00  0.00     0.001 A 
ATOM     76  C   UNL     1       3.734   3.780  12.709  1.00  0.00     0.000 A 
ENDBRANCH  52  71
BRANCH  64  77
ATOM     77  C   UNL     1      10.264  -2.267  14.597  1.00  0.00    -0.014 A 
ATOM     78  C   UNL     1       9.339  -3.181  15.124  1.00  0.00     0.009 A 
ATOM     79  C   UNL     1      11.360  -1.874  15.381  1.00  0.00     0.009 A 
ATOM     80  C   UNL     1       9.496  -3.672  16.422  1.00  0.00     0.001 A 
ATOM     81  C   UNL     1      11.528  -2.388  16.668  1.00  0.00     0.001 A 
ATOM     82  C   UNL     1      10.593  -3.280  17.189  1.00  0.00     0.000 A 
ENDBRANCH  64  77
ENDBRANCH  38  39
ENDBRANCH  30  33
ENDBRANCH  28  29
ENDBRANCH  27  28
ENDBRANCH   1  27
TORSDOF 14
