REMARK SMILES O=C(NCCCCNC(=O)c1ccc(-c2c3nc(c(-c4ccccc4)c4ccc([nH]4)c(-c4ccccc4)c4nc(c(-c5ccccc5)c5ccc2[nH]5)C=C4)C=C3)cc1)C1=Cc2cc(Cl)cc(C#Cc3ccccc3)c2O[C@@H]1C(F)(F)F
REMARK SMILES IDX 5 1 4 2 3 3 1 4 2 5 59 7 60 8 77 9 61 10 76 11 62 12 75 13
REMARK SMILES IDX 63 14 66 15 64 16 65 17 78 18 79 19 80 20 81 21 67 22 68 23
REMARK SMILES IDX 69 24 70 25 74 26 71 27 73 28 72 29 6 30 7 31 8 32 9 33
REMARK SMILES IDX 10 35 11 36 12 37 58 38 13 39 57 40 14 41 15 42 16 43 51 44
REMARK SMILES IDX 17 45 56 46 50 47 52 48 18 49 55 50 49 51 48 52 19 54 41 55
REMARK SMILES IDX 26 56 40 57 27 58 30 59 39 60 53 61 28 62 29 63 38 65 54 66
REMARK SMILES IDX 31 67 20 68 21 69 25 70 22 71 24 72 23 73 42 74 43 75 47 76
REMARK SMILES IDX 44 77 46 78 45 79 32 80 33 81 37 82 34 83 36 84 35 85
REMARK H PARENT 3 6 8 34 52 53 30 64
REMARK Flexibility Score: inf
ROOT
ATOM      1  C   UNL     1       4.215  -3.225  -0.746  1.00  0.00     0.023 C 
ENDROOT
BRANCH   1   2
ATOM      2  C   UNL     1       3.626  -1.825  -0.857  1.00  0.00     0.116 C 
BRANCH   2   3
ATOM      3  N   UNL     1       2.453  -1.564  -0.048  1.00  0.00    -0.352 N 
ATOM      4  O   UNL     1       0.961  -0.298   1.049  1.00  0.00    -0.270 OA
ATOM      5  C   UNL     1       2.124  -0.455   0.684  1.00  0.00     0.251 C 
ATOM      6  H   UNL     1       1.793  -2.293  -0.022  1.00  0.00     0.163 HD
BRANCH   5   7
ATOM      7  C   UNL     1       3.109   0.627   0.980  1.00  0.00     0.067 C 
ATOM      8  C   UNL     1       4.334   0.361   1.469  1.00  0.00     0.025 C 
ATOM      9  C   UNL     1       2.933   1.844   0.109  1.00  0.00     0.314 C 
ATOM     10  C   UNL     1       5.410   0.639   0.475  1.00  0.00     0.020 A 
ATOM     11  O   UNL     1       3.860   1.809  -1.010  1.00  0.00    -0.474 OA
ATOM     12  C   UNL     1       6.618  -0.046   0.655  1.00  0.00     0.032 A 
ATOM     13  C   UNL     1       5.057   1.159  -0.794  1.00  0.00     0.143 A 
ATOM     14  C   UNL     1       7.417  -0.313  -0.453  1.00  0.00     0.043 A 
ATOM     15  C   UNL     1       5.830   0.805  -1.913  1.00  0.00     0.069 A 
ATOM     16  Cl  UNL     1       8.798  -1.324  -0.269  1.00  0.00    -0.084 Cl
ATOM     17  C   UNL     1       7.020   0.083  -1.732  1.00  0.00     0.041 A 
BRANCH   9  18
ATOM     18  C   UNL     1       3.028   3.140   0.936  1.00  0.00     0.429 C 
ATOM     19  F   UNL     1       2.703   4.228   0.201  1.00  0.00    -0.167 F 
ATOM     20  F   UNL     1       2.180   3.112   1.994  1.00  0.00    -0.167 F 
ATOM     21  F   UNL     1       4.270   3.349   1.437  1.00  0.00    -0.167 F 
ENDBRANCH   9  18
BRANCH  15  22
ATOM     22  C   UNL     1       5.299   0.888  -3.252  1.00  0.00    -0.058 C 
ATOM     23  C   UNL     1       4.871   0.800  -4.372  1.00  0.00    -0.062 C 
BRANCH  23  24
ATOM     24  C   UNL     1       4.443   0.647  -5.737  1.00  0.00     0.025 A 
ATOM     25  C   UNL     1       4.722   1.655  -6.660  1.00  0.00     0.017 A 
ATOM     26  C   UNL     1       3.800  -0.517  -6.172  1.00  0.00     0.017 A 
ATOM     27  C   UNL     1       4.398   1.488  -8.009  1.00  0.00     0.001 A 
ATOM     28  C   UNL     1       3.493  -0.693  -7.527  1.00  0.00     0.001 A 
ATOM     29  C   UNL     1       3.800   0.307  -8.447  1.00  0.00     0.000 A 
ENDBRANCH  23  24
ENDBRANCH  15  22
ENDBRANCH   5   7
ENDBRANCH   2   3
ENDBRANCH   1   2
BRANCH   1  30
ATOM     30  C   UNL     1       4.100  -4.046  -2.024  1.00  0.00     0.023 C 
BRANCH  30  31
ATOM     31  C   UNL     1       4.724  -3.420  -3.271  1.00  0.00     0.116 C 
BRANCH  31  32
ATOM     32  N   UNL     1       6.177  -3.294  -3.224  1.00  0.00    -0.352 N 
ATOM     33  C   UNL     1       7.102  -3.714  -4.162  1.00  0.00     0.251 C 
ATOM     34  H   UNL     1       6.545  -2.854  -2.424  1.00  0.00     0.163 HD
ATOM     35  O   UNL     1       8.305  -3.598  -3.972  1.00  0.00    -0.269 OA
BRANCH  33  36
ATOM     36  C   UNL     1       6.595  -4.330  -5.405  1.00  0.00     0.039 A 
ATOM     37  C   UNL     1       6.918  -5.647  -5.730  1.00  0.00     0.014 A 
ATOM     38  C   UNL     1       5.658  -3.626  -6.154  1.00  0.00     0.014 A 
ATOM     39  C   UNL     1       6.198  -6.296  -6.740  1.00  0.00     0.010 A 
ATOM     40  C   UNL     1       4.864  -4.306  -7.064  1.00  0.00     0.010 A 
ATOM     41  C   UNL     1       5.115  -5.652  -7.366  1.00  0.00    -0.014 A 
BRANCH  41  42
ATOM     42  C   UNL     1       4.191  -6.348  -8.302  1.00  0.00     0.031 A 
ATOM     43  C   UNL     1       3.977  -5.803  -9.692  1.00  0.00     0.074 A 
ATOM     44  C   UNL     1       3.434  -7.373  -7.855  1.00  0.00     0.049 A 
ATOM     45  N   UNL     1       3.124  -6.189 -10.607  1.00  0.00    -0.248 NA
ATOM     46  C   UNL     1       4.795  -4.643 -10.092  1.00  0.00     0.031 C 
ATOM     47  C   UNL     1       3.475  -7.939  -6.503  1.00  0.00     0.029 A 
ATOM     48  N   UNL     1       2.457  -8.108  -8.485  1.00  0.00    -0.354 N 
ATOM     49  C   UNL     1       3.284  -5.305 -11.669  1.00  0.00     0.074 A 
ATOM     50  C   UNL     1       4.270  -4.330 -11.267  1.00  0.00     0.031 C 
ATOM     51  C   UNL     1       2.589  -8.945  -6.415  1.00  0.00     0.029 A 
ATOM     52  C   UNL     1       1.882  -9.069  -7.684  1.00  0.00     0.049 A 
ATOM     53  H   UNL     1       2.194  -7.961  -9.422  1.00  0.00     0.167 HD
ATOM     54  C   UNL     1       2.679  -5.319 -12.880  1.00  0.00     0.031 A 
ATOM     55  C   UNL     1       0.890  -9.945  -7.940  1.00  0.00     0.031 A 
ATOM     56  C   UNL     1       1.724  -6.312 -13.289  1.00  0.00     0.049 A 
ATOM     57  C   UNL     1       0.251  -9.947  -9.304  1.00  0.00     0.074 A 
ATOM     58  C   UNL     1       1.138  -6.477 -14.532  1.00  0.00     0.029 A 
ATOM     59  N   UNL     1       1.212  -7.301 -12.467  1.00  0.00    -0.354 N 
ATOM     60  N   UNL     1       0.509  -9.183 -10.338  1.00  0.00    -0.248 NA
ATOM     61  C   UNL     1      -0.805 -10.943  -9.543  1.00  0.00     0.031 C 
ATOM     62  C   UNL     1       0.217  -7.523 -14.442  1.00  0.00     0.029 A 
ATOM     63  C   UNL     1       0.290  -8.058 -13.166  1.00  0.00     0.049 A 
ATOM     64  H   UNL     1       1.466  -7.444 -11.526  1.00  0.00     0.167 HD
ATOM     65  C   UNL     1      -0.317  -9.637 -11.359  1.00  0.00     0.074 A 
ATOM     66  C   UNL     1      -1.075 -10.748 -10.825  1.00  0.00     0.031 C 
ATOM     67  C   UNL     1      -0.437  -9.177 -12.627  1.00  0.00     0.031 A 
BRANCH  54  68
ATOM     68  C   UNL     1       3.034  -4.241 -13.867  1.00  0.00    -0.014 A 
ATOM     69  C   UNL     1       4.299  -4.195 -14.474  1.00  0.00     0.009 A 
ATOM     70  C   UNL     1       2.054  -3.320 -14.272  1.00  0.00     0.009 A 
ATOM     71  C   UNL     1       4.581  -3.238 -15.451  1.00  0.00     0.001 A 
ATOM     72  C   UNL     1       2.329  -2.385 -15.271  1.00  0.00     0.001 A 
ATOM     73  C   UNL     1       3.593  -2.341 -15.856  1.00  0.00     0.000 A 
ENDBRANCH  54  68
BRANCH  55  74
ATOM     74  C   UNL     1       0.433 -10.907  -6.898  1.00  0.00    -0.014 A 
ATOM     75  C   UNL     1       0.624 -12.288  -7.069  1.00  0.00     0.009 A 
ATOM     76  C   UNL     1      -0.245 -10.459  -5.753  1.00  0.00     0.009 A 
ATOM     77  C   UNL     1       0.102 -13.199  -6.147  1.00  0.00     0.001 A 
ATOM     78  C   UNL     1      -0.733 -11.370  -4.813  1.00  0.00     0.001 A 
ATOM     79  C   UNL     1      -0.575 -12.740  -5.020  1.00  0.00     0.000 A 
ENDBRANCH  55  74
BRANCH  67  80
ATOM     80  C   UNL     1      -1.368  -9.909 -13.552  1.00  0.00    -0.014 A 
ATOM     81  C   UNL     1      -2.761  -9.836 -13.404  1.00  0.00     0.009 A 
ATOM     82  C   UNL     1      -0.835 -10.628 -14.634  1.00  0.00     0.009 A 
ATOM     83  C   UNL     1      -3.600 -10.493 -14.306  1.00  0.00     0.001 A 
ATOM     84  C   UNL     1      -1.676 -11.253 -15.553  1.00  0.00     0.001 A 
ATOM     85  C   UNL     1      -3.057 -11.193 -15.383  1.00  0.00     0.000 A 
ENDBRANCH  67  80
ENDBRANCH  41  42
ENDBRANCH  33  36
ENDBRANCH  31  32
ENDBRANCH  30  31
ENDBRANCH   1  30
TORSDOF 14
