REMARK SMILES CCC[NH2+][C@H]1C[C@@H](C(=O)NCCCCNC(=O)c2ccc(-c3c4nc(c(-c5ccccc5)c5ccc([nH]5)c(-c5ccccc5)c5nc(c(-c6ccccc6)c6ccc3[nH]6)C=C5)C=C4)cc2)C1
REMARK SMILES IDX 12 1 11 2 10 3 8 4 9 5 7 7 5 8 66 9 6 10 4 11 3 14 2 15 1 16
REMARK SMILES IDX 13 17 14 18 15 19 16 20 17 22 18 23 19 24 65 25 20 26 64 27
REMARK SMILES IDX 21 28 22 29 23 30 58 31 24 32 63 33 57 34 59 35 25 36 62 37
REMARK SMILES IDX 56 38 55 39 26 41 48 42 33 43 47 44 34 45 37 46 46 47 60 48
REMARK SMILES IDX 35 49 36 50 45 52 61 53 38 54 27 55 28 56 32 57 29 58 31 59
REMARK SMILES IDX 30 60 49 61 50 62 54 63 51 64 53 65 52 66 39 67 40 68 44 69
REMARK SMILES IDX 41 70 43 71 42 72
REMARK H PARENT 10 6 4 12 4 13 15 21 59 40 37 51
REMARK Flexibility Score: inf
ROOT
ATOM      1  C   UNL     1       2.535   5.068   2.214  1.00  0.00     0.023 C 
ENDROOT
BRANCH   1   2
ATOM      2  C   UNL     1       1.465   5.687   1.324  1.00  0.00     0.116 C 
BRANCH   2   3
ATOM      3  N   UNL     1       1.963   6.746   0.483  1.00  0.00    -0.356 N 
ATOM      4  C   UNL     1       2.050   6.810  -0.889  1.00  0.00     0.223 C 
ATOM      5  O   UNL     1       2.482   7.882  -1.341  1.00  0.00    -0.275 OA
ATOM      6  H   UNL     1       2.289   7.542   0.961  1.00  0.00     0.163 HD
BRANCH   4   7
ATOM      7  C   UNL     1       1.660   5.636  -1.811  1.00  0.00     0.090 C 
ATOM      8  C   UNL     1       0.999   3.631  -2.149  1.00  0.00     0.183 C 
ATOM      9  C   UNL     1       0.274   4.930  -1.742  1.00  0.00     0.078 C 
ATOM     10  C   UNL     1       2.319   4.241  -1.640  1.00  0.00     0.078 C 
BRANCH   8  11
ATOM     11  N   UNL     1       0.509   2.440  -1.447  1.00  0.00    -0.344 N 
ATOM     12  H   UNL     1      -0.502   2.411  -1.574  1.00  0.00     0.346 HD
ATOM     13  H   UNL     1       1.039   1.673  -1.860  1.00  0.00     0.346 HD
BRANCH  11  14
ATOM     14  C   UNL     1       0.766   2.317  -0.015  1.00  0.00     0.260 C 
BRANCH  14  15
ATOM     15  C   UNL     1       0.237   1.008   0.586  1.00  0.00     0.058 C 
ATOM     16  C   UNL     1       0.895  -0.242   0.023  1.00  0.00     0.010 C 
ENDBRANCH  14  15
ENDBRANCH  11  14
ENDBRANCH   8  11
ENDBRANCH   4   7
ENDBRANCH   2   3
ENDBRANCH   1   2
BRANCH   1  17
ATOM     17  C   UNL     1       2.975   5.949   3.378  1.00  0.00     0.023 C 
BRANCH  17  18
ATOM     18  C   UNL     1       1.849   6.429   4.285  1.00  0.00     0.116 C 
BRANCH  18  19
ATOM     19  N   UNL     1       1.082   5.345   4.878  1.00  0.00    -0.352 N 
ATOM     20  C   UNL     1       0.615   5.222   6.164  1.00  0.00     0.251 C 
ATOM     21  H   UNL     1       0.869   4.596   4.276  1.00  0.00     0.163 HD
ATOM     22  O   UNL     1       0.088   4.175   6.530  1.00  0.00    -0.269 OA
BRANCH  20  23
ATOM     23  C   UNL     1       0.775   6.341   7.116  1.00  0.00     0.039 A 
ATOM     24  C   UNL     1       1.198   6.062   8.418  1.00  0.00     0.014 A 
ATOM     25  C   UNL     1       0.518   7.660   6.730  1.00  0.00     0.014 A 
ATOM     26  C   UNL     1       1.406   7.110   9.316  1.00  0.00     0.010 A 
ATOM     27  C   UNL     1       0.814   8.707   7.596  1.00  0.00     0.010 A 
ATOM     28  C   UNL     1       1.242   8.444   8.905  1.00  0.00    -0.014 A 
BRANCH  28  29
ATOM     29  C   UNL     1       1.482   9.567   9.846  1.00  0.00     0.031 A 
ATOM     30  C   UNL     1       0.351  10.477  10.243  1.00  0.00     0.074 A 
ATOM     31  C   UNL     1       2.723   9.787  10.322  1.00  0.00     0.049 A 
ATOM     32  N   UNL     1       0.362  11.501  11.060  1.00  0.00    -0.248 NA
ATOM     33  C   UNL     1      -0.960  10.223   9.621  1.00  0.00     0.031 C 
ATOM     34  C   UNL     1       3.916   9.011   9.977  1.00  0.00     0.029 A 
ATOM     35  N   UNL     1       3.185  10.730  11.206  1.00  0.00    -0.354 N 
ATOM     36  C   UNL     1      -0.929  12.015  11.039  1.00  0.00     0.074 A 
ATOM     37  C   UNL     1      -1.680  11.234  10.082  1.00  0.00     0.031 C 
ATOM     38  C   UNL     1       4.963   9.481  10.674  1.00  0.00     0.029 A 
ATOM     39  C   UNL     1       4.525  10.612  11.486  1.00  0.00     0.049 A 
ATOM     40  H   UNL     1       2.611  11.425  11.601  1.00  0.00     0.167 HD
ATOM     41  C   UNL     1      -1.453  13.028  11.768  1.00  0.00     0.031 A 
ATOM     42  C   UNL     1       5.311  11.331  12.309  1.00  0.00     0.031 A 
ATOM     43  C   UNL     1      -0.710  13.800  12.728  1.00  0.00     0.049 A 
ATOM     44  C   UNL     1       4.706  12.454  13.105  1.00  0.00     0.074 A 
ATOM     45  C   UNL     1      -1.163  14.809  13.560  1.00  0.00     0.029 A 
ATOM     46  N   UNL     1       0.644  13.650  12.981  1.00  0.00    -0.354 N 
ATOM     47  N   UNL     1       3.465  12.873  13.134  1.00  0.00    -0.248 NA
ATOM     48  C   UNL     1       5.613  13.191  13.996  1.00  0.00     0.031 C 
ATOM     49  C   UNL     1      -0.070  15.307  14.276  1.00  0.00     0.029 A 
ATOM     50  C   UNL     1       1.050  14.566  13.937  1.00  0.00     0.049 A 
ATOM     51  H   UNL     1       1.231  12.990  12.545  1.00  0.00     0.167 HD
ATOM     52  C   UNL     1       3.436  13.905  14.064  1.00  0.00     0.074 A 
ATOM     53  C   UNL     1       4.778  14.028  14.594  1.00  0.00     0.031 C 
ATOM     54  C   UNL     1       2.393  14.683  14.445  1.00  0.00     0.031 A 
BRANCH  41  55
ATOM     55  C   UNL     1      -2.905  13.358  11.549  1.00  0.00    -0.014 A 
ATOM     56  C   UNL     1      -3.922  12.475  11.947  1.00  0.00     0.009 A 
ATOM     57  C   UNL     1      -3.262  14.579  10.957  1.00  0.00     0.009 A 
ATOM     58  C   UNL     1      -5.263  12.789  11.719  1.00  0.00     0.001 A 
ATOM     59  C   UNL     1      -4.606  14.905  10.760  1.00  0.00     0.001 A 
ATOM     60  C   UNL     1      -5.604  14.006  11.131  1.00  0.00     0.000 A 
ENDBRANCH  41  55
BRANCH  42  61
ATOM     61  C   UNL     1       6.754  10.997  12.445  1.00  0.00    -0.014 A 
ATOM     62  C   UNL     1       7.250  10.449  13.639  1.00  0.00     0.009 A 
ATOM     63  C   UNL     1       7.646  11.239  11.389  1.00  0.00     0.009 A 
ATOM     64  C   UNL     1       8.613  10.182  13.783  1.00  0.00     0.001 A 
ATOM     65  C   UNL     1       9.003  10.941  11.525  1.00  0.00     0.001 A 
ATOM     66  C   UNL     1       9.488  10.424  12.725  1.00  0.00     0.000 A 
ENDBRANCH  42  61
BRANCH  54  67
ATOM     67  C   UNL     1       2.662  15.716  15.504  1.00  0.00    -0.014 A 
ATOM     68  C   UNL     1       3.449  16.848  15.238  1.00  0.00     0.009 A 
ATOM     69  C   UNL     1       2.104  15.562  16.783  1.00  0.00     0.009 A 
ATOM     70  C   UNL     1       3.710  17.779  16.245  1.00  0.00     0.001 A 
ATOM     71  C   UNL     1       2.338  16.512  17.778  1.00  0.00     0.001 A 
ATOM     72  C   UNL     1       3.152  17.612  17.512  1.00  0.00     0.000 A 
ENDBRANCH  54  67
ENDBRANCH  28  29
ENDBRANCH  20  23
ENDBRANCH  18  19
ENDBRANCH  17  18
ENDBRANCH   1  17
TORSDOF 14
