REMARK SMILES COc1ccccc1C(=O)N/C(=C/c1ccc2c(c1)OCO2)C(=O)Nc1ccc(C(=O)NCCCCNC(=O)c2ccc(-c3c4nc(c(-c5ccccc5)c5ccc([nH]5)c(-c5ccccc5)c5nc(c(-c6ccccc6)c6ccc3[nH]6)C=C5)C=C4)cc2)cc1
REMARK SMILES IDX 33 1 32 2 30 3 31 4 29 6 26 7 27 8 89 9 28 10 88 11 25 12
REMARK SMILES IDX 23 13 24 14 12 16 13 17 11 18 9 19 10 20 8 22 3 23 4 24 5 25
REMARK SMILES IDX 7 26 6 27 2 28 1 29 14 30 15 31 19 32 16 33 18 34 17 35
REMARK SMILES IDX 20 36 22 37 21 38 34 39 35 40 36 41 37 42 38 43 39 45 40 46
REMARK SMILES IDX 41 47 87 48 42 49 86 50 43 51 44 52 45 53 80 54 46 55 85 56
REMARK SMILES IDX 79 57 81 58 47 59 84 60 78 61 77 62 48 64 70 65 55 66 69 67
REMARK SMILES IDX 56 68 59 69 68 70 82 71 57 72 58 73 67 75 83 76 60 77 49 78
REMARK SMILES IDX 50 79 54 80 51 81 53 82 52 83 71 84 72 85 76 86 73 87 75 88
REMARK SMILES IDX 74 89 61 90 62 91 66 92 63 93 65 94 64 95
REMARK H PARENT 32 5 25 15 11 21 37 44 81 63 59 74
REMARK Flexibility Score: inf
ROOT
ATOM      1  C   UNL     1      -1.887   5.066  -3.158  1.00  0.00     0.116 C 
ENDROOT
BRANCH   1   2
ATOM      2  N   UNL     1      -2.614   5.880  -2.188  1.00  0.00    -0.352 N 
ATOM      3  C   UNL     1      -2.847   5.741  -0.825  1.00  0.00     0.251 C 
ATOM      4  O   UNL     1      -3.483   6.613  -0.237  1.00  0.00    -0.269 OA
ATOM      5  H   UNL     1      -3.020   6.688  -2.577  1.00  0.00     0.163 HD
BRANCH   3   6
ATOM      6  C   UNL     1      -2.428   4.558  -0.046  1.00  0.00     0.039 A 
ATOM      7  C   UNL     1      -1.626   1.090   1.528  1.00  0.00     0.041 A 
ATOM      8  C   UNL     1      -2.708   2.079   2.106  1.00  0.00     0.027 A 
ATOM      9  C   UNL     1      -1.108   1.666   0.291  1.00  0.00     0.027 A 
ATOM     10  C   UNL     1      -3.186   3.954   1.353  1.00  0.00     0.016 A 
ATOM     11  C   UNL     1      -1.343   3.463  -0.537  1.00  0.00     0.016 A 
BRANCH   7  12
ATOM     12  N   UNL     1      -0.665   0.278   2.179  1.00  0.00    -0.321 N 
ATOM     13  C   UNL     1       0.275  -0.393   1.392  1.00  0.00     0.272 C 
ATOM     14  O   UNL     1      -0.091  -1.530   1.102  1.00  0.00    -0.267 OA
ATOM     15  H   UNL     1      -0.660   0.187   3.159  1.00  0.00     0.170 HD
BRANCH  13  16
ATOM     16  C   UNL     1       1.563   0.257   0.644  1.00  0.00     0.108 C 
ATOM     17  C   UNL     1       1.668   1.366  -0.174  1.00  0.00     0.040 C 
BRANCH  16  18
ATOM     18  N   UNL     1       2.775  -0.442   0.642  1.00  0.00    -0.317 N 
ATOM     19  C   UNL     1       3.270  -1.695   0.900  1.00  0.00     0.259 C 
ATOM     20  O   UNL     1       4.498  -1.822   0.835  1.00  0.00    -0.269 OA
ATOM     21  H   UNL     1       3.506   0.157   0.367  1.00  0.00     0.170 HD
BRANCH  19  22
ATOM     22  C   UNL     1       2.484  -2.864   1.297  1.00  0.00     0.082 A 
ATOM     23  C   UNL     1       1.428  -3.461   0.608  1.00  0.00     0.131 A 
ATOM     24  C   UNL     1       0.602  -4.334   1.340  1.00  0.00     0.047 A 
ATOM     25  C   UNL     1       0.922  -4.752   2.631  1.00  0.00     0.004 A 
ATOM     26  C   UNL     1       2.901  -3.415   2.530  1.00  0.00     0.018 A 
ATOM     27  C   UNL     1       2.131  -4.369   3.187  1.00  0.00     0.001 A 
BRANCH  23  28
ATOM     28  O   UNL     1       0.988  -3.335  -0.678  1.00  0.00    -0.496 OA
ATOM     29  C   UNL     1       1.439  -2.319  -1.549  1.00  0.00     0.278 C 
ENDBRANCH  23  28
ENDBRANCH  19  22
ENDBRANCH  16  18
BRANCH  17  30
ATOM     30  C   UNL     1       0.630   2.400  -0.563  1.00  0.00    -0.019 A 
ATOM     31  C   UNL     1      -0.658   1.807  -1.777  1.00  0.00     0.012 A 
ATOM     32  C   UNL     1       0.251   3.228   1.008  1.00  0.00     0.058 A 
ATOM     33  C   UNL     1      -2.451   1.787  -1.370  1.00  0.00     0.051 A 
ATOM     34  C   UNL     1      -1.425   3.291   1.439  1.00  0.00     0.166 A 
ATOM     35  C   UNL     1      -2.891   2.461   0.221  1.00  0.00     0.165 A 
ATOM     36  O   UNL     1      -2.260   3.691   3.044  1.00  0.00    -0.454 OA
ATOM     37  O   UNL     1      -4.441   2.465   1.164  1.00  0.00    -0.454 OA
ATOM     38  C   UNL     1      -4.118   3.145   2.921  1.00  0.00     0.468 C 
ENDBRANCH  17  30
ENDBRANCH  13  16
ENDBRANCH   7  12
ENDBRANCH   3   6
ENDBRANCH   1   2
BRANCH   1  39
ATOM     39  C   UNL     1      -2.639   4.652  -4.414  1.00  0.00     0.023 C 
BRANCH  39  40
ATOM     40  C   UNL     1      -2.842   5.742  -5.445  1.00  0.00     0.023 C 
BRANCH  40  41
ATOM     41  C   UNL     1      -1.570   6.439  -5.906  1.00  0.00     0.116 C 
BRANCH  41  42
ATOM     42  N   UNL     1      -0.614   5.567  -6.578  1.00  0.00    -0.352 N 
ATOM     43  C   UNL     1       0.101   5.823  -7.729  1.00  0.00     0.251 C 
ATOM     44  H   UNL     1      -0.460   4.689  -6.159  1.00  0.00     0.163 HD
ATOM     45  O   UNL     1       0.816   4.967  -8.236  1.00  0.00    -0.269 OA
BRANCH  43  46
ATOM     46  C   UNL     1      -0.057   7.143  -8.374  1.00  0.00     0.039 A 
ATOM     47  C   UNL     1      -0.473   7.198  -9.705  1.00  0.00     0.014 A 
ATOM     48  C   UNL     1       0.076   8.312  -7.620  1.00  0.00     0.014 A 
ATOM     49  C   UNL     1      -0.864   8.423 -10.248  1.00  0.00     0.010 A 
ATOM     50  C   UNL     1      -0.397   9.514  -8.135  1.00  0.00     0.010 A 
ATOM     51  C   UNL     1      -0.891   9.577  -9.447  1.00  0.00    -0.014 A 
BRANCH  51  52
ATOM     52  C   UNL     1      -1.487  10.843  -9.943  1.00  0.00     0.031 A 
ATOM     53  C   UNL     1      -0.648  12.082 -10.067  1.00  0.00     0.074 A 
ATOM     54  C   UNL     1      -2.808  10.893 -10.210  1.00  0.00     0.049 A 
ATOM     55  N   UNL     1      -1.007  13.288 -10.428  1.00  0.00    -0.248 NA
ATOM     56  C   UNL     1       0.776  11.958  -9.718  1.00  0.00     0.031 C 
ATOM     57  C   UNL     1      -3.743   9.771 -10.089  1.00  0.00     0.029 A 
ATOM     58  N   UNL     1      -3.597  11.934 -10.635  1.00  0.00    -0.354 N 
ATOM     59  C   UNL     1       0.141  14.064 -10.344  1.00  0.00     0.074 A 
ATOM     60  C   UNL     1       1.195  13.208  -9.844  1.00  0.00     0.031 C 
ATOM     61  C   UNL     1      -4.967  10.174 -10.463  1.00  0.00     0.029 A 
ATOM     62  C   UNL     1      -4.919  11.593 -10.798  1.00  0.00     0.049 A 
ATOM     63  H   UNL     1      -3.249  12.838 -10.807  1.00  0.00     0.167 HD
ATOM     64  C   UNL     1       0.308  15.368 -10.669  1.00  0.00     0.031 A 
ATOM     65  C   UNL     1      -5.978  12.341 -11.162  1.00  0.00     0.031 A 
ATOM     66  C   UNL     1      -0.744  16.221 -11.156  1.00  0.00     0.049 A 
ATOM     67  C   UNL     1      -5.774  13.798 -11.470  1.00  0.00     0.074 A 
ATOM     68  C   UNL     1      -0.662  17.542 -11.562  1.00  0.00     0.029 A 
ATOM     69  N   UNL     1      -2.071  15.843 -11.290  1.00  0.00    -0.354 N 
ATOM     70  N   UNL     1      -4.665  14.497 -11.464  1.00  0.00    -0.248 NA
ATOM     71  C   UNL     1      -6.970  14.569 -11.841  1.00  0.00     0.031 C 
ATOM     72  C   UNL     1      -1.952  17.984 -11.873  1.00  0.00     0.029 A 
ATOM     73  C   UNL     1      -2.826  16.918 -11.732  1.00  0.00     0.049 A 
ATOM     74  H   UNL     1      -2.425  14.945 -11.100  1.00  0.00     0.167 HD
ATOM     75  C   UNL     1      -5.025  15.782 -11.849  1.00  0.00     0.074 A 
ATOM     76  C   UNL     1      -6.449  15.758 -12.108  1.00  0.00     0.031 C 
ATOM     77  C   UNL     1      -4.245  16.884 -11.974  1.00  0.00     0.031 A 
BRANCH  64  78
ATOM     78  C   UNL     1       1.681  15.957 -10.492  1.00  0.00    -0.014 A 
ATOM     79  C   UNL     1       2.756  15.563 -11.307  1.00  0.00     0.009 A 
ATOM     80  C   UNL     1       1.895  16.951  -9.525  1.00  0.00     0.009 A 
ATOM     81  C   UNL     1       4.022  16.124 -11.130  1.00  0.00     0.001 A 
ATOM     82  C   UNL     1       3.154  17.535  -9.372  1.00  0.00     0.001 A 
ATOM     83  C   UNL     1       4.218  17.114 -10.168  1.00  0.00     0.000 A 
ENDBRANCH  64  78
BRANCH  65  84
ATOM     84  C   UNL     1      -7.332  11.729 -11.251  1.00  0.00    -0.014 A 
ATOM     85  C   UNL     1      -7.974  11.590 -12.491  1.00  0.00     0.009 A 
ATOM     86  C   UNL     1      -7.997  11.294 -10.093  1.00  0.00     0.009 A 
ATOM     87  C   UNL     1      -9.263  11.056 -12.566  1.00  0.00     0.001 A 
ATOM     88  C   UNL     1      -9.271  10.728 -10.175  1.00  0.00     0.001 A 
ATOM     89  C   UNL     1      -9.908  10.621 -11.410  1.00  0.00     0.000 A 
ENDBRANCH  65  84
BRANCH  77  90
ATOM     90  C   UNL     1      -4.915  18.152 -12.430  1.00  0.00    -0.014 A 
ATOM     91  C   UNL     1      -5.808  18.845 -11.597  1.00  0.00     0.009 A 
ATOM     92  C   UNL     1      -4.619  18.680 -13.696  1.00  0.00     0.009 A 
ATOM     93  C   UNL     1      -6.419  20.021 -12.040  1.00  0.00     0.001 A 
ATOM     94  C   UNL     1      -5.204  19.874 -14.122  1.00  0.00     0.001 A 
ATOM     95  C   UNL     1      -6.111  20.537 -13.298  1.00  0.00     0.000 A 
ENDBRANCH  77  90
ENDBRANCH  51  52
ENDBRANCH  43  46
ENDBRANCH  41  42
ENDBRANCH  40  41
ENDBRANCH  39  40
ENDBRANCH   1  39
TORSDOF 17
