REMARK SMILES COc1cc2cc(C(=O)NCCCCNC(=O)c3ccc(-c4c5nc(c(-c6ccccc6)c6ccc([nH]6)c(-c6ccccc6)c6nc(c(-c7ccccc7)c7ccc4[nH]7)C=C6)C=C5)cc3)n(Cc3ccccc3)c2c(OC)c1OC
REMARK SMILES IDX 12 1 11 2 10 3 8 4 9 5 7 7 3 8 4 9 78 10 5 11 75 12 6 13
REMARK SMILES IDX 74 14 66 15 2 16 1 17 79 18 80 19 76 20 77 21 67 22 68 23
REMARK SMILES IDX 69 24 73 25 70 26 72 27 71 28 13 29 14 30 15 31 16 32 17 34
REMARK SMILES IDX 18 35 19 36 65 37 20 38 64 39 21 40 22 41 23 42 58 43 24 44
REMARK SMILES IDX 63 45 57 46 59 47 25 48 62 49 56 50 55 51 26 53 48 54 33 55
REMARK SMILES IDX 47 56 34 57 37 58 46 59 60 60 35 61 36 62 45 64 61 65 38 66
REMARK SMILES IDX 27 67 28 68 32 69 29 70 31 71 30 72 49 73 50 74 54 75 51 76
REMARK SMILES IDX 53 77 52 78 39 79 40 80 44 81 41 82 43 83 42 84
REMARK H PARENT 10 6 15 33 59 52 37 63
REMARK Flexibility Score: inf
ROOT
ATOM      1  C   UNL     1       2.940  -0.831  10.112  1.00  0.00     0.023 C 
ENDROOT
BRANCH   1   2
ATOM      2  C   UNL     1       1.938  -1.673   9.321  1.00  0.00     0.116 C 
BRANCH   2   3
ATOM      3  N   UNL     1       0.668  -0.992   9.196  1.00  0.00    -0.351 N 
ATOM      4  C   UNL     1      -0.023  -0.418   8.163  1.00  0.00     0.267 C 
ATOM      5  O   UNL     1      -1.162  -0.052   8.479  1.00  0.00    -0.268 OA
ATOM      6  H   UNL     1       0.189  -0.926  10.054  1.00  0.00     0.163 HD
BRANCH   4   7
ATOM      7  C   UNL     1       0.448  -0.253   6.790  1.00  0.00     0.108 A 
ATOM      8  C   UNL     1       0.954   0.487   2.207  1.00  0.00     0.165 A 
ATOM      9  C   UNL     1      -0.065   0.405   3.176  1.00  0.00     0.061 A 
ATOM     10  C   UNL     1       2.289   0.175   2.518  1.00  0.00     0.205 A 
ATOM     11  C   UNL     1       0.277   0.108   4.509  1.00  0.00     0.008 A 
ATOM     12  C   UNL     1       2.621  -0.219   3.837  1.00  0.00     0.189 A 
ATOM     13  C   UNL     1      -0.438  -0.045   5.723  1.00  0.00     0.042 A 
ATOM     14  C   UNL     1       1.607  -0.113   4.822  1.00  0.00     0.096 A 
ATOM     15  N   UNL     1       1.698  -0.042   6.224  1.00  0.00    -0.329 N 
BRANCH   8  16
ATOM     16  O   UNL     1       0.615   1.038   0.995  1.00  0.00    -0.493 OA
ATOM     17  C   UNL     1      -0.025   0.101   0.130  1.00  0.00     0.278 C 
ENDBRANCH   8  16
BRANCH  10  18
ATOM     18  O   UNL     1       3.355   0.337   1.671  1.00  0.00    -0.490 OA
ATOM     19  C   UNL     1       3.176   0.281   0.269  1.00  0.00     0.278 C 
ENDBRANCH  10  18
BRANCH  12  20
ATOM     20  O   UNL     1       3.823  -0.688   4.292  1.00  0.00    -0.491 OA
ATOM     21  C   UNL     1       4.946  -0.755   3.431  1.00  0.00     0.278 C 
ENDBRANCH  12  20
BRANCH  15  22
ATOM     22  C   UNL     1       2.973   0.345   6.833  1.00  0.00     0.158 C 
BRANCH  22  23
ATOM     23  C   UNL     1       3.057   1.488   7.814  1.00  0.00    -0.028 A 
ATOM     24  C   UNL     1       1.986   2.211   8.344  1.00  0.00     0.005 A 
ATOM     25  C   UNL     1       4.358   1.783   8.284  1.00  0.00     0.005 A 
ATOM     26  C   UNL     1       2.194   3.099   9.406  1.00  0.00     0.000 A 
ATOM     27  C   UNL     1       4.566   2.687   9.322  1.00  0.00     0.000 A 
ATOM     28  C   UNL     1       3.477   3.322   9.905  1.00  0.00     0.000 A 
ENDBRANCH  22  23
ENDBRANCH  15  22
ENDBRANCH   4   7
ENDBRANCH   2   3
ENDBRANCH   1   2
BRANCH   1  29
ATOM     29  C   UNL     1       2.900  -0.933  11.638  1.00  0.00     0.023 C 
BRANCH  29  30
ATOM     30  C   UNL     1       3.330  -2.283  12.202  1.00  0.00     0.116 C 
BRANCH  30  31
ATOM     31  N   UNL     1       4.594  -2.745  11.664  1.00  0.00    -0.352 N 
ATOM     32  C   UNL     1       5.905  -2.598  12.008  1.00  0.00     0.251 C 
ATOM     33  H   UNL     1       4.478  -3.297  10.858  1.00  0.00     0.163 HD
ATOM     34  O   UNL     1       6.715  -3.225  11.314  1.00  0.00    -0.269 OA
BRANCH  32  35
ATOM     35  C   UNL     1       6.432  -1.733  13.097  1.00  0.00     0.039 A 
ATOM     36  C   UNL     1       5.691  -0.824  13.853  1.00  0.00     0.014 A 
ATOM     37  C   UNL     1       7.823  -1.805  13.310  1.00  0.00     0.014 A 
ATOM     38  C   UNL     1       6.332   0.050  14.729  1.00  0.00     0.010 A 
ATOM     39  C   UNL     1       8.465  -0.949  14.194  1.00  0.00     0.010 A 
ATOM     40  C   UNL     1       7.722   0.014  14.867  1.00  0.00    -0.014 A 
BRANCH  40  41
ATOM     41  C   UNL     1       8.347   0.934  15.814  1.00  0.00     0.031 A 
ATOM     42  C   UNL     1       7.927   0.758  17.236  1.00  0.00     0.074 A 
ATOM     43  C   UNL     1       9.332   1.789  15.468  1.00  0.00     0.049 A 
ATOM     44  N   UNL     1       7.423   1.635  18.043  1.00  0.00    -0.248 NA
ATOM     45  C   UNL     1       7.997  -0.602  17.797  1.00  0.00     0.031 C 
ATOM     46  C   UNL     1      10.047   1.873  14.191  1.00  0.00     0.029 A 
ATOM     47  N   UNL     1       9.988   2.697  16.245  1.00  0.00    -0.354 N 
ATOM     48  C   UNL     1       7.241   0.981  19.261  1.00  0.00     0.074 A 
ATOM     49  C   UNL     1       7.499  -0.415  19.019  1.00  0.00     0.031 C 
ATOM     50  C   UNL     1      11.181   2.591  14.361  1.00  0.00     0.029 A 
ATOM     51  C   UNL     1      11.190   3.137  15.707  1.00  0.00     0.049 A 
ATOM     52  H   UNL     1       9.640   3.012  17.110  1.00  0.00     0.167 HD
ATOM     53  C   UNL     1       7.063   1.650  20.433  1.00  0.00     0.031 A 
ATOM     54  C   UNL     1      12.158   3.836  16.351  1.00  0.00     0.031 A 
ATOM     55  C   UNL     1       6.645   3.007  20.222  1.00  0.00     0.049 A 
ATOM     56  C   UNL     1      11.541   4.461  17.542  1.00  0.00     0.074 A 
ATOM     57  C   UNL     1       5.525   3.603  19.680  1.00  0.00     0.029 A 
ATOM     58  N   UNL     1       7.605   3.986  20.280  1.00  0.00    -0.354 N 
ATOM     59  N   UNL     1      10.639   5.397  17.484  1.00  0.00    -0.248 NA
ATOM     60  C   UNL     1      11.628   3.750  18.806  1.00  0.00     0.031 C 
ATOM     61  C   UNL     1       6.017   4.753  19.000  1.00  0.00     0.029 A 
ATOM     62  C   UNL     1       7.395   4.825  19.217  1.00  0.00     0.049 A 
ATOM     63  H   UNL     1       8.313   4.070  20.959  1.00  0.00     0.167 HD
ATOM     64  C   UNL     1       9.769   5.112  18.525  1.00  0.00     0.074 A 
ATOM     65  C   UNL     1      10.485   4.154  19.365  1.00  0.00     0.031 C 
ATOM     66  C   UNL     1       8.451   5.462  18.460  1.00  0.00     0.031 A 
BRANCH  53  67
ATOM     67  C   UNL     1       7.600   1.168  21.758  1.00  0.00    -0.014 A 
ATOM     68  C   UNL     1       8.566   0.150  21.869  1.00  0.00     0.009 A 
ATOM     69  C   UNL     1       7.344   1.921  22.919  1.00  0.00     0.009 A 
ATOM     70  C   UNL     1       9.251  -0.100  23.061  1.00  0.00     0.001 A 
ATOM     71  C   UNL     1       8.057   1.701  24.104  1.00  0.00     0.001 A 
ATOM     72  C   UNL     1       9.014   0.693  24.173  1.00  0.00     0.000 A 
ENDBRANCH  53  67
BRANCH  54  73
ATOM     73  C   UNL     1      13.624   3.664  16.234  1.00  0.00    -0.014 A 
ATOM     74  C   UNL     1      14.161   2.410  15.887  1.00  0.00     0.009 A 
ATOM     75  C   UNL     1      14.503   4.630  16.752  1.00  0.00     0.009 A 
ATOM     76  C   UNL     1      15.513   2.115  16.092  1.00  0.00     0.001 A 
ATOM     77  C   UNL     1      15.858   4.332  16.959  1.00  0.00     0.001 A 
ATOM     78  C   UNL     1      16.358   3.071  16.645  1.00  0.00     0.000 A 
ENDBRANCH  54  73
BRANCH  66  79
ATOM     79  C   UNL     1       7.998   6.358  17.329  1.00  0.00    -0.014 A 
ATOM     80  C   UNL     1       7.260   7.508  17.650  1.00  0.00     0.009 A 
ATOM     81  C   UNL     1       8.092   5.985  15.976  1.00  0.00     0.009 A 
ATOM     82  C   UNL     1       6.611   8.245  16.657  1.00  0.00     0.001 A 
ATOM     83  C   UNL     1       7.462   6.738  14.979  1.00  0.00     0.001 A 
ATOM     84  C   UNL     1       6.710   7.859  15.322  1.00  0.00     0.000 A 
ENDBRANCH  66  79
ENDBRANCH  40  41
ENDBRANCH  32  35
ENDBRANCH  30  31
ENDBRANCH  29  30
ENDBRANCH   1  29
TORSDOF 16
