REMARK SMILES C#CC[NH2+]CC(=O)N(C)CCCC(=O)NCCCCNC(=O)c1ccc(-c2c3nc(c(-c4ccccc4)c4ccc([nH]4)c(-c4ccccc4)c4nc(c(-c5ccccc5)c5ccc2[nH]5)C=C4)C=C3)cc1
REMARK SMILES IDX 13 1 14 2 15 3 12 5 11 6 10 7 8 8 9 9 6 10 7 11 5 12 4 13
REMARK SMILES IDX 3 16 2 17 1 18 16 19 17 20 18 21 19 22 20 23 21 24 22 26
REMARK SMILES IDX 23 27 24 28 70 29 25 30 69 31 26 32 27 33 28 34 63 35 29 36
REMARK SMILES IDX 68 37 62 38 64 39 30 40 67 41 61 42 60 43 31 45 53 46 38 47
REMARK SMILES IDX 52 48 39 49 42 50 51 51 65 52 40 53 41 54 50 56 66 57 43 58
REMARK SMILES IDX 32 59 33 60 37 61 34 62 36 63 35 64 54 65 55 66 59 67 56 68
REMARK SMILES IDX 58 69 57 70 44 71 45 72 49 73 46 74 48 75 47 76
REMARK H PARENT 15 4 4 14 4 15 20 25 64 44 42 55
REMARK Flexibility Score: inf
ROOT
ATOM      1  C   UNL     1      -6.411   4.591   2.170  1.00  0.00     0.220 C 
ATOM      2  O   UNL     1      -6.598   5.607   2.841  1.00  0.00    -0.275 OA
ATOM      3  N   UNL     1      -7.416   3.673   2.101  1.00  0.00    -0.356 N 
ATOM      4  H   UNL     1      -8.278   3.971   2.471  1.00  0.00     0.163 HD
ENDROOT
BRANCH   1   5
ATOM      5  C   UNL     1      -5.137   4.400   1.379  1.00  0.00     0.102 C 
BRANCH   5   6
ATOM      6  C   UNL     1      -3.981   3.658   2.054  1.00  0.00     0.031 C 
BRANCH   6   7
ATOM      7  C   UNL     1      -4.120   2.183   2.436  1.00  0.00     0.120 C 
BRANCH   7   8
ATOM      8  N   UNL     1      -4.236   1.094   1.441  1.00  0.00    -0.341 N 
ATOM      9  C   UNL     1      -4.160  -0.247   2.044  1.00  0.00     0.147 C 
BRANCH   8  10
ATOM     10  C   UNL     1      -4.182   1.326   0.057  1.00  0.00     0.277 C 
ATOM     11  O   UNL     1      -4.193   2.454  -0.439  1.00  0.00    -0.268 OA
BRANCH  10  12
ATOM     12  C   UNL     1      -3.884   0.161  -0.915  1.00  0.00     0.362 C 
BRANCH  12  13
ATOM     13  N   UNL     1      -2.424   0.133  -1.203  1.00  0.00    -0.328 N 
ATOM     14  H   UNL     1      -2.197  -0.667  -1.793  1.00  0.00     0.347 HD
ATOM     15  H   UNL     1      -2.130   0.974  -1.699  1.00  0.00     0.347 HD
BRANCH  13  16
ATOM     16  C   UNL     1      -1.757   0.018   0.072  1.00  0.00     0.352 C 
BRANCH  16  17
ATOM     17  C   UNL     1      -0.237   0.018   0.072  1.00  0.00    -0.047 C 
ATOM     18  C   UNL     1       1.067   0.018   0.072  1.00  0.00     0.010 C 
ENDBRANCH  16  17
ENDBRANCH  13  16
ENDBRANCH  12  13
ENDBRANCH  10  12
ENDBRANCH   8  10
ENDBRANCH   7   8
ENDBRANCH   6   7
ENDBRANCH   5   6
ENDBRANCH   1   5
BRANCH   3  19
ATOM     19  C   UNL     1      -7.410   2.328   1.567  1.00  0.00     0.116 C 
BRANCH  19  20
ATOM     20  C   UNL     1      -7.346   1.319   2.717  1.00  0.00     0.023 C 
BRANCH  20  21
ATOM     21  C   UNL     1      -8.621   0.531   2.954  1.00  0.00     0.023 C 
BRANCH  21  22
ATOM     22  C   UNL     1      -8.902  -0.485   1.857  1.00  0.00     0.116 C 
BRANCH  22  23
ATOM     23  N   UNL     1      -7.980  -1.618   1.839  1.00  0.00    -0.352 N 
ATOM     24  C   UNL     1      -8.278  -2.952   1.640  1.00  0.00     0.251 C 
ATOM     25  H   UNL     1      -7.030  -1.405   1.988  1.00  0.00     0.163 HD
ATOM     26  O   UNL     1      -7.413  -3.811   1.699  1.00  0.00    -0.269 OA
BRANCH  24  27
ATOM     27  C   UNL     1      -9.694  -3.313   1.417  1.00  0.00     0.039 A 
ATOM     28  C   UNL     1     -10.314  -4.197   2.301  1.00  0.00     0.014 A 
ATOM     29  C   UNL     1     -10.434  -2.628   0.452  1.00  0.00     0.014 A 
ATOM     30  C   UNL     1     -11.706  -4.302   2.294  1.00  0.00     0.010 A 
ATOM     31  C   UNL     1     -11.820  -2.656   0.518  1.00  0.00     0.010 A 
ATOM     32  C   UNL     1     -12.472  -3.482   1.449  1.00  0.00    -0.014 A 
BRANCH  32  33
ATOM     33  C   UNL     1     -13.955  -3.449   1.527  1.00  0.00     0.031 A 
ATOM     34  C   UNL     1     -14.774  -3.811   0.319  1.00  0.00     0.074 A 
ATOM     35  C   UNL     1     -14.564  -3.002   2.644  1.00  0.00     0.049 A 
ATOM     36  N   UNL     1     -16.071  -3.749   0.152  1.00  0.00    -0.248 NA
ATOM     37  C   UNL     1     -14.036  -4.264  -0.871  1.00  0.00     0.031 C 
ATOM     38  C   UNL     1     -13.889  -2.559   3.867  1.00  0.00     0.029 A 
ATOM     39  N   UNL     1     -15.898  -2.840   2.928  1.00  0.00    -0.354 N 
ATOM     40  C   UNL     1     -16.296  -4.120  -1.168  1.00  0.00     0.074 A 
ATOM     41  C   UNL     1     -15.003  -4.354  -1.771  1.00  0.00     0.031 C 
ATOM     42  C   UNL     1     -14.813  -2.213   4.780  1.00  0.00     0.029 A 
ATOM     43  C   UNL     1     -16.141  -2.371   4.197  1.00  0.00     0.049 A 
ATOM     44  H   UNL     1     -16.614  -3.042   2.283  1.00  0.00     0.167 HD
ATOM     45  C   UNL     1     -17.473  -4.277  -1.816  1.00  0.00     0.031 A 
ATOM     46  C   UNL     1     -17.302  -2.099   4.821  1.00  0.00     0.031 A 
ATOM     47  C   UNL     1     -18.761  -4.087  -1.210  1.00  0.00     0.049 A 
ATOM     48  C   UNL     1     -18.599  -2.311   4.089  1.00  0.00     0.074 A 
ATOM     49  C   UNL     1     -20.012  -4.301  -1.760  1.00  0.00     0.029 A 
ATOM     50  N   UNL     1     -18.962  -3.646   0.088  1.00  0.00    -0.354 N 
ATOM     51  N   UNL     1     -18.795  -2.734   2.865  1.00  0.00    -0.248 NA
ATOM     52  C   UNL     1     -19.833  -2.016   4.832  1.00  0.00     0.031 C 
ATOM     53  C   UNL     1     -20.973  -3.955  -0.805  1.00  0.00     0.029 A 
ATOM     54  C   UNL     1     -20.318  -3.567   0.353  1.00  0.00     0.049 A 
ATOM     55  H   UNL     1     -18.247  -3.423   0.727  1.00  0.00     0.167 HD
ATOM     56  C   UNL     1     -20.173  -2.784   2.699  1.00  0.00     0.074 A 
ATOM     57  C   UNL     1     -20.763  -2.360   3.952  1.00  0.00     0.031 C 
ATOM     58  C   UNL     1     -20.886  -3.150   1.607  1.00  0.00     0.031 A 
BRANCH  45  59
ATOM     59  C   UNL     1     -17.412  -4.683  -3.261  1.00  0.00    -0.014 A 
ATOM     60  C   UNL     1     -17.009  -5.975  -3.636  1.00  0.00     0.009 A 
ATOM     61  C   UNL     1     -17.778  -3.768  -4.259  1.00  0.00     0.009 A 
ATOM     62  C   UNL     1     -16.934  -6.328  -4.984  1.00  0.00     0.001 A 
ATOM     63  C   UNL     1     -17.730  -4.133  -5.605  1.00  0.00     0.001 A 
ATOM     64  C   UNL     1     -17.298  -5.409  -5.967  1.00  0.00     0.000 A 
ENDBRANCH  45  59
BRANCH  46  65
ATOM     65  C   UNL     1     -17.304  -1.627   6.231  1.00  0.00    -0.014 A 
ATOM     66  C   UNL     1     -17.726  -2.482   7.261  1.00  0.00     0.009 A 
ATOM     67  C   UNL     1     -16.904  -0.322   6.553  1.00  0.00     0.009 A 
ATOM     68  C   UNL     1     -17.775  -2.031   8.582  1.00  0.00     0.001 A 
ATOM     69  C   UNL     1     -16.930   0.119   7.879  1.00  0.00     0.001 A 
ATOM     70  C   UNL     1     -17.374  -0.732   8.890  1.00  0.00     0.000 A 
ENDBRANCH  46  65
BRANCH  58  71
ATOM     71  C   UNL     1     -22.382  -3.144   1.730  1.00  0.00    -0.014 A 
ATOM     72  C   UNL     1     -23.107  -1.943   1.736  1.00  0.00     0.009 A 
ATOM     73  C   UNL     1     -23.077  -4.362   1.792  1.00  0.00     0.009 A 
ATOM     74  C   UNL     1     -24.499  -1.962   1.831  1.00  0.00     0.001 A 
ATOM     75  C   UNL     1     -24.470  -4.379   1.862  1.00  0.00     0.001 A 
ATOM     76  C   UNL     1     -25.179  -3.179   1.889  1.00  0.00     0.000 A 
ENDBRANCH  58  71
ENDBRANCH  32  33
ENDBRANCH  24  27
ENDBRANCH  22  23
ENDBRANCH  21  22
ENDBRANCH  20  21
ENDBRANCH  19  20
ENDBRANCH   3  19
TORSDOF 19
