REMARK SMILES Cc1nsc(N(C)C(=O)[C@@H](C)CCC[C@H](C)[NH3+])c1C(=O)NCCCCNC(=O)c1ccc(-c2c3nc(c(-c4ccccc4)c4ccc([nH]4)c(-c4ccccc4)c4nc(c(-c5ccccc5)c5ccc2[nH]5)C=C4)C=C3)cc1
REMARK SMILES IDX 1 1 2 2 3 3 4 4 5 5 18 6 19 7 20 8 21 9 22 11 23 12 24 13
REMARK SMILES IDX 25 14 26 15 27 16 28 18 29 19 30 20 76 21 31 22 75 23 32 24
REMARK SMILES IDX 33 25 34 26 69 27 35 28 74 29 68 30 70 31 36 32 73 33 67 34
REMARK SMILES IDX 66 35 37 37 59 38 44 39 58 40 45 41 48 42 57 43 71 44 46 45
REMARK SMILES IDX 47 46 56 48 72 49 49 50 38 51 39 52 43 53 40 54 42 55 41 56
REMARK SMILES IDX 60 57 61 58 65 59 62 60 64 61 63 62 50 63 51 64 55 65 52 66
REMARK SMILES IDX 54 67 53 68 6 69 7 70 8 71 9 72 10 73 11 74 12 75 13 76
REMARK SMILES IDX 14 77 15 78 16 79 17 80
REMARK H PARENT 21 10 26 17 70 36 48 47 17 81 17 82 17 83
REMARK Flexibility Score: inf
ROOT
ATOM      1  C   UNL     1       4.313  -4.982  13.729  1.00  0.00     0.069 C 
ATOM      2  C   UNL     1       4.244  -4.644  12.278  1.00  0.00     0.066 A 
ATOM      3  N   UNL     1       4.985  -5.424  11.497  1.00  0.00    -0.195 NA
ATOM      4  S   UNL     1       4.669  -5.077   9.940  1.00  0.00    -0.017 S 
ATOM      5  C   UNL     1       3.569  -3.780  10.214  1.00  0.00     0.131 A 
ATOM      6  C   UNL     1       3.460  -3.602  11.608  1.00  0.00     0.097 A 
ENDROOT
BRANCH   6   7
ATOM      7  C   UNL     1       2.557  -2.644  12.258  1.00  0.00     0.256 C 
ATOM      8  O   UNL     1       1.368  -2.573  11.938  1.00  0.00    -0.269 OA
ATOM      9  N   UNL     1       3.002  -1.799  13.268  1.00  0.00    -0.352 N 
ATOM     10  H   UNL     1       2.431  -1.018  13.450  1.00  0.00     0.163 HD
BRANCH   9  11
ATOM     11  C   UNL     1       4.190  -1.908  14.090  1.00  0.00     0.116 C 
BRANCH  11  12
ATOM     12  C   UNL     1       4.862  -0.631  14.604  1.00  0.00     0.023 C 
BRANCH  12  13
ATOM     13  C   UNL     1       4.061   0.372  15.435  1.00  0.00     0.023 C 
BRANCH  13  14
ATOM     14  C   UNL     1       3.243  -0.206  16.574  1.00  0.00     0.116 C 
BRANCH  14  15
ATOM     15  N   UNL     1       4.012  -0.790  17.677  1.00  0.00    -0.352 N 
ATOM     16  C   UNL     1       3.526  -1.183  18.917  1.00  0.00     0.251 C 
ATOM     17  H   UNL     1       4.976  -0.916  17.522  1.00  0.00     0.163 HD
ATOM     18  O   UNL     1       4.284  -1.364  19.872  1.00  0.00    -0.269 OA
BRANCH  16  19
ATOM     19  C   UNL     1       2.074  -1.397  19.076  1.00  0.00     0.039 A 
ATOM     20  C   UNL     1       1.367  -1.029  20.225  1.00  0.00     0.014 A 
ATOM     21  C   UNL     1       1.405  -1.949  17.989  1.00  0.00     0.014 A 
ATOM     22  C   UNL     1      -0.024  -1.157  20.224  1.00  0.00     0.010 A 
ATOM     23  C   UNL     1       0.047  -1.852  17.902  1.00  0.00     0.010 A 
ATOM     24  C   UNL     1      -0.676  -1.553  19.044  1.00  0.00    -0.014 A 
BRANCH  24  25
ATOM     25  C   UNL     1      -2.127  -1.550  18.908  1.00  0.00     0.031 A 
ATOM     26  C   UNL     1      -2.730  -0.223  19.171  1.00  0.00     0.074 A 
ATOM     27  C   UNL     1      -2.815  -2.576  18.353  1.00  0.00     0.049 A 
ATOM     28  N   UNL     1      -3.394   0.130  20.219  1.00  0.00    -0.248 NA
ATOM     29  C   UNL     1      -2.403   0.895  18.268  1.00  0.00     0.031 C 
ATOM     30  C   UNL     1      -2.270  -3.809  17.760  1.00  0.00     0.029 A 
ATOM     31  N   UNL     1      -4.148  -2.695  18.093  1.00  0.00    -0.354 N 
ATOM     32  C   UNL     1      -3.795   1.439  19.981  1.00  0.00     0.074 A 
ATOM     33  C   UNL     1      -2.971   1.922  18.905  1.00  0.00     0.031 C 
ATOM     34  C   UNL     1      -3.219  -4.421  17.016  1.00  0.00     0.029 A 
ATOM     35  C   UNL     1      -4.479  -3.734  17.224  1.00  0.00     0.049 A 
ATOM     36  H   UNL     1      -4.822  -2.095  18.487  1.00  0.00     0.167 HD
ATOM     37  C   UNL     1      -4.996   1.881  20.449  1.00  0.00     0.031 A 
ATOM     38  C   UNL     1      -5.705  -4.019  16.718  1.00  0.00     0.031 A 
ATOM     39  C   UNL     1      -5.566   0.924  21.367  1.00  0.00     0.049 A 
ATOM     40  C   UNL     1      -6.695  -3.391  17.613  1.00  0.00     0.074 A 
ATOM     41  C   UNL     1      -5.294   0.470  22.638  1.00  0.00     0.029 A 
ATOM     42  N   UNL     1      -6.343  -0.024  20.748  1.00  0.00    -0.354 N 
ATOM     43  N   UNL     1      -6.885  -3.781  18.840  1.00  0.00    -0.248 NA
ATOM     44  C   UNL     1      -7.219  -2.072  17.288  1.00  0.00     0.031 C 
ATOM     45  C   UNL     1      -5.733  -0.888  22.666  1.00  0.00     0.029 A 
ATOM     46  C   UNL     1      -6.322  -1.203  21.441  1.00  0.00     0.049 A 
ATOM     47  H   UNL     1      -6.849   0.125  19.917  1.00  0.00     0.167 HD
ATOM     48  C   UNL     1      -7.108  -2.608  19.536  1.00  0.00     0.074 A 
ATOM     49  C   UNL     1      -7.489  -1.632  18.520  1.00  0.00     0.031 C 
ATOM     50  C   UNL     1      -6.651  -2.465  20.814  1.00  0.00     0.031 A 
BRANCH  37  51
ATOM     51  C   UNL     1      -5.899   2.837  19.696  1.00  0.00    -0.014 A 
ATOM     52  C   UNL     1      -7.139   3.172  20.275  1.00  0.00     0.009 A 
ATOM     53  C   UNL     1      -5.732   3.172  18.339  1.00  0.00     0.009 A 
ATOM     54  C   UNL     1      -8.173   3.738  19.519  1.00  0.00     0.001 A 
ATOM     55  C   UNL     1      -6.750   3.768  17.589  1.00  0.00     0.001 A 
ATOM     56  C   UNL     1      -7.981   4.027  18.173  1.00  0.00     0.000 A 
ENDBRANCH  37  51
BRANCH  38  57
ATOM     57  C   UNL     1      -6.109  -4.643  15.441  1.00  0.00    -0.014 A 
ATOM     58  C   UNL     1      -7.371  -5.245  15.295  1.00  0.00     0.009 A 
ATOM     59  C   UNL     1      -5.376  -4.370  14.273  1.00  0.00     0.009 A 
ATOM     60  C   UNL     1      -7.902  -5.513  14.024  1.00  0.00     0.001 A 
ATOM     61  C   UNL     1      -5.908  -4.634  13.005  1.00  0.00     0.001 A 
ATOM     62  C   UNL     1      -7.178  -5.189  12.880  1.00  0.00     0.000 A 
ENDBRANCH  38  57
BRANCH  50  63
ATOM     63  C   UNL     1      -6.307  -3.723  21.566  1.00  0.00    -0.014 A 
ATOM     64  C   UNL     1      -5.252  -4.584  21.217  1.00  0.00     0.009 A 
ATOM     65  C   UNL     1      -7.038  -3.998  22.730  1.00  0.00     0.009 A 
ATOM     66  C   UNL     1      -4.960  -5.705  22.002  1.00  0.00     0.001 A 
ATOM     67  C   UNL     1      -6.732  -5.103  23.523  1.00  0.00     0.001 A 
ATOM     68  C   UNL     1      -5.699  -5.961  23.156  1.00  0.00     0.000 A 
ENDBRANCH  50  63
ENDBRANCH  24  25
ENDBRANCH  16  19
ENDBRANCH  14  15
ENDBRANCH  13  14
ENDBRANCH  12  13
ENDBRANCH  11  12
ENDBRANCH   9  11
ENDBRANCH   6   7
BRANCH   5  69
ATOM     69  N   UNL     1       3.001  -3.182   9.047  1.00  0.00    -0.305 N 
ATOM     70  C   UNL     1       3.131  -3.812   7.726  1.00  0.00     0.154 C 
BRANCH  69  71
ATOM     71  C   UNL     1       2.406  -1.924   9.175  1.00  0.00     0.230 C 
ATOM     72  O   UNL     1       2.804  -1.098  10.008  1.00  0.00    -0.274 OA
BRANCH  71  73
ATOM     73  C   UNL     1       1.299  -1.462   8.190  1.00  0.00     0.076 C 
ATOM     74  C   UNL     1       1.887  -0.725   6.981  1.00  0.00     0.018 C 
BRANCH  73  75
ATOM     75  C   UNL     1       0.214  -2.480   7.775  1.00  0.00     0.013 C 
BRANCH  75  76
ATOM     76  C   UNL     1      -0.855  -2.783   8.834  1.00  0.00     0.007 C 
BRANCH  76  77
ATOM     77  C   UNL     1      -1.649  -1.604   9.418  1.00  0.00     0.064 C 
BRANCH  77  78
ATOM     78  C   UNL     1      -2.674  -0.905   8.500  1.00  0.00     0.177 C 
ATOM     79  C   UNL     1      -2.100  -0.197   7.274  1.00  0.00     0.075 C 
BRANCH  78  80
ATOM     80  N   UNL     1      -3.395   0.101   9.293  1.00  0.00    -0.355 N 
ATOM     81  H   UNL     1      -2.740   0.814   9.615  1.00  0.00     0.344 HD
ATOM     82  H   UNL     1      -3.831  -0.349  10.098  1.00  0.00     0.344 HD
ATOM     83  H   UNL     1      -4.115   0.536   8.717  1.00  0.00     0.344 HD
ENDBRANCH  78  80
ENDBRANCH  77  78
ENDBRANCH  76  77
ENDBRANCH  75  76
ENDBRANCH  73  75
ENDBRANCH  71  73
ENDBRANCH  69  71
ENDBRANCH   5  69
TORSDOF 19
