REMARK SMILES Cc1nc(-c2ccccc2Cl)sc1C(=O)NC[C@H]1CC[C@@H](C(=O)NCCCCNC(=O)c2ccc(-c3c4nc(c(-c5ccccc5)c5ccc([nH]5)c(-c5ccccc5)c5nc(c(-c6ccccc6)c6ccc3[nH]6)C=C5)C=C4)cc2)CC1
REMARK SMILES IDX 25 1 24 2 22 3 23 4 21 6 18 7 19 8 81 9 20 10 80 11 17 12
REMARK SMILES IDX 16 13 14 14 15 15 13 17 1 18 2 19 3 20 4 21 12 22 5 23 6 24
REMARK SMILES IDX 10 25 7 26 9 27 11 28 8 29 26 30 27 31 28 32 29 33 30 34
REMARK SMILES IDX 31 36 32 37 33 38 79 39 34 40 78 41 35 42 36 43 37 44 72 45
REMARK SMILES IDX 38 46 77 47 71 48 73 49 39 50 76 51 70 52 69 53 40 55 62 56
REMARK SMILES IDX 47 57 61 58 48 59 51 60 60 61 74 62 49 63 50 64 59 66 75 67
REMARK SMILES IDX 52 68 41 69 42 70 46 71 43 72 45 73 44 74 63 75 64 76 68 77
REMARK SMILES IDX 65 78 67 79 66 80 53 81 54 82 58 83 55 84 57 85 56 86
REMARK H PARENT 24 5 16 16 29 35 73 54 51 65
REMARK Flexibility Score: inf
ROOT
ATOM      1  C   UNL     1      -6.111  -2.931   0.764  1.00  0.00     0.116 C 
ENDROOT
BRANCH   1   2
ATOM      2  N   UNL     1      -7.277  -3.098  -0.069  1.00  0.00    -0.356 N 
ATOM      3  C   UNL     1      -7.450  -3.373  -1.384  1.00  0.00     0.223 C 
ATOM      4  O   UNL     1      -8.615  -3.629  -1.717  1.00  0.00    -0.275 OA
ATOM      5  H   UNL     1      -8.124  -2.989   0.421  1.00  0.00     0.163 HD
BRANCH   3   6
ATOM      6  C   UNL     1      -6.354  -3.370  -2.463  1.00  0.00     0.078 C 
ATOM      7  C   UNL     1      -3.438  -2.985  -1.718  1.00  0.00     0.008 C 
ATOM      8  C   UNL     1      -4.097  -4.382  -1.698  1.00  0.00     0.006 C 
ATOM      9  C   UNL     1      -4.397  -1.799  -1.937  1.00  0.00     0.006 C 
ATOM     10  C   UNL     1      -5.378  -4.539  -2.505  1.00  0.00     0.014 C 
ATOM     11  C   UNL     1      -5.671  -2.039  -2.720  1.00  0.00     0.014 C 
BRANCH   7  12
ATOM     12  C   UNL     1      -2.604  -2.773  -0.419  1.00  0.00     0.119 C 
BRANCH  12  13
ATOM     13  N   UNL     1      -1.188  -2.938  -0.614  1.00  0.00    -0.351 N 
ATOM     14  C   UNL     1      -0.071  -2.166  -0.417  1.00  0.00     0.263 C 
ATOM     15  O   UNL     1       0.959  -2.852  -0.487  1.00  0.00    -0.268 OA
ATOM     16  H   UNL     1      -0.966  -3.824  -0.980  1.00  0.00     0.163 HD
BRANCH  14  17
ATOM     17  C   UNL     1      -0.025  -0.720  -0.189  1.00  0.00     0.115 A 
ATOM     18  C   UNL     1      -2.364   0.487  -0.162  1.00  0.00     0.068 C 
ATOM     19  C   UNL     1      -0.893   0.368  -0.095  1.00  0.00     0.062 A 
ATOM     20  N   UNL     1      -0.286   1.609   0.043  1.00  0.00    -0.240 NA
ATOM     21  C   UNL     1       1.017   1.513  -0.008  1.00  0.00     0.125 A 
ATOM     22  S   UNL     1       1.607  -0.080  -0.011  1.00  0.00    -0.108 S 
BRANCH  21  23
ATOM     23  C   UNL     1       1.893   2.682   0.016  1.00  0.00     0.029 A 
ATOM     24  C   UNL     1       1.745   3.584   1.086  1.00  0.00     0.013 A 
ATOM     25  C   UNL     1       2.773   3.016  -1.026  1.00  0.00     0.051 A 
ATOM     26  C   UNL     1       2.464   4.780   1.125  1.00  0.00     0.001 A 
ATOM     27  C   UNL     1       3.495   4.215  -0.981  1.00  0.00     0.021 A 
ATOM     28  Cl  UNL     1       2.966   2.040  -2.442  1.00  0.00    -0.084 Cl
ATOM     29  C   UNL     1       3.339   5.095   0.090  1.00  0.00     0.002 A 
ENDBRANCH  21  23
ENDBRANCH  14  17
ENDBRANCH  12  13
ENDBRANCH   7  12
ENDBRANCH   3   6
ENDBRANCH   1   2
BRANCH   1  30
ATOM     30  C   UNL     1      -5.926  -1.504   1.280  1.00  0.00     0.023 C 
BRANCH  30  31
ATOM     31  C   UNL     1      -6.247  -1.305   2.757  1.00  0.00     0.023 C 
BRANCH  31  32
ATOM     32  C   UNL     1      -5.430  -2.154   3.727  1.00  0.00     0.116 C 
BRANCH  32  33
ATOM     33  N   UNL     1      -3.989  -1.953   3.660  1.00  0.00    -0.352 N 
ATOM     34  C   UNL     1      -3.076  -2.054   4.692  1.00  0.00     0.251 C 
ATOM     35  H   UNL     1      -3.623  -1.718   2.777  1.00  0.00     0.163 HD
ATOM     36  O   UNL     1      -1.890  -1.822   4.506  1.00  0.00    -0.269 OA
BRANCH  34  37
ATOM     37  C   UNL     1      -3.576  -2.385   6.044  1.00  0.00     0.039 A 
ATOM     38  C   UNL     1      -3.306  -1.508   7.096  1.00  0.00     0.014 A 
ATOM     39  C   UNL     1      -4.416  -3.485   6.233  1.00  0.00     0.014 A 
ATOM     40  C   UNL     1      -3.971  -1.672   8.313  1.00  0.00     0.010 A 
ATOM     41  C   UNL     1      -5.140  -3.595   7.415  1.00  0.00     0.010 A 
ATOM     42  C   UNL     1      -4.939  -2.679   8.460  1.00  0.00    -0.014 A 
BRANCH  42  43
ATOM     43  C   UNL     1      -5.777  -2.780   9.683  1.00  0.00     0.031 A 
ATOM     44  C   UNL     1      -5.720  -4.015  10.537  1.00  0.00     0.074 A 
ATOM     45  C   UNL     1      -6.658  -1.802   9.974  1.00  0.00     0.049 A 
ATOM     46  N   UNL     1      -6.438  -4.327  11.586  1.00  0.00    -0.248 NA
ATOM     47  C   UNL     1      -4.752  -5.050  10.140  1.00  0.00     0.031 C 
ATOM     48  C   UNL     1      -6.859  -0.575   9.197  1.00  0.00     0.029 A 
ATOM     49  N   UNL     1      -7.559  -1.690  11.004  1.00  0.00    -0.354 N 
ATOM     50  C   UNL     1      -6.029  -5.602  11.954  1.00  0.00     0.074 A 
ATOM     51  C   UNL     1      -5.037  -6.025  10.989  1.00  0.00     0.031 C 
ATOM     52  C   UNL     1      -7.796   0.178   9.797  1.00  0.00     0.029 A 
ATOM     53  C   UNL     1      -8.287  -0.525  10.977  1.00  0.00     0.049 A 
ATOM     54  H   UNL     1      -7.672  -2.380  11.697  1.00  0.00     0.167 HD
ATOM     55  C   UNL     1      -6.426  -6.349  13.011  1.00  0.00     0.031 A 
ATOM     56  C   UNL     1      -9.244  -0.073  11.810  1.00  0.00     0.031 A 
ATOM     57  C   UNL     1      -7.388  -5.923  13.990  1.00  0.00     0.049 A 
ATOM     58  C   UNL     1      -9.649  -0.908  12.992  1.00  0.00     0.074 A 
ATOM     59  C   UNL     1      -7.805  -6.581  15.134  1.00  0.00     0.029 A 
ATOM     60  N   UNL     1      -8.077  -4.722  13.944  1.00  0.00    -0.354 N 
ATOM     61  N   UNL     1      -9.205  -2.085  13.361  1.00  0.00    -0.248 NA
ATOM     62  C   UNL     1     -10.679  -0.346  13.877  1.00  0.00     0.031 C 
ATOM     63  C   UNL     1      -8.773  -5.790  15.764  1.00  0.00     0.029 A 
ATOM     64  C   UNL     1      -8.927  -4.624  15.032  1.00  0.00     0.049 A 
ATOM     65  H   UNL     1      -7.978  -4.040  13.241  1.00  0.00     0.167 HD
ATOM     66  C   UNL     1      -9.882  -2.393  14.534  1.00  0.00     0.074 A 
ATOM     67  C   UNL     1     -10.756  -1.274  14.821  1.00  0.00     0.031 C 
ATOM     68  C   UNL     1      -9.786  -3.502  15.305  1.00  0.00     0.031 A 
BRANCH  55  69
ATOM     69  C   UNL     1      -5.806  -7.710  13.159  1.00  0.00    -0.014 A 
ATOM     70  C   UNL     1      -4.461  -7.856  13.535  1.00  0.00     0.009 A 
ATOM     71  C   UNL     1      -6.577  -8.859  12.929  1.00  0.00     0.009 A 
ATOM     72  C   UNL     1      -3.889  -9.126  13.636  1.00  0.00     0.001 A 
ATOM     73  C   UNL     1      -6.010 -10.128  13.059  1.00  0.00     0.001 A 
ATOM     74  C   UNL     1      -4.665 -10.260  13.401  1.00  0.00     0.000 A 
ENDBRANCH  55  69
BRANCH  56  75
ATOM     75  C   UNL     1      -9.865   1.257  11.581  1.00  0.00    -0.014 A 
ATOM     76  C   UNL     1      -9.543   2.339  12.414  1.00  0.00     0.009 A 
ATOM     77  C   UNL     1     -10.786   1.450  10.540  1.00  0.00     0.009 A 
ATOM     78  C   UNL     1     -10.150   3.583  12.226  1.00  0.00     0.001 A 
ATOM     79  C   UNL     1     -11.373   2.702  10.340  1.00  0.00     0.001 A 
ATOM     80  C   UNL     1     -11.062   3.764  11.188  1.00  0.00     0.000 A 
ENDBRANCH  56  75
BRANCH  68  81
ATOM     81  C   UNL     1     -10.621  -3.544  16.551  1.00  0.00    -0.014 A 
ATOM     82  C   UNL     1     -12.004  -3.775  16.491  1.00  0.00     0.009 A 
ATOM     83  C   UNL     1     -10.006  -3.392  17.803  1.00  0.00     0.009 A 
ATOM     84  C   UNL     1     -12.760  -3.823  17.664  1.00  0.00     0.001 A 
ATOM     85  C   UNL     1     -10.761  -3.465  18.975  1.00  0.00     0.001 A 
ATOM     86  C   UNL     1     -12.138  -3.673  18.904  1.00  0.00     0.000 A 
ENDBRANCH  68  81
ENDBRANCH  42  43
ENDBRANCH  34  37
ENDBRANCH  32  33
ENDBRANCH  31  32
ENDBRANCH  30  31
ENDBRANCH   1  30
TORSDOF 15
