REMARK SMILES O=C(NCCCCNC(=O)[C@@H]1CCC[N@@H+](Cc2nccn2C(F)F)C1)c1ccc(-c2c3nc(c(-c4ccccc4)c4ccc([nH]4)c(-c4ccccc4)c4nc(c(-c5ccccc5)c5ccc2[nH]5)C=C4)C=C3)cc1
REMARK SMILES IDX 6 1 5 2 4 3 3 4 1 5 2 6 26 8 27 9 73 10 28 11 72 12 29 13
REMARK SMILES IDX 30 14 31 15 66 16 32 17 71 18 65 19 67 20 33 21 70 22 64 23
REMARK SMILES IDX 63 24 34 26 56 27 41 28 55 29 42 30 45 31 54 32 68 33 43 34
REMARK SMILES IDX 44 35 53 37 69 38 46 39 35 40 36 41 40 42 37 43 39 44 38 45
REMARK SMILES IDX 57 46 58 47 62 48 59 49 61 50 60 51 47 52 48 53 52 54 49 55
REMARK SMILES IDX 51 56 50 57 7 58 8 59 9 60 10 62 11 63 12 64 25 65 13 66
REMARK SMILES IDX 15 67 14 68 16 70 17 71 18 72 21 73 19 74 20 75 22 76 23 77
REMARK SMILES IDX 24 78
REMARK H PARENT 3 7 67 25 45 36 8 61 15 69
REMARK Flexibility Score: inf
ROOT
ATOM      1  C   UNL     1       4.597  -1.381   3.083  1.00  0.00     0.023 C 
ENDROOT
BRANCH   1   2
ATOM      2  C   UNL     1       5.092  -0.413   2.010  1.00  0.00     0.023 C 
BRANCH   2   3
ATOM      3  C   UNL     1       4.766  -0.774   0.561  1.00  0.00     0.116 C 
BRANCH   3   4
ATOM      4  N   UNL     1       3.365  -0.980   0.247  1.00  0.00    -0.352 N 
ATOM      5  O   UNL     1       1.297  -0.674  -0.487  1.00  0.00    -0.269 OA
ATOM      6  C   UNL     1       2.305  -0.152  -0.003  1.00  0.00     0.251 C 
ATOM      7  H   UNL     1       3.121  -1.933   0.204  1.00  0.00     0.163 HD
BRANCH   6   8
ATOM      8  C   UNL     1       2.255   1.292   0.346  1.00  0.00     0.039 A 
ATOM      9  C   UNL     1       3.361   2.111   0.571  1.00  0.00     0.014 A 
ATOM     10  C   UNL     1       0.968   1.847   0.474  1.00  0.00     0.014 A 
ATOM     11  C   UNL     1       3.188   3.416   1.029  1.00  0.00     0.010 A 
ATOM     12  C   UNL     1       0.789   3.158   0.900  1.00  0.00     0.010 A 
ATOM     13  C   UNL     1       1.903   3.931   1.215  1.00  0.00    -0.014 A 
BRANCH  13  14
ATOM     14  C   UNL     1       1.767   5.337   1.588  1.00  0.00     0.031 A 
ATOM     15  C   UNL     1       2.224   6.315   0.559  1.00  0.00     0.074 A 
ATOM     16  C   UNL     1       1.119   5.768   2.689  1.00  0.00     0.049 A 
ATOM     17  N   UNL     1       3.127   7.234   0.671  1.00  0.00    -0.248 NA
ATOM     18  C   UNL     1       1.641   6.207  -0.788  1.00  0.00     0.031 C 
ATOM     19  C   UNL     1       0.334   4.975   3.636  1.00  0.00     0.029 A 
ATOM     20  N   UNL     1       0.929   7.049   3.122  1.00  0.00    -0.354 N 
ATOM     21  C   UNL     1       3.126   7.927  -0.539  1.00  0.00     0.074 A 
ATOM     22  C   UNL     1       2.277   7.184  -1.435  1.00  0.00     0.031 C 
ATOM     23  C   UNL     1      -0.429   5.805   4.383  1.00  0.00     0.029 A 
ATOM     24  C   UNL     1      -0.089   7.181   4.056  1.00  0.00     0.049 A 
ATOM     25  H   UNL     1       1.465   7.810   2.800  1.00  0.00     0.167 HD
ATOM     26  C   UNL     1       3.666   9.171  -0.668  1.00  0.00     0.031 A 
ATOM     27  C   UNL     1      -0.660   8.335   4.480  1.00  0.00     0.031 A 
ATOM     28  C   UNL     1       4.544   9.502   0.419  1.00  0.00     0.049 A 
ATOM     29  C   UNL     1       0.249   9.452   4.145  1.00  0.00     0.074 A 
ATOM     30  C   UNL     1       5.714   8.979   0.931  1.00  0.00     0.029 A 
ATOM     31  N   UNL     1       4.065  10.358   1.379  1.00  0.00    -0.354 N 
ATOM     32  N   UNL     1       1.390   9.658   4.733  1.00  0.00    -0.248 NA
ATOM     33  C   UNL     1       0.068  10.138   2.876  1.00  0.00     0.031 C 
ATOM     34  C   UNL     1       5.615   9.169   2.341  1.00  0.00     0.029 A 
ATOM     35  C   UNL     1       4.413   9.832   2.594  1.00  0.00     0.049 A 
ATOM     36  H   UNL     1       3.565  11.192   1.224  1.00  0.00     0.167 HD
ATOM     37  C   UNL     1       2.224  10.123   3.728  1.00  0.00     0.074 A 
ATOM     38  C   UNL     1       1.328  10.513   2.643  1.00  0.00     0.031 C 
ATOM     39  C   UNL     1       3.568   9.883   3.764  1.00  0.00     0.031 A 
BRANCH  26  40
ATOM     40  C   UNL     1       3.100  10.238  -1.574  1.00  0.00    -0.014 A 
ATOM     41  C   UNL     1       3.771  11.472  -1.671  1.00  0.00     0.009 A 
ATOM     42  C   UNL     1       1.791  10.188  -2.090  1.00  0.00     0.009 A 
ATOM     43  C   UNL     1       3.135  12.611  -2.179  1.00  0.00     0.001 A 
ATOM     44  C   UNL     1       1.169  11.312  -2.639  1.00  0.00     0.001 A 
ATOM     45  C   UNL     1       1.830  12.532  -2.654  1.00  0.00     0.000 A 
ENDBRANCH  26  40
BRANCH  27  46
ATOM     46  C   UNL     1      -2.046   8.573   4.936  1.00  0.00    -0.014 A 
ATOM     47  C   UNL     1      -2.377   9.728   5.663  1.00  0.00     0.009 A 
ATOM     48  C   UNL     1      -3.102   7.796   4.426  1.00  0.00     0.009 A 
ATOM     49  C   UNL     1      -3.714  10.110   5.838  1.00  0.00     0.001 A 
ATOM     50  C   UNL     1      -4.436   8.174   4.605  1.00  0.00     0.001 A 
ATOM     51  C   UNL     1      -4.741   9.340   5.298  1.00  0.00     0.000 A 
ENDBRANCH  27  46
BRANCH  39  52
ATOM     52  C   UNL     1       4.158   9.346   5.043  1.00  0.00    -0.014 A 
ATOM     53  C   UNL     1       3.755   8.128   5.619  1.00  0.00     0.009 A 
ATOM     54  C   UNL     1       5.256  10.015   5.602  1.00  0.00     0.009 A 
ATOM     55  C   UNL     1       4.408   7.617   6.744  1.00  0.00     0.001 A 
ATOM     56  C   UNL     1       5.924   9.493   6.711  1.00  0.00     0.001 A 
ATOM     57  C   UNL     1       5.496   8.298   7.286  1.00  0.00     0.000 A 
ENDBRANCH  39  52
ENDBRANCH  13  14
ENDBRANCH   6   8
ENDBRANCH   3   4
ENDBRANCH   2   3
ENDBRANCH   1   2
BRANCH   1  58
ATOM     58  C   UNL     1       4.975  -2.844   2.899  1.00  0.00     0.116 C 
BRANCH  58  59
ATOM     59  N   UNL     1       6.402  -3.099   2.866  1.00  0.00    -0.356 N 
ATOM     60  C   UNL     1       7.078  -4.245   3.190  1.00  0.00     0.228 C 
ATOM     61  H   UNL     1       6.961  -2.345   2.569  1.00  0.00     0.163 HD
ATOM     62  O   UNL     1       8.298  -4.246   2.999  1.00  0.00    -0.275 OA
BRANCH  60  63
ATOM     63  C   UNL     1       6.350  -5.420   3.855  1.00  0.00     0.133 C 
ATOM     64  C   UNL     1       7.297  -6.585   4.209  1.00  0.00     0.025 C 
ATOM     65  C   UNL     1       5.203  -5.987   3.022  1.00  0.00     0.276 C 
ATOM     66  C   UNL     1       7.664  -7.449   2.993  1.00  0.00     0.062 C 
ATOM     67  N   UNL     1       5.704  -6.603   1.786  1.00  0.00    -0.328 N 
ATOM     68  C   UNL     1       6.460  -7.810   2.110  1.00  0.00     0.262 C 
ATOM     69  H   UNL     1       6.360  -5.970   1.329  1.00  0.00     0.348 HD
BRANCH  67  70
ATOM     70  C   UNL     1       4.646  -6.774   0.781  1.00  0.00     0.339 C 
BRANCH  70  71
ATOM     71  C   UNL     1       3.415  -7.493   1.260  1.00  0.00     0.168 A 
ATOM     72  N   UNL     1       2.589  -7.029   2.184  1.00  0.00    -0.236 NA
ATOM     73  N   UNL     1       2.972  -8.713   0.805  1.00  0.00    -0.273 N 
ATOM     74  C   UNL     1       1.656  -8.002   2.397  1.00  0.00     0.131 A 
ATOM     75  C   UNL     1       1.877  -9.063   1.558  1.00  0.00     0.113 A 
BRANCH  73  76
ATOM     76  C   UNL     1       3.506  -9.511  -0.277  1.00  0.00     0.450 C 
ATOM     77  F   UNL     1       3.917 -10.725   0.176  1.00  0.00    -0.185 F 
ATOM     78  F   UNL     1       2.550  -9.746  -1.215  1.00  0.00    -0.185 F 
ENDBRANCH  73  76
ENDBRANCH  70  71
ENDBRANCH  67  70
ENDBRANCH  60  63
ENDBRANCH  58  59
ENDBRANCH   1  58
TORSDOF 14
