REMARK SMILES C[C@@H]1C[C@H]([NH3+])CN(S(=O)(=O)CCCC(=O)NCCCCNC(=O)c2ccc(-c3c4nc(c(-c5ccccc5)c5ccc([nH]5)c(-c5ccccc5)c5nc(c(-c6ccccc6)c6ccc3[nH]6)C=C5)C=C4)cc2)C1
REMARK SMILES IDX 17 1 16 2 14 3 15 4 13 6 12 7 11 8 8 9 9 10 10 11 7 12 1 13
REMARK SMILES IDX 2 14 3 15 72 16 4 17 6 18 5 19 18 23 19 24 20 25 21 26 22 27
REMARK SMILES IDX 23 29 24 30 25 31 71 32 26 33 70 34 27 35 28 36 29 37 64 38
REMARK SMILES IDX 30 39 69 40 63 41 65 42 31 43 68 44 62 45 61 46 32 48 54 49
REMARK SMILES IDX 39 50 53 51 40 52 43 53 52 54 66 55 41 56 42 57 51 59 67 60
REMARK SMILES IDX 44 61 33 62 34 63 38 64 35 65 37 66 36 67 55 68 56 69 60 70
REMARK SMILES IDX 57 71 59 72 58 73 45 74 46 75 50 76 47 77 49 78 48 79
REMARK H PARENT 16 5 5 20 5 21 5 22 21 28 65 47 43 58
REMARK Flexibility Score: inf
ROOT
ATOM      1  C   UNL     1      -2.824  -1.467  -4.138  1.00  0.00     0.116 C 
ENDROOT
BRANCH   1   2
ATOM      2  N   UNL     1      -2.218  -0.639  -5.155  1.00  0.00    -0.356 N 
ATOM      3  C   UNL     1      -1.261   0.322  -5.074  1.00  0.00     0.220 C 
ATOM      4  O   UNL     1      -0.705   0.643  -6.128  1.00  0.00    -0.275 OA
ATOM      5  H   UNL     1      -2.558  -0.799  -6.065  1.00  0.00     0.163 HD
BRANCH   3   6
ATOM      6  C   UNL     1      -0.824   0.956  -3.761  1.00  0.00     0.101 C 
BRANCH   6   7
ATOM      7  C   UNL     1      -1.792   1.899  -3.062  1.00  0.00     0.027 C 
BRANCH   7   8
ATOM      8  C   UNL     1      -2.919   1.304  -2.245  1.00  0.00     0.155 C 
BRANCH   8   9
ATOM      9  S   UNL     1      -2.600   0.524  -0.654  1.00  0.00     0.214 S 
ATOM     10  O   UNL     1      -3.535  -0.577  -0.530  1.00  0.00    -0.212 OA
ATOM     11  O   UNL     1      -2.617   1.607   0.310  1.00  0.00    -0.212 OA
BRANCH   9  12
ATOM     12  N   UNL     1      -1.026  -0.175  -0.580  1.00  0.00    -0.196 NA
ATOM     13  C   UNL     1       1.783   0.362   0.682  1.00  0.00     0.009 C 
ATOM     14  C   UNL     1       0.825  -0.775   1.036  1.00  0.00     0.007 C 
ATOM     15  C   UNL     1       1.087  -2.080   0.276  1.00  0.00     0.071 C 
ATOM     16  C   UNL     1      -0.631  -0.330   0.882  1.00  0.00     0.106 C 
ATOM     17  C   UNL     1       0.574  -2.079  -1.161  1.00  0.00     0.196 C 
ATOM     18  C   UNL     1      -0.874  -1.535  -1.222  1.00  0.00     0.167 C 
BRANCH  17  19
ATOM     19  N   UNL     1       1.512  -1.375  -2.043  1.00  0.00    -0.354 N 
ATOM     20  H   UNL     1       1.600  -0.404  -1.742  1.00  0.00     0.344 HD
ATOM     21  H   UNL     1       1.164  -1.403  -3.002  1.00  0.00     0.344 HD
ATOM     22  H   UNL     1       2.425  -1.828  -2.000  1.00  0.00     0.344 HD
ENDBRANCH  17  19
ENDBRANCH   9  12
ENDBRANCH   8   9
ENDBRANCH   7   8
ENDBRANCH   6   7
ENDBRANCH   3   6
ENDBRANCH   1   2
BRANCH   1  23
ATOM     23  C   UNL     1      -4.329  -1.658  -4.307  1.00  0.00     0.023 C 
BRANCH  23  24
ATOM     24  C   UNL     1      -4.723  -3.111  -4.546  1.00  0.00     0.023 C 
BRANCH  24  25
ATOM     25  C   UNL     1      -4.287  -4.094  -3.463  1.00  0.00     0.116 C 
BRANCH  25  26
ATOM     26  N   UNL     1      -4.987  -3.950  -2.194  1.00  0.00    -0.352 N 
ATOM     27  C   UNL     1      -5.623  -4.933  -1.463  1.00  0.00     0.251 C 
ATOM     28  H   UNL     1      -5.009  -3.042  -1.812  1.00  0.00     0.163 HD
ATOM     29  O   UNL     1      -6.229  -4.678  -0.435  1.00  0.00    -0.269 OA
BRANCH  27  30
ATOM     30  C   UNL     1      -5.599  -6.317  -1.984  1.00  0.00     0.039 A 
ATOM     31  C   UNL     1      -6.811  -6.948  -2.273  1.00  0.00     0.014 A 
ATOM     32  C   UNL     1      -4.383  -6.926  -2.304  1.00  0.00     0.014 A 
ATOM     33  C   UNL     1      -6.803  -8.150  -2.982  1.00  0.00     0.010 A 
ATOM     34  C   UNL     1      -4.383  -8.078  -3.084  1.00  0.00     0.010 A 
ATOM     35  C   UNL     1      -5.592  -8.694  -3.444  1.00  0.00    -0.014 A 
BRANCH  35  36
ATOM     36  C   UNL     1      -5.570  -9.889  -4.325  1.00  0.00     0.031 A 
ATOM     37  C   UNL     1      -4.899 -11.153  -3.868  1.00  0.00     0.074 A 
ATOM     38  C   UNL     1      -6.090  -9.818  -5.567  1.00  0.00     0.049 A 
ATOM     39  N   UNL     1      -4.731 -12.280  -4.513  1.00  0.00    -0.248 NA
ATOM     40  C   UNL     1      -4.314 -11.138  -2.518  1.00  0.00     0.031 C 
ATOM     41  C   UNL     1      -6.730  -8.639  -6.157  1.00  0.00     0.029 A 
ATOM     42  N   UNL     1      -6.160 -10.763  -6.561  1.00  0.00    -0.354 N 
ATOM     43  C   UNL     1      -4.007 -13.098  -3.657  1.00  0.00     0.074 A 
ATOM     44  C   UNL     1      -3.717 -12.319  -2.472  1.00  0.00     0.031 C 
ATOM     45  C   UNL     1      -7.165  -8.945  -7.390  1.00  0.00     0.029 A 
ATOM     46  C   UNL     1      -6.800 -10.325  -7.695  1.00  0.00     0.049 A 
ATOM     47  H   UNL     1      -5.786 -11.669  -6.470  1.00  0.00     0.167 HD
ATOM     48  C   UNL     1      -3.635 -14.389  -3.825  1.00  0.00     0.031 A 
ATOM     49  C   UNL     1      -7.067 -10.962  -8.850  1.00  0.00     0.031 A 
ATOM     50  C   UNL     1      -3.930 -15.171  -4.995  1.00  0.00     0.049 A 
ATOM     51  C   UNL     1      -6.629 -12.389  -9.024  1.00  0.00     0.074 A 
ATOM     52  C   UNL     1      -3.649 -16.504  -5.236  1.00  0.00     0.029 A 
ATOM     53  N   UNL     1      -4.572 -14.686  -6.124  1.00  0.00    -0.354 N 
ATOM     54  N   UNL     1      -6.003 -13.170  -8.178  1.00  0.00    -0.248 NA
ATOM     55  C   UNL     1      -6.943 -13.023 -10.313  1.00  0.00     0.031 C 
ATOM     56  C   UNL     1      -4.081 -16.815  -6.530  1.00  0.00     0.029 A 
ATOM     57  C   UNL     1      -4.674 -15.687  -7.076  1.00  0.00     0.049 A 
ATOM     58  H   UNL     1      -4.906 -13.767  -6.234  1.00  0.00     0.167 HD
ATOM     59  C   UNL     1      -5.869 -14.394  -8.820  1.00  0.00     0.074 A 
ATOM     60  C   UNL     1      -6.490 -14.255 -10.122  1.00  0.00     0.031 C 
ATOM     61  C   UNL     1      -5.287 -15.532  -8.370  1.00  0.00     0.031 A 
BRANCH  48  62
ATOM     62  C   UNL     1      -2.858 -15.024  -2.706  1.00  0.00    -0.014 A 
ATOM     63  C   UNL     1      -3.463 -15.306  -1.470  1.00  0.00     0.009 A 
ATOM     64  C   UNL     1      -1.502 -15.338  -2.886  1.00  0.00     0.009 A 
ATOM     65  C   UNL     1      -2.712 -15.839  -0.420  1.00  0.00     0.001 A 
ATOM     66  C   UNL     1      -0.762 -15.901  -1.845  1.00  0.00     0.001 A 
ATOM     67  C   UNL     1      -1.364 -16.137  -0.609  1.00  0.00     0.000 A 
ENDBRANCH  48  62
BRANCH  49  68
ATOM     68  C   UNL     1      -7.822 -10.267  -9.925  1.00  0.00    -0.014 A 
ATOM     69  C   UNL     1      -9.156 -10.615 -10.187  1.00  0.00     0.009 A 
ATOM     70  C   UNL     1      -7.221  -9.254 -10.688  1.00  0.00     0.009 A 
ATOM     71  C   UNL     1      -9.868  -9.975 -11.203  1.00  0.00     0.001 A 
ATOM     72  C   UNL     1      -7.944  -8.599 -11.688  1.00  0.00     0.001 A 
ATOM     73  C   UNL     1      -9.264  -8.964 -11.949  1.00  0.00     0.000 A 
ENDBRANCH  49  68
BRANCH  61  74
ATOM     74  C   UNL     1      -5.315 -16.724  -9.283  1.00  0.00    -0.014 A 
ATOM     75  C   UNL     1      -4.493 -16.791 -10.418  1.00  0.00     0.009 A 
ATOM     76  C   UNL     1      -6.150 -17.811  -8.981  1.00  0.00     0.009 A 
ATOM     77  C   UNL     1      -4.528 -17.912 -11.249  1.00  0.00     0.001 A 
ATOM     78  C   UNL     1      -6.164 -18.942  -9.799  1.00  0.00     0.001 A 
ATOM     79  C   UNL     1      -5.359 -18.988 -10.937  1.00  0.00     0.000 A 
ENDBRANCH  61  74
ENDBRANCH  35  36
ENDBRANCH  27  30
ENDBRANCH  25  26
ENDBRANCH  24  25
ENDBRANCH  23  24
ENDBRANCH   1  23
TORSDOF 16
