REMARK SMILES O=C(NCCCCNC(=O)c1ccccc1Nc1cccc(C(F)(F)F)c1)c1ccc(-c2c3nc(c(-c4ccccc4)c4ccc([nH]4)c(-c4ccccc4)c4nc(c(-c5ccccc5)c5ccc2[nH]5)C=C4)C=C3)cc1
REMARK SMILES IDX 6 1 5 2 4 3 3 4 1 5 2 6 28 8 29 9 75 10 30 11 74 12 31 13
REMARK SMILES IDX 32 14 33 15 68 16 34 17 73 18 67 19 69 20 35 21 72 22 66 23
REMARK SMILES IDX 65 24 36 26 58 27 43 28 57 29 44 30 47 31 56 32 70 33 45 34
REMARK SMILES IDX 46 35 55 37 71 38 48 39 37 40 38 41 42 42 39 43 41 44 40 45
REMARK SMILES IDX 59 46 60 47 64 48 61 49 63 50 62 51 49 52 50 53 54 54 51 55
REMARK SMILES IDX 53 56 52 57 7 58 8 59 9 60 10 62 11 63 12 64 16 65 13 66
REMARK SMILES IDX 15 67 14 68 17 69 18 71 19 72 27 73 20 74 22 75 21 76 23 77
REMARK SMILES IDX 24 78 25 79 26 80
REMARK H PARENT 3 7 69 25 47 36 8 61 17 70
REMARK Flexibility Score: inf
ROOT
ATOM      1  C   UNL     1       4.437  -3.928  -0.600  1.00  0.00     0.023 C 
ENDROOT
BRANCH   1   2
ATOM      2  C   UNL     1       4.912  -2.697   0.170  1.00  0.00     0.023 C 
BRANCH   2   3
ATOM      3  C   UNL     1       4.626  -1.355  -0.494  1.00  0.00     0.116 C 
BRANCH   3   4
ATOM      4  N   UNL     1       3.204  -1.072  -0.632  1.00  0.00    -0.352 N 
ATOM      5  O   UNL     1       1.230  -0.055  -0.230  1.00  0.00    -0.269 OA
ATOM      6  C   UNL     1       2.450  -0.053  -0.098  1.00  0.00     0.251 C 
ATOM      7  H   UNL     1       2.706  -1.708  -1.194  1.00  0.00     0.163 HD
BRANCH   6   8
ATOM      8  C   UNL     1       3.103   1.028   0.673  1.00  0.00     0.039 A 
ATOM      9  C   UNL     1       4.271   1.634   0.211  1.00  0.00     0.014 A 
ATOM     10  C   UNL     1       2.544   1.429   1.891  1.00  0.00     0.014 A 
ATOM     11  C   UNL     1       4.981   2.489   1.047  1.00  0.00     0.010 A 
ATOM     12  C   UNL     1       3.211   2.363   2.690  1.00  0.00     0.010 A 
ATOM     13  C   UNL     1       4.466   2.857   2.301  1.00  0.00    -0.014 A 
BRANCH  13  14
ATOM     14  C   UNL     1       5.261   3.757   3.178  1.00  0.00     0.031 A 
ATOM     15  C   UNL     1       5.794   3.280   4.504  1.00  0.00     0.074 A 
ATOM     16  C   UNL     1       5.557   4.998   2.746  1.00  0.00     0.049 A 
ATOM     17  N   UNL     1       6.566   3.910   5.355  1.00  0.00    -0.248 NA
ATOM     18  C   UNL     1       5.408   1.928   4.937  1.00  0.00     0.031 C 
ATOM     19  C   UNL     1       5.102   5.583   1.482  1.00  0.00     0.029 A 
ATOM     20  N   UNL     1       6.338   5.978   3.304  1.00  0.00    -0.354 N 
ATOM     21  C   UNL     1       6.732   3.047   6.432  1.00  0.00     0.074 A 
ATOM     22  C   UNL     1       5.965   1.856   6.138  1.00  0.00     0.031 C 
ATOM     23  C   UNL     1       5.664   6.791   1.331  1.00  0.00     0.029 A 
ATOM     24  C   UNL     1       6.471   7.090   2.509  1.00  0.00     0.049 A 
ATOM     25  H   UNL     1       6.762   5.893   4.188  1.00  0.00     0.167 HD
ATOM     26  C   UNL     1       7.460   3.225   7.561  1.00  0.00     0.031 A 
ATOM     27  C   UNL     1       7.165   8.226   2.701  1.00  0.00     0.031 A 
ATOM     28  C   UNL     1       8.241   4.400   7.850  1.00  0.00     0.049 A 
ATOM     29  C   UNL     1       7.961   8.398   3.961  1.00  0.00     0.074 A 
ATOM     30  C   UNL     1       9.042   4.653   8.951  1.00  0.00     0.029 A 
ATOM     31  N   UNL     1       8.318   5.517   7.035  1.00  0.00    -0.354 N 
ATOM     32  N   UNL     1       8.132   7.556   4.950  1.00  0.00    -0.248 NA
ATOM     33  C   UNL     1       8.662   9.678   4.126  1.00  0.00     0.031 C 
ATOM     34  C   UNL     1       9.571   5.942   8.821  1.00  0.00     0.029 A 
ATOM     35  C   UNL     1       9.138   6.471   7.616  1.00  0.00     0.049 A 
ATOM     36  H   UNL     1       7.859   5.618   6.170  1.00  0.00     0.167 HD
ATOM     37  C   UNL     1       8.978   8.196   5.846  1.00  0.00     0.074 A 
ATOM     38  C   UNL     1       9.298   9.488   5.273  1.00  0.00     0.031 C 
ATOM     39  C   UNL     1       9.448   7.751   7.036  1.00  0.00     0.031 A 
BRANCH  26  40
ATOM     40  C   UNL     1       7.426   2.129   8.590  1.00  0.00    -0.014 A 
ATOM     41  C   UNL     1       8.100   0.914   8.389  1.00  0.00     0.009 A 
ATOM     42  C   UNL     1       6.742   2.333   9.799  1.00  0.00     0.009 A 
ATOM     43  C   UNL     1       8.062  -0.085   9.364  1.00  0.00     0.001 A 
ATOM     44  C   UNL     1       6.727   1.343  10.782  1.00  0.00     0.001 A 
ATOM     45  C   UNL     1       7.379   0.131  10.561  1.00  0.00     0.000 A 
ENDBRANCH  26  40
BRANCH  27  46
ATOM     46  C   UNL     1       7.146   9.287   1.662  1.00  0.00    -0.014 A 
ATOM     47  C   UNL     1       8.287   9.545   0.888  1.00  0.00     0.009 A 
ATOM     48  C   UNL     1       5.983  10.038   1.433  1.00  0.00     0.009 A 
ATOM     49  C   UNL     1       8.269  10.550  -0.082  1.00  0.00     0.001 A 
ATOM     50  C   UNL     1       5.960  11.022   0.443  1.00  0.00     0.001 A 
ATOM     51  C   UNL     1       7.105  11.282  -0.307  1.00  0.00     0.000 A 
ENDBRANCH  27  46
BRANCH  39  52
ATOM     52  C   UNL     1      10.388   8.657   7.778  1.00  0.00    -0.014 A 
ATOM     53  C   UNL     1       9.928   9.816   8.422  1.00  0.00     0.009 A 
ATOM     54  C   UNL     1      11.752   8.335   7.845  1.00  0.00     0.009 A 
ATOM     55  C   UNL     1      10.824  10.655   9.087  1.00  0.00     0.001 A 
ATOM     56  C   UNL     1      12.641   9.162   8.532  1.00  0.00     0.001 A 
ATOM     57  C   UNL     1      12.178  10.326   9.144  1.00  0.00     0.000 A 
ENDBRANCH  39  52
ENDBRANCH  13  14
ENDBRANCH   6   8
ENDBRANCH   3   4
ENDBRANCH   2   3
ENDBRANCH   1   2
BRANCH   1  58
ATOM     58  C   UNL     1       4.861  -3.991  -2.064  1.00  0.00     0.116 C 
BRANCH  58  59
ATOM     59  N   UNL     1       6.302  -3.949  -2.246  1.00  0.00    -0.352 N 
ATOM     60  C   UNL     1       7.066  -4.684  -3.119  1.00  0.00     0.253 C 
ATOM     61  H   UNL     1       6.791  -3.315  -1.673  1.00  0.00     0.163 HD
ATOM     62  O   UNL     1       8.282  -4.529  -3.168  1.00  0.00    -0.269 OA
BRANCH  60  63
ATOM     63  C   UNL     1       6.418  -5.694  -3.978  1.00  0.00     0.063 A 
ATOM     64  C   UNL     1       6.737  -7.034  -3.715  1.00  0.00     0.016 A 
ATOM     65  C   UNL     1       5.505  -5.340  -4.992  1.00  0.00     0.051 A 
ATOM     66  C   UNL     1       6.103  -8.049  -4.426  1.00  0.00     0.001 A 
ATOM     67  C   UNL     1       4.861  -6.385  -5.671  1.00  0.00     0.027 A 
ATOM     68  C   UNL     1       5.156  -7.724  -5.394  1.00  0.00     0.002 A 
BRANCH  65  69
ATOM     69  N   UNL     1       5.214  -3.992  -5.284  1.00  0.00    -0.355 N 
ATOM     70  H   UNL     1       5.970  -3.375  -5.152  1.00  0.00     0.167 HD
BRANCH  69  71
ATOM     71  C   UNL     1       4.034  -3.377  -5.732  1.00  0.00     0.039 A 
ATOM     72  C   UNL     1       4.123  -2.243  -6.549  1.00  0.00     0.026 A 
ATOM     73  C   UNL     1       2.763  -3.883  -5.432  1.00  0.00     0.039 A 
ATOM     74  C   UNL     1       2.975  -1.626  -7.049  1.00  0.00     0.003 A 
ATOM     75  C   UNL     1       1.596  -3.260  -5.908  1.00  0.00     0.058 A 
ATOM     76  C   UNL     1       1.716  -2.132  -6.730  1.00  0.00     0.013 A 
BRANCH  75  77
ATOM     77  C   UNL     1       0.232  -3.803  -5.561  1.00  0.00     0.416 C 
ATOM     78  F   UNL     1      -0.632  -2.831  -5.158  1.00  0.00    -0.166 F 
ATOM     79  F   UNL     1      -0.364  -4.420  -6.618  1.00  0.00    -0.166 F 
ATOM     80  F   UNL     1       0.253  -4.721  -4.555  1.00  0.00    -0.166 F 
ENDBRANCH  75  77
ENDBRANCH  69  71
ENDBRANCH  65  69
ENDBRANCH  60  63
ENDBRANCH  58  59
ENDBRANCH   1  58
TORSDOF 14
