REMARK SMILES O=C(NCCCCNC(=O)[C@@H]1CCCCC[C@H]1NC(=O)C1CC1)c1ccc(-c2c3nc(c(-c4ccccc4)c4ccc([nH]4)c(-c4ccccc4)c4nc(c(-c5ccccc5)c5ccc2[nH]5)C=C4)C=C3)cc1
REMARK SMILES IDX 6 1 5 2 4 3 3 4 1 5 2 6 24 8 25 9 71 10 26 11 70 12 27 13
REMARK SMILES IDX 28 14 29 15 64 16 30 17 69 18 63 19 65 20 31 21 68 22 62 23
REMARK SMILES IDX 61 24 32 26 54 27 39 28 53 29 40 30 43 31 52 32 66 33 41 34
REMARK SMILES IDX 42 35 51 37 67 38 44 39 33 40 34 41 38 42 35 43 37 44 36 45
REMARK SMILES IDX 55 46 56 47 60 48 57 49 59 50 58 51 45 52 46 53 50 54 47 55
REMARK SMILES IDX 49 56 48 57 7 58 8 59 9 60 10 62 11 63 12 64 13 65 14 66
REMARK SMILES IDX 17 68 16 69 15 70 18 72 19 73 20 75 21 76 22 77 23 78
REMARK H PARENT 3 7 65 25 43 36 8 61 18 74
REMARK Flexibility Score: 100.00
ROOT
ATOM      1  C   UNL     1       4.533  -3.584   1.034  1.00  0.00     0.023 C 
ENDROOT
BRANCH   1   2
ATOM      2  C   UNL     1       5.034  -2.163   1.260  1.00  0.00     0.023 C 
BRANCH   2   3
ATOM      3  C   UNL     1       4.656  -1.172   0.169  1.00  0.00     0.116 C 
BRANCH   3   4
ATOM      4  N   UNL     1       3.218  -1.061  -0.035  1.00  0.00    -0.352 N 
ATOM      5  O   UNL     1       1.218  -0.010  -0.132  1.00  0.00    -0.269 OA
ATOM      6  C   UNL     1       2.439   0.072  -0.077  1.00  0.00     0.251 C 
ATOM      7  H   UNL     1       2.738  -1.912  -0.160  1.00  0.00     0.163 HD
BRANCH   6   8
ATOM      8  C   UNL     1       3.096   1.392  -0.022  1.00  0.00     0.039 A 
ATOM      9  C   UNL     1       4.212   1.654  -0.819  1.00  0.00     0.014 A 
ATOM     10  C   UNL     1       2.619   2.357   0.869  1.00  0.00     0.014 A 
ATOM     11  C   UNL     1       4.948   2.810  -0.608  1.00  0.00     0.010 A 
ATOM     12  C   UNL     1       3.304   3.566   1.004  1.00  0.00     0.010 A 
ATOM     13  C   UNL     1       4.493   3.788   0.292  1.00  0.00    -0.014 A 
BRANCH  13  14
ATOM     14  C   UNL     1       5.242   5.062   0.408  1.00  0.00     0.031 A 
ATOM     15  C   UNL     1       5.903   5.471   1.694  1.00  0.00     0.074 A 
ATOM     16  C   UNL     1       5.343   5.843  -0.684  1.00  0.00     0.049 A 
ATOM     17  N   UNL     1       6.613   6.542   1.947  1.00  0.00    -0.248 NA
ATOM     18  C   UNL     1       5.744   4.570   2.846  1.00  0.00     0.031 C 
ATOM     19  C   UNL     1       4.743   5.548  -1.989  1.00  0.00     0.029 A 
ATOM     20  N   UNL     1       6.002   7.028  -0.882  1.00  0.00    -0.354 N 
ATOM     21  C   UNL     1       6.967   6.457   3.288  1.00  0.00     0.074 A 
ATOM     22  C   UNL     1       6.372   5.241   3.802  1.00  0.00     0.031 C 
ATOM     23  C   UNL     1       5.108   6.494  -2.864  1.00  0.00     0.029 A 
ATOM     24  C   UNL     1       5.900   7.499  -2.167  1.00  0.00     0.049 A 
ATOM     25  H   UNL     1       6.500   7.495  -0.173  1.00  0.00     0.167 HD
ATOM     26  C   UNL     1       7.720   7.313   4.020  1.00  0.00     0.031 A 
ATOM     27  C   UNL     1       6.372   8.628  -2.725  1.00  0.00     0.031 A 
ATOM     28  C   UNL     1       8.300   8.527   3.503  1.00  0.00     0.049 A 
ATOM     29  C   UNL     1       7.159   9.582  -1.878  1.00  0.00     0.074 A 
ATOM     30  C   UNL     1       9.105   9.445   4.156  1.00  0.00     0.029 A 
ATOM     31  N   UNL     1       8.129   8.998   2.209  1.00  0.00    -0.354 N 
ATOM     32  N   UNL     1       7.515   9.468  -0.622  1.00  0.00    -0.248 NA
ATOM     33  C   UNL     1       7.607  10.820  -2.527  1.00  0.00     0.031 C 
ATOM     34  C   UNL     1       9.368  10.501   3.277  1.00  0.00     0.029 A 
ATOM     35  C   UNL     1       8.784  10.209   2.055  1.00  0.00     0.049 A 
ATOM     36  H   UNL     1       7.618   8.539   1.504  1.00  0.00     0.167 HD
ATOM     37  C   UNL     1       8.245  10.612  -0.332  1.00  0.00     0.074 A 
ATOM     38  C   UNL     1       8.299  11.393  -1.552  1.00  0.00     0.031 C 
ATOM     39  C   UNL     1       8.818  10.982   0.839  1.00  0.00     0.031 A 
BRANCH  26  40
ATOM     40  C   UNL     1       7.928   6.987   5.475  1.00  0.00    -0.014 A 
ATOM     41  C   UNL     1       8.733   5.910   5.879  1.00  0.00     0.009 A 
ATOM     42  C   UNL     1       7.338   7.796   6.460  1.00  0.00     0.009 A 
ATOM     43  C   UNL     1       8.910   5.627   7.236  1.00  0.00     0.001 A 
ATOM     44  C   UNL     1       7.540   7.529   7.815  1.00  0.00     0.001 A 
ATOM     45  C   UNL     1       8.317   6.439   8.203  1.00  0.00     0.000 A 
ENDBRANCH  26  40
BRANCH  27  46
ATOM     46  C   UNL     1       6.092   8.914  -4.155  1.00  0.00    -0.014 A 
ATOM     47  C   UNL     1       7.123   8.882  -5.105  1.00  0.00     0.009 A 
ATOM     48  C   UNL     1       4.783   9.194  -4.580  1.00  0.00     0.009 A 
ATOM     49  C   UNL     1       6.851   9.144  -6.450  1.00  0.00     0.001 A 
ATOM     50  C   UNL     1       4.509   9.422  -5.929  1.00  0.00     0.001 A 
ATOM     51  C   UNL     1       5.545   9.406  -6.861  1.00  0.00     0.000 A 
ENDBRANCH  27  46
BRANCH  39  52
ATOM     52  C   UNL     1       9.577  12.279   0.844  1.00  0.00    -0.014 A 
ATOM     53  C   UNL     1       8.913  13.514   0.768  1.00  0.00     0.009 A 
ATOM     54  C   UNL     1      10.977  12.264   0.947  1.00  0.00     0.009 A 
ATOM     55  C   UNL     1       9.640  14.706   0.758  1.00  0.00     0.001 A 
ATOM     56  C   UNL     1      11.698  13.458   0.969  1.00  0.00     0.001 A 
ATOM     57  C   UNL     1      11.030  14.677   0.863  1.00  0.00     0.000 A 
ENDBRANCH  39  52
ENDBRANCH  13  14
ENDBRANCH   6   8
ENDBRANCH   3   4
ENDBRANCH   2   3
ENDBRANCH   1   2
BRANCH   1  58
ATOM     58  C   UNL     1       4.892  -4.173  -0.325  1.00  0.00     0.116 C 
BRANCH  58  59
ATOM     59  N   UNL     1       6.318  -4.417  -0.469  1.00  0.00    -0.356 N 
ATOM     60  C   UNL     1       6.973  -5.601  -0.672  1.00  0.00     0.225 C 
ATOM     61  H   UNL     1       6.892  -3.619  -0.413  1.00  0.00     0.163 HD
ATOM     62  O   UNL     1       8.193  -5.585  -0.828  1.00  0.00    -0.275 OA
BRANCH  60  63
ATOM     63  C   UNL     1       6.173  -6.897  -0.621  1.00  0.00     0.101 C 
BRANCH  63  64
ATOM     64  C   UNL     1       6.077  -7.316   0.850  1.00  0.00     0.015 C 
BRANCH  64  65
ATOM     65  C   UNL     1       5.225  -8.559   1.066  1.00  0.00     0.001 C 
BRANCH  65  66
ATOM     66  C   UNL     1       6.039  -9.845   1.023  1.00  0.00     0.000 CG0
ATOM     67  G   UNL     1       6.658 -10.202  -0.324  1.00  0.00     0.000 G0
ENDBRANCH  65  66
ENDBRANCH  64  65
ENDBRANCH  63  64
BRANCH  63  68
ATOM     68  C   UNL     1       6.724  -7.939  -1.618  1.00  0.00     0.094 C 
BRANCH  68  69
ATOM     69  C   UNL     1       7.500  -9.114  -1.000  1.00  0.00     0.026 C 
BRANCH  69  70
ATOM     70  C   UNL     1       6.658 -10.202  -0.324  1.00  0.00     0.002 CG0
ATOM     71  G   UNL     1       6.039  -9.845   1.023  1.00  0.00     0.000 G0
ENDBRANCH  69  70
ENDBRANCH  68  69
BRANCH  68  72
ATOM     72  N   UNL     1       5.603  -8.440  -2.433  1.00  0.00    -0.352 N 
ATOM     73  C   UNL     1       5.325  -8.252  -3.753  1.00  0.00     0.223 C 
ATOM     74  H   UNL     1       4.953  -8.997  -1.946  1.00  0.00     0.163 HD
ATOM     75  O   UNL     1       4.241  -8.620  -4.206  1.00  0.00    -0.275 OA
BRANCH  73  76
ATOM     76  C   UNL     1       6.334  -7.594  -4.615  1.00  0.00     0.078 C 
ATOM     77  C   UNL     1       5.966  -7.188  -6.027  1.00  0.00     0.014 C 
ATOM     78  C   UNL     1       6.193  -6.135  -4.984  1.00  0.00     0.014 C 
ENDBRANCH  73  76
ENDBRANCH  68  72
ENDBRANCH  63  68
ENDBRANCH  60  63
ENDBRANCH  58  59
ENDBRANCH   1  58
TORSDOF 13
