REMARK SMILES C[C@H]1CC[C@@](Nc2ccc(C(N)=O)nn2)(C(=O)NCCCCNC(=O)c2ccc(-c3c4nc(c(-c5ccccc5)c5ccc([nH]5)c(-c5ccccc5)c5nc(c(-c6ccccc6)c6ccc3[nH]6)C=C5)C=C4)cc2)CC1
REMARK SMILES IDX 20 1 19 2 18 3 16 4 17 5 5 7 1 8 2 9 75 10 3 11 74 12 4 13
REMARK SMILES IDX 6 14 7 16 8 17 15 18 9 19 14 20 10 21 11 22 12 23 13 24
REMARK SMILES IDX 21 27 22 28 23 29 24 30 25 32 26 33 27 34 73 35 28 36 72 37
REMARK SMILES IDX 29 38 30 39 31 40 66 41 32 42 71 43 65 44 67 45 33 46 70 47
REMARK SMILES IDX 64 48 63 49 34 51 56 52 41 53 55 54 42 55 45 56 54 57 68 58
REMARK SMILES IDX 43 59 44 60 53 62 69 63 46 64 35 65 36 66 40 67 37 68 39 69
REMARK SMILES IDX 38 70 57 71 58 72 62 73 59 74 61 75 60 76 47 77 48 78 52 79
REMARK SMILES IDX 49 80 51 81 50 82
REMARK H PARENT 18 6 6 15 12 25 12 26 23 31 67 50 45 61
REMARK Flexibility Score: inf
ROOT
ATOM      1  C   UNL     1      -2.386   3.699  -2.161  1.00  0.00     0.023 C 
ENDROOT
BRANCH   1   2
ATOM      2  C   UNL     1      -3.093   2.380  -1.878  1.00  0.00     0.116 C 
BRANCH   2   3
ATOM      3  N   UNL     1      -2.357   1.262  -2.434  1.00  0.00    -0.354 N 
ATOM      4  C   UNL     1      -1.848   0.144  -1.839  1.00  0.00     0.245 C 
ATOM      5  O   UNL     1      -1.383  -0.707  -2.605  1.00  0.00    -0.272 OA
ATOM      6  H   UNL     1      -2.196   1.318  -3.404  1.00  0.00     0.163 HD
BRANCH   4   7
ATOM      7  C   UNL     1      -1.895  -0.070  -0.280  1.00  0.00     0.118 C 
ATOM      8  C   UNL     1       2.500  -0.139  -0.036  1.00  0.00     0.007 C 
ATOM      9  C   UNL     1       1.047  -0.182   0.437  1.00  0.00    -0.014 C 
ATOM     10  C   UNL     1       0.321  -1.403  -0.144  1.00  0.00     0.006 C 
ATOM     11  C   UNL     1       0.339   1.123   0.074  1.00  0.00     0.006 C 
ATOM     12  C   UNL     1      -1.194  -1.397   0.112  1.00  0.00     0.039 C 
ATOM     13  C   UNL     1      -1.138   1.069   0.452  1.00  0.00     0.039 C 
BRANCH   7  14
ATOM     14  N   UNL     1      -3.292  -0.126   0.241  1.00  0.00    -0.354 N 
ATOM     15  H   UNL     1      -3.432  -0.034   1.212  1.00  0.00     0.163 HD
BRANCH  14  16
ATOM     16  C   UNL     1      -4.400  -0.301  -0.566  1.00  0.00     0.149 A 
ATOM     17  C   UNL     1      -4.478  -1.251  -1.574  1.00  0.00     0.051 A 
ATOM     18  N   UNL     1      -5.395   0.604  -0.418  1.00  0.00    -0.132 NA
ATOM     19  C   UNL     1      -5.515  -1.187  -2.504  1.00  0.00     0.040 A 
ATOM     20  N   UNL     1      -6.413   0.695  -1.338  1.00  0.00    -0.143 NA
ATOM     21  C   UNL     1      -6.445  -0.174  -2.373  1.00  0.00     0.150 A 
BRANCH  21  22
ATOM     22  C   UNL     1      -7.474   0.066  -3.423  1.00  0.00     0.269 C 
ATOM     23  N   UNL     1      -8.266   1.172  -3.260  1.00  0.00    -0.364 N 
ATOM     24  O   UNL     1      -7.589  -0.660  -4.404  1.00  0.00    -0.268 OA
ATOM     25  H   UNL     1      -8.157   1.742  -2.464  1.00  0.00     0.160 HD
ATOM     26  H   UNL     1      -8.944   1.397  -3.937  1.00  0.00     0.160 HD
ENDBRANCH  21  22
ENDBRANCH  14  16
ENDBRANCH   7  14
ENDBRANCH   4   7
ENDBRANCH   2   3
ENDBRANCH   1   2
BRANCH   1  27
ATOM     27  C   UNL     1      -2.393   4.099  -3.637  1.00  0.00     0.023 C 
BRANCH  27  28
ATOM     28  C   UNL     1      -3.775   4.154  -4.281  1.00  0.00     0.116 C 
BRANCH  28  29
ATOM     29  N   UNL     1      -4.689   5.051  -3.590  1.00  0.00    -0.352 N 
ATOM     30  C   UNL     1      -5.555   5.970  -4.129  1.00  0.00     0.251 C 
ATOM     31  H   UNL     1      -4.686   4.991  -2.607  1.00  0.00     0.163 HD
ATOM     32  O   UNL     1      -6.171   6.749  -3.411  1.00  0.00    -0.269 OA
BRANCH  30  33
ATOM     33  C   UNL     1      -5.711   6.029  -5.595  1.00  0.00     0.039 A 
ATOM     34  C   UNL     1      -5.570   7.259  -6.241  1.00  0.00     0.014 A 
ATOM     35  C   UNL     1      -5.946   4.862  -6.327  1.00  0.00     0.014 A 
ATOM     36  C   UNL     1      -5.598   7.308  -7.635  1.00  0.00     0.010 A 
ATOM     37  C   UNL     1      -5.901   4.903  -7.716  1.00  0.00     0.010 A 
ATOM     38  C   UNL     1      -5.726   6.125  -8.383  1.00  0.00    -0.014 A 
BRANCH  38  39
ATOM     39  C   UNL     1      -5.676   6.145  -9.865  1.00  0.00     0.031 A 
ATOM     40  C   UNL     1      -6.880   5.735 -10.666  1.00  0.00     0.074 A 
ATOM     41  C   UNL     1      -4.526   6.466 -10.490  1.00  0.00     0.049 A 
ATOM     42  N   UNL     1      -7.012   5.632 -11.964  1.00  0.00    -0.248 NA
ATOM     43  C   UNL     1      -8.088   5.370  -9.907  1.00  0.00     0.031 C 
ATOM     44  C   UNL     1      -3.275   6.841  -9.827  1.00  0.00     0.029 A 
ATOM     45  N   UNL     1      -4.223   6.521 -11.827  1.00  0.00    -0.354 N 
ATOM     46  C   UNL     1      -8.306   5.174 -12.175  1.00  0.00     0.074 A 
ATOM     47  C   UNL     1      -8.902   4.972 -10.873  1.00  0.00     0.031 C 
ATOM     48  C   UNL     1      -2.349   7.114 -10.760  1.00  0.00     0.029 A 
ATOM     49  C   UNL     1      -2.926   6.895 -12.082  1.00  0.00     0.049 A 
ATOM     50  H   UNL     1      -4.873   6.313 -12.536  1.00  0.00     0.167 HD
ATOM     51  C   UNL     1      -8.948   4.959 -13.347  1.00  0.00     0.031 A 
ATOM     52  C   UNL     1      -2.273   7.039 -13.251  1.00  0.00     0.031 A 
ATOM     53  C   UNL     1      -8.360   5.168 -14.642  1.00  0.00     0.049 A 
ATOM     54  C   UNL     1      -3.004   6.781 -14.538  1.00  0.00     0.074 A 
ATOM     55  C   UNL     1      -8.947   5.033 -15.888  1.00  0.00     0.029 A 
ATOM     56  N   UNL     1      -7.046   5.554 -14.858  1.00  0.00    -0.354 N 
ATOM     57  N   UNL     1      -4.250   6.417 -14.722  1.00  0.00    -0.248 NA
ATOM     58  C   UNL     1      -2.240   6.966 -15.780  1.00  0.00     0.031 C 
ATOM     59  C   UNL     1      -7.974   5.290 -16.859  1.00  0.00     0.029 A 
ATOM     60  C   UNL     1      -6.796   5.639 -16.217  1.00  0.00     0.049 A 
ATOM     61  H   UNL     1      -6.388   5.740 -14.149  1.00  0.00     0.167 HD
ATOM     62  C   UNL     1      -4.427   6.357 -16.098  1.00  0.00     0.074 A 
ATOM     63  C   UNL     1      -3.166   6.736 -16.701  1.00  0.00     0.031 C 
ATOM     64  C   UNL     1      -5.536   6.018 -16.800  1.00  0.00     0.031 A 
BRANCH  51  65
ATOM     65  C   UNL     1     -10.366   4.465 -13.276  1.00  0.00    -0.014 A 
ATOM     66  C   UNL     1     -11.405   5.296 -12.826  1.00  0.00     0.009 A 
ATOM     67  C   UNL     1     -10.673   3.160 -13.692  1.00  0.00     0.009 A 
ATOM     68  C   UNL     1     -12.715   4.818 -12.758  1.00  0.00     0.001 A 
ATOM     69  C   UNL     1     -11.989   2.695 -13.650  1.00  0.00     0.001 A 
ATOM     70  C   UNL     1     -13.006   3.520 -13.174  1.00  0.00     0.000 A 
ENDBRANCH  51  65
BRANCH  52  71
ATOM     71  C   UNL     1      -0.849   7.467 -13.261  1.00  0.00    -0.014 A 
ATOM     72  C   UNL     1      -0.495   8.747 -13.713  1.00  0.00     0.009 A 
ATOM     73  C   UNL     1       0.163   6.596 -12.828  1.00  0.00     0.009 A 
ATOM     74  C   UNL     1       0.845   9.137 -13.758  1.00  0.00     0.001 A 
ATOM     75  C   UNL     1       1.500   6.999 -12.847  1.00  0.00     0.001 A 
ATOM     76  C   UNL     1       1.841   8.264 -13.321  1.00  0.00     0.000 A 
ENDBRANCH  52  71
BRANCH  64  77
ATOM     77  C   UNL     1      -5.446   6.078 -18.299  1.00  0.00    -0.014 A 
ATOM     78  C   UNL     1      -4.717   5.124 -19.025  1.00  0.00     0.009 A 
ATOM     79  C   UNL     1      -6.135   7.084 -18.995  1.00  0.00     0.009 A 
ATOM     80  C   UNL     1      -4.655   5.195 -20.418  1.00  0.00     0.001 A 
ATOM     81  C   UNL     1      -6.095   7.135 -20.389  1.00  0.00     0.001 A 
ATOM     82  C   UNL     1      -5.348   6.197 -21.098  1.00  0.00     0.000 A 
ENDBRANCH  64  77
ENDBRANCH  38  39
ENDBRANCH  30  33
ENDBRANCH  28  29
ENDBRANCH  27  28
ENDBRANCH   1  27
TORSDOF 14
