REMARK SMILES O=C(NCCCCNC(=O)[C@H](CO)NC(=O)[C@H](CS)NC(=O)c1ccc(F)cc1)c1ccc(-c2c3nc(c(-c4ccccc4)c4ccc([nH]4)c(-c4ccccc4)c4nc(c(-c5ccccc5)c5ccc2[nH]5)C=C4)C=C3)cc1
REMARK SMILES IDX 6 1 5 2 4 3 3 4 1 5 2 6 30 8 31 9 77 10 32 11 76 12 33 13
REMARK SMILES IDX 34 14 35 15 70 16 36 17 75 18 69 19 71 20 37 21 74 22 68 23
REMARK SMILES IDX 67 24 38 26 60 27 45 28 59 29 46 30 49 31 58 32 72 33 47 34
REMARK SMILES IDX 48 35 57 37 73 38 50 39 39 40 40 41 44 42 41 43 43 44 42 45
REMARK SMILES IDX 61 46 62 47 66 48 63 49 65 50 64 51 51 52 52 53 56 54 53 55
REMARK SMILES IDX 55 56 54 57 7 58 8 59 9 60 10 62 11 63 14 64 15 65 16 67
REMARK SMILES IDX 17 68 20 69 21 70 22 72 23 73 24 74 29 75 25 76 28 77 26 78
REMARK SMILES IDX 27 79 18 80 19 81 12 83 13 84
REMARK H PARENT 3 7 71 25 49 36 8 61 14 66 20 71 19 82 13 85
REMARK Flexibility Score: inf
ROOT
ATOM      1  C   UNL     1       8.925  -6.837  10.184  1.00  0.00     0.023 C 
ENDROOT
BRANCH   1   2
ATOM      2  C   UNL     1       9.889  -6.902  11.351  1.00  0.00     0.023 C 
BRANCH   2   3
ATOM      3  C   UNL     1      10.764  -5.674  11.508  1.00  0.00     0.116 C 
BRANCH   3   4
ATOM      4  N   UNL     1      10.011  -4.432  11.636  1.00  0.00    -0.352 N 
ATOM      5  O   UNL     1       9.313  -2.524  12.642  1.00  0.00    -0.269 OA
ATOM      6  C   UNL     1      10.082  -3.478  12.623  1.00  0.00     0.251 C 
ATOM      7  H   UNL     1       9.363  -4.251  10.917  1.00  0.00     0.163 HD
BRANCH   6   8
ATOM      8  C   UNL     1      11.085  -3.645  13.690  1.00  0.00     0.039 A 
ATOM      9  C   UNL     1      12.401  -3.970  13.358  1.00  0.00     0.014 A 
ATOM     10  C   UNL     1      10.684  -3.559  15.024  1.00  0.00     0.014 A 
ATOM     11  C   UNL     1      13.266  -4.396  14.350  1.00  0.00     0.010 A 
ATOM     12  C   UNL     1      11.596  -3.872  16.031  1.00  0.00     0.010 A 
ATOM     13  C   UNL     1      12.881  -4.328  15.698  1.00  0.00    -0.014 A 
BRANCH  13  14
ATOM     14  C   UNL     1      13.872  -4.657  16.747  1.00  0.00     0.031 A 
ATOM     15  C   UNL     1      13.650  -5.791  17.703  1.00  0.00     0.074 A 
ATOM     16  C   UNL     1      14.985  -3.904  16.821  1.00  0.00     0.049 A 
ATOM     17  N   UNL     1      14.390  -6.164  18.716  1.00  0.00    -0.248 NA
ATOM     18  C   UNL     1      12.440  -6.605  17.509  1.00  0.00     0.031 C 
ATOM     19  C   UNL     1      15.298  -2.775  15.938  1.00  0.00     0.029 A 
ATOM     20  N   UNL     1      16.059  -3.972  17.666  1.00  0.00    -0.354 N 
ATOM     21  C   UNL     1      13.719  -7.228  19.304  1.00  0.00     0.074 A 
ATOM     22  C   UNL     1      12.509  -7.439  18.539  1.00  0.00     0.031 C 
ATOM     23  C   UNL     1      16.499  -2.282  16.264  1.00  0.00     0.029 A 
ATOM     24  C   UNL     1      16.998  -3.000  17.428  1.00  0.00     0.049 A 
ATOM     25  H   UNL     1      16.148  -4.650  18.374  1.00  0.00     0.167 HD
ATOM     26  C   UNL     1      14.081  -7.952  20.390  1.00  0.00     0.031 A 
ATOM     27  C   UNL     1      18.120  -2.686  18.097  1.00  0.00     0.031 A 
ATOM     28  C   UNL     1      15.292  -7.733  21.137  1.00  0.00     0.049 A 
ATOM     29  C   UNL     1      18.485  -3.486  19.306  1.00  0.00     0.074 A 
ATOM     30  C   UNL     1      15.774  -8.438  22.227  1.00  0.00     0.029 A 
ATOM     31  N   UNL     1      16.209  -6.726  20.874  1.00  0.00    -0.354 N 
ATOM     32  N   UNL     1      17.852  -4.503  19.838  1.00  0.00    -0.248 NA
ATOM     33  C   UNL     1      19.712  -3.095  20.010  1.00  0.00     0.031 C 
ATOM     34  C   UNL     1      16.958  -7.827  22.652  1.00  0.00     0.029 A 
ATOM     35  C   UNL     1      17.241  -6.772  21.798  1.00  0.00     0.049 A 
ATOM     36  H   UNL     1      16.138  -6.074  20.140  1.00  0.00     0.167 HD
ATOM     37  C   UNL     1      18.604  -4.881  20.939  1.00  0.00     0.074 A 
ATOM     38  C   UNL     1      19.751  -3.994  20.986  1.00  0.00     0.031 C 
ATOM     39  C   UNL     1      18.365  -5.872  21.830  1.00  0.00     0.031 A 
BRANCH  26  40
ATOM     40  C   UNL     1      13.130  -9.017  20.862  1.00  0.00    -0.014 A 
ATOM     41  C   UNL     1      12.952 -10.214  20.151  1.00  0.00     0.009 A 
ATOM     42  C   UNL     1      12.418  -8.827  22.057  1.00  0.00     0.009 A 
ATOM     43  C   UNL     1      12.052 -11.181  20.608  1.00  0.00     0.001 A 
ATOM     44  C   UNL     1      11.538  -9.805  22.525  1.00  0.00     0.001 A 
ATOM     45  C   UNL     1      11.348 -10.977  21.795  1.00  0.00     0.000 A 
ENDBRANCH  26  40
BRANCH  27  46
ATOM     46  C   UNL     1      18.929  -1.531  17.638  1.00  0.00    -0.014 A 
ATOM     47  C   UNL     1      20.146  -1.729  16.973  1.00  0.00     0.009 A 
ATOM     48  C   UNL     1      18.434  -0.223  17.782  1.00  0.00     0.009 A 
ATOM     49  C   UNL     1      20.853  -0.638  16.462  1.00  0.00     0.001 A 
ATOM     50  C   UNL     1      19.129   0.861  17.246  1.00  0.00     0.001 A 
ATOM     51  C   UNL     1      20.339   0.653  16.589  1.00  0.00     0.000 A 
ENDBRANCH  27  46
BRANCH  39  52
ATOM     52  C   UNL     1      19.377  -6.059  22.921  1.00  0.00    -0.014 A 
ATOM     53  C   UNL     1      19.429  -5.185  24.017  1.00  0.00     0.009 A 
ATOM     54  C   UNL     1      20.259  -7.149  22.870  1.00  0.00     0.009 A 
ATOM     55  C   UNL     1      20.363  -5.388  25.034  1.00  0.00     0.001 A 
ATOM     56  C   UNL     1      21.175  -7.362  23.900  1.00  0.00     0.001 A 
ATOM     57  C   UNL     1      21.231  -6.479  24.977  1.00  0.00     0.000 A 
ENDBRANCH  39  52
ENDBRANCH  13  14
ENDBRANCH   6   8
ENDBRANCH   3   4
ENDBRANCH   2   3
ENDBRANCH   1   2
BRANCH   1  58
ATOM     58  C   UNL     1       9.556  -6.619   8.812  1.00  0.00     0.116 C 
BRANCH  58  59
ATOM     59  N   UNL     1      10.152  -7.824   8.270  1.00  0.00    -0.354 N 
ATOM     60  C   UNL     1      10.041  -8.417   7.045  1.00  0.00     0.244 C 
ATOM     61  H   UNL     1      10.744  -8.300   8.897  1.00  0.00     0.163 HD
ATOM     62  O   UNL     1      10.692  -9.456   6.889  1.00  0.00    -0.273 OA
BRANCH  60  63
ATOM     63  C   UNL     1       9.008  -7.967   5.974  1.00  0.00     0.197 C 
BRANCH  63  64
ATOM     64  N   UNL     1       8.848  -6.518   5.822  1.00  0.00    -0.340 N 
ATOM     65  C   UNL     1       7.778  -5.696   6.014  1.00  0.00     0.244 C 
ATOM     66  H   UNL     1       9.665  -6.052   5.527  1.00  0.00     0.164 HD
ATOM     67  O   UNL     1       7.965  -4.480   5.904  1.00  0.00    -0.273 OA
BRANCH  65  68
ATOM     68  C   UNL     1       6.409  -6.244   6.472  1.00  0.00     0.181 C 
BRANCH  68  69
ATOM     69  N   UNL     1       6.170  -5.713   7.827  1.00  0.00    -0.339 N 
ATOM     70  C   UNL     1       5.652  -6.253   8.975  1.00  0.00     0.251 C 
ATOM     71  H   UNL     1       6.440  -4.771   7.928  1.00  0.00     0.164 HD
ATOM     72  O   UNL     1       5.334  -5.482   9.879  1.00  0.00    -0.269 OA
BRANCH  70  73
ATOM     73  C   UNL     1       5.525  -7.716   9.221  1.00  0.00     0.040 A 
ATOM     74  C   UNL     1       6.451  -8.640   8.732  1.00  0.00     0.017 A 
ATOM     75  C   UNL     1       4.574  -8.160  10.152  1.00  0.00     0.017 A 
ATOM     76  C   UNL     1       6.424  -9.980   9.122  1.00  0.00     0.040 A 
ATOM     77  C   UNL     1       4.545  -9.501  10.555  1.00  0.00     0.040 A 
ATOM     78  C   UNL     1       5.468 -10.399  10.034  1.00  0.00     0.123 A 
ATOM     79  F   UNL     1       5.467 -11.672  10.446  1.00  0.00    -0.207 F 
ENDBRANCH  70  73
ENDBRANCH  68  69
BRANCH  68  80
ATOM     80  C   UNL     1       5.337  -5.720   5.496  1.00  0.00     0.101 C 
BRANCH  80  81
ATOM     81  S   UNL     1       4.375  -7.090   4.770  1.00  0.00    -0.177 SA
ATOM     82  H   UNL     1       5.207  -7.910   4.075  1.00  0.00     0.102 HD
ENDBRANCH  80  81
ENDBRANCH  68  80
ENDBRANCH  65  68
ENDBRANCH  63  64
BRANCH  63  83
ATOM     83  C   UNL     1       9.367  -8.593   4.614  1.00  0.00     0.191 C 
BRANCH  83  84
ATOM     84  O   UNL     1      10.554  -8.007   4.082  1.00  0.00    -0.394 OA
ATOM     85  H   UNL     1      10.415  -7.056   3.950  1.00  0.00     0.210 HD
ENDBRANCH  83  84
ENDBRANCH  63  83
ENDBRANCH  60  63
ENDBRANCH  58  59
ENDBRANCH   1  58
TORSDOF 19
