REMARK SMILES Cc1cnc2nc(-c3cc(F)c(F)cc3C(=O)NCCCCNC(=O)c3ccc(-c4c5nc(c(-c6ccccc6)c6ccc([nH]6)c(-c6ccccc6)c6nc(c(-c7ccccc7)c7ccc4[nH]7)C=C6)C=C5)cc3)[nH]c2c1
REMARK SMILES IDX 21 1 20 2 19 3 18 4 16 5 17 6 15 8 8 9 9 10 10 11 14 12
REMARK SMILES IDX 11 13 12 14 13 15 7 16 1 17 2 18 3 19 76 20 4 21 75 22 5 23
REMARK SMILES IDX 74 24 6 25 22 27 23 28 24 29 25 31 26 32 27 33 73 34 28 35
REMARK SMILES IDX 72 36 29 37 30 38 31 39 66 40 32 41 71 42 65 43 67 44 33 45
REMARK SMILES IDX 70 46 64 47 63 48 34 50 56 51 41 52 55 53 42 54 45 55 54 56
REMARK SMILES IDX 68 57 43 58 44 59 53 61 69 62 46 63 35 64 36 65 40 66 37 67
REMARK SMILES IDX 39 68 38 69 57 70 58 71 62 72 59 73 61 74 60 75 47 76 48 77
REMARK SMILES IDX 52 78 49 79 51 80 50 81
REMARK H PARENT 18 7 74 26 23 30 67 49 45 60
REMARK Flexibility Score: inf
ROOT
ATOM      1  C   UNL     1      -3.301  -2.986  -1.001  1.00  0.00     0.023 C 
ENDROOT
BRANCH   1   2
ATOM      2  C   UNL     1      -3.086  -2.286  -2.341  1.00  0.00     0.023 C 
BRANCH   2   3
ATOM      3  C   UNL     1      -2.300  -3.016  -3.423  1.00  0.00     0.116 C 
BRANCH   3   4
ATOM      4  N   UNL     1      -2.946  -4.073  -4.146  1.00  0.00    -0.352 N 
ATOM      5  C   UNL     1      -2.829  -4.452  -5.467  1.00  0.00     0.252 C 
ATOM      6  O   UNL     1      -3.364  -5.531  -5.750  1.00  0.00    -0.269 OA
ATOM      7  H   UNL     1      -3.573  -4.615  -3.615  1.00  0.00     0.163 HD
BRANCH   5   8
ATOM      8  C   UNL     1      -2.244  -3.651  -6.612  1.00  0.00     0.053 A 
ATOM      9  C   UNL     1      -1.129  -2.775  -6.679  1.00  0.00     0.033 A 
ATOM     10  C   UNL     1      -0.788  -2.173  -7.918  1.00  0.00     0.055 A 
ATOM     11  C   UNL     1      -1.520  -2.418  -9.070  1.00  0.00     0.159 A 
ATOM     12  C   UNL     1      -2.956  -3.881  -7.823  1.00  0.00     0.057 A 
ATOM     13  F   UNL     1      -1.172  -1.812 -10.213  1.00  0.00    -0.204 F 
ATOM     14  C   UNL     1      -2.600  -3.272  -9.024  1.00  0.00     0.159 A 
ATOM     15  F   UNL     1      -3.317  -3.514 -10.129  1.00  0.00    -0.204 F 
BRANCH   9  16
ATOM     16  C   UNL     1      -0.268  -2.366  -5.573  1.00  0.00     0.141 A 
ATOM     17  C   UNL     1       1.482   0.509  -0.695  1.00  0.00     0.046 C 
ATOM     18  C   UNL     1       1.351  -0.410  -1.872  1.00  0.00    -0.031 A 
ATOM     19  C   UNL     1       1.919  -1.687  -1.855  1.00  0.00     0.117 A 
ATOM     20  C   UNL     1       0.579  -0.035  -2.973  1.00  0.00     0.035 A 
ATOM     21  N   UNL     1       1.769  -2.645  -2.804  1.00  0.00    -0.235 NA
ATOM     22  C   UNL     1       0.441  -1.007  -3.958  1.00  0.00     0.085 A 
ATOM     23  C   UNL     1       1.002  -2.271  -3.849  1.00  0.00     0.178 A 
ATOM     24  N   UNL     1      -0.245  -1.051  -5.138  1.00  0.00    -0.337 N 
ATOM     25  N   UNL     1       0.549  -3.102  -4.848  1.00  0.00    -0.209 NA
ATOM     26  H   UNL     1      -0.652  -0.282  -5.599  1.00  0.00     0.168 HD
ENDBRANCH   9  16
ENDBRANCH   5   8
ENDBRANCH   3   4
ENDBRANCH   2   3
ENDBRANCH   1   2
BRANCH   1  27
ATOM     27  C   UNL     1      -2.038  -3.458  -0.290  1.00  0.00     0.116 C 
BRANCH  27  28
ATOM     28  N   UNL     1      -1.135  -2.384   0.116  1.00  0.00    -0.352 N 
ATOM     29  C   UNL     1       0.007  -2.515   0.882  1.00  0.00     0.251 C 
ATOM     30  H   UNL     1      -1.362  -1.475  -0.188  1.00  0.00     0.163 HD
ATOM     31  O   UNL     1       0.533  -1.551   1.430  1.00  0.00    -0.269 OA
BRANCH  29  32
ATOM     32  C   UNL     1       0.584  -3.855   1.064  1.00  0.00     0.039 A 
ATOM     33  C   UNL     1       0.890  -4.309   2.348  1.00  0.00     0.014 A 
ATOM     34  C   UNL     1       0.730  -4.681  -0.049  1.00  0.00     0.014 A 
ATOM     35  C   UNL     1       1.209  -5.649   2.523  1.00  0.00     0.010 A 
ATOM     36  C   UNL     1       0.957  -6.027   0.134  1.00  0.00     0.010 A 
ATOM     37  C   UNL     1       1.185  -6.517   1.419  1.00  0.00    -0.014 A 
BRANCH  37  38
ATOM     38  C   UNL     1       1.197  -7.958   1.651  1.00  0.00     0.031 A 
ATOM     39  C   UNL     1       0.147  -8.464   2.589  1.00  0.00     0.074 A 
ATOM     40  C   UNL     1       1.917  -8.829   0.917  1.00  0.00     0.049 A 
ATOM     41  N   UNL     1       0.319  -9.093   3.705  1.00  0.00    -0.248 NA
ATOM     42  C   UNL     1      -1.263  -8.161   2.292  1.00  0.00     0.031 C 
ATOM     43  C   UNL     1       2.749  -8.568  -0.260  1.00  0.00     0.029 A 
ATOM     44  N   UNL     1       1.933 -10.185   1.008  1.00  0.00    -0.354 N 
ATOM     45  C   UNL     1      -0.952  -9.387   4.199  1.00  0.00     0.074 A 
ATOM     46  C   UNL     1      -1.885  -8.693   3.346  1.00  0.00     0.031 C 
ATOM     47  C   UNL     1       2.977  -9.731  -0.910  1.00  0.00     0.029 A 
ATOM     48  C   UNL     1       2.447 -10.821  -0.110  1.00  0.00     0.049 A 
ATOM     49  H   UNL     1       1.607 -10.673   1.799  1.00  0.00     0.167 HD
ATOM     50  C   UNL     1      -1.155 -10.314   5.177  1.00  0.00     0.031 A 
ATOM     51  C   UNL     1       2.393 -12.147  -0.379  1.00  0.00     0.031 A 
ATOM     52  C   UNL     1       0.073 -10.691   5.822  1.00  0.00     0.049 A 
ATOM     53  C   UNL     1       2.150 -12.851   0.902  1.00  0.00     0.074 A 
ATOM     54  C   UNL     1       1.026 -10.020   6.561  1.00  0.00     0.029 A 
ATOM     55  N   UNL     1       0.667 -11.863   5.417  1.00  0.00    -0.354 N 
ATOM     56  N   UNL     1       3.021 -12.891   1.871  1.00  0.00    -0.248 NA
ATOM     57  C   UNL     1       0.776 -13.132   1.291  1.00  0.00     0.031 C 
ATOM     58  C   UNL     1       2.268 -10.567   6.127  1.00  0.00     0.029 A 
ATOM     59  C   UNL     1       1.991 -11.579   5.205  1.00  0.00     0.049 A 
ATOM     60  H   UNL     1       0.227 -12.736   5.301  1.00  0.00     0.167 HD
ATOM     61  C   UNL     1       2.269 -12.756   3.029  1.00  0.00     0.074 A 
ATOM     62  C   UNL     1       0.891 -13.025   2.619  1.00  0.00     0.031 C 
ATOM     63  C   UNL     1       2.785 -12.159   4.145  1.00  0.00     0.031 A 
BRANCH  50  64
ATOM     64  C   UNL     1      -2.406 -11.139   5.337  1.00  0.00    -0.014 A 
ATOM     65  C   UNL     1      -2.521 -11.993   6.451  1.00  0.00     0.009 A 
ATOM     66  C   UNL     1      -3.341 -11.317   4.302  1.00  0.00     0.009 A 
ATOM     67  C   UNL     1      -3.477 -13.015   6.492  1.00  0.00     0.001 A 
ATOM     68  C   UNL     1      -4.322 -12.312   4.358  1.00  0.00     0.001 A 
ATOM     69  C   UNL     1      -4.372 -13.179   5.441  1.00  0.00     0.000 A 
ENDBRANCH  50  64
BRANCH  51  70
ATOM     70  C   UNL     1       2.304 -12.809  -1.696  1.00  0.00    -0.014 A 
ATOM     71  C   UNL     1       2.584 -14.175  -1.839  1.00  0.00     0.009 A 
ATOM     72  C   UNL     1       1.701 -12.147  -2.783  1.00  0.00     0.009 A 
ATOM     73  C   UNL     1       2.242 -14.860  -3.014  1.00  0.00     0.001 A 
ATOM     74  C   UNL     1       1.365 -12.827  -3.957  1.00  0.00     0.001 A 
ATOM     75  C   UNL     1       1.622 -14.189  -4.066  1.00  0.00     0.000 A 
ENDBRANCH  51  70
BRANCH  63  76
ATOM     76  C   UNL     1       4.253 -11.799   4.148  1.00  0.00    -0.014 A 
ATOM     77  C   UNL     1       4.814 -10.902   3.221  1.00  0.00     0.009 A 
ATOM     78  C   UNL     1       5.044 -12.212   5.230  1.00  0.00     0.009 A 
ATOM     79  C   UNL     1       6.130 -10.450   3.361  1.00  0.00     0.001 A 
ATOM     80  C   UNL     1       6.351 -11.744   5.382  1.00  0.00     0.001 A 
ATOM     81  C   UNL     1       6.895 -10.865   4.447  1.00  0.00     0.000 A 
ENDBRANCH  63  76
ENDBRANCH  37  38
ENDBRANCH  29  32
ENDBRANCH  27  28
ENDBRANCH   1  27
TORSDOF 12
