REMARK SMILES C[C@@H]1C[N@@H+](Cc2cccc(C(=O)NCCCCNC(=O)c3ccc(-c4c5nc(c(-c6ccccc6)c6ccc([nH]6)c(-c6ccccc6)c6nc(c(-c7ccccc7)c7ccc4[nH]7)C=C6)C=C5)cc3)c2)CCN1C(=O)OC(C)(C)C
REMARK SMILES IDX 14 1 13 2 11 3 12 4 10 6 6 7 7 8 69 9 8 10 9 11 5 12 4 13
REMARK SMILES IDX 1 14 2 15 3 16 72 17 71 18 70 19 73 21 74 22 75 23 76 24
REMARK SMILES IDX 77 25 78 26 79 27 15 28 16 29 17 30 18 31 19 32 20 34 21 35
REMARK SMILES IDX 22 36 68 37 23 38 67 39 24 40 25 41 26 42 61 43 27 44 66 45
REMARK SMILES IDX 60 46 62 47 28 48 65 49 59 50 58 51 29 53 51 54 36 55 50 56
REMARK SMILES IDX 37 57 40 58 49 59 63 60 38 61 39 62 48 64 64 65 41 66 30 67
REMARK SMILES IDX 31 68 35 69 32 70 34 71 33 72 52 73 53 74 57 75 54 76 56 77
REMARK SMILES IDX 55 78 42 79 43 80 47 81 44 82 46 83 45 84
REMARK H PARENT 13 5 4 20 18 33 62 52 40 63
REMARK Flexibility Score: inf
ROOT
ATOM      1  C   UNL     1       3.748   0.826  -6.154  1.00  0.00     0.116 C 
ENDROOT
BRANCH   1   2
ATOM      2  N   UNL     1       3.507   0.104  -7.383  1.00  0.00    -0.352 N 
ATOM      3  C   UNL     1       2.980  -1.141  -7.630  1.00  0.00     0.251 C 
ATOM      4  O   UNL     1       2.801  -1.446  -8.811  1.00  0.00    -0.269 OA
ATOM      5  H   UNL     1       3.769   0.596  -8.194  1.00  0.00     0.163 HD
BRANCH   3   6
ATOM      6  C   UNL     1       2.552  -2.097  -6.560  1.00  0.00     0.040 A 
ATOM      7  C   UNL     1       2.448  -2.895  -4.245  1.00  0.00     0.007 A 
ATOM      8  C   UNL     1       1.461  -3.816  -4.615  1.00  0.00     0.009 A 
ATOM      9  C   UNL     1       3.055  -2.120  -5.255  1.00  0.00     0.023 A 
ATOM     10  C   UNL     1       1.043  -3.903  -5.943  1.00  0.00     0.001 A 
ATOM     11  C   UNL     1       1.559  -3.026  -6.899  1.00  0.00     0.014 A 
BRANCH   7  12
ATOM     12  C   UNL     1       2.812  -2.699  -2.780  1.00  0.00     0.299 C 
BRANCH  12  13
ATOM     13  N   UNL     1       2.287  -1.482  -2.111  1.00  0.00    -0.328 N 
ATOM     14  C   UNL     1       0.520  -0.112   0.136  1.00  0.00     0.037 C 
ATOM     15  C   UNL     1       0.256  -0.123  -1.373  1.00  0.00     0.140 C 
ATOM     16  C   UNL     1       0.806  -1.431  -2.041  1.00  0.00     0.287 C 
ATOM     17  N   UNL     1       0.863   1.059  -2.016  1.00  0.00    -0.294 N 
ATOM     18  C   UNL     1       2.322   1.048  -2.045  1.00  0.00     0.185 C 
ATOM     19  C   UNL     1       2.799  -0.242  -2.719  1.00  0.00     0.284 C 
ATOM     20  H   UNL     1       2.635  -1.549  -1.155  1.00  0.00     0.348 HD
BRANCH  17  21
ATOM     21  C   UNL     1       0.184   2.006  -2.764  1.00  0.00     0.410 C 
ATOM     22  O   UNL     1       0.756   2.866  -3.423  1.00  0.00    -0.224 OA
BRANCH  21  23
ATOM     23  O   UNL     1      -1.168   1.880  -2.690  1.00  0.00    -0.444 OA
BRANCH  23  24
ATOM     24  C   UNL     1      -2.031   2.842  -3.361  1.00  0.00     0.106 C 
ATOM     25  C   UNL     1      -1.829   4.258  -2.804  1.00  0.00     0.056 C 
ATOM     26  C   UNL     1      -1.859   2.803  -4.885  1.00  0.00     0.056 C 
ATOM     27  C   UNL     1      -3.465   2.397  -3.029  1.00  0.00     0.056 C 
ENDBRANCH  23  24
ENDBRANCH  21  23
ENDBRANCH  17  21
ENDBRANCH  12  13
ENDBRANCH   7  12
ENDBRANCH   3   6
ENDBRANCH   1   2
BRANCH   1  28
ATOM     28  C   UNL     1       5.211   0.718  -5.718  1.00  0.00     0.023 C 
BRANCH  28  29
ATOM     29  C   UNL     1       6.090   1.818  -6.306  1.00  0.00     0.023 C 
BRANCH  29  30
ATOM     30  C   UNL     1       5.750   3.216  -5.808  1.00  0.00     0.116 C 
BRANCH  30  31
ATOM     31  N   UNL     1       5.981   3.404  -4.381  1.00  0.00    -0.352 N 
ATOM     32  C   UNL     1       6.437   4.544  -3.757  1.00  0.00     0.251 C 
ATOM     33  H   UNL     1       5.792   2.631  -3.801  1.00  0.00     0.163 HD
ATOM     34  O   UNL     1       6.679   4.566  -2.557  1.00  0.00    -0.269 OA
BRANCH  32  35
ATOM     35  C   UNL     1       6.675   5.732  -4.599  1.00  0.00     0.039 A 
ATOM     36  C   UNL     1       7.964   6.262  -4.678  1.00  0.00     0.014 A 
ATOM     37  C   UNL     1       5.652   6.197  -5.429  1.00  0.00     0.014 A 
ATOM     38  C   UNL     1       8.252   7.208  -5.664  1.00  0.00     0.010 A 
ATOM     39  C   UNL     1       5.964   7.069  -6.461  1.00  0.00     0.010 A 
ATOM     40  C   UNL     1       7.268   7.578  -6.595  1.00  0.00    -0.014 A 
BRANCH  40  41
ATOM     41  C   UNL     1       7.555   8.498  -7.723  1.00  0.00     0.031 A 
ATOM     42  C   UNL     1       6.806   9.796  -7.822  1.00  0.00     0.074 A 
ATOM     43  C   UNL     1       8.402   8.130  -8.704  1.00  0.00     0.049 A 
ATOM     44  N   UNL     1       6.784  10.668  -8.798  1.00  0.00    -0.248 NA
ATOM     45  C   UNL     1       5.939  10.142  -6.684  1.00  0.00     0.031 C 
ATOM     46  C   UNL     1       9.182   6.890  -8.739  1.00  0.00     0.029 A 
ATOM     47  N   UNL     1       8.736   8.762  -9.877  1.00  0.00    -0.354 N 
ATOM     48  C   UNL     1       5.884  11.649  -8.400  1.00  0.00     0.074 A 
ATOM     49  C   UNL     1       5.339  11.236  -7.126  1.00  0.00     0.031 C 
ATOM     50  C   UNL     1       9.919   6.866  -9.861  1.00  0.00     0.029 A 
ATOM     51  C   UNL     1       9.623   8.056 -10.652  1.00  0.00     0.049 A 
ATOM     52  H   UNL     1       8.373   9.640 -10.137  1.00  0.00     0.167 HD
ATOM     53  C   UNL     1       5.554  12.802  -9.029  1.00  0.00     0.031 A 
ATOM     54  C   UNL     1      10.127   8.328 -11.872  1.00  0.00     0.031 A 
ATOM     55  C   UNL     1       6.096  13.210 -10.296  1.00  0.00     0.049 A 
ATOM     56  C   UNL     1       9.702   9.587 -12.579  1.00  0.00     0.074 A 
ATOM     57  C   UNL     1       5.854  14.376 -11.001  1.00  0.00     0.029 A 
ATOM     58  N   UNL     1       6.989  12.463 -11.049  1.00  0.00    -0.354 N 
ATOM     59  N   UNL     1       8.884  10.528 -12.172  1.00  0.00    -0.248 NA
ATOM     60  C   UNL     1      10.274   9.822 -13.913  1.00  0.00     0.031 C 
ATOM     61  C   UNL     1       6.554  14.307 -12.209  1.00  0.00     0.029 A 
ATOM     62  C   UNL     1       7.289  13.132 -12.223  1.00  0.00     0.049 A 
ATOM     63  H   UNL     1       7.354  11.587 -10.788  1.00  0.00     0.167 HD
ATOM     64  C   UNL     1       8.877  11.486 -13.179  1.00  0.00     0.074 A 
ATOM     65  C   UNL     1       9.774  11.013 -14.213  1.00  0.00     0.031 C 
ATOM     66  C   UNL     1       8.195  12.655 -13.237  1.00  0.00     0.031 A 
BRANCH  53  67
ATOM     67  C   UNL     1       4.544  13.688  -8.352  1.00  0.00    -0.014 A 
ATOM     68  C   UNL     1       4.840  14.340  -7.144  1.00  0.00     0.009 A 
ATOM     69  C   UNL     1       3.282  13.879  -8.934  1.00  0.00     0.009 A 
ATOM     70  C   UNL     1       3.875  15.123  -6.507  1.00  0.00     0.001 A 
ATOM     71  C   UNL     1       2.332  14.693  -8.314  1.00  0.00     0.001 A 
ATOM     72  C   UNL     1       2.624  15.302  -7.095  1.00  0.00     0.000 A 
ENDBRANCH  53  67
BRANCH  54  73
ATOM     73  C   UNL     1      11.103   7.400 -12.504  1.00  0.00    -0.014 A 
ATOM     74  C   UNL     1      12.442   7.787 -12.672  1.00  0.00     0.009 A 
ATOM     75  C   UNL     1      10.706   6.131 -12.953  1.00  0.00     0.009 A 
ATOM     76  C   UNL     1      13.354   6.936 -13.301  1.00  0.00     0.001 A 
ATOM     77  C   UNL     1      11.627   5.269 -13.553  1.00  0.00     0.001 A 
ATOM     78  C   UNL     1      12.948   5.676 -13.736  1.00  0.00     0.000 A 
ENDBRANCH  54  73
BRANCH  66  79
ATOM     79  C   UNL     1       8.435  13.544 -14.425  1.00  0.00    -0.014 A 
ATOM     80  C   UNL     1       7.941  13.224 -15.698  1.00  0.00     0.009 A 
ATOM     81  C   UNL     1       9.113  14.762 -14.245  1.00  0.00     0.009 A 
ATOM     82  C   UNL     1       8.142  14.094 -16.772  1.00  0.00     0.001 A 
ATOM     83  C   UNL     1       9.284  15.644 -15.312  1.00  0.00     0.001 A 
ATOM     84  C   UNL     1       8.805  15.306 -16.576  1.00  0.00     0.000 A 
ENDBRANCH  66  79
ENDBRANCH  40  41
ENDBRANCH  32  35
ENDBRANCH  30  31
ENDBRANCH  29  30
ENDBRANCH  28  29
ENDBRANCH   1  28
TORSDOF 16
