REMARK SMILES CCOc1cc(C=O)ccc1OCc1ccc(C(=O)NCCCCNC(=O)c2ccc(-c3c4nc(c(-c5ccccc5)c5ccc([nH]5)c(-c5ccccc5)c5nc(c(-c6ccccc6)c6ccc3[nH]6)C=C5)C=C4)cc2)cc1
REMARK SMILES IDX 21 1 20 2 18 3 19 4 17 6 14 7 15 8 77 9 16 10 76 11 13 12
REMARK SMILES IDX 12 13 11 14 4 15 5 16 6 17 10 18 9 19 3 20 2 21 1 22 7 23
REMARK SMILES IDX 8 24 22 25 23 26 24 27 25 28 26 29 27 31 28 32 29 33 75 34
REMARK SMILES IDX 30 35 74 36 31 37 32 38 33 39 68 40 34 41 73 42 67 43 69 44
REMARK SMILES IDX 35 45 72 46 66 47 65 48 36 50 58 51 43 52 57 53 44 54 47 55
REMARK SMILES IDX 56 56 70 57 45 58 46 59 55 61 71 62 48 63 37 64 38 65 42 66
REMARK SMILES IDX 39 67 41 68 40 69 59 70 60 71 64 72 61 73 63 74 62 75 49 76
REMARK SMILES IDX 50 77 54 78 51 79 53 80 52 81
REMARK H PARENT 20 5 25 30 69 49 47 60
REMARK Flexibility Score: inf
ROOT
ATOM      1  C   UNL     1      -0.071  -2.679   5.811  1.00  0.00     0.116 C 
ENDROOT
BRANCH   1   2
ATOM      2  N   UNL     1       0.091  -1.281   6.123  1.00  0.00    -0.352 N 
ATOM      3  C   UNL     1       0.753  -0.274   5.472  1.00  0.00     0.251 C 
ATOM      4  O   UNL     1       0.760   0.823   6.037  1.00  0.00    -0.269 OA
ATOM      5  H   UNL     1      -0.355  -0.999   6.954  1.00  0.00     0.163 HD
BRANCH   3   6
ATOM      6  C   UNL     1       1.423  -0.416   4.137  1.00  0.00     0.039 A 
ATOM      7  C   UNL     1       2.514  -0.360   1.490  1.00  0.00    -0.011 A 
ATOM      8  C   UNL     1       2.512   0.773   2.310  1.00  0.00     0.008 A 
ATOM      9  C   UNL     1       2.061  -1.548   2.066  1.00  0.00     0.008 A 
ATOM     10  C   UNL     1       1.958   0.754   3.596  1.00  0.00     0.014 A 
ATOM     11  C   UNL     1       1.541  -1.575   3.366  1.00  0.00     0.014 A 
BRANCH   7  12
ATOM     12  C   UNL     1       2.793  -0.370  -0.013  1.00  0.00     0.265 C 
BRANCH  12  13
ATOM     13  O   UNL     1       3.782   0.491  -0.580  1.00  0.00    -0.485 OA
BRANCH  13  14
ATOM     14  C   UNL     1       3.647   1.840  -0.410  1.00  0.00     0.161 A 
ATOM     15  C   UNL     1       2.445   2.569  -0.355  1.00  0.00     0.161 A 
ATOM     16  C   UNL     1       2.478   3.888   0.112  1.00  0.00     0.062 A 
ATOM     17  C   UNL     1       3.702   4.462   0.490  1.00  0.00     0.018 A 
ATOM     18  C   UNL     1       4.871   2.463  -0.141  1.00  0.00     0.051 A 
ATOM     19  C   UNL     1       4.903   3.771   0.323  1.00  0.00     0.015 A 
BRANCH  15  20
ATOM     20  O   UNL     1       1.295   1.952  -0.763  1.00  0.00    -0.490 OA
BRANCH  20  21
ATOM     21  C   UNL     1       0.127   2.176   0.034  1.00  0.00     0.226 C 
ATOM     22  C   UNL     1      -0.775   0.959  -0.125  1.00  0.00     0.049 C 
ENDBRANCH  20  21
ENDBRANCH  15  20
BRANCH  17  23
ATOM     23  C   UNL     1       3.748   5.793   1.126  1.00  0.00     0.260 C 
ATOM     24  O   UNL     1       2.732   6.411   1.412  1.00  0.00    -0.298 OA
ENDBRANCH  17  23
ENDBRANCH  13  14
ENDBRANCH  12  13
ENDBRANCH   7  12
ENDBRANCH   3   6
ENDBRANCH   1   2
BRANCH   1  25
ATOM     25  C   UNL     1       1.224  -3.447   6.084  1.00  0.00     0.023 C 
BRANCH  25  26
ATOM     26  C   UNL     1       1.413  -3.843   7.545  1.00  0.00     0.023 C 
BRANCH  26  27
ATOM     27  C   UNL     1       0.319  -4.747   8.090  1.00  0.00     0.116 C 
BRANCH  27  28
ATOM     28  N   UNL     1       0.088  -5.931   7.275  1.00  0.00    -0.352 N 
ATOM     29  C   UNL     1      -0.398  -7.150   7.681  1.00  0.00     0.251 C 
ATOM     30  H   UNL     1       0.307  -5.848   6.319  1.00  0.00     0.163 HD
ATOM     31  O   UNL     1      -0.454  -8.098   6.913  1.00  0.00    -0.269 OA
BRANCH  29  32
ATOM     32  C   UNL     1      -0.806  -7.294   9.089  1.00  0.00     0.039 A 
ATOM     33  C   UNL     1      -0.220  -8.299   9.857  1.00  0.00     0.014 A 
ATOM     34  C   UNL     1      -1.691  -6.374   9.658  1.00  0.00     0.014 A 
ATOM     35  C   UNL     1      -0.476  -8.344  11.226  1.00  0.00     0.010 A 
ATOM     36  C   UNL     1      -1.881  -6.372  11.031  1.00  0.00     0.010 A 
ATOM     37  C   UNL     1      -1.279  -7.360  11.826  1.00  0.00    -0.014 A 
BRANCH  37  38
ATOM     38  C   UNL     1      -1.512  -7.350  13.287  1.00  0.00     0.031 A 
ATOM     39  C   UNL     1      -2.898  -7.573  13.822  1.00  0.00     0.074 A 
ATOM     40  C   UNL     1      -0.492  -7.077  14.123  1.00  0.00     0.049 A 
ATOM     41  N   UNL     1      -3.316  -7.552  15.061  1.00  0.00    -0.248 NA
ATOM     42  C   UNL     1      -3.959  -7.824  12.832  1.00  0.00     0.031 C 
ATOM     43  C   UNL     1       0.887  -6.796  13.718  1.00  0.00     0.029 A 
ATOM     44  N   UNL     1      -0.462  -6.987  15.491  1.00  0.00    -0.354 N 
ATOM     45  C   UNL     1      -4.686  -7.768  14.997  1.00  0.00     0.074 A 
ATOM     46  C   UNL     1      -5.038  -7.864  13.598  1.00  0.00     0.031 C 
ATOM     47  C   UNL     1       1.634  -6.594  14.816  1.00  0.00     0.029 A 
ATOM     48  C   UNL     1       0.781  -6.695  15.995  1.00  0.00     0.049 A 
ATOM     49  H   UNL     1      -1.257  -7.118  16.057  1.00  0.00     0.167 HD
ATOM     50  C   UNL     1      -5.570  -7.898  16.014  1.00  0.00     0.031 A 
ATOM     51  C   UNL     1       1.186  -6.527  17.268  1.00  0.00     0.031 A 
ATOM     52  C   UNL     1      -5.214  -7.818  17.404  1.00  0.00     0.049 A 
ATOM     53  C   UNL     1       0.185  -6.676  18.379  1.00  0.00     0.074 A 
ATOM     54  C   UNL     1      -6.023  -7.996  18.512  1.00  0.00     0.029 A 
ATOM     55  N   UNL     1      -3.941  -7.536  17.875  1.00  0.00    -0.354 N 
ATOM     56  N   UNL     1      -1.094  -6.954  18.306  1.00  0.00    -0.248 NA
ATOM     57  C   UNL     1       0.688  -6.500  19.748  1.00  0.00     0.031 C 
ATOM     58  C   UNL     1      -5.248  -7.776  19.655  1.00  0.00     0.029 A 
ATOM     59  C   UNL     1      -3.946  -7.513  19.259  1.00  0.00     0.049 A 
ATOM     60  H   UNL     1      -3.152  -7.375  17.309  1.00  0.00     0.167 HD
ATOM     61  C   UNL     1      -1.543  -7.013  19.619  1.00  0.00     0.074 A 
ATOM     62  C   UNL     1      -0.396  -6.758  20.466  1.00  0.00     0.031 C 
ATOM     63  C   UNL     1      -2.793  -7.257  20.082  1.00  0.00     0.031 A 
BRANCH  50  64
ATOM     64  C   UNL     1      -7.008  -8.138  15.650  1.00  0.00    -0.014 A 
ATOM     65  C   UNL     1      -7.423  -9.358  15.091  1.00  0.00     0.009 A 
ATOM     66  C   UNL     1      -7.964  -7.139  15.888  1.00  0.00     0.009 A 
ATOM     67  C   UNL     1      -8.760  -9.558  14.743  1.00  0.00     0.001 A 
ATOM     68  C   UNL     1      -9.306  -7.354  15.566  1.00  0.00     0.001 A 
ATOM     69  C   UNL     1      -9.700  -8.558  14.985  1.00  0.00     0.000 A 
ENDBRANCH  50  64
BRANCH  51  70
ATOM     70  C   UNL     1       2.610  -6.224  17.563  1.00  0.00    -0.014 A 
ATOM     71  C   UNL     1       3.434  -7.191  18.161  1.00  0.00     0.009 A 
ATOM     72  C   UNL     1       3.153  -4.967  17.255  1.00  0.00     0.009 A 
ATOM     73  C   UNL     1       4.764  -6.895  18.468  1.00  0.00     0.001 A 
ATOM     74  C   UNL     1       4.491  -4.684  17.538  1.00  0.00     0.001 A 
ATOM     75  C   UNL     1       5.292  -5.645  18.154  1.00  0.00     0.000 A 
ENDBRANCH  51  70
BRANCH  63  76
ATOM     76  C   UNL     1      -2.976  -7.294  21.572  1.00  0.00    -0.014 A 
ATOM     77  C   UNL     1      -2.949  -6.119  22.339  1.00  0.00     0.009 A 
ATOM     78  C   UNL     1      -3.222  -8.520  22.210  1.00  0.00     0.009 A 
ATOM     79  C   UNL     1      -3.134  -6.176  23.721  1.00  0.00     0.001 A 
ATOM     80  C   UNL     1      -3.435  -8.570  23.588  1.00  0.00     0.001 A 
ATOM     81  C   UNL     1      -3.381  -7.399  24.343  1.00  0.00     0.000 A 
ENDBRANCH  63  76
ENDBRANCH  37  38
ENDBRANCH  29  32
ENDBRANCH  27  28
ENDBRANCH  26  27
ENDBRANCH  25  26
ENDBRANCH   1  25
TORSDOF 17
