REMARK SMILES CCC[NH2+][C@]1(C(=O)NCCCCNC(=O)c2ccc(-c3c4nc(c(-c5ccccc5)c5ccc([nH]5)c(-c5ccccc5)c5nc(c(-c6ccccc6)c6ccc3[nH]6)C=C5)C=C4)cc2)CC[C@@H](Sc2nnc(C)n2C)C1
REMARK SMILES IDX 10 1 9 2 8 3 6 4 7 5 5 7 64 8 75 9 65 10 66 11 4 12 3 15
REMARK SMILES IDX 2 16 1 17 67 18 68 19 69 20 73 21 70 22 71 23 74 24 72 25
REMARK SMILES IDX 11 26 12 27 13 28 14 29 15 31 16 32 17 33 63 34 18 35 62 36
REMARK SMILES IDX 19 37 20 38 21 39 56 40 22 41 61 42 55 43 57 44 23 45 60 46
REMARK SMILES IDX 54 47 53 48 24 50 46 51 31 52 45 53 32 54 35 55 44 56 58 57
REMARK SMILES IDX 33 58 34 59 43 61 59 62 36 63 25 64 26 65 30 66 27 67 29 68
REMARK SMILES IDX 28 69 47 70 48 71 52 72 49 73 51 74 50 75 37 76 38 77 42 78
REMARK SMILES IDX 39 79 41 80 40 81
REMARK H PARENT 8 6 4 13 4 14 13 30 57 49 35 60
REMARK Flexibility Score: inf
ROOT
ATOM      1  C   UNL     1      -2.101   3.698  -0.628  1.00  0.00     0.023 C 
ENDROOT
BRANCH   1   2
ATOM      2  C   UNL     1      -1.921   3.213   0.804  1.00  0.00     0.116 C 
BRANCH   2   3
ATOM      3  N   UNL     1      -0.756   2.356   0.852  1.00  0.00    -0.351 N 
ATOM      4  C   UNL     1       0.571   2.622   1.011  1.00  0.00     0.281 C 
ATOM      5  O   UNL     1       1.323   1.693   0.690  1.00  0.00    -0.268 OA
ATOM      6  H   UNL     1      -0.961   1.398   0.751  1.00  0.00     0.163 HD
BRANCH   4   7
ATOM      7  C   UNL     1       1.127   3.933   1.673  1.00  0.00     0.176 C 
ATOM      8  C   UNL     1       2.571   4.098   1.121  1.00  0.00     0.080 C 
ATOM      9  C   UNL     1       0.514   5.285   1.256  1.00  0.00     0.094 C 
ATOM     10  C   UNL     1       2.963   5.553   1.316  1.00  0.00     0.022 C 
ATOM     11  C   UNL     1       1.654   6.324   1.217  1.00  0.00     0.062 C 
BRANCH   7  12
ATOM     12  N   UNL     1       1.190   3.784   3.156  1.00  0.00    -0.334 N 
ATOM     13  H   UNL     1       1.979   3.179   3.381  1.00  0.00     0.347 HD
ATOM     14  H   UNL     1       1.282   4.726   3.535  1.00  0.00     0.347 HD
BRANCH  12  15
ATOM     15  C   UNL     1      -0.011   3.211   3.769  1.00  0.00     0.261 C 
BRANCH  15  16
ATOM     16  C   UNL     1       0.084   3.078   5.291  1.00  0.00     0.058 C 
ATOM     17  C   UNL     1      -0.005   4.405   6.023  1.00  0.00     0.010 C 
ENDBRANCH  15  16
ENDBRANCH  12  15
ENDBRANCH   7  12
BRANCH  11  18
ATOM     18  S   UNL     1       1.518   7.548  -0.136  1.00  0.00    -0.082 SA
BRANCH  18  19
ATOM     19  C   UNL     1       2.007   6.729  -1.580  1.00  0.00     0.191 A 
ATOM     20  N   UNL     1       3.219   6.696  -2.084  1.00  0.00    -0.123 NA
ATOM     21  N   UNL     1       1.147   6.141  -2.461  1.00  0.00    -0.309 N 
ATOM     22  N   UNL     1       3.164   5.997  -3.276  1.00  0.00    -0.135 NA
ATOM     23  C   UNL     1       1.915   5.630  -3.477  1.00  0.00     0.130 A 
ATOM     24  C   UNL     1      -0.255   5.899  -2.302  1.00  0.00     0.154 C 
ATOM     25  C   UNL     1       1.383   4.772  -4.565  1.00  0.00     0.090 C 
ENDBRANCH  18  19
ENDBRANCH  11  18
ENDBRANCH   4   7
ENDBRANCH   2   3
ENDBRANCH   1   2
BRANCH   1  26
ATOM     26  C   UNL     1      -3.350   3.228  -1.343  1.00  0.00     0.023 C 
BRANCH  26  27
ATOM     27  C   UNL     1      -4.624   3.841  -0.805  1.00  0.00     0.116 C 
BRANCH  27  28
ATOM     28  N   UNL     1      -4.705   5.292  -0.959  1.00  0.00    -0.352 N 
ATOM     29  C   UNL     1      -5.781   6.050  -1.385  1.00  0.00     0.251 C 
ATOM     30  H   UNL     1      -3.890   5.794  -0.731  1.00  0.00     0.163 HD
ATOM     31  O   UNL     1      -5.688   7.254  -1.526  1.00  0.00    -0.269 OA
BRANCH  29  32
ATOM     32  C   UNL     1      -7.031   5.335  -1.723  1.00  0.00     0.039 A 
ATOM     33  C   UNL     1      -7.596   5.512  -2.986  1.00  0.00     0.014 A 
ATOM     34  C   UNL     1      -7.510   4.356  -0.856  1.00  0.00     0.014 A 
ATOM     35  C   UNL     1      -8.568   4.611  -3.426  1.00  0.00     0.010 A 
ATOM     36  C   UNL     1      -8.355   3.378  -1.353  1.00  0.00     0.010 A 
ATOM     37  C   UNL     1      -8.902   3.494  -2.641  1.00  0.00    -0.014 A 
BRANCH  37  38
ATOM     38  C   UNL     1      -9.827   2.436  -3.123  1.00  0.00     0.031 A 
ATOM     39  C   UNL     1     -11.036   2.080  -2.296  1.00  0.00     0.074 A 
ATOM     40  C   UNL     1      -9.537   1.727  -4.232  1.00  0.00     0.049 A 
ATOM     41  N   UNL     1     -11.890   1.102  -2.457  1.00  0.00    -0.248 NA
ATOM     42  C   UNL     1     -11.280   2.893  -1.091  1.00  0.00     0.031 C 
ATOM     43  C   UNL     1      -8.357   1.905  -5.083  1.00  0.00     0.029 A 
ATOM     44  N   UNL     1     -10.222   0.702  -4.836  1.00  0.00    -0.354 N 
ATOM     45  C   UNL     1     -12.724   1.151  -1.347  1.00  0.00     0.074 A 
ATOM     46  C   UNL     1     -12.233   2.202  -0.488  1.00  0.00     0.031 C 
ATOM     47  C   UNL     1      -8.431   1.061  -6.125  1.00  0.00     0.029 A 
ATOM     48  C   UNL     1      -9.639   0.255  -5.998  1.00  0.00     0.049 A 
ATOM     49  H   UNL     1     -11.054   0.322  -4.472  1.00  0.00     0.167 HD
ATOM     50  C   UNL     1     -13.829   0.416  -1.080  1.00  0.00     0.031 A 
ATOM     51  C   UNL     1     -10.042  -0.691  -6.867  1.00  0.00     0.031 A 
ATOM     52  C   UNL     1     -14.369  -0.569  -1.974  1.00  0.00     0.049 A 
ATOM     53  C   UNL     1     -11.323  -1.431  -6.600  1.00  0.00     0.074 A 
ATOM     54  C   UNL     1     -15.535  -1.301  -1.849  1.00  0.00     0.029 A 
ATOM     55  N   UNL     1     -13.786  -0.937  -3.176  1.00  0.00    -0.354 N 
ATOM     56  N   UNL     1     -12.139  -1.326  -5.579  1.00  0.00    -0.248 NA
ATOM     57  C   UNL     1     -11.746  -2.407  -7.614  1.00  0.00     0.031 C 
ATOM     58  C   UNL     1     -15.648  -2.130  -2.970  1.00  0.00     0.029 A 
ATOM     59  C   UNL     1     -14.569  -1.886  -3.806  1.00  0.00     0.049 A 
ATOM     60  H   UNL     1     -12.940  -0.577  -3.528  1.00  0.00     0.167 HD
ATOM     61  C   UNL     1     -13.185  -2.200  -5.840  1.00  0.00     0.074 A 
ATOM     62  C   UNL     1     -12.908  -2.816  -7.122  1.00  0.00     0.031 C 
ATOM     63  C   UNL     1     -14.278  -2.472  -5.087  1.00  0.00     0.031 A 
BRANCH  50  64
ATOM     64  C   UNL     1     -14.531   0.682   0.222  1.00  0.00    -0.014 A 
ATOM     65  C   UNL     1     -15.210   1.891   0.448  1.00  0.00     0.009 A 
ATOM     66  C   UNL     1     -14.506  -0.283   1.239  1.00  0.00     0.009 A 
ATOM     67  C   UNL     1     -15.802   2.150   1.685  1.00  0.00     0.001 A 
ATOM     68  C   UNL     1     -15.128  -0.035   2.464  1.00  0.00     0.001 A 
ATOM     69  C   UNL     1     -15.763   1.185   2.691  1.00  0.00     0.000 A 
ENDBRANCH  50  64
BRANCH  51  70
ATOM     70  C   UNL     1      -9.260  -0.955  -8.104  1.00  0.00    -0.014 A 
ATOM     71  C   UNL     1      -9.745  -0.523  -9.349  1.00  0.00     0.009 A 
ATOM     72  C   UNL     1      -8.039  -1.643  -8.053  1.00  0.00     0.009 A 
ATOM     73  C   UNL     1      -9.037  -0.800 -10.521  1.00  0.00     0.001 A 
ATOM     74  C   UNL     1      -7.321  -1.897  -9.225  1.00  0.00     0.001 A 
ATOM     75  C   UNL     1      -7.825  -1.485 -10.458  1.00  0.00     0.000 A 
ENDBRANCH  51  70
BRANCH  63  76
ATOM     76  C   UNL     1     -15.272  -3.446  -5.647  1.00  0.00    -0.014 A 
ATOM     77  C   UNL     1     -15.010  -4.823  -5.662  1.00  0.00     0.009 A 
ATOM     78  C   UNL     1     -16.508  -2.978  -6.119  1.00  0.00     0.009 A 
ATOM     79  C   UNL     1     -15.959  -5.714  -6.166  1.00  0.00     0.001 A 
ATOM     80  C   UNL     1     -17.464  -3.873  -6.599  1.00  0.00     0.001 A 
ATOM     81  C   UNL     1     -17.186  -5.238  -6.629  1.00  0.00     0.000 A 
ENDBRANCH  63  76
ENDBRANCH  37  38
ENDBRANCH  29  32
ENDBRANCH  27  28
ENDBRANCH  26  27
ENDBRANCH   1  26
TORSDOF 16
