REMARK SMILES CCC(=O)N1CCC[C@](C[C@H]2CC(c3ccc(C)cc3)=NO2)(C(=O)NCCCCNC(=O)c2ccc(-c3c4nc(c(-c5ccccc5)c5ccc([nH]5)c(-c5ccccc5)c5nc(c(-c6ccccc6)c6ccc3[nH]6)C=C5)C=C4)cc2)C1
REMARK SMILES IDX 27 1 26 2 25 3 23 4 24 5 9 7 5 8 6 9 81 10 7 11 8 12 3 13
REMARK SMILES IDX 4 14 2 15 1 16 10 17 11 18 12 19 22 20 13 21 21 22 14 23
REMARK SMILES IDX 15 24 20 25 16 26 19 27 17 28 18 29 28 30 29 31 30 32 31 33
REMARK SMILES IDX 32 35 33 36 34 37 80 38 35 39 79 40 36 41 37 42 38 43 73 44
REMARK SMILES IDX 39 45 78 46 72 47 74 48 40 49 77 50 71 51 70 52 41 54 63 55
REMARK SMILES IDX 48 56 62 57 49 58 52 59 61 60 75 61 50 62 51 63 60 65 76 66
REMARK SMILES IDX 53 67 42 68 43 69 47 70 44 71 46 72 45 73 64 74 65 75 69 76
REMARK SMILES IDX 66 77 68 78 67 79 54 80 55 81 59 82 56 83 58 84 57 85
REMARK H PARENT 25 6 30 34 74 53 52 64
REMARK Flexibility Score: inf
ROOT
ATOM      1  C   UNL     1       5.920  -2.715  -5.248  1.00  0.00     0.023 C 
ENDROOT
BRANCH   1   2
ATOM      2  C   UNL     1       5.148  -1.390  -5.316  1.00  0.00     0.116 C 
BRANCH   2   3
ATOM      3  N   UNL     1       3.858  -1.445  -4.637  1.00  0.00    -0.356 N 
ATOM      4  C   UNL     1       3.343  -0.830  -3.529  1.00  0.00     0.228 C 
ATOM      5  O   UNL     1       2.218  -1.209  -3.191  1.00  0.00    -0.274 OA
ATOM      6  H   UNL     1       3.221  -2.057  -5.069  1.00  0.00     0.163 HD
BRANCH   4   7
ATOM      7  C   UNL     1       4.131   0.229  -2.708  1.00  0.00     0.070 C 
ATOM      8  N   UNL     1       2.124   1.671  -2.042  1.00  0.00    -0.342 N 
ATOM      9  C   UNL     1       2.514   2.732  -2.961  1.00  0.00     0.119 C 
ATOM     10  C   UNL     1       3.202   0.786  -1.568  1.00  0.00     0.136 C 
ATOM     11  C   UNL     1       3.307   2.188  -4.131  1.00  0.00     0.023 C 
ATOM     12  C   UNL     1       4.516   1.417  -3.609  1.00  0.00     0.021 C 
BRANCH   8  13
ATOM     13  C   UNL     1       0.808   1.672  -1.604  1.00  0.00     0.222 C 
ATOM     14  O   UNL     1      -0.089   2.204  -2.269  1.00  0.00    -0.275 OA
BRANCH  13  15
ATOM     15  C   UNL     1       0.482   1.212  -0.190  1.00  0.00     0.097 C 
ATOM     16  C   UNL     1       0.628  -0.257   0.141  1.00  0.00     0.014 C 
ENDBRANCH  13  15
ENDBRANCH   8  13
BRANCH   7  17
ATOM     17  C   UNL     1       5.324  -0.562  -2.069  1.00  0.00     0.067 C 
BRANCH  17  18
ATOM     18  C   UNL     1       6.483   0.105  -1.317  1.00  0.00     0.211 C 
ATOM     19  C   UNL     1       7.351   1.077  -2.086  1.00  0.00     0.108 C 
ATOM     20  O   UNL     1       6.030   0.781  -0.144  1.00  0.00    -0.392 OA
ATOM     21  C   UNL     1       7.003   2.319  -1.352  1.00  0.00     0.091 C 
ATOM     22  N   UNL     1       6.318   2.156  -0.268  1.00  0.00    -0.090 NA
BRANCH  21  23
ATOM     23  C   UNL     1       7.438   3.642  -1.820  1.00  0.00    -0.001 A 
ATOM     24  C   UNL     1       7.168   4.064  -3.123  1.00  0.00     0.010 A 
ATOM     25  C   UNL     1       8.056   4.502  -0.912  1.00  0.00     0.010 A 
ATOM     26  C   UNL     1       7.488   5.367  -3.509  1.00  0.00     0.004 A 
ATOM     27  C   UNL     1       8.405   5.792  -1.312  1.00  0.00     0.004 A 
ATOM     28  C   UNL     1       8.102   6.241  -2.605  1.00  0.00    -0.051 A 
ATOM     29  C   UNL     1       8.457   7.639  -3.016  1.00  0.00     0.044 C 
ENDBRANCH  21  23
ENDBRANCH  17  18
ENDBRANCH   7  17
ENDBRANCH   4   7
ENDBRANCH   2   3
ENDBRANCH   1   2
BRANCH   1  30
ATOM     30  C   UNL     1       5.271  -3.900  -5.959  1.00  0.00     0.023 C 
BRANCH  30  31
ATOM     31  C   UNL     1       5.149  -3.747  -7.468  1.00  0.00     0.116 C 
BRANCH  31  32
ATOM     32  N   UNL     1       6.379  -3.965  -8.218  1.00  0.00    -0.352 N 
ATOM     33  C   UNL     1       6.640  -3.781  -9.570  1.00  0.00     0.251 C 
ATOM     34  H   UNL     1       7.141  -4.292  -7.686  1.00  0.00     0.163 HD
ATOM     35  O   UNL     1       7.730  -4.087 -10.025  1.00  0.00    -0.269 OA
BRANCH  33  36
ATOM     36  C   UNL     1       5.652  -3.071 -10.429  1.00  0.00     0.039 A 
ATOM     37  C   UNL     1       6.137  -2.117 -11.335  1.00  0.00     0.014 A 
ATOM     38  C   UNL     1       4.289  -3.151 -10.178  1.00  0.00     0.014 A 
ATOM     39  C   UNL     1       5.304  -1.077 -11.743  1.00  0.00     0.010 A 
ATOM     40  C   UNL     1       3.505  -2.055 -10.459  1.00  0.00     0.010 A 
ATOM     41  C   UNL     1       4.032  -0.984 -11.185  1.00  0.00    -0.014 A 
BRANCH  41  42
ATOM     42  C   UNL     1       3.238   0.237 -11.166  1.00  0.00     0.031 A 
ATOM     43  C   UNL     1       1.941   0.305 -11.870  1.00  0.00     0.074 A 
ATOM     44  C   UNL     1       3.626   1.264 -10.377  1.00  0.00     0.049 A 
ATOM     45  N   UNL     1       1.340   1.404 -12.179  1.00  0.00    -0.248 NA
ATOM     46  C   UNL     1       1.233  -0.882 -12.337  1.00  0.00     0.031 C 
ATOM     47  C   UNL     1       2.820   2.392  -9.917  1.00  0.00     0.029 A 
ATOM     48  N   UNL     1       4.912   1.591  -9.972  1.00  0.00    -0.354 N 
ATOM     49  C   UNL     1       0.061   1.079 -12.568  1.00  0.00     0.074 A 
ATOM     50  C   UNL     1       0.077  -0.354 -12.744  1.00  0.00     0.031 C 
ATOM     51  C   UNL     1       3.637   3.374  -9.503  1.00  0.00     0.029 A 
ATOM     52  C   UNL     1       4.996   2.980  -9.835  1.00  0.00     0.049 A 
ATOM     53  H   UNL     1       5.642   0.952  -9.808  1.00  0.00     0.167 HD
ATOM     54  C   UNL     1      -0.906   2.038 -12.549  1.00  0.00     0.031 A 
ATOM     55  C   UNL     1       5.834   3.712 -10.629  1.00  0.00     0.031 A 
ATOM     56  C   UNL     1      -0.354   3.357 -12.235  1.00  0.00     0.049 A 
ATOM     57  C   UNL     1       5.116   4.681 -11.548  1.00  0.00     0.074 A 
ATOM     58  C   UNL     1      -0.347   4.130 -11.086  1.00  0.00     0.029 A 
ATOM     59  N   UNL     1       0.571   3.929 -13.100  1.00  0.00    -0.354 N 
ATOM     60  N   UNL     1       3.844   4.614 -11.828  1.00  0.00    -0.248 NA
ATOM     61  C   UNL     1       5.779   5.777 -12.250  1.00  0.00     0.031 C 
ATOM     62  C   UNL     1       0.644   5.136 -11.240  1.00  0.00     0.029 A 
ATOM     63  C   UNL     1       1.216   4.988 -12.492  1.00  0.00     0.049 A 
ATOM     64  H   UNL     1       0.743   3.623 -14.020  1.00  0.00     0.167 HD
ATOM     65  C   UNL     1       3.513   5.601 -12.720  1.00  0.00     0.074 A 
ATOM     66  C   UNL     1       4.758   6.312 -12.944  1.00  0.00     0.031 C 
ATOM     67  C   UNL     1       2.244   5.734 -13.206  1.00  0.00     0.031 A 
BRANCH  54  68
ATOM     68  C   UNL     1      -2.387   1.730 -12.528  1.00  0.00    -0.014 A 
ATOM     69  C   UNL     1      -3.279   2.657 -11.955  1.00  0.00     0.009 A 
ATOM     70  C   UNL     1      -2.965   0.534 -12.986  1.00  0.00     0.009 A 
ATOM     71  C   UNL     1      -4.638   2.366 -11.764  1.00  0.00     0.001 A 
ATOM     72  C   UNL     1      -4.315   0.221 -12.769  1.00  0.00     0.001 A 
ATOM     73  C   UNL     1      -5.150   1.135 -12.146  1.00  0.00     0.000 A 
ENDBRANCH  54  68
BRANCH  55  74
ATOM     74  C   UNL     1       7.098   3.002 -10.972  1.00  0.00    -0.014 A 
ATOM     75  C   UNL     1       8.043   2.797  -9.948  1.00  0.00     0.009 A 
ATOM     76  C   UNL     1       7.190   2.222 -12.134  1.00  0.00     0.009 A 
ATOM     77  C   UNL     1       8.979   1.761 -10.033  1.00  0.00     0.001 A 
ATOM     78  C   UNL     1       8.134   1.189 -12.217  1.00  0.00     0.001 A 
ATOM     79  C   UNL     1       9.001   0.937 -11.155  1.00  0.00     0.000 A 
ENDBRANCH  55  74
BRANCH  67  80
ATOM     80  C   UNL     1       1.813   6.617 -14.355  1.00  0.00    -0.014 A 
ATOM     81  C   UNL     1       2.675   7.116 -15.340  1.00  0.00     0.009 A 
ATOM     82  C   UNL     1       0.433   6.860 -14.546  1.00  0.00     0.009 A 
ATOM     83  C   UNL     1       2.190   7.854 -16.430  1.00  0.00     0.001 A 
ATOM     84  C   UNL     1      -0.060   7.553 -15.655  1.00  0.00     0.001 A 
ATOM     85  C   UNL     1       0.824   8.062 -16.593  1.00  0.00     0.000 A 
ENDBRANCH  67  80
ENDBRANCH  41  42
ENDBRANCH  33  36
ENDBRANCH  31  32
ENDBRANCH  30  31
ENDBRANCH   1  30
TORSDOF 16
