REMARK SMILES C[NH+](C)CCNC(=O)NC1(CC(=O)NCCCCNC(=O)c2ccc(-c3c4nc(c(-c5ccccc5)c5ccc([nH]5)c(-c5ccccc5)c5nc(c(-c6ccccc6)c6ccc3[nH]6)C=C5)C=C4)cc2)CCC1
REMARK SMILES IDX 15 1 14 2 12 3 13 4 11 6 10 7 70 8 72 9 71 10 9 11 6 12 7 13
REMARK SMILES IDX 8 15 5 17 4 18 2 19 1 20 3 21 16 23 17 24 18 25 19 26 20 27
REMARK SMILES IDX 21 29 22 30 23 31 69 32 24 33 68 34 25 35 26 36 27 37 62 38
REMARK SMILES IDX 28 39 67 40 61 41 63 42 29 43 66 44 60 45 59 46 30 48 52 49
REMARK SMILES IDX 37 50 51 51 38 52 41 53 50 54 64 55 39 56 40 57 49 59 65 60
REMARK SMILES IDX 42 61 31 62 32 63 36 64 33 65 35 66 34 67 53 68 54 69 58 70
REMARK SMILES IDX 55 71 57 72 56 73 43 74 44 75 48 76 45 77 47 78 46 79
REMARK H PARENT 14 5 6 14 9 16 2 22 19 28 63 47 41 58
REMARK Flexibility Score: inf
ROOT
ATOM      1  C   UNL     1       4.358   6.435   0.697  1.00  0.00     0.116 C 
ENDROOT
BRANCH   1   2
ATOM      2  N   UNL     1       4.436   4.996   0.623  1.00  0.00    -0.356 N 
ATOM      3  C   UNL     1       3.440   4.082   0.776  1.00  0.00     0.222 C 
ATOM      4  O   UNL     1       3.757   2.895   0.860  1.00  0.00    -0.275 OA
ATOM      5  H   UNL     1       5.329   4.626   0.436  1.00  0.00     0.163 HD
BRANCH   3   6
ATOM      6  C   UNL     1       1.991   4.526   0.776  1.00  0.00     0.128 C 
BRANCH   6   7
ATOM      7  C   UNL     1       1.274   4.591   2.131  1.00  0.00     0.051 C 
ATOM      8  C   UNL     1      -0.237   5.032   2.138  1.00  0.00     0.029 C 
ATOM      9  C   UNL     1       1.501   5.934   2.928  1.00  0.00     0.029 C 
ATOM     10  C   UNL     1       0.227   6.486   2.284  1.00  0.00     0.005 C 
BRANCH   7  11
ATOM     11  N   UNL     1       1.571   3.433   2.997  1.00  0.00    -0.332 N 
ATOM     12  N   UNL     1       0.622   1.470   2.044  1.00  0.00    -0.332 N 
ATOM     13  C   UNL     1       1.338   2.111   2.969  1.00  0.00     0.315 C 
ATOM     14  H   UNL     1       0.628   0.495   2.176  1.00  0.00     0.165 HD
ATOM     15  O   UNL     1       1.812   1.437   3.889  1.00  0.00    -0.249 OA
ATOM     16  H   UNL     1       2.068   3.698   3.804  1.00  0.00     0.165 HD
BRANCH  12  17
ATOM     17  C   UNL     1      -0.162   1.865   0.894  1.00  0.00     0.179 C 
BRANCH  17  18
ATOM     18  C   UNL     1       0.464   1.470  -0.460  1.00  0.00     0.283 C 
BRANCH  18  19
ATOM     19  N   UNL     1       0.114   0.164  -1.037  1.00  0.00    -0.338 N 
ATOM     20  C   UNL     1       0.648  -0.952  -0.268  1.00  0.00     0.332 C 
ATOM     21  C   UNL     1      -1.315   0.013  -1.288  1.00  0.00     0.332 C 
ATOM     22  H   UNL     1       0.571   0.140  -1.949  1.00  0.00     0.347 HD
ENDBRANCH  18  19
ENDBRANCH  17  18
ENDBRANCH  12  17
ENDBRANCH   7  11
ENDBRANCH   6   7
ENDBRANCH   3   6
ENDBRANCH   1   2
BRANCH   1  23
ATOM     23  C   UNL     1       4.778   6.914   2.085  1.00  0.00     0.023 C 
BRANCH  23  24
ATOM     24  C   UNL     1       6.279   7.030   2.297  1.00  0.00     0.023 C 
BRANCH  24  25
ATOM     25  C   UNL     1       6.998   7.867   1.257  1.00  0.00     0.116 C 
BRANCH  25  26
ATOM     26  N   UNL     1       6.360   9.150   0.984  1.00  0.00    -0.352 N 
ATOM     27  C   UNL     1       6.970  10.333   0.640  1.00  0.00     0.251 C 
ATOM     28  H   UNL     1       5.378   9.171   1.054  1.00  0.00     0.163 HD
ATOM     29  O   UNL     1       6.333  11.364   0.492  1.00  0.00    -0.269 OA
BRANCH  27  30
ATOM     30  C   UNL     1       8.436  10.319   0.506  1.00  0.00     0.039 A 
ATOM     31  C   UNL     1       9.193  11.146   1.334  1.00  0.00     0.014 A 
ATOM     32  C   UNL     1       9.039   9.367  -0.320  1.00  0.00     0.014 A 
ATOM     33  C   UNL     1      10.573  10.966   1.388  1.00  0.00     0.010 A 
ATOM     34  C   UNL     1      10.397   9.126  -0.191  1.00  0.00     0.010 A 
ATOM     35  C   UNL     1      11.176   9.927   0.659  1.00  0.00    -0.014 A 
BRANCH  35  36
ATOM     36  C   UNL     1      12.631   9.671   0.746  1.00  0.00     0.031 A 
ATOM     37  C   UNL     1      13.479   9.824  -0.485  1.00  0.00     0.074 A 
ATOM     38  C   UNL     1      13.170   9.236   1.901  1.00  0.00     0.049 A 
ATOM     39  N   UNL     1      14.753   9.579  -0.645  1.00  0.00    -0.248 NA
ATOM     40  C   UNL     1      12.795  10.277  -1.710  1.00  0.00     0.031 C 
ATOM     41  C   UNL     1      12.438   8.997   3.148  1.00  0.00     0.029 A 
ATOM     42  N   UNL     1      14.466   8.912   2.211  1.00  0.00    -0.354 N 
ATOM     43  C   UNL     1      15.012   9.818  -1.988  1.00  0.00     0.074 A 
ATOM     44  C   UNL     1      13.758  10.173  -2.611  1.00  0.00     0.031 C 
ATOM     45  C   UNL     1      13.304   8.599   4.096  1.00  0.00     0.029 A 
ATOM     46  C   UNL     1      14.640   8.520   3.516  1.00  0.00     0.049 A 
ATOM     47  H   UNL     1      15.203   8.956   1.559  1.00  0.00     0.167 HD
ATOM     48  C   UNL     1      16.196   9.773  -2.641  1.00  0.00     0.031 A 
ATOM     49  C   UNL     1      15.755   8.143   4.169  1.00  0.00     0.031 A 
ATOM     50  C   UNL     1      17.447   9.459  -2.010  1.00  0.00     0.049 A 
ATOM     51  C   UNL     1      17.062   8.125   3.426  1.00  0.00     0.074 A 
ATOM     52  C   UNL     1      18.715   9.458  -2.562  1.00  0.00     0.029 A 
ATOM     53  N   UNL     1      17.585   9.097  -0.679  1.00  0.00    -0.354 N 
ATOM     54  N   UNL     1      17.305   8.427   2.173  1.00  0.00    -0.248 NA
ATOM     55  C   UNL     1      18.251   7.726   4.191  1.00  0.00     0.031 C 
ATOM     56  C   UNL     1      19.618   9.059  -1.572  1.00  0.00     0.029 A 
ATOM     57  C   UNL     1      18.916   8.855  -0.394  1.00  0.00     0.049 A 
ATOM     58  H   UNL     1      16.846   9.023  -0.033  1.00  0.00     0.167 HD
ATOM     59  C   UNL     1      18.676   8.283   2.008  1.00  0.00     0.074 A 
ATOM     60  C   UNL     1      19.213   7.881   3.292  1.00  0.00     0.031 C 
ATOM     61  C   UNL     1      19.425   8.466   0.894  1.00  0.00     0.031 A 
BRANCH  48  62
ATOM     62  C   UNL     1      16.185  10.078  -4.111  1.00  0.00    -0.014 A 
ATOM     63  C   UNL     1      15.951  11.380  -4.581  1.00  0.00     0.009 A 
ATOM     64  C   UNL     1      16.432   9.054  -5.038  1.00  0.00     0.009 A 
ATOM     65  C   UNL     1      15.929  11.644  -5.951  1.00  0.00     0.001 A 
ATOM     66  C   UNL     1      16.438   9.327  -6.407  1.00  0.00     0.001 A 
ATOM     67  C   UNL     1      16.177  10.618  -6.862  1.00  0.00     0.000 A 
ENDBRANCH  48  62
BRANCH  49  68
ATOM     68  C   UNL     1      15.698   7.782   5.609  1.00  0.00    -0.014 A 
ATOM     69  C   UNL     1      16.256   8.633   6.576  1.00  0.00     0.009 A 
ATOM     70  C   UNL     1      15.104   6.580   6.024  1.00  0.00     0.009 A 
ATOM     71  C   UNL     1      16.248   8.274   7.926  1.00  0.00     0.001 A 
ATOM     72  C   UNL     1      15.074   6.236   7.378  1.00  0.00     0.001 A 
ATOM     73  C   UNL     1      15.655   7.077   8.326  1.00  0.00     0.000 A 
ENDBRANCH  49  68
BRANCH  61  74
ATOM     74  C   UNL     1      20.907   8.271   1.027  1.00  0.00    -0.014 A 
ATOM     75  C   UNL     1      21.465   6.989   1.140  1.00  0.00     0.009 A 
ATOM     76  C   UNL     1      21.758   9.387   0.988  1.00  0.00     0.009 A 
ATOM     77  C   UNL     1      22.848   6.831   1.243  1.00  0.00     0.001 A 
ATOM     78  C   UNL     1      23.141   9.223   1.063  1.00  0.00     0.001 A 
ATOM     79  C   UNL     1      23.684   7.947   1.199  1.00  0.00     0.000 A 
ENDBRANCH  61  74
ENDBRANCH  35  36
ENDBRANCH  27  30
ENDBRANCH  25  26
ENDBRANCH  24  25
ENDBRANCH  23  24
ENDBRANCH   1  23
TORSDOF 16
