REMARK SMILES O=C(NCc1ccc(C(=O)NCCCCNC(=O)c2ccc(-c3c4nc(c(-c5ccccc5)c5ccc([nH]5)c(-c5ccccc5)c5nc(c(-c6ccccc6)c6ccc3[nH]6)C=C5)C=C4)cc2)o1)Nc1ccc(F)c(Cl)c1
REMARK SMILES IDX 13 1 12 2 11 3 9 4 10 5 8 7 5 8 6 9 67 10 7 11 4 12 3 13
REMARK SMILES IDX 1 14 2 15 68 16 69 19 70 20 76 21 71 22 74 23 72 24 75 25
REMARK SMILES IDX 73 26 14 27 15 28 16 29 17 30 18 32 19 33 20 34 66 35 21 36
REMARK SMILES IDX 65 37 22 38 23 39 24 40 59 41 25 42 64 43 58 44 60 45 26 46
REMARK SMILES IDX 63 47 57 48 56 49 27 51 49 52 34 53 48 54 35 55 38 56 47 57
REMARK SMILES IDX 61 58 36 59 37 60 46 62 62 63 39 64 28 65 29 66 33 67 30 68
REMARK SMILES IDX 32 69 31 70 50 71 51 72 55 73 52 74 54 75 53 76 40 77 41 78
REMARK SMILES IDX 45 79 42 80 44 81 43 82
REMARK H PARENT 11 6 3 17 68 18 16 31 60 50 38 61
REMARK Flexibility Score: inf
ROOT
ATOM      1  C   UNL     1       7.565  -5.732  -4.204  1.00  0.00     0.023 C 
ENDROOT
BRANCH   1   2
ATOM      2  C   UNL     1       6.086  -5.394  -4.386  1.00  0.00     0.116 C 
BRANCH   2   3
ATOM      3  N   UNL     1       5.366  -5.526  -3.140  1.00  0.00    -0.349 N 
ATOM      4  C   UNL     1       5.002  -4.590  -2.200  1.00  0.00     0.286 C 
ATOM      5  O   UNL     1       4.344  -5.027  -1.252  1.00  0.00    -0.266 OA
ATOM      6  H   UNL     1       5.087  -6.445  -2.926  1.00  0.00     0.163 HD
BRANCH   4   7
ATOM      7  C   UNL     1       5.358  -3.186  -2.331  1.00  0.00     0.191 A 
ATOM      8  C   UNL     1       5.118  -1.050  -1.769  1.00  0.00     0.124 A 
ATOM      9  C   UNL     1       6.088  -1.084  -2.743  1.00  0.00     0.048 A 
ATOM     10  O   UNL     1       4.681  -2.313  -1.513  1.00  0.00    -0.454 OA
ATOM     11  C   UNL     1       6.263  -2.451  -3.079  1.00  0.00     0.056 A 
BRANCH   8  12
ATOM     12  C   UNL     1       4.525   0.040  -0.953  1.00  0.00     0.193 C 
BRANCH  12  13
ATOM     13  N   UNL     1       3.085  -0.096  -0.933  1.00  0.00    -0.331 N 
ATOM     14  O   UNL     1       1.060  -0.404  -0.077  1.00  0.00    -0.248 OA
ATOM     15  C   UNL     1       2.224  -0.070   0.119  1.00  0.00     0.319 C 
ATOM     16  N   UNL     1       2.743   0.354   1.312  1.00  0.00    -0.308 N 
ATOM     17  H   UNL     1       2.665  -0.226  -1.813  1.00  0.00     0.165 HD
ATOM     18  H   UNL     1       3.625   0.791   1.278  1.00  0.00     0.171 HD
BRANCH  16  19
ATOM     19  C   UNL     1       2.149   0.233   2.584  1.00  0.00     0.044 A 
ATOM     20  C   UNL     1       2.733   0.949   3.639  1.00  0.00     0.029 A 
ATOM     21  C   UNL     1       1.043  -0.585   2.843  1.00  0.00     0.049 A 
ATOM     22  C   UNL     1       2.202   0.872   4.928  1.00  0.00     0.043 A 
ATOM     23  C   UNL     1       0.519  -0.668   4.135  1.00  0.00     0.078 A 
ATOM     24  C   UNL     1       1.096   0.065   5.169  1.00  0.00     0.141 A 
ATOM     25  Cl  UNL     1      -0.835  -1.688   4.440  1.00  0.00    -0.081 Cl
ATOM     26  F   UNL     1       0.604   0.004   6.415  1.00  0.00    -0.205 F 
ENDBRANCH  16  19
ENDBRANCH  12  13
ENDBRANCH   8  12
ENDBRANCH   4   7
ENDBRANCH   2   3
ENDBRANCH   1   2
BRANCH   1  27
ATOM     27  C   UNL     1       7.861  -7.236  -4.157  1.00  0.00     0.023 C 
BRANCH  27  28
ATOM     28  C   UNL     1       7.470  -8.017  -5.411  1.00  0.00     0.116 C 
BRANCH  28  29
ATOM     29  N   UNL     1       8.067  -7.493  -6.629  1.00  0.00    -0.352 N 
ATOM     30  C   UNL     1       8.472  -8.177  -7.751  1.00  0.00     0.251 C 
ATOM     31  H   UNL     1       8.200  -6.518  -6.653  1.00  0.00     0.163 HD
ATOM     32  O   UNL     1       9.050  -7.593  -8.658  1.00  0.00    -0.269 OA
BRANCH  30  33
ATOM     33  C   UNL     1       8.240  -9.633  -7.833  1.00  0.00     0.039 A 
ATOM     34  C   UNL     1       9.309 -10.465  -8.175  1.00  0.00     0.014 A 
ATOM     35  C   UNL     1       6.985 -10.175  -7.545  1.00  0.00     0.014 A 
ATOM     36  C   UNL     1       9.137 -11.850  -8.160  1.00  0.00     0.010 A 
ATOM     37  C   UNL     1       6.832 -11.556  -7.468  1.00  0.00     0.010 A 
ATOM     38  C   UNL     1       7.908 -12.406  -7.770  1.00  0.00    -0.014 A 
BRANCH  38  39
ATOM     39  C   UNL     1       7.731 -13.874  -7.660  1.00  0.00     0.031 A 
ATOM     40  C   UNL     1       6.775 -14.591  -8.571  1.00  0.00     0.074 A 
ATOM     41  C   UNL     1       8.380 -14.552  -6.693  1.00  0.00     0.049 A 
ATOM     42  N   UNL     1       6.443 -15.857  -8.587  1.00  0.00    -0.248 NA
ATOM     43  C   UNL     1       6.082 -13.774  -9.580  1.00  0.00     0.031 C 
ATOM     44  C   UNL     1       9.302 -13.966  -5.718  1.00  0.00     0.029 A 
ATOM     45  N   UNL     1       8.355 -15.885  -6.368  1.00  0.00    -0.354 N 
ATOM     46  C   UNL     1       5.492 -15.984  -9.591  1.00  0.00     0.074 A 
ATOM     47  C   UNL     1       5.266 -14.661 -10.130  1.00  0.00     0.031 C 
ATOM     48  C   UNL     1       9.773 -14.938  -4.920  1.00  0.00     0.029 A 
ATOM     49  C   UNL     1       9.161 -16.206  -5.303  1.00  0.00     0.049 A 
ATOM     50  H   UNL     1       7.811 -16.548  -6.852  1.00  0.00     0.167 HD
ATOM     51  C   UNL     1       4.876 -17.104 -10.037  1.00  0.00     0.031 A 
ATOM     52  C   UNL     1       9.380 -17.390  -4.699  1.00  0.00     0.031 A 
ATOM     53  C   UNL     1       5.110 -18.422  -9.512  1.00  0.00     0.049 A 
ATOM     54  C   UNL     1       8.678 -18.616  -5.209  1.00  0.00     0.074 A 
ATOM     55  C   UNL     1       4.581 -19.627  -9.940  1.00  0.00     0.029 A 
ATOM     56  N   UNL     1       5.941 -18.706  -8.440  1.00  0.00    -0.354 N 
ATOM     57  N   UNL     1       7.836 -18.731  -6.208  1.00  0.00    -0.248 NA
ATOM     58  C   UNL     1       8.964 -19.879  -4.513  1.00  0.00     0.031 C 
ATOM     59  C   UNL     1       5.058 -20.637  -9.097  1.00  0.00     0.029 A 
ATOM     60  C   UNL     1       5.922 -20.065  -8.176  1.00  0.00     0.049 A 
ATOM     61  H   UNL     1       6.467 -18.041  -7.940  1.00  0.00     0.167 HD
ATOM     62  C   UNL     1       7.512 -20.079  -6.275  1.00  0.00     0.074 A 
ATOM     63  C   UNL     1       8.259 -20.745  -5.228  1.00  0.00     0.031 C 
ATOM     64  C   UNL     1       6.670 -20.710  -7.130  1.00  0.00     0.031 A 
BRANCH  51  65
ATOM     65  C   UNL     1       3.881 -16.945 -11.152  1.00  0.00    -0.014 A 
ATOM     66  C   UNL     1       4.296 -16.635 -12.457  1.00  0.00     0.009 A 
ATOM     67  C   UNL     1       2.513 -17.135 -10.902  1.00  0.00     0.009 A 
ATOM     68  C   UNL     1       3.359 -16.480 -13.480  1.00  0.00     0.001 A 
ATOM     69  C   UNL     1       1.581 -17.008 -11.932  1.00  0.00     0.001 A 
ATOM     70  C   UNL     1       2.003 -16.671 -13.218  1.00  0.00     0.000 A 
ENDBRANCH  51  65
BRANCH  52  71
ATOM     71  C   UNL     1      10.320 -17.478  -3.553  1.00  0.00    -0.014 A 
ATOM     72  C   UNL     1      11.567 -18.102  -3.705  1.00  0.00     0.009 A 
ATOM     73  C   UNL     1       9.975 -16.945  -2.301  1.00  0.00     0.009 A 
ATOM     74  C   UNL     1      12.439 -18.215  -2.620  1.00  0.00     0.001 A 
ATOM     75  C   UNL     1      10.860 -17.036  -1.225  1.00  0.00     0.001 A 
ATOM     76  C   UNL     1      12.087 -17.678  -1.382  1.00  0.00     0.000 A 
ENDBRANCH  52  71
BRANCH  64  77
ATOM     77  C   UNL     1       6.534 -22.199  -6.985  1.00  0.00    -0.014 A 
ATOM     78  C   UNL     1       5.816 -22.763  -5.919  1.00  0.00     0.009 A 
ATOM     79  C   UNL     1       7.096 -23.045  -7.953  1.00  0.00     0.009 A 
ATOM     80  C   UNL     1       5.688 -24.149  -5.812  1.00  0.00     0.001 A 
ATOM     81  C   UNL     1       6.944 -24.429  -7.857  1.00  0.00     0.001 A 
ATOM     82  C   UNL     1       6.247 -24.980  -6.783  1.00  0.00     0.000 A 
ENDBRANCH  64  77
ENDBRANCH  38  39
ENDBRANCH  30  33
ENDBRANCH  28  29
ENDBRANCH  27  28
ENDBRANCH   1  27
TORSDOF 14
