REMARK SMILES O=C(C[C@H]1CN(C(=O)c2sccc2Br)CCO1)NCCCCNC(=O)c1ccc(-c2c3nc(c(-c4ccccc4)c4ccc([nH]4)c(-c4ccccc4)c4nc(c(-c5ccccc5)c5ccc2[nH]5)C=C4)C=C3)cc1
REMARK SMILES IDX 20 1 19 2 18 3 1 4 2 5 3 7 4 8 5 9 17 10 6 11 16 12 15 13
REMARK SMILES IDX 7 14 8 15 9 16 10 17 13 18 11 19 12 20 14 21 21 22 22 23
REMARK SMILES IDX 23 24 24 25 25 27 26 28 27 29 73 30 28 31 72 32 29 33 30 34
REMARK SMILES IDX 31 35 66 36 32 37 71 38 65 39 67 40 33 41 70 42 64 43 63 44
REMARK SMILES IDX 34 46 56 47 41 48 55 49 42 50 45 51 54 52 68 53 43 54 44 55
REMARK SMILES IDX 53 57 69 58 46 59 35 60 36 61 40 62 37 63 39 64 38 65 57 66
REMARK SMILES IDX 58 67 62 68 59 69 61 70 60 71 47 72 48 73 52 74 49 75 51 76
REMARK SMILES IDX 50 77
REMARK H PARENT 18 6 23 26 67 45 45 56
REMARK Flexibility Score: inf
ROOT
ATOM      1  C   UNL     1       4.228   3.034  -3.568  1.00  0.00     0.023 C 
ENDROOT
BRANCH   1   2
ATOM      2  C   UNL     1       5.143   1.864  -3.215  1.00  0.00     0.116 C 
BRANCH   2   3
ATOM      3  N   UNL     1       4.515   0.858  -2.383  1.00  0.00    -0.356 N 
ATOM      4  O   UNL     1       3.223   0.030  -4.069  1.00  0.00    -0.275 OA
ATOM      5  C   UNL     1       3.646  -0.057  -2.916  1.00  0.00     0.222 C 
ATOM      6  H   UNL     1       4.716   0.832  -1.420  1.00  0.00     0.163 HD
BRANCH   5   7
ATOM      7  C   UNL     1       3.188  -1.193  -2.025  1.00  0.00     0.133 C 
BRANCH   7   8
ATOM      8  C   UNL     1       4.002  -1.602  -0.788  1.00  0.00     0.147 C 
ATOM      9  C   UNL     1       3.875  -3.127  -0.513  1.00  0.00     0.152 C 
ATOM     10  O   UNL     1       5.386  -1.202  -0.827  1.00  0.00    -0.374 OA
ATOM     11  N   UNL     1       4.692  -3.881  -1.474  1.00  0.00    -0.333 N 
ATOM     12  C   UNL     1       6.169  -1.948  -1.779  1.00  0.00     0.182 C 
ATOM     13  C   UNL     1       6.086  -3.450  -1.523  1.00  0.00     0.148 C 
BRANCH  11  14
ATOM     14  C   UNL     1       4.228  -4.833  -2.372  1.00  0.00     0.265 C 
ATOM     15  O   UNL     1       4.923  -5.180  -3.346  1.00  0.00    -0.268 OA
BRANCH  14  16
ATOM     16  C   UNL     1       2.949  -5.446  -2.119  1.00  0.00     0.106 A 
ATOM     17  S   UNL     1       2.887  -6.747  -0.998  1.00  0.00    -0.137 S 
ATOM     18  C   UNL     1       1.722  -5.244  -2.707  1.00  0.00     0.041 A 
ATOM     19  C   UNL     1       1.227  -7.021  -1.309  1.00  0.00     0.067 A 
ATOM     20  C   UNL     1       0.718  -6.128  -2.228  1.00  0.00     0.028 A 
ATOM     21  Br  UNL     1       1.309  -3.966  -4.035  1.00  0.00    -0.049 Br
ENDBRANCH  14  16
ENDBRANCH  11  14
ENDBRANCH   7   8
ENDBRANCH   5   7
ENDBRANCH   2   3
ENDBRANCH   1   2
BRANCH   1  22
ATOM     22  C   UNL     1       3.675   3.805  -2.369  1.00  0.00     0.023 C 
BRANCH  22  23
ATOM     23  C   UNL     1       4.713   4.281  -1.359  1.00  0.00     0.116 C 
BRANCH  23  24
ATOM     24  N   UNL     1       5.712   5.170  -1.935  1.00  0.00    -0.352 N 
ATOM     25  C   UNL     1       6.213   6.343  -1.437  1.00  0.00     0.251 C 
ATOM     26  H   UNL     1       6.078   4.889  -2.804  1.00  0.00     0.163 HD
ATOM     27  O   UNL     1       6.989   7.024  -2.120  1.00  0.00    -0.269 OA
BRANCH  25  28
ATOM     28  C   UNL     1       5.806   6.825  -0.103  1.00  0.00     0.039 A 
ATOM     29  C   UNL     1       5.420   8.162   0.042  1.00  0.00     0.014 A 
ATOM     30  C   UNL     1       5.793   5.969   1.002  1.00  0.00     0.014 A 
ATOM     31  C   UNL     1       4.954   8.621   1.276  1.00  0.00     0.010 A 
ATOM     32  C   UNL     1       5.272   6.411   2.216  1.00  0.00     0.010 A 
ATOM     33  C   UNL     1       4.842   7.739   2.363  1.00  0.00    -0.014 A 
BRANCH  33  34
ATOM     34  C   UNL     1       4.267   8.184   3.657  1.00  0.00     0.031 A 
ATOM     35  C   UNL     1       5.120   8.227   4.893  1.00  0.00     0.074 A 
ATOM     36  C   UNL     1       2.956   8.485   3.736  1.00  0.00     0.049 A 
ATOM     37  N   UNL     1       4.777   8.517   6.123  1.00  0.00    -0.248 NA
ATOM     38  C   UNL     1       6.540   7.878   4.730  1.00  0.00     0.031 C 
ATOM     39  C   UNL     1       2.007   8.448   2.620  1.00  0.00     0.029 A 
ATOM     40  N   UNL     1       2.192   8.873   4.808  1.00  0.00    -0.354 N 
ATOM     41  C   UNL     1       5.931   8.366   6.882  1.00  0.00     0.074 A 
ATOM     42  C   UNL     1       6.974   7.922   5.982  1.00  0.00     0.031 C 
ATOM     43  C   UNL     1       0.794   8.817   3.063  1.00  0.00     0.029 A 
ATOM     44  C   UNL     1       0.871   9.083   4.496  1.00  0.00     0.049 A 
ATOM     45  H   UNL     1       2.557   8.991   5.715  1.00  0.00     0.167 HD
ATOM     46  C   UNL     1       6.112   8.593   8.204  1.00  0.00     0.031 A 
ATOM     47  C   UNL     1      -0.165   9.442   5.276  1.00  0.00     0.031 A 
ATOM     48  C   UNL     1       5.084   9.050   9.100  1.00  0.00     0.049 A 
ATOM     49  C   UNL     1       0.062   9.687   6.741  1.00  0.00     0.074 A 
ATOM     50  C   UNL     1       5.188   9.358  10.446  1.00  0.00     0.029 A 
ATOM     51  N   UNL     1       3.764   9.268   8.740  1.00  0.00    -0.354 N 
ATOM     52  N   UNL     1       1.172   9.593   7.431  1.00  0.00    -0.248 NA
ATOM     53  C   UNL     1      -1.107  10.099   7.532  1.00  0.00     0.031 C 
ATOM     54  C   UNL     1       3.920   9.727  10.909  1.00  0.00     0.029 A 
ATOM     55  C   UNL     1       3.039   9.690   9.841  1.00  0.00     0.049 A 
ATOM     56  H   UNL     1       3.397   9.141   7.835  1.00  0.00     0.167 HD
ATOM     57  C   UNL     1       0.841   9.956   8.730  1.00  0.00     0.074 A 
ATOM     58  C   UNL     1      -0.569  10.285   8.729  1.00  0.00     0.031 C 
ATOM     59  C   UNL     1       1.637  10.013   9.825  1.00  0.00     0.031 A 
BRANCH  46  60
ATOM     60  C   UNL     1       7.484   8.343   8.764  1.00  0.00    -0.014 A 
ATOM     61  C   UNL     1       8.552   9.208   8.476  1.00  0.00     0.009 A 
ATOM     62  C   UNL     1       7.704   7.250   9.615  1.00  0.00     0.009 A 
ATOM     63  C   UNL     1       9.821   8.963   9.003  1.00  0.00     0.001 A 
ATOM     64  C   UNL     1       8.969   7.021  10.161  1.00  0.00     0.001 A 
ATOM     65  C   UNL     1      10.028   7.872   9.847  1.00  0.00     0.000 A 
ENDBRANCH  46  60
BRANCH  47  66
ATOM     66  C   UNL     1      -1.517   9.608   4.685  1.00  0.00    -0.014 A 
ATOM     67  C   UNL     1      -2.064  10.888   4.513  1.00  0.00     0.009 A 
ATOM     68  C   UNL     1      -2.268   8.489   4.295  1.00  0.00     0.009 A 
ATOM     69  C   UNL     1      -3.348  11.043   3.985  1.00  0.00     0.001 A 
ATOM     70  C   UNL     1      -3.541   8.648   3.744  1.00  0.00     0.001 A 
ATOM     71  C   UNL     1      -4.083   9.924   3.597  1.00  0.00     0.000 A 
ENDBRANCH  47  66
BRANCH  59  72
ATOM     72  C   UNL     1       1.006  10.476  11.106  1.00  0.00    -0.014 A 
ATOM     73  C   UNL     1       0.147   9.640  11.837  1.00  0.00     0.009 A 
ATOM     74  C   UNL     1       1.306  11.753  11.607  1.00  0.00     0.009 A 
ATOM     75  C   UNL     1      -0.422  10.087  13.031  1.00  0.00     0.001 A 
ATOM     76  C   UNL     1       0.754  12.187  12.812  1.00  0.00     0.001 A 
ATOM     77  C   UNL     1      -0.115  11.357  13.519  1.00  0.00     0.000 A 
ENDBRANCH  59  72
ENDBRANCH  33  34
ENDBRANCH  25  28
ENDBRANCH  23  24
ENDBRANCH  22  23
ENDBRANCH   1  22
TORSDOF 14
