REMARK SMILES CCCCCCNC(=O)Oc1cccc(-c2ccc([C@@H](C)C(=O)NCCCCNC(=O)c3ccc(-c4c5nc(c(-c6ccccc6)c6ccc([nH]6)c(-c6ccccc6)c6nc(c(-c7ccccc7)c7ccc4[nH]7)C=C6)C=C5)cc3)cc2O)c1
REMARK SMILES IDX 20 1 21 2 19 3 16 4 17 5 81 6 18 7 80 8 15 9 11 10 12 11
REMARK SMILES IDX 83 12 13 13 14 14 10 15 8 16 7 17 9 19 6 20 5 21 4 22 3 23
REMARK SMILES IDX 2 24 1 25 82 26 22 28 23 29 24 30 25 32 26 33 27 34 28 35
REMARK SMILES IDX 29 36 30 37 31 39 32 40 33 41 79 42 34 43 78 44 35 45 36 46
REMARK SMILES IDX 37 47 72 48 38 49 77 50 71 51 73 52 39 53 76 54 70 55 69 56
REMARK SMILES IDX 40 58 62 59 47 60 61 61 48 62 51 63 60 64 74 65 49 66 50 67
REMARK SMILES IDX 59 69 75 70 52 71 41 72 42 73 46 74 43 75 45 76 44 77 63 78
REMARK SMILES IDX 64 79 68 80 65 81 67 82 66 83 53 84 54 85 58 86 55 87 57 88
REMARK SMILES IDX 56 89
REMARK H PARENT 7 18 82 27 24 31 29 38 73 57 51 68
REMARK Flexibility Score: inf
ROOT
ATOM      1  C   UNL     1      -4.871  11.929   6.554  1.00  0.00     0.105 C 
ATOM      2  C   UNL     1      -6.087  12.764   6.955  1.00  0.00     0.023 C 
ENDROOT
BRANCH   1   3
ATOM      3  C   UNL     1      -5.118  10.438   6.385  1.00  0.00    -0.032 A 
ATOM      4  C   UNL     1      -5.334   7.590   6.115  1.00  0.00     0.024 A 
ATOM      5  C   UNL     1      -5.933   8.285   7.180  1.00  0.00     0.013 A 
ATOM      6  C   UNL     1      -4.699   8.382   5.142  1.00  0.00     0.123 A 
ATOM      7  C   UNL     1      -5.870   9.681   7.285  1.00  0.00     0.005 A 
ATOM      8  C   UNL     1      -4.550   9.765   5.295  1.00  0.00     0.051 A 
BRANCH   4   9
ATOM      9  C   UNL     1      -5.376   6.106   6.082  1.00  0.00    -0.011 A 
ATOM     10  C   UNL     1      -4.346   3.951   5.604  1.00  0.00     0.133 A 
ATOM     11  C   UNL     1      -5.486   3.274   6.025  1.00  0.00     0.047 A 
ATOM     12  C   UNL     1      -4.275   5.346   5.645  1.00  0.00     0.056 A 
ATOM     13  C   UNL     1      -6.571   4.002   6.495  1.00  0.00     0.004 A 
ATOM     14  C   UNL     1      -6.520   5.400   6.507  1.00  0.00     0.009 A 
BRANCH  10  15
ATOM     15  O   UNL     1      -3.352   3.172   4.986  1.00  0.00    -0.410 OA
BRANCH  15  16
ATOM     16  C   UNL     1      -2.013   3.365   5.291  1.00  0.00     0.412 C 
ATOM     17  N   UNL     1      -1.178   2.636   4.487  1.00  0.00    -0.321 N 
ATOM     18  H   UNL     1      -0.214   2.709   4.669  1.00  0.00     0.167 HD
ATOM     19  O   UNL     1      -1.575   4.085   6.178  1.00  0.00    -0.224 OA
BRANCH  17  20
ATOM     20  C   UNL     1      -1.571   1.769   3.393  1.00  0.00     0.119 C 
BRANCH  20  21
ATOM     21  C   UNL     1      -0.979   2.224   2.058  1.00  0.00     0.021 C 
BRANCH  21  22
ATOM     22  C   UNL     1       0.550   2.144   1.972  1.00  0.00     0.002 C 
BRANCH  22  23
ATOM     23  C   UNL     1       1.153   0.755   2.213  1.00  0.00    -0.000 C 
BRANCH  23  24
ATOM     24  C   UNL     1       0.660  -0.348   1.274  1.00  0.00    -0.003 C 
ATOM     25  C   UNL     1       1.013  -0.101  -0.184  1.00  0.00     0.004 C 
ENDBRANCH  23  24
ENDBRANCH  22  23
ENDBRANCH  21  22
ENDBRANCH  20  21
ENDBRANCH  17  20
ENDBRANCH  15  16
ENDBRANCH  10  15
ENDBRANCH   4   9
BRANCH   6  26
ATOM     26  O   UNL     1      -4.211   7.870   3.967  1.00  0.00    -0.507 OA
ATOM     27  H   UNL     1      -4.276   6.951   3.794  1.00  0.00     0.293 HD
ENDBRANCH   6  26
ENDBRANCH   1   3
BRANCH   1  28
ATOM     28  C   UNL     1      -3.598  12.261   7.351  1.00  0.00     0.227 C 
ATOM     29  O   UNL     1      -2.609  12.724   6.769  1.00  0.00    -0.274 OA
ATOM     30  N   UNL     1      -3.481  12.103   8.698  1.00  0.00    -0.356 N 
ATOM     31  H   UNL     1      -2.628  12.425   9.070  1.00  0.00     0.163 HD
BRANCH  30  32
ATOM     32  C   UNL     1      -4.385  11.547   9.681  1.00  0.00     0.116 C 
BRANCH  32  33
ATOM     33  C   UNL     1      -4.091  10.073   9.966  1.00  0.00     0.023 C 
BRANCH  33  34
ATOM     34  C   UNL     1      -3.044   9.820  11.047  1.00  0.00     0.023 C 
BRANCH  34  35
ATOM     35  C   UNL     1      -3.399  10.353  12.429  1.00  0.00     0.116 C 
BRANCH  35  36
ATOM     36  N   UNL     1      -4.657   9.847  12.961  1.00  0.00    -0.352 N 
ATOM     37  C   UNL     1      -4.991   9.626  14.277  1.00  0.00     0.251 C 
ATOM     38  H   UNL     1      -5.354   9.638  12.297  1.00  0.00     0.163 HD
ATOM     39  O   UNL     1      -6.069   9.126  14.578  1.00  0.00    -0.269 OA
BRANCH  37  40
ATOM     40  C   UNL     1      -4.004   9.954  15.326  1.00  0.00     0.039 A 
ATOM     41  C   UNL     1      -3.663   8.977  16.263  1.00  0.00     0.014 A 
ATOM     42  C   UNL     1      -3.362  11.195  15.327  1.00  0.00     0.014 A 
ATOM     43  C   UNL     1      -2.616   9.218  17.155  1.00  0.00     0.010 A 
ATOM     44  C   UNL     1      -2.268  11.400  16.158  1.00  0.00     0.010 A 
ATOM     45  C   UNL     1      -1.884  10.414  17.079  1.00  0.00    -0.014 A 
BRANCH  45  46
ATOM     46  C   UNL     1      -0.714  10.661  17.957  1.00  0.00     0.031 A 
ATOM     47  C   UNL     1      -0.744  11.790  18.948  1.00  0.00     0.074 A 
ATOM     48  C   UNL     1       0.399   9.915  17.815  1.00  0.00     0.049 A 
ATOM     49  N   UNL     1       0.195  12.202  19.761  1.00  0.00    -0.248 NA
ATOM     50  C   UNL     1      -1.985  12.580  19.011  1.00  0.00     0.031 C 
ATOM     51  C   UNL     1       0.573   8.817  16.862  1.00  0.00     0.029 A 
ATOM     52  N   UNL     1       1.599   9.973  18.478  1.00  0.00    -0.354 N 
ATOM     53  C   UNL     1      -0.335  13.306  20.416  1.00  0.00     0.074 A 
ATOM     54  C   UNL     1      -1.651  13.537  19.864  1.00  0.00     0.031 C 
ATOM     55  C   UNL     1       1.791   8.277  17.032  1.00  0.00     0.029 A 
ATOM     56  C   UNL     1       2.497   9.015  18.074  1.00  0.00     0.049 A 
ATOM     57  H   UNL     1       1.798  10.637  19.177  1.00  0.00     0.167 HD
ATOM     58  C   UNL     1       0.212  14.048  21.408  1.00  0.00     0.031 A 
ATOM     59  C   UNL     1       3.748   8.758  18.500  1.00  0.00     0.031 A 
ATOM     60  C   UNL     1       1.516  13.815  21.966  1.00  0.00     0.049 A 
ATOM     61  C   UNL     1       4.342   9.606  19.589  1.00  0.00     0.074 A 
ATOM     62  C   UNL     1       2.142  14.478  23.006  1.00  0.00     0.029 A 
ATOM     63  N   UNL     1       2.395  12.837  21.526  1.00  0.00    -0.354 N 
ATOM     64  N   UNL     1       3.805  10.608  20.242  1.00  0.00    -0.248 NA
ATOM     65  C   UNL     1       5.712   9.278  20.006  1.00  0.00     0.031 C 
ATOM     66  C   UNL     1       3.418  13.927  23.168  1.00  0.00     0.029 A 
ATOM     67  C   UNL     1       3.566  12.889  22.262  1.00  0.00     0.049 A 
ATOM     68  H   UNL     1       2.213  12.199  20.798  1.00  0.00     0.167 HD
ATOM     69  C   UNL     1       4.759  11.011  21.167  1.00  0.00     0.074 A 
ATOM     70  C   UNL     1       5.903  10.137  20.997  1.00  0.00     0.031 C 
ATOM     71  C   UNL     1       4.693  12.012  22.078  1.00  0.00     0.031 A 
BRANCH  58  72
ATOM     72  C   UNL     1      -0.613  15.186  21.942  1.00  0.00    -0.014 A 
ATOM     73  C   UNL     1      -1.779  14.949  22.689  1.00  0.00     0.009 A 
ATOM     74  C   UNL     1      -0.225  16.511  21.693  1.00  0.00     0.009 A 
ATOM     75  C   UNL     1      -2.565  16.014  23.133  1.00  0.00     0.001 A 
ATOM     76  C   UNL     1      -0.997  17.575  22.165  1.00  0.00     0.001 A 
ATOM     77  C   UNL     1      -2.172  17.326  22.872  1.00  0.00     0.000 A 
ENDBRANCH  58  72
BRANCH  59  78
ATOM     78  C   UNL     1       4.511   7.619  17.926  1.00  0.00    -0.014 A 
ATOM     79  C   UNL     1       4.732   6.464  18.692  1.00  0.00     0.009 A 
ATOM     80  C   UNL     1       5.021   7.677  16.620  1.00  0.00     0.009 A 
ATOM     81  C   UNL     1       5.469   5.398  18.170  1.00  0.00     0.001 A 
ATOM     82  C   UNL     1       5.735   6.599  16.092  1.00  0.00     0.001 A 
ATOM     83  C   UNL     1       5.965   5.465  16.869  1.00  0.00     0.000 A 
ENDBRANCH  59  78
BRANCH  71  84
ATOM     84  C   UNL     1       5.876  12.190  22.987  1.00  0.00    -0.014 A 
ATOM     85  C   UNL     1       7.081  12.735  22.518  1.00  0.00     0.009 A 
ATOM     86  C   UNL     1       5.768  11.837  24.341  1.00  0.00     0.009 A 
ATOM     87  C   UNL     1       8.166  12.894  23.382  1.00  0.00     0.001 A 
ATOM     88  C   UNL     1       6.845  12.023  25.209  1.00  0.00     0.001 A 
ATOM     89  C   UNL     1       8.045  12.542  24.727  1.00  0.00     0.000 A 
ENDBRANCH  71  84
ENDBRANCH  45  46
ENDBRANCH  37  40
ENDBRANCH  35  36
ENDBRANCH  34  35
ENDBRANCH  33  34
ENDBRANCH  32  33
ENDBRANCH  30  32
ENDBRANCH   1  28
TORSDOF 21
