REMARK SMILES O=C(CC1(CC(=O)NNc2ccc([N+](=O)[O-])cc2)CCCC1)NCCCCNC(=O)c1ccc(-c2c3nc(c(-c4ccccc4)c4ccc([nH]4)c(-c4ccccc4)c4nc(c(-c5ccccc5)c5ccc2[nH]5)C=C4)C=C3)cc1
REMARK SMILES IDX 1 1 2 2 23 3 3 5 4 6 19 7 22 8 20 9 21 10 5 11 6 12 7 13
REMARK SMILES IDX 8 14 9 16 10 18 11 19 18 20 12 21 17 22 13 23 14 24 15 25
REMARK SMILES IDX 16 26 24 27 25 28 26 29 27 30 28 31 29 32 30 34 31 35 32 36
REMARK SMILES IDX 78 37 33 38 77 39 34 40 35 41 36 42 71 43 37 44 76 45 70 46
REMARK SMILES IDX 72 47 38 48 75 49 69 50 68 51 39 53 61 54 46 55 60 56 47 57
REMARK SMILES IDX 50 58 59 59 73 60 48 61 49 62 58 64 74 65 51 66 40 67 41 68
REMARK SMILES IDX 45 69 42 70 44 71 43 72 62 73 63 74 67 75 64 76 66 77 65 78
REMARK SMILES IDX 52 79 53 80 57 81 54 82 56 83 55 84
REMARK H PARENT 23 4 8 15 9 17 28 33 72 52 50 63
REMARK Flexibility Score: inf
ROOT
ATOM      1  O   UNL     1       0.801  -0.162  -0.279  1.00  0.00    -0.275 OA
ATOM      2  C   UNL     1       1.982  -0.222   0.054  1.00  0.00     0.220 C 
ATOM      3  N   UNL     1       2.608   0.752   0.795  1.00  0.00    -0.356 N 
ATOM      4  H   UNL     1       3.509   0.576   1.151  1.00  0.00     0.163 HD
ENDROOT
BRANCH   2   5
ATOM      5  C   UNL     1       2.884  -1.357  -0.416  1.00  0.00     0.107 C 
BRANCH   5   6
ATOM      6  C   UNL     1       3.682  -1.034  -1.712  1.00  0.00    -0.012 C 
ATOM      7  C   UNL     1       3.614  -2.222  -2.708  1.00  0.00     0.008 C 
ATOM      8  C   UNL     1       3.015   0.043  -2.586  1.00  0.00     0.008 C 
ATOM      9  C   UNL     1       3.940  -1.626  -4.080  1.00  0.00     0.001 C 
ATOM     10  C   UNL     1       3.593  -0.142  -3.984  1.00  0.00     0.001 C 
BRANCH   6  11
ATOM     11  C   UNL     1       5.181  -0.735  -1.417  1.00  0.00     0.109 C 
BRANCH  11  12
ATOM     12  C   UNL     1       5.460   0.381  -0.429  1.00  0.00     0.238 C 
ATOM     13  O   UNL     1       5.379   0.189   0.788  1.00  0.00    -0.273 OA
ATOM     14  N   UNL     1       5.797   1.628  -0.877  1.00  0.00    -0.270 N 
ATOM     15  H   UNL     1       6.132   2.284  -0.223  1.00  0.00     0.191 HD
BRANCH  14  16
ATOM     16  N   UNL     1       5.692   2.021  -2.205  1.00  0.00    -0.299 N 
ATOM     17  H   UNL     1       5.848   1.410  -2.961  1.00  0.00     0.188 HD
BRANCH  16  18
ATOM     18  C   UNL     1       5.342   3.373  -2.367  1.00  0.00     0.055 A 
ATOM     19  C   UNL     1       4.075   3.720  -2.853  1.00  0.00     0.034 A 
ATOM     20  C   UNL     1       6.263   4.392  -2.094  1.00  0.00     0.034 A 
ATOM     21  C   UNL     1       3.711   5.057  -3.032  1.00  0.00     0.088 A 
ATOM     22  C   UNL     1       5.915   5.735  -2.274  1.00  0.00     0.088 A 
ATOM     23  C   UNL     1       4.635   6.063  -2.737  1.00  0.00     0.269 A 
BRANCH  23  24
ATOM     24  N   UNL     1       4.266   7.471  -2.927  1.00  0.00     0.062 N 
ATOM     25  O   UNL     1       3.187   7.714  -3.484  1.00  0.00    -0.258 OA
ATOM     26  O   UNL     1       5.063   8.330  -2.523  1.00  0.00    -0.258 OA
ENDBRANCH  23  24
ENDBRANCH  16  18
ENDBRANCH  14  16
ENDBRANCH  11  12
ENDBRANCH   6  11
ENDBRANCH   5   6
ENDBRANCH   2   5
BRANCH   3  27
ATOM     27  C   UNL     1       1.980   2.029   1.068  1.00  0.00     0.116 C 
BRANCH  27  28
ATOM     28  C   UNL     1       2.294   2.573   2.460  1.00  0.00     0.023 C 
BRANCH  28  29
ATOM     29  C   UNL     1       3.768   2.889   2.731  1.00  0.00     0.023 C 
BRANCH  29  30
ATOM     30  C   UNL     1       4.385   3.981   1.859  1.00  0.00     0.116 C 
BRANCH  30  31
ATOM     31  N   UNL     1       3.862   5.307   2.149  1.00  0.00    -0.352 N 
ATOM     32  C   UNL     1       4.511   6.486   2.438  1.00  0.00     0.251 C 
ATOM     33  H   UNL     1       2.880   5.372   2.136  1.00  0.00     0.163 HD
ATOM     34  O   UNL     1       3.854   7.457   2.800  1.00  0.00    -0.269 OA
BRANCH  32  35
ATOM     35  C   UNL     1       5.988   6.608   2.336  1.00  0.00     0.039 A 
ATOM     36  C   UNL     1       6.669   7.392   3.274  1.00  0.00     0.014 A 
ATOM     37  C   UNL     1       6.707   6.002   1.306  1.00  0.00     0.014 A 
ATOM     38  C   UNL     1       8.064   7.503   3.220  1.00  0.00     0.010 A 
ATOM     39  C   UNL     1       8.101   6.066   1.278  1.00  0.00     0.010 A 
ATOM     40  C   UNL     1       8.795   6.809   2.242  1.00  0.00    -0.014 A 
BRANCH  40  41
ATOM     41  C   UNL     1      10.281   6.796   2.250  1.00  0.00     0.031 A 
ATOM     42  C   UNL     1      11.070   7.431   1.138  1.00  0.00     0.074 A 
ATOM     43  C   UNL     1      10.925   6.128   3.227  1.00  0.00     0.049 A 
ATOM     44  N   UNL     1      12.368   7.465   0.966  1.00  0.00    -0.248 NA
ATOM     45  C   UNL     1      10.303   8.089   0.069  1.00  0.00     0.031 C 
ATOM     46  C   UNL     1      10.280   5.419   4.335  1.00  0.00     0.029 A 
ATOM     47  N   UNL     1      12.266   5.924   3.438  1.00  0.00    -0.354 N 
ATOM     48  C   UNL     1      12.575   8.137  -0.232  1.00  0.00     0.074 A 
ATOM     49  C   UNL     1      11.267   8.455  -0.766  1.00  0.00     0.031 C 
ATOM     50  C   UNL     1      11.226   4.879   5.120  1.00  0.00     0.029 A 
ATOM     51  C   UNL     1      12.539   5.175   4.557  1.00  0.00     0.049 A 
ATOM     52  H   UNL     1      12.966   6.281   2.845  1.00  0.00     0.167 HD
ATOM     53  C   UNL     1      13.746   8.474  -0.826  1.00  0.00     0.031 A 
ATOM     54  C   UNL     1      13.713   4.769   5.075  1.00  0.00     0.031 A 
ATOM     55  C   UNL     1      15.049   8.175  -0.291  1.00  0.00     0.049 A 
ATOM     56  C   UNL     1      14.996   5.158   4.399  1.00  0.00     0.074 A 
ATOM     57  C   UNL     1      16.289   8.546  -0.783  1.00  0.00     0.029 A 
ATOM     58  N   UNL     1      15.282   7.430   0.854  1.00  0.00    -0.354 N 
ATOM     59  N   UNL     1      15.173   5.866   3.311  1.00  0.00    -0.248 NA
ATOM     60  C   UNL     1      16.241   4.702   5.033  1.00  0.00     0.031 C 
ATOM     61  C   UNL     1      17.273   7.987   0.038  1.00  0.00     0.029 A 
ATOM     62  C   UNL     1      16.645   7.307   1.068  1.00  0.00     0.049 A 
ATOM     63  H   UNL     1      14.582   7.045   1.430  1.00  0.00     0.167 HD
ATOM     64  C   UNL     1      16.548   5.966   3.146  1.00  0.00     0.074 A 
ATOM     65  C   UNL     1      17.158   5.255   4.250  1.00  0.00     0.031 C 
ATOM     66  C   UNL     1      17.242   6.595   2.167  1.00  0.00     0.031 A 
BRANCH  53  67
ATOM     67  C   UNL     1      13.675   9.212  -2.134  1.00  0.00    -0.014 A 
ATOM     68  C   UNL     1      13.266  10.553  -2.190  1.00  0.00     0.009 A 
ATOM     69  C   UNL     1      14.078   8.575  -3.319  1.00  0.00     0.009 A 
ATOM     70  C   UNL     1      13.230  11.232  -3.410  1.00  0.00     0.001 A 
ATOM     71  C   UNL     1      14.066   9.263  -4.533  1.00  0.00     0.001 A 
ATOM     72  C   UNL     1      13.634  10.588  -4.580  1.00  0.00     0.000 A 
ENDBRANCH  53  67
BRANCH  54  73
ATOM     73  C   UNL     1      13.732   3.968   6.325  1.00  0.00    -0.014 A 
ATOM     74  C   UNL     1      14.151   4.551   7.531  1.00  0.00     0.009 A 
ATOM     75  C   UNL     1      13.333   2.623   6.321  1.00  0.00     0.009 A 
ATOM     76  C   UNL     1      14.193   3.795   8.704  1.00  0.00     0.001 A 
ATOM     77  C   UNL     1      13.352   1.877   7.500  1.00  0.00     0.001 A 
ATOM     78  C   UNL     1      13.790   2.460   8.689  1.00  0.00     0.000 A 
ENDBRANCH  54  73
BRANCH  66  79
ATOM     79  C   UNL     1      18.741   6.569   2.264  1.00  0.00    -0.014 A 
ATOM     80  C   UNL     1      19.468   5.403   1.980  1.00  0.00     0.009 A 
ATOM     81  C   UNL     1      19.435   7.736   2.618  1.00  0.00     0.009 A 
ATOM     82  C   UNL     1      20.861   5.399   2.077  1.00  0.00     0.001 A 
ATOM     83  C   UNL     1      20.829   7.736   2.690  1.00  0.00     0.001 A 
ATOM     84  C   UNL     1      21.540   6.566   2.429  1.00  0.00     0.000 A 
ENDBRANCH  66  79
ENDBRANCH  40  41
ENDBRANCH  32  35
ENDBRANCH  30  31
ENDBRANCH  29  30
ENDBRANCH  28  29
ENDBRANCH  27  28
ENDBRANCH   3  27
TORSDOF 17
