REMARK SMILES C=CCOc1ccccc1/C=C/c1cc(C(=O)NCCCCNC(=O)c2ccc(-c3c4nc(c(-c5ccccc5)c5ccc([nH]5)c(-c5ccccc5)c5nc(c(-c6ccccc6)c6ccc3[nH]6)C=C5)C=C4)cc2)ncn1
REMARK SMILES IDX 19 1 18 2 16 3 17 4 15 6 13 7 14 8 76 9 75 10 74 11 12 12
REMARK SMILES IDX 11 13 10 14 5 15 6 16 7 17 9 18 8 19 4 20 3 21 2 22 1 23
REMARK SMILES IDX 20 24 21 25 22 26 23 27 24 28 25 30 26 31 27 32 73 33 28 34
REMARK SMILES IDX 72 35 29 36 30 37 31 38 66 39 32 40 71 41 65 42 67 43 33 44
REMARK SMILES IDX 70 45 64 46 63 47 34 49 56 50 41 51 55 52 42 53 45 54 54 55
REMARK SMILES IDX 68 56 43 57 44 58 53 60 69 61 46 62 35 63 36 64 40 65 37 66
REMARK SMILES IDX 39 67 38 68 57 69 58 70 62 71 59 72 61 73 60 74 47 75 48 76
REMARK SMILES IDX 52 77 49 78 51 79 50 80
REMARK H PARENT 18 5 23 29 67 48 45 59
REMARK Flexibility Score: inf
ROOT
ATOM      1  C   UNL     1       2.421  -2.204  -3.237  1.00  0.00     0.116 C 
ENDROOT
BRANCH   1   2
ATOM      2  N   UNL     1       3.691  -2.801  -2.864  1.00  0.00    -0.351 N 
ATOM      3  C   UNL     1       4.665  -2.419  -1.963  1.00  0.00     0.270 C 
ATOM      4  O   UNL     1       5.632  -3.172  -1.834  1.00  0.00    -0.268 OA
ATOM      5  H   UNL     1       3.897  -3.636  -3.345  1.00  0.00     0.163 HD
BRANCH   3   6
ATOM      6  C   UNL     1       4.562  -1.179  -1.121  1.00  0.00     0.132 A 
ATOM      7  C   UNL     1       3.688   0.926  -0.601  1.00  0.00     0.067 A 
ATOM      8  C   UNL     1       3.924  -0.041  -1.554  1.00  0.00     0.062 A 
ATOM      9  N   UNL     1       4.229   0.874   0.628  1.00  0.00    -0.237 NA
ATOM     10  C   UNL     1       4.943  -0.223   0.912  1.00  0.00     0.223 A 
ATOM     11  N   UNL     1       5.107  -1.278   0.112  1.00  0.00    -0.231 NA
BRANCH   7  12
ATOM     12  C   UNL     1       2.708   2.007  -0.803  1.00  0.00     0.029 C 
ATOM     13  C   UNL     1       1.635   1.857  -1.600  1.00  0.00     0.014 C 
BRANCH  13  14
ATOM     14  C   UNL     1       0.454   2.732  -1.653  1.00  0.00     0.017 A 
ATOM     15  C   UNL     1      -0.814   2.166  -1.901  1.00  0.00     0.126 A 
ATOM     16  C   UNL     1      -1.956   2.963  -2.005  1.00  0.00     0.047 A 
ATOM     17  C   UNL     1      -1.850   4.340  -1.828  1.00  0.00     0.004 A 
ATOM     18  C   UNL     1       0.541   4.118  -1.488  1.00  0.00     0.012 A 
ATOM     19  C   UNL     1      -0.606   4.916  -1.568  1.00  0.00     0.001 A 
BRANCH  15  20
ATOM     20  O   UNL     1      -0.948   0.809  -2.097  1.00  0.00    -0.489 OA
BRANCH  20  21
ATOM     21  C   UNL     1      -1.364   0.152  -0.891  1.00  0.00     0.257 C 
BRANCH  21  22
ATOM     22  C   UNL     1      -0.293  -0.819  -0.486  1.00  0.00     0.006 C 
ATOM     23  C   UNL     1       0.419  -0.732   0.646  1.00  0.00     0.007 C 
ENDBRANCH  21  22
ENDBRANCH  20  21
ENDBRANCH  15  20
ENDBRANCH  13  14
ENDBRANCH   7  12
ENDBRANCH   3   6
ENDBRANCH   1   2
BRANCH   1  24
ATOM     24  C   UNL     1       2.548  -1.427  -4.550  1.00  0.00     0.023 C 
BRANCH  24  25
ATOM     25  C   UNL     1       2.549  -2.306  -5.803  1.00  0.00     0.023 C 
BRANCH  25  26
ATOM     26  C   UNL     1       1.247  -3.056  -6.064  1.00  0.00     0.116 C 
BRANCH  26  27
ATOM     27  N   UNL     1       0.096  -2.179  -6.219  1.00  0.00    -0.352 N 
ATOM     28  C   UNL     1      -0.980  -2.318  -7.062  1.00  0.00     0.251 C 
ATOM     29  H   UNL     1       0.087  -1.380  -5.643  1.00  0.00     0.163 HD
ATOM     30  O   UNL     1      -1.826  -1.433  -7.145  1.00  0.00    -0.269 OA
BRANCH  28  31
ATOM     31  C   UNL     1      -1.092  -3.527  -7.903  1.00  0.00     0.039 A 
ATOM     32  C   UNL     1      -1.336  -3.374  -9.270  1.00  0.00     0.014 A 
ATOM     33  C   UNL     1      -0.924  -4.800  -7.352  1.00  0.00     0.014 A 
ATOM     34  C   UNL     1      -1.337  -4.496 -10.100  1.00  0.00     0.010 A 
ATOM     35  C   UNL     1      -0.862  -5.909  -8.188  1.00  0.00     0.010 A 
ATOM     36  C   UNL     1      -1.060  -5.767  -9.570  1.00  0.00    -0.014 A 
BRANCH  36  37
ATOM     37  C   UNL     1      -0.953  -6.959 -10.446  1.00  0.00     0.031 A 
ATOM     38  C   UNL     1      -1.937  -8.085 -10.315  1.00  0.00     0.074 A 
ATOM     39  C   UNL     1       0.081  -7.062 -11.303  1.00  0.00     0.049 A 
ATOM     40  N   UNL     1      -1.959  -9.239 -10.933  1.00  0.00    -0.248 NA
ATOM     41  C   UNL     1      -3.026  -7.903  -9.342  1.00  0.00     0.031 C 
ATOM     42  C   UNL     1       1.130  -6.057 -11.494  1.00  0.00     0.029 A 
ATOM     43  N   UNL     1       0.427  -8.071 -12.167  1.00  0.00    -0.354 N 
ATOM     44  C   UNL     1      -3.046  -9.926 -10.410  1.00  0.00     0.074 A 
ATOM     45  C   UNL     1      -3.635  -9.079  -9.396  1.00  0.00     0.031 C 
ATOM     46  C   UNL     1       1.989  -6.492 -12.430  1.00  0.00     0.029 A 
ATOM     47  C   UNL     1       1.576  -7.818 -12.876  1.00  0.00     0.049 A 
ATOM     48  H   UNL     1      -0.099  -8.897 -12.269  1.00  0.00     0.167 HD
ATOM     49  C   UNL     1      -3.522 -11.146 -10.754  1.00  0.00     0.031 A 
ATOM     50  C   UNL     1       2.230  -8.574 -13.777  1.00  0.00     0.031 A 
ATOM     51  C   UNL     1      -2.946 -11.983 -11.772  1.00  0.00     0.049 A 
ATOM     52  C   UNL     1       1.686  -9.928 -14.136  1.00  0.00     0.074 A 
ATOM     53  C   UNL     1      -3.398 -13.204 -12.242  1.00  0.00     0.029 A 
ATOM     54  N   UNL     1      -1.788 -11.687 -12.474  1.00  0.00    -0.354 N 
ATOM     55  N   UNL     1       0.614 -10.532 -13.686  1.00  0.00    -0.248 NA
ATOM     56  C   UNL     1       2.441 -10.700 -15.134  1.00  0.00     0.031 C 
ATOM     57  C   UNL     1      -2.486 -13.670 -13.195  1.00  0.00     0.029 A 
ATOM     58  C   UNL     1      -1.494 -12.715 -13.354  1.00  0.00     0.049 A 
ATOM     59  H   UNL     1      -1.255 -10.867 -12.364  1.00  0.00     0.167 HD
ATOM     60  C   UNL     1       0.555 -11.746 -14.357  1.00  0.00     0.074 A 
ATOM     61  C   UNL     1       1.688 -11.784 -15.258  1.00  0.00     0.031 C 
ATOM     62  C   UNL     1      -0.357 -12.742 -14.236  1.00  0.00     0.031 A 
BRANCH  49  63
ATOM     63  C   UNL     1      -4.725 -11.651 -10.009  1.00  0.00    -0.014 A 
ATOM     64  C   UNL     1      -5.995 -11.084 -10.208  1.00  0.00     0.009 A 
ATOM     65  C   UNL     1      -4.593 -12.725  -9.115  1.00  0.00     0.009 A 
ATOM     66  C   UNL     1      -7.099 -11.558  -9.496  1.00  0.00     0.001 A 
ATOM     67  C   UNL     1      -5.704 -13.214  -8.426  1.00  0.00     0.001 A 
ATOM     68  C   UNL     1      -6.954 -12.624  -8.610  1.00  0.00     0.000 A 
ENDBRANCH  49  63
BRANCH  50  69
ATOM     69  C   UNL     1       3.472  -8.063 -14.412  1.00  0.00    -0.014 A 
ATOM     70  C   UNL     1       3.469  -7.662 -15.756  1.00  0.00     0.009 A 
ATOM     71  C   UNL     1       4.665  -7.972 -13.677  1.00  0.00     0.009 A 
ATOM     72  C   UNL     1       4.642  -7.201 -16.358  1.00  0.00     0.001 A 
ATOM     73  C   UNL     1       5.829  -7.486 -14.275  1.00  0.00     0.001 A 
ATOM     74  C   UNL     1       5.819  -7.109 -15.617  1.00  0.00     0.000 A 
ENDBRANCH  50  69
BRANCH  62  75
ATOM     75  C   UNL     1      -0.174 -13.947 -15.113  1.00  0.00    -0.014 A 
ATOM     76  C   UNL     1       0.835 -14.886 -14.852  1.00  0.00     0.009 A 
ATOM     77  C   UNL     1      -1.048 -14.165 -16.189  1.00  0.00     0.009 A 
ATOM     78  C   UNL     1       0.984 -16.006 -15.672  1.00  0.00     0.001 A 
ATOM     79  C   UNL     1      -0.913 -15.300 -16.991  1.00  0.00     0.001 A 
ATOM     80  C   UNL     1       0.107 -16.215 -16.736  1.00  0.00     0.000 A 
ENDBRANCH  62  75
ENDBRANCH  36  37
ENDBRANCH  28  31
ENDBRANCH  26  27
ENDBRANCH  25  26
ENDBRANCH  24  25
ENDBRANCH   1  24
TORSDOF 16
