REMARK SMILES Cc1ccc([C@@]23C[C@@H]4C[C@@H](C[C@@](C(=O)N5CCC(C(=O)NCCCCNC(=O)c6ccc(-c7c8nc(c(-c9ccccc9)c9ccc([nH]9)c(-c9ccccc9)c9nc(c(-c%10ccccc%10)c%10ccc7[nH]%10)C=C9)C=C8)cc6)CC5)(C4)C2)C3)cc1
REMARK SMILES IDX 23 1 22 2 21 3 19 4 20 5 18 7 13 8 14 9 15 10 16 11 78 12
REMARK SMILES IDX 17 13 77 14 12 15 6 16 7 17 80 18 81 19 8 20 10 21 9 22
REMARK SMILES IDX 79 23 11 24 5 25 1 26 2 27 3 28 83 29 4 30 82 31 24 32 25 33
REMARK SMILES IDX 26 34 27 35 28 37 29 38 30 39 76 40 31 41 75 42 32 43 33 44
REMARK SMILES IDX 34 45 69 46 35 47 74 48 68 49 70 50 36 51 73 52 67 53 66 54
REMARK SMILES IDX 37 56 59 57 44 58 58 59 45 60 48 61 57 62 71 63 46 64 47 65
REMARK SMILES IDX 56 67 72 68 49 69 38 70 39 71 43 72 40 73 42 74 41 75 60 76
REMARK SMILES IDX 61 77 65 78 62 79 64 80 63 81 50 82 51 83 55 84 52 85 54 86
REMARK SMILES IDX 53 87
REMARK H PARENT 21 6 26 36 70 55 48 66
REMARK Flexibility Score: inf
ROOT
ATOM      1  C   UNL     1      -8.995  -1.541  -3.805  1.00  0.00     0.023 C 
ENDROOT
BRANCH   1   2
ATOM      2  C   UNL     1      -8.809  -2.998  -3.356  1.00  0.00     0.116 C 
BRANCH   2   3
ATOM      3  N   UNL     1      -8.422  -3.893  -4.440  1.00  0.00    -0.356 N 
ATOM      4  C   UNL     1      -7.286  -4.608  -4.672  1.00  0.00     0.223 C 
ATOM      5  O   UNL     1      -7.250  -5.312  -5.684  1.00  0.00    -0.275 OA
ATOM      6  H   UNL     1      -9.111  -4.001  -5.135  1.00  0.00     0.163 HD
BRANCH   4   7
ATOM      7  C   UNL     1      -6.087  -4.551  -3.737  1.00  0.00     0.082 C 
ATOM      8  C   UNL     1      -5.825  -2.448  -0.392  1.00  0.00     0.228 C 
ATOM      9  O   UNL     1      -6.730  -2.869   0.336  1.00  0.00    -0.274 OA
ATOM     10  N   UNL     1      -5.228  -3.289  -1.330  1.00  0.00    -0.342 N 
ATOM     11  C   UNL     1      -5.483  -4.721  -1.254  1.00  0.00     0.120 C 
ATOM     12  C   UNL     1      -4.539  -2.916  -2.564  1.00  0.00     0.120 C 
ATOM     13  C   UNL     1      -6.426  -5.160  -2.363  1.00  0.00     0.035 C 
ATOM     14  C   UNL     1      -5.474  -3.143  -3.737  1.00  0.00     0.035 C 
BRANCH   8  15
ATOM     15  C   UNL     1      -5.327  -0.994  -0.228  1.00  0.00     0.051 C 
ATOM     16  C   UNL     1      -3.178   0.399   0.067  1.00  0.00    -0.003 C 
ATOM     17  C   UNL     1      -3.663   1.226  -1.162  1.00  0.00     0.015 C 
ATOM     18  C   UNL     1      -3.796  -1.012  -0.060  1.00  0.00     0.028 C 
ATOM     19  C   UNL     1      -3.766   1.028   1.355  1.00  0.00     0.015 C 
ATOM     20  C   UNL     1      -5.200   1.325  -1.211  1.00  0.00    -0.009 C 
ATOM     21  C   UNL     1      -5.307   1.068   1.283  1.00  0.00    -0.009 C 
ATOM     22  C   UNL     1      -5.721   1.945   0.093  1.00  0.00     0.007 C 
ATOM     23  C   UNL     1      -5.801  -0.077  -1.373  1.00  0.00     0.020 C 
ATOM     24  C   UNL     1      -5.874  -0.356   1.088  1.00  0.00     0.020 C 
BRANCH  16  25
ATOM     25  C   UNL     1      -1.640   0.334   0.117  1.00  0.00    -0.042 A 
ATOM     26  C   UNL     1       2.700   0.155   0.015  1.00  0.00     0.044 C 
ATOM     27  C   UNL     1       1.204   0.235   0.075  1.00  0.00    -0.051 A 
ATOM     28  C   UNL     1       0.457  -0.938   0.139  1.00  0.00     0.004 A 
ATOM     29  C   UNL     1       0.531   1.459   0.059  1.00  0.00     0.004 A 
ATOM     30  C   UNL     1      -0.939  -0.887   0.168  1.00  0.00     0.004 A 
ATOM     31  C   UNL     1      -0.869   1.507   0.085  1.00  0.00     0.004 A 
ENDBRANCH  16  25
ENDBRANCH   8  15
ENDBRANCH   4   7
ENDBRANCH   2   3
ENDBRANCH   1   2
BRANCH   1  32
ATOM     32  C   UNL     1      -9.959  -1.323  -4.973  1.00  0.00     0.023 C 
BRANCH  32  33
ATOM     33  C   UNL     1     -11.407  -1.679  -4.668  1.00  0.00     0.116 C 
BRANCH  33  34
ATOM     34  N   UNL     1     -12.212  -0.577  -4.158  1.00  0.00    -0.352 N 
ATOM     35  C   UNL     1     -13.490  -0.606  -3.620  1.00  0.00     0.251 C 
ATOM     36  H   UNL     1     -11.790   0.311  -4.202  1.00  0.00     0.163 HD
ATOM     37  O   UNL     1     -14.041   0.430  -3.283  1.00  0.00    -0.269 OA
BRANCH  35  38
ATOM     38  C   UNL     1     -14.126  -1.917  -3.330  1.00  0.00     0.039 A 
ATOM     39  C   UNL     1     -14.675  -2.103  -2.056  1.00  0.00     0.014 A 
ATOM     40  C   UNL     1     -13.983  -2.998  -4.196  1.00  0.00     0.014 A 
ATOM     41  C   UNL     1     -14.824  -3.396  -1.563  1.00  0.00     0.010 A 
ATOM     42  C   UNL     1     -14.037  -4.277  -3.678  1.00  0.00     0.010 A 
ATOM     43  C   UNL     1     -14.383  -4.468  -2.338  1.00  0.00    -0.014 A 
BRANCH  43  44
ATOM     44  C   UNL     1     -14.115  -5.787  -1.778  1.00  0.00     0.031 A 
ATOM     45  C   UNL     1     -15.039  -6.910  -2.013  1.00  0.00     0.074 A 
ATOM     46  C   UNL     1     -13.009  -5.985  -1.027  1.00  0.00     0.049 A 
ATOM     47  N   UNL     1     -15.184  -7.909  -1.209  1.00  0.00    -0.248 NA
ATOM     48  C   UNL     1     -15.942  -6.951  -3.155  1.00  0.00     0.031 C 
ATOM     49  C   UNL     1     -12.455  -7.256  -0.572  1.00  0.00     0.029 A 
ATOM     50  N   UNL     1     -12.288  -5.032  -0.325  1.00  0.00    -0.354 N 
ATOM     51  C   UNL     1     -15.940  -8.854  -1.861  1.00  0.00     0.074 A 
ATOM     52  C   UNL     1     -16.491  -8.159  -3.002  1.00  0.00     0.031 C 
ATOM     53  C   UNL     1     -11.660  -7.029   0.487  1.00  0.00     0.029 A 
ATOM     54  C   UNL     1     -11.787  -5.624   0.838  1.00  0.00     0.049 A 
ATOM     55  H   UNL     1     -12.151  -4.096  -0.599  1.00  0.00     0.167 HD
ATOM     56  C   UNL     1     -15.883 -10.154  -1.454  1.00  0.00     0.031 A 
ATOM     57  C   UNL     1     -12.143  -5.159   2.072  1.00  0.00     0.031 A 
ATOM     58  C   UNL     1     -15.107 -10.306  -0.219  1.00  0.00     0.049 A 
ATOM     59  C   UNL     1     -12.898  -6.168   2.912  1.00  0.00     0.074 A 
ATOM     60  C   UNL     1     -13.830 -10.776   0.044  1.00  0.00     0.029 A 
ATOM     61  N   UNL     1     -15.545  -9.686   0.947  1.00  0.00    -0.354 N 
ATOM     62  N   UNL     1     -13.435  -7.259   2.441  1.00  0.00    -0.248 NA
ATOM     63  C   UNL     1     -13.149  -6.002   4.342  1.00  0.00     0.031 C 
ATOM     64  C   UNL     1     -13.476 -10.376   1.360  1.00  0.00     0.029 A 
ATOM     65  C   UNL     1     -14.548  -9.691   1.904  1.00  0.00     0.049 A 
ATOM     66  H   UNL     1     -16.441  -9.299   1.073  1.00  0.00     0.167 HD
ATOM     67  C   UNL     1     -14.093  -7.922   3.444  1.00  0.00     0.074 A 
ATOM     68  C   UNL     1     -13.869  -7.104   4.621  1.00  0.00     0.031 C 
ATOM     69  C   UNL     1     -14.777  -9.081   3.208  1.00  0.00     0.031 A 
BRANCH  56  70
ATOM     70  C   UNL     1     -16.273 -11.329  -2.331  1.00  0.00    -0.014 A 
ATOM     71  C   UNL     1     -15.760 -12.609  -2.045  1.00  0.00     0.009 A 
ATOM     72  C   UNL     1     -17.062 -11.243  -3.490  1.00  0.00     0.009 A 
ATOM     73  C   UNL     1     -15.943 -13.700  -2.909  1.00  0.00     0.001 A 
ATOM     74  C   UNL     1     -17.232 -12.319  -4.372  1.00  0.00     0.001 A 
ATOM     75  C   UNL     1     -16.659 -13.548  -4.088  1.00  0.00     0.000 A 
ENDBRANCH  56  70
BRANCH  57  76
ATOM     76  C   UNL     1     -12.369  -3.688   2.114  1.00  0.00    -0.014 A 
ATOM     77  C   UNL     1     -11.263  -2.837   1.919  1.00  0.00     0.009 A 
ATOM     78  C   UNL     1     -13.658  -3.151   1.982  1.00  0.00     0.009 A 
ATOM     79  C   UNL     1     -11.440  -1.517   1.494  1.00  0.00     0.001 A 
ATOM     80  C   UNL     1     -13.830  -1.824   1.566  1.00  0.00     0.001 A 
ATOM     81  C   UNL     1     -12.724  -1.021   1.290  1.00  0.00     0.000 A 
ENDBRANCH  57  76
BRANCH  69  82
ATOM     82  C   UNL     1     -15.681  -9.805   4.180  1.00  0.00    -0.014 A 
ATOM     83  C   UNL     1     -16.291  -9.216   5.294  1.00  0.00     0.009 A 
ATOM     84  C   UNL     1     -16.047 -11.142   3.897  1.00  0.00     0.009 A 
ATOM     85  C   UNL     1     -17.183  -9.935   6.105  1.00  0.00     0.001 A 
ATOM     86  C   UNL     1     -16.968 -11.848   4.674  1.00  0.00     0.001 A 
ATOM     87  C   UNL     1     -17.529 -11.245   5.790  1.00  0.00     0.000 A 
ENDBRANCH  69  82
ENDBRANCH  43  44
ENDBRANCH  35  38
ENDBRANCH  33  34
ENDBRANCH  32  33
ENDBRANCH   1  32
TORSDOF 13
