REMARK SMILES CCC[C@](C)(CC(F)(F)F)C(=O)NCCCCNC(=O)c1ccc(-c2c3nc(c(-c4ccccc4)c4ccc([nH]4)c(-c4ccccc4)c4nc(c(-c5ccccc5)c5ccc2[nH]5)C=C4)C=C3)cc1
REMARK SMILES IDX 15 1 14 2 13 3 11 4 12 5 4 7 5 8 3 9 2 10 1 11 6 12 7 13
REMARK SMILES IDX 8 14 9 15 10 16 16 17 17 18 18 19 19 20 20 22 21 23 22 24
REMARK SMILES IDX 68 25 23 26 67 27 24 28 25 29 26 30 61 31 27 32 66 33 60 34
REMARK SMILES IDX 62 35 28 36 65 37 59 38 58 39 29 41 51 42 36 43 50 44 37 45
REMARK SMILES IDX 40 46 49 47 63 48 38 49 39 50 48 52 64 53 41 54 30 55 31 56
REMARK SMILES IDX 35 57 32 58 34 59 33 60 52 61 53 62 57 63 54 64 56 65 55 66
REMARK SMILES IDX 42 67 43 68 47 69 44 70 46 71 45 72
REMARK H PARENT 13 6 18 21 62 40 40 51
REMARK Flexibility Score: inf
ROOT
ATOM      1  C   UNL     1       0.708  -4.152  -4.467  1.00  0.00     0.023 C 
ENDROOT
BRANCH   1   2
ATOM      2  C   UNL     1      -0.070  -3.306  -3.464  1.00  0.00     0.116 C 
BRANCH   2   3
ATOM      3  N   UNL     1       0.794  -2.776  -2.428  1.00  0.00    -0.356 N 
ATOM      4  C   UNL     1       1.153  -1.510  -2.089  1.00  0.00     0.226 C 
ATOM      5  O   UNL     1       1.903  -1.400  -1.116  1.00  0.00    -0.274 OA
ATOM      6  H   UNL     1       1.202  -3.469  -1.859  1.00  0.00     0.163 HD
BRANCH   4   7
ATOM      7  C   UNL     1       0.658  -0.270  -2.862  1.00  0.00     0.055 C 
ATOM      8  C   UNL     1       1.263   1.004  -2.214  1.00  0.00     0.022 C 
BRANCH   7   9
ATOM      9  C   UNL     1      -0.899  -0.123  -2.827  1.00  0.00     0.017 C 
BRANCH   9  10
ATOM     10  C   UNL     1      -1.666  -0.663  -1.607  1.00  0.00    -0.002 C 
ATOM     11  C   UNL     1      -1.329  -0.017  -0.275  1.00  0.00     0.004 C 
ENDBRANCH   9  10
ENDBRANCH   7   9
BRANCH   7  12
ATOM     12  C   UNL     1       1.143  -0.314  -4.342  1.00  0.00     0.132 C 
BRANCH  12  13
ATOM     13  C   UNL     1       2.639  -0.485  -4.559  1.00  0.00     0.390 C 
ATOM     14  F   UNL     1       3.119  -1.602  -3.981  1.00  0.00    -0.171 F 
ATOM     15  F   UNL     1       2.886  -0.591  -5.888  1.00  0.00    -0.171 F 
ATOM     16  F   UNL     1       3.345   0.570  -4.110  1.00  0.00    -0.171 F 
ENDBRANCH  12  13
ENDBRANCH   7  12
ENDBRANCH   4   7
ENDBRANCH   2   3
ENDBRANCH   1   2
BRANCH   1  17
ATOM     17  C   UNL     1       1.208  -5.489  -3.916  1.00  0.00     0.023 C 
BRANCH  17  18
ATOM     18  C   UNL     1       0.130  -6.400  -3.335  1.00  0.00     0.116 C 
BRANCH  18  19
ATOM     19  N   UNL     1      -0.944  -6.684  -4.273  1.00  0.00    -0.352 N 
ATOM     20  C   UNL     1      -1.603  -7.862  -4.512  1.00  0.00     0.251 C 
ATOM     21  H   UNL     1      -1.242  -5.918  -4.816  1.00  0.00     0.163 HD
ATOM     22  O   UNL     1      -2.408  -7.933  -5.441  1.00  0.00    -0.269 OA
BRANCH  20  23
ATOM     23  C   UNL     1      -1.329  -9.055  -3.684  1.00  0.00     0.039 A 
ATOM     24  C   UNL     1      -1.188 -10.290  -4.321  1.00  0.00     0.014 A 
ATOM     25  C   UNL     1      -1.222  -8.968  -2.293  1.00  0.00     0.014 A 
ATOM     26  C   UNL     1      -0.885 -11.425  -3.570  1.00  0.00     0.010 A 
ATOM     27  C   UNL     1      -0.846 -10.087  -1.553  1.00  0.00     0.010 A 
ATOM     28  C   UNL     1      -0.681 -11.329  -2.183  1.00  0.00    -0.014 A 
BRANCH  28  29
ATOM     29  C   UNL     1      -0.286 -12.525  -1.397  1.00  0.00     0.031 A 
ATOM     30  C   UNL     1      -1.205 -13.096  -0.353  1.00  0.00     0.074 A 
ATOM     31  C   UNL     1       0.919 -13.086  -1.612  1.00  0.00     0.049 A 
ATOM     32  N   UNL     1      -1.048 -14.167   0.385  1.00  0.00    -0.248 NA
ATOM     33  C   UNL     1      -2.451 -12.361  -0.085  1.00  0.00     0.031 C 
ATOM     34  C   UNL     1       1.928 -12.594  -2.554  1.00  0.00     0.029 A 
ATOM     35  N   UNL     1       1.496 -14.203  -1.061  1.00  0.00    -0.354 N 
ATOM     36  C   UNL     1      -2.168 -14.228   1.205  1.00  0.00     0.074 A 
ATOM     37  C   UNL     1      -2.968 -13.059   0.916  1.00  0.00     0.031 C 
ATOM     38  C   UNL     1       2.978 -13.429  -2.548  1.00  0.00     0.029 A 
ATOM     39  C   UNL     1       2.731 -14.498  -1.586  1.00  0.00     0.049 A 
ATOM     40  H   UNL     1       1.067 -14.741  -0.357  1.00  0.00     0.167 HD
ATOM     41  C   UNL     1      -2.512 -15.183   2.102  1.00  0.00     0.031 A 
ATOM     42  C   UNL     1       3.566 -15.523  -1.332  1.00  0.00     0.031 A 
ATOM     43  C   UNL     1      -1.719 -16.349   2.389  1.00  0.00     0.049 A 
ATOM     44  C   UNL     1       3.153 -16.578  -0.345  1.00  0.00     0.074 A 
ATOM     45  C   UNL     1      -2.008 -17.401   3.241  1.00  0.00     0.029 A 
ATOM     46  N   UNL     1      -0.478 -16.616   1.831  1.00  0.00    -0.354 N 
ATOM     47  N   UNL     1       2.052 -16.666   0.360  1.00  0.00    -0.248 NA
ATOM     48  C   UNL     1       4.094 -17.688  -0.137  1.00  0.00     0.031 C 
ATOM     49  C   UNL     1      -0.920 -18.281   3.234  1.00  0.00     0.029 A 
ATOM     50  C   UNL     1       0.021 -17.805   2.335  1.00  0.00     0.049 A 
ATOM     51  H   UNL     1      -0.020 -16.043   1.174  1.00  0.00     0.167 HD
ATOM     52  C   UNL     1       2.153 -17.853   1.074  1.00  0.00     0.074 A 
ATOM     53  C   UNL     1       3.414 -18.460   0.699  1.00  0.00     0.031 C 
ATOM     54  C   UNL     1       1.280 -18.393   1.958  1.00  0.00     0.031 A 
BRANCH  41  55
ATOM     55  C   UNL     1      -3.809 -15.000   2.841  1.00  0.00    -0.014 A 
ATOM     56  C   UNL     1      -5.044 -15.125   2.184  1.00  0.00     0.009 A 
ATOM     57  C   UNL     1      -3.799 -14.731   4.218  1.00  0.00     0.009 A 
ATOM     58  C   UNL     1      -6.240 -14.946   2.882  1.00  0.00     0.001 A 
ATOM     59  C   UNL     1      -4.997 -14.581   4.920  1.00  0.00     0.001 A 
ATOM     60  C   UNL     1      -6.216 -14.679   4.250  1.00  0.00     0.000 A 
ENDBRANCH  41  55
BRANCH  42  61
ATOM     61  C   UNL     1       4.858 -15.627  -2.058  1.00  0.00    -0.014 A 
ATOM     62  C   UNL     1       5.050 -16.620  -3.030  1.00  0.00     0.009 A 
ATOM     63  C   UNL     1       5.907 -14.737  -1.780  1.00  0.00     0.009 A 
ATOM     64  C   UNL     1       6.276 -16.739  -3.688  1.00  0.00     0.001 A 
ATOM     65  C   UNL     1       7.122 -14.840  -2.460  1.00  0.00     0.001 A 
ATOM     66  C   UNL     1       7.309 -15.847  -3.406  1.00  0.00     0.000 A 
ENDBRANCH  42  61
BRANCH  54  67
ATOM     67  C   UNL     1       1.648 -19.723   2.554  1.00  0.00    -0.014 A 
ATOM     68  C   UNL     1       2.690 -19.844   3.487  1.00  0.00     0.009 A 
ATOM     69  C   UNL     1       0.931 -20.871   2.183  1.00  0.00     0.009 A 
ATOM     70  C   UNL     1       3.035 -21.095   4.001  1.00  0.00     0.001 A 
ATOM     71  C   UNL     1       1.258 -22.116   2.722  1.00  0.00     0.001 A 
ATOM     72  C   UNL     1       2.317 -22.229   3.621  1.00  0.00     0.000 A 
ENDBRANCH  54  67
ENDBRANCH  28  29
ENDBRANCH  20  23
ENDBRANCH  18  19
ENDBRANCH  17  18
ENDBRANCH   1  17
TORSDOF 15
