REMARK SMILES NC(=O)c1c(-c2ccc(Cl)cc2)csc1NC(=O)[C@H]1[C@@H](C(=O)NCCCCNC(=O)c2ccc(-c3c4nc(c(-c5ccccc5)c5ccc([nH]5)c(-c5ccccc5)c5nc(c(-c6ccccc6)c6ccc3[nH]6)C=C5)C=C4)cc2)[C@@H]2CC[C@H]1O2
REMARK SMILES IDX 25 1 24 2 23 3 21 4 22 5 20 7 19 8 82 9 79 10 81 11 83 12
REMARK SMILES IDX 80 13 17 14 16 15 18 17 15 18 4 19 5 20 13 21 14 22 2 23
REMARK SMILES IDX 1 24 3 27 6 28 7 29 12 30 8 31 11 32 9 33 10 34 26 35 27 36
REMARK SMILES IDX 28 37 29 38 30 40 31 41 32 42 78 43 33 44 77 45 34 46 35 47
REMARK SMILES IDX 36 48 71 49 37 50 76 51 70 52 72 53 38 54 75 55 69 56 68 57
REMARK SMILES IDX 39 59 61 60 46 61 60 62 47 63 50 64 59 65 73 66 48 67 49 68
REMARK SMILES IDX 58 70 74 71 51 72 40 73 41 74 45 75 42 76 44 77 43 78 62 79
REMARK SMILES IDX 63 80 67 81 64 82 66 83 65 84 52 85 53 86 57 87 54 88 56 89
REMARK SMILES IDX 55 90
REMARK H PARENT 23 6 16 16 1 25 1 26 28 39 72 58 50 69
REMARK Flexibility Score: inf
ROOT
ATOM      1  C   UNL     1      -0.949  -9.006  -3.628  1.00  0.00     0.023 C 
ENDROOT
BRANCH   1   2
ATOM      2  C   UNL     1      -0.390  -7.867  -2.764  1.00  0.00     0.116 C 
BRANCH   2   3
ATOM      3  N   UNL     1       1.022  -7.651  -2.996  1.00  0.00    -0.356 N 
ATOM      4  C   UNL     1       1.744  -6.548  -3.318  1.00  0.00     0.226 C 
ATOM      5  O   UNL     1       2.961  -6.724  -3.422  1.00  0.00    -0.275 OA
ATOM      6  H   UNL     1       1.567  -8.465  -2.901  1.00  0.00     0.163 HD
BRANCH   4   7
ATOM      7  C   UNL     1       1.112  -5.161  -3.352  1.00  0.00     0.122 C 
ATOM      8  C   UNL     1       0.129  -4.745  -4.469  1.00  0.00     0.123 C 
ATOM      9  C   UNL     1       0.933  -3.671  -5.231  1.00  0.00     0.132 C 
ATOM     10  C   UNL     1       2.222  -4.110  -3.544  1.00  0.00     0.132 C 
ATOM     11  C   UNL     1       0.930  -2.341  -4.484  1.00  0.00     0.035 C 
ATOM     12  O   UNL     1       2.303  -4.057  -4.986  1.00  0.00    -0.373 OA
ATOM     13  C   UNL     1       1.719  -2.696  -3.224  1.00  0.00     0.035 C 
BRANCH   8  14
ATOM     14  C   UNL     1      -0.373  -5.769  -5.467  1.00  0.00     0.231 C 
ATOM     15  N   UNL     1      -1.597  -5.671  -6.078  1.00  0.00    -0.317 N 
ATOM     16  H   UNL     1      -1.826  -6.481  -6.588  1.00  0.00     0.170 HD
ATOM     17  O   UNL     1       0.307  -6.756  -5.763  1.00  0.00    -0.274 OA
BRANCH  15  18
ATOM     18  C   UNL     1      -2.593  -4.703  -6.153  1.00  0.00     0.108 A 
ATOM     19  C   UNL     1      -3.829  -4.843  -6.792  1.00  0.00     0.082 A 
ATOM     20  C   UNL     1      -4.624  -3.632  -6.662  1.00  0.00     0.007 A 
ATOM     21  C   UNL     1      -3.936  -2.642  -5.993  1.00  0.00     0.076 A 
ATOM     22  S   UNL     1      -2.384  -3.139  -5.545  1.00  0.00    -0.125 S 
BRANCH  19  23
ATOM     23  C   UNL     1      -4.200  -6.087  -7.465  1.00  0.00     0.252 C 
ATOM     24  N   UNL     1      -5.088  -5.997  -8.492  1.00  0.00    -0.365 N 
ATOM     25  H   UNL     1      -5.367  -6.809  -8.974  1.00  0.00     0.159 HD
ATOM     26  H   UNL     1      -5.452  -5.120  -8.753  1.00  0.00     0.159 HD
ATOM     27  O   UNL     1      -3.699  -7.174  -7.175  1.00  0.00    -0.269 OA
ENDBRANCH  19  23
BRANCH  20  28
ATOM     28  C   UNL     1      -5.994  -3.362  -7.081  1.00  0.00    -0.017 A 
ATOM     29  C   UNL     1      -6.261  -2.327  -7.989  1.00  0.00     0.010 A 
ATOM     30  C   UNL     1      -7.055  -4.111  -6.556  1.00  0.00     0.010 A 
ATOM     31  C   UNL     1      -7.576  -2.044  -8.367  1.00  0.00     0.021 A 
ATOM     32  C   UNL     1      -8.370  -3.826  -6.937  1.00  0.00     0.021 A 
ATOM     33  C   UNL     1      -8.624  -2.794  -7.838  1.00  0.00     0.041 A 
ATOM     34  Cl  UNL     1     -10.243  -2.440  -8.299  1.00  0.00    -0.084 Cl
ENDBRANCH  20  28
ENDBRANCH  15  18
ENDBRANCH   8  14
ENDBRANCH   4   7
ENDBRANCH   2   3
ENDBRANCH   1   2
BRANCH   1  35
ATOM     35  C   UNL     1      -0.146 -10.316  -3.616  1.00  0.00     0.023 C 
BRANCH  35  36
ATOM     36  C   UNL     1       0.021 -10.976  -2.251  1.00  0.00     0.116 C 
BRANCH  36  37
ATOM     37  N   UNL     1      -1.226 -11.527  -1.747  1.00  0.00    -0.352 N 
ATOM     38  C   UNL     1      -1.518 -12.794  -1.302  1.00  0.00     0.251 C 
ATOM     39  H   UNL     1      -1.979 -10.894  -1.720  1.00  0.00     0.163 HD
ATOM     40  O   UNL     1      -2.687 -13.098  -1.073  1.00  0.00    -0.269 OA
BRANCH  38  41
ATOM     41  C   UNL     1      -0.454 -13.811  -1.116  1.00  0.00     0.039 A 
ATOM     42  C   UNL     1      -0.717 -15.131  -1.499  1.00  0.00     0.014 A 
ATOM     43  C   UNL     1       0.776 -13.495  -0.533  1.00  0.00     0.014 A 
ATOM     44  C   UNL     1       0.267 -16.114  -1.354  1.00  0.00     0.010 A 
ATOM     45  C   UNL     1       1.781 -14.463  -0.450  1.00  0.00     0.010 A 
ATOM     46  C   UNL     1       1.538 -15.783  -0.859  1.00  0.00    -0.014 A 
BRANCH  46  47
ATOM     47  C   UNL     1       2.622 -16.800  -0.786  1.00  0.00     0.031 A 
ATOM     48  C   UNL     1       3.197 -17.220   0.540  1.00  0.00     0.074 A 
ATOM     49  C   UNL     1       3.135 -17.309  -1.923  1.00  0.00     0.049 A 
ATOM     50  N   UNL     1       4.170 -18.062   0.789  1.00  0.00    -0.248 NA
ATOM     51  C   UNL     1       2.620 -16.597   1.741  1.00  0.00     0.031 C 
ATOM     52  C   UNL     1       2.703 -16.961  -3.278  1.00  0.00     0.029 A 
ATOM     53  N   UNL     1       4.141 -18.224  -2.120  1.00  0.00    -0.354 N 
ATOM     54  C   UNL     1       4.333 -18.056   2.169  1.00  0.00     0.074 A 
ATOM     55  C   UNL     1       3.389 -17.096   2.699  1.00  0.00     0.031 C 
ATOM     56  C   UNL     1       3.422 -17.669  -4.164  1.00  0.00     0.029 A 
ATOM     57  C   UNL     1       4.391 -18.490  -3.445  1.00  0.00     0.049 A 
ATOM     58  H   UNL     1       4.636 -18.648  -1.383  1.00  0.00     0.167 HD
ATOM     59  C   UNL     1       5.181 -18.791   2.929  1.00  0.00     0.031 A 
ATOM     60  C   UNL     1       5.301 -19.297  -4.021  1.00  0.00     0.031 A 
ATOM     61  C   UNL     1       6.119 -19.751   2.409  1.00  0.00     0.049 A 
ATOM     62  C   UNL     1       6.236 -20.096  -3.158  1.00  0.00     0.074 A 
ATOM     63  C   UNL     1       6.972 -20.589   3.107  1.00  0.00     0.029 A 
ATOM     64  N   UNL     1       6.335 -19.996   1.062  1.00  0.00    -0.354 N 
ATOM     65  N   UNL     1       6.323 -20.136  -1.851  1.00  0.00    -0.248 NA
ATOM     66  C   UNL     1       7.191 -20.971  -3.853  1.00  0.00     0.031 C 
ATOM     67  C   UNL     1       7.742 -21.302   2.182  1.00  0.00     0.029 A 
ATOM     68  C   UNL     1       7.327 -20.951   0.907  1.00  0.00     0.049 A 
ATOM     69  H   UNL     1       5.854 -19.557   0.323  1.00  0.00     0.167 HD
ATOM     70  C   UNL     1       7.323 -21.057  -1.566  1.00  0.00     0.074 A 
ATOM     71  C   UNL     1       7.800 -21.566  -2.836  1.00  0.00     0.031 C 
ATOM     72  C   UNL     1       7.801 -21.446  -0.359  1.00  0.00     0.031 A 
BRANCH  59  73
ATOM     73  C   UNL     1       5.143 -18.571   4.418  1.00  0.00    -0.014 A 
ATOM     74  C   UNL     1       4.047 -18.987   5.189  1.00  0.00     0.009 A 
ATOM     75  C   UNL     1       6.236 -17.969   5.062  1.00  0.00     0.009 A 
ATOM     76  C   UNL     1       4.028 -18.768   6.569  1.00  0.00     0.001 A 
ATOM     77  C   UNL     1       6.228 -17.779   6.445  1.00  0.00     0.001 A 
ATOM     78  C   UNL     1       5.119 -18.169   7.196  1.00  0.00     0.000 A 
ENDBRANCH  59  73
BRANCH  60  79
ATOM     79  C   UNL     1       5.365 -19.401  -5.503  1.00  0.00    -0.014 A 
ATOM     80  C   UNL     1       4.941 -20.569  -6.154  1.00  0.00     0.009 A 
ATOM     81  C   UNL     1       5.848 -18.331  -6.273  1.00  0.00     0.009 A 
ATOM     82  C   UNL     1       5.022 -20.673  -7.545  1.00  0.00     0.001 A 
ATOM     83  C   UNL     1       5.901 -18.427  -7.665  1.00  0.00     0.001 A 
ATOM     84  C   UNL     1       5.496 -19.600  -8.299  1.00  0.00     0.000 A 
ENDBRANCH  60  79
BRANCH  72  85
ATOM     85  C   UNL     1       8.877 -22.497  -0.352  1.00  0.00    -0.014 A 
ATOM     86  C   UNL     1      10.184 -22.208  -0.775  1.00  0.00     0.009 A 
ATOM     87  C   UNL     1       8.583 -23.789   0.112  1.00  0.00     0.009 A 
ATOM     88  C   UNL     1      11.165 -23.202  -0.767  1.00  0.00     0.001 A 
ATOM     89  C   UNL     1       9.573 -24.772   0.148  1.00  0.00     0.001 A 
ATOM     90  C   UNL     1      10.860 -24.481  -0.301  1.00  0.00     0.000 A 
ENDBRANCH  72  85
ENDBRANCH  46  47
ENDBRANCH  38  41
ENDBRANCH  36  37
ENDBRANCH  35  36
ENDBRANCH   1  35
TORSDOF 15
