REMARK SMILES CCc1cc([C@H]([NH3+])C(=O)NCCCCNC(=O)c2ccc(-c3c4nc(c(-c5ccccc5)c5ccc([nH]5)c(-c5ccccc5)c5nc(c(-c6ccccc6)c6ccc3[nH]6)C=C5)C=C4)cc2)cc(CC)c1N
REMARK SMILES IDX 12 1 11 2 10 3 8 4 9 5 6 7 5 8 3 9 4 10 70 11 67 12 66 13
REMARK SMILES IDX 2 14 1 15 71 16 68 19 69 20 7 21 13 25 14 26 15 27 16 28
REMARK SMILES IDX 17 30 18 31 19 32 65 33 20 34 64 35 21 36 22 37 23 38 58 39
REMARK SMILES IDX 24 40 63 41 57 42 59 43 25 44 62 45 56 46 55 47 26 49 48 50
REMARK SMILES IDX 33 51 47 52 34 53 37 54 46 55 60 56 35 57 36 58 45 60 61 61
REMARK SMILES IDX 38 62 27 63 28 64 32 65 29 66 31 67 30 68 49 69 50 70 54 71
REMARK SMILES IDX 51 72 53 73 52 74 39 75 40 76 44 77 41 78 43 79 42 80
REMARK H PARENT 10 6 71 17 71 18 7 22 7 23 7 24 15 29 59 48 37 59
REMARK Flexibility Score: inf
ROOT
ATOM      1  C   UNL     1       1.963  -0.504   1.245  1.00  0.00     0.023 C 
ENDROOT
BRANCH   1   2
ATOM      2  C   UNL     1       3.072  -1.330   0.615  1.00  0.00     0.116 C 
BRANCH   2   3
ATOM      3  N   UNL     1       3.697  -2.303   1.482  1.00  0.00    -0.351 N 
ATOM      4  C   UNL     1       4.266  -3.502   1.133  1.00  0.00     0.283 C 
ATOM      5  O   UNL     1       4.892  -4.100   2.018  1.00  0.00    -0.268 OA
ATOM      6  H   UNL     1       3.716  -2.078   2.440  1.00  0.00     0.163 HD
BRANCH   4   7
ATOM      7  C   UNL     1       4.130  -4.126  -0.290  1.00  0.00     0.302 C 
BRANCH   7   8
ATOM      8  C   UNL     1       5.074  -3.535  -1.326  1.00  0.00     0.020 A 
ATOM      9  C   UNL     1       7.116  -3.712  -2.685  1.00  0.00    -0.024 A 
ATOM     10  C   UNL     1       6.205  -4.240  -1.740  1.00  0.00     0.016 A 
ATOM     11  C   UNL     1       6.917  -2.400  -3.193  1.00  0.00     0.038 A 
ATOM     12  C   UNL     1       5.765  -1.684  -2.801  1.00  0.00    -0.024 A 
ATOM     13  C   UNL     1       4.857  -2.292  -1.917  1.00  0.00     0.016 A 
BRANCH   9  14
ATOM     14  C   UNL     1       8.235  -4.616  -3.179  1.00  0.00     0.034 C 
ATOM     15  C   UNL     1       8.959  -5.415  -2.099  1.00  0.00     0.009 C 
ENDBRANCH   9  14
BRANCH  11  16
ATOM     16  N   UNL     1       7.764  -1.875  -4.165  1.00  0.00    -0.398 N 
ATOM     17  H   UNL     1       8.568  -2.374  -4.438  1.00  0.00     0.156 HD
ATOM     18  H   UNL     1       7.560  -1.006  -4.579  1.00  0.00     0.156 HD
ENDBRANCH  11  16
BRANCH  12  19
ATOM     19  C   UNL     1       5.488  -0.238  -3.186  1.00  0.00     0.034 C 
ATOM     20  C   UNL     1       4.080   0.044  -3.702  1.00  0.00     0.009 C 
ENDBRANCH  12  19
ENDBRANCH   7   8
BRANCH   7  21
ATOM     21  N   UNL     1       2.723  -4.151  -0.745  1.00  0.00    -0.343 N 
ATOM     22  H   UNL     1       2.383  -3.195  -0.851  1.00  0.00     0.345 HD
ATOM     23  H   UNL     1       2.152  -4.640  -0.056  1.00  0.00     0.345 HD
ATOM     24  H   UNL     1       2.664  -4.635  -1.641  1.00  0.00     0.345 HD
ENDBRANCH   7  21
ENDBRANCH   4   7
ENDBRANCH   2   3
ENDBRANCH   1   2
BRANCH   1  25
ATOM     25  C   UNL     1       2.392   0.456   2.345  1.00  0.00     0.023 C 
BRANCH  25  26
ATOM     26  C   UNL     1       3.553   1.381   2.002  1.00  0.00     0.116 C 
BRANCH  26  27
ATOM     27  N   UNL     1       3.295   2.248   0.861  1.00  0.00    -0.352 N 
ATOM     28  C   UNL     1       3.264   3.622   0.777  1.00  0.00     0.251 C 
ATOM     29  H   UNL     1       3.114   1.778   0.015  1.00  0.00     0.163 HD
ATOM     30  O   UNL     1       2.914   4.164  -0.264  1.00  0.00    -0.269 OA
BRANCH  28  31
ATOM     31  C   UNL     1       3.619   4.449   1.952  1.00  0.00     0.039 A 
ATOM     32  C   UNL     1       2.830   5.562   2.258  1.00  0.00     0.014 A 
ATOM     33  C   UNL     1       4.718   4.135   2.753  1.00  0.00     0.014 A 
ATOM     34  C   UNL     1       3.104   6.311   3.405  1.00  0.00     0.010 A 
ATOM     35  C   UNL     1       4.921   4.813   3.951  1.00  0.00     0.010 A 
ATOM     36  C   UNL     1       4.129   5.920   4.284  1.00  0.00    -0.014 A 
BRANCH  36  37
ATOM     37  C   UNL     1       4.396   6.677   5.535  1.00  0.00     0.031 A 
ATOM     38  C   UNL     1       5.728   7.349   5.747  1.00  0.00     0.074 A 
ATOM     39  C   UNL     1       3.454   6.736   6.498  1.00  0.00     0.049 A 
ATOM     40  N   UNL     1       6.139   8.064   6.765  1.00  0.00    -0.248 NA
ATOM     41  C   UNL     1       6.741   7.172   4.694  1.00  0.00     0.031 C 
ATOM     42  C   UNL     1       2.143   6.084   6.446  1.00  0.00     0.029 A 
ATOM     43  N   UNL     1       3.454   7.382   7.709  1.00  0.00    -0.354 N 
ATOM     44  C   UNL     1       7.455   8.408   6.477  1.00  0.00     0.074 A 
ATOM     45  C   UNL     1       7.796   7.768   5.227  1.00  0.00     0.031 C 
ATOM     46  C   UNL     1       1.449   6.403   7.550  1.00  0.00     0.029 A 
ATOM     47  C   UNL     1       2.277   7.247   8.405  1.00  0.00     0.049 A 
ATOM     48  H   UNL     1       4.224   7.893   8.047  1.00  0.00     0.167 HD
ATOM     49  C   UNL     1       8.298   9.208   7.172  1.00  0.00     0.031 A 
ATOM     50  C   UNL     1       1.902   7.752   9.596  1.00  0.00     0.031 A 
ATOM     51  C   UNL     1       7.960   9.853   8.413  1.00  0.00     0.049 A 
ATOM     52  C   UNL     1       2.857   8.636  10.350  1.00  0.00     0.074 A 
ATOM     53  C   UNL     1       8.724  10.726   9.168  1.00  0.00     0.029 A 
ATOM     54  N   UNL     1       6.757   9.692   9.083  1.00  0.00    -0.354 N 
ATOM     55  N   UNL     1       4.069   9.017  10.023  1.00  0.00    -0.248 NA
ATOM     56  C   UNL     1       2.380   9.177  11.630  1.00  0.00     0.031 C 
ATOM     57  C   UNL     1       8.006  11.047  10.324  1.00  0.00     0.029 A 
ATOM     58  C   UNL     1       6.767  10.431  10.254  1.00  0.00     0.049 A 
ATOM     59  H   UNL     1       6.007   9.136   8.771  1.00  0.00     0.167 HD
ATOM     60  C   UNL     1       4.486   9.867  11.041  1.00  0.00     0.074 A 
ATOM     61  C   UNL     1       3.388   9.963  11.980  1.00  0.00     0.031 C 
ATOM     62  C   UNL     1       5.670  10.511  11.185  1.00  0.00     0.031 A 
BRANCH  49  63
ATOM     63  C   UNL     1       9.674   9.425   6.601  1.00  0.00    -0.014 A 
ATOM     64  C   UNL     1       9.865  10.152   5.414  1.00  0.00     0.009 A 
ATOM     65  C   UNL     1      10.797   8.917   7.271  1.00  0.00     0.009 A 
ATOM     66  C   UNL     1      11.147  10.329   4.889  1.00  0.00     0.001 A 
ATOM     67  C   UNL     1      12.081   9.124   6.762  1.00  0.00     0.001 A 
ATOM     68  C   UNL     1      12.254   9.820   5.567  1.00  0.00     0.000 A 
ENDBRANCH  49  63
BRANCH  50  69
ATOM     69  C   UNL     1       0.549   7.463  10.142  1.00  0.00    -0.014 A 
ATOM     70  C   UNL     1      -0.414   8.480  10.243  1.00  0.00     0.009 A 
ATOM     71  C   UNL     1       0.218   6.173  10.584  1.00  0.00     0.009 A 
ATOM     72  C   UNL     1      -1.664   8.220  10.809  1.00  0.00     0.001 A 
ATOM     73  C   UNL     1      -1.044   5.907  11.119  1.00  0.00     0.001 A 
ATOM     74  C   UNL     1      -1.980   6.933  11.243  1.00  0.00     0.000 A 
ENDBRANCH  50  69
BRANCH  62  75
ATOM     75  C   UNL     1       5.819  11.408  12.383  1.00  0.00    -0.014 A 
ATOM     76  C   UNL     1       5.887  10.890  13.686  1.00  0.00     0.009 A 
ATOM     77  C   UNL     1       5.899  12.798  12.201  1.00  0.00     0.009 A 
ATOM     78  C   UNL     1       5.978  11.748  14.784  1.00  0.00     0.001 A 
ATOM     79  C   UNL     1       6.027  13.651  13.298  1.00  0.00     0.001 A 
ATOM     80  C   UNL     1       6.051  13.127  14.589  1.00  0.00     0.000 A 
ENDBRANCH  62  75
ENDBRANCH  36  37
ENDBRANCH  28  31
ENDBRANCH  26  27
ENDBRANCH  25  26
ENDBRANCH   1  25
TORSDOF 16
