REMARK SMILES C=CCSc1ccccc1C(=O)NCCCCNC(=O)c1ccc(-c2c3nc(c(-c4ccccc4)c4ccc([nH]4)c(-c4ccccc4)c4nc(c(-c5ccccc5)c5ccc2[nH]5)C=C4)C=C3)cc1
REMARK SMILES IDX 15 1 14 2 13 3 11 4 12 5 10 7 5 8 6 9 7 10 9 11 8 12 4 13
REMARK SMILES IDX 3 14 2 15 1 16 16 17 17 18 18 19 19 20 20 22 21 23 22 24
REMARK SMILES IDX 68 25 23 26 67 27 24 28 25 29 26 30 61 31 27 32 66 33 60 34
REMARK SMILES IDX 62 35 28 36 65 37 59 38 58 39 29 41 51 42 36 43 50 44 37 45
REMARK SMILES IDX 40 46 49 47 63 48 38 49 39 50 48 52 64 53 41 54 30 55 31 56
REMARK SMILES IDX 35 57 32 58 34 59 33 60 52 61 53 62 57 63 54 64 56 65 55 66
REMARK SMILES IDX 42 67 43 68 47 69 44 70 46 71 45 72
REMARK H PARENT 13 6 18 21 62 40 40 51
REMARK Flexibility Score: inf
ROOT
ATOM      1  C   UNL     1      -1.960   2.238   4.012  1.00  0.00     0.023 C 
ENDROOT
BRANCH   1   2
ATOM      2  C   UNL     1      -0.529   1.726   3.808  1.00  0.00     0.116 C 
BRANCH   2   3
ATOM      3  N   UNL     1      -0.192   0.720   4.783  1.00  0.00    -0.352 N 
ATOM      4  C   UNL     1      -0.180  -0.641   4.869  1.00  0.00     0.252 C 
ATOM      5  O   UNL     1       0.217  -1.025   5.981  1.00  0.00    -0.269 OA
ATOM      6  H   UNL     1       0.115   1.130   5.623  1.00  0.00     0.163 HD
BRANCH   4   7
ATOM      7  C   UNL     1      -0.533  -1.702   3.853  1.00  0.00     0.053 A 
ATOM      8  C   UNL     1      -1.319  -1.680   2.681  1.00  0.00     0.020 A 
ATOM      9  C   UNL     1      -1.601  -2.902   2.013  1.00  0.00     0.016 A 
ATOM     10  C   UNL     1      -1.112  -4.128   2.453  1.00  0.00     0.001 A 
ATOM     11  C   UNL     1      -0.026  -2.975   4.249  1.00  0.00     0.015 A 
ATOM     12  C   UNL     1      -0.311  -4.164   3.574  1.00  0.00     0.001 A 
BRANCH   8  13
ATOM     13  S   UNL     1      -2.184  -0.300   1.957  1.00  0.00    -0.121 SA
BRANCH  13  14
ATOM     14  C   UNL     1      -1.413  -0.166   0.303  1.00  0.00     0.101 C 
BRANCH  14  15
ATOM     15  C   UNL     1       0.073   0.023   0.367  1.00  0.00    -0.024 C 
ATOM     16  C   UNL     1       0.965  -0.793  -0.212  1.00  0.00     0.005 C 
ENDBRANCH  14  15
ENDBRANCH  13  14
ENDBRANCH   8  13
ENDBRANCH   4   7
ENDBRANCH   2   3
ENDBRANCH   1   2
BRANCH   1  17
ATOM     17  C   UNL     1      -2.048   3.682   4.500  1.00  0.00     0.023 C 
BRANCH  17  18
ATOM     18  C   UNL     1      -1.471   4.702   3.528  1.00  0.00     0.116 C 
BRANCH  18  19
ATOM     19  N   UNL     1      -2.127   4.730   2.229  1.00  0.00    -0.352 N 
ATOM     20  C   UNL     1      -2.167   5.780   1.341  1.00  0.00     0.251 C 
ATOM     21  H   UNL     1      -2.593   3.907   1.955  1.00  0.00     0.163 HD
ATOM     22  O   UNL     1      -2.810   5.711   0.299  1.00  0.00    -0.269 OA
BRANCH  20  23
ATOM     23  C   UNL     1      -1.456   7.024   1.698  1.00  0.00     0.039 A 
ATOM     24  C   UNL     1      -2.167   8.225   1.731  1.00  0.00     0.014 A 
ATOM     25  C   UNL     1      -0.113   6.980   2.081  1.00  0.00     0.014 A 
ATOM     26  C   UNL     1      -1.544   9.377   2.211  1.00  0.00     0.010 A 
ATOM     27  C   UNL     1       0.480   8.108   2.633  1.00  0.00     0.010 A 
ATOM     28  C   UNL     1      -0.226   9.320   2.694  1.00  0.00    -0.014 A 
BRANCH  28  29
ATOM     29  C   UNL     1       0.450  10.526   3.231  1.00  0.00     0.031 A 
ATOM     30  C   UNL     1       1.651  11.082   2.518  1.00  0.00     0.074 A 
ATOM     31  C   UNL     1       0.028  11.082   4.383  1.00  0.00     0.049 A 
ATOM     32  N   UNL     1       2.416  12.091   2.850  1.00  0.00    -0.248 NA
ATOM     33  C   UNL     1       2.066  10.394   1.284  1.00  0.00     0.031 C 
ATOM     34  C   UNL     1      -1.093  10.609   5.197  1.00  0.00     0.029 A 
ATOM     35  N   UNL     1       0.502  12.171   5.071  1.00  0.00    -0.354 N 
ATOM     36  C   UNL     1       3.413  12.139   1.884  1.00  0.00     0.074 A 
ATOM     37  C   UNL     1       3.188  11.029   0.984  1.00  0.00     0.031 C 
ATOM     38  C   UNL     1      -1.239  11.422   6.257  1.00  0.00     0.029 A 
ATOM     39  C   UNL     1      -0.206  12.452   6.213  1.00  0.00     0.049 A 
ATOM     40  H   UNL     1       1.277  12.700   4.773  1.00  0.00     0.167 HD
ATOM     41  C   UNL     1       4.412  13.040   1.740  1.00  0.00     0.031 A 
ATOM     42  C   UNL     1      -0.043  13.434   7.120  1.00  0.00     0.031 A 
ATOM     43  C   UNL     1       4.619  14.161   2.614  1.00  0.00     0.049 A 
ATOM     44  C   UNL     1       1.058  14.439   6.924  1.00  0.00     0.074 A 
ATOM     45  C   UNL     1       5.567  15.164   2.521  1.00  0.00     0.029 A 
ATOM     46  N   UNL     1       3.857  14.429   3.740  1.00  0.00    -0.354 N 
ATOM     47  N   UNL     1       1.952  14.510   5.968  1.00  0.00    -0.248 NA
ATOM     48  C   UNL     1       1.159  15.511   7.925  1.00  0.00     0.031 C 
ATOM     49  C   UNL     1       5.399  16.024   3.612  1.00  0.00     0.029 A 
ATOM     50  C   UNL     1       4.318  15.579   4.356  1.00  0.00     0.049 A 
ATOM     51  H   UNL     1       3.101  13.883   4.054  1.00  0.00     0.167 HD
ATOM     52  C   UNL     1       2.699  15.650   6.233  1.00  0.00     0.074 A 
ATOM     53  C   UNL     1       2.147  16.245   7.432  1.00  0.00     0.031 C 
ATOM     54  C   UNL     1       3.748  16.161   5.542  1.00  0.00     0.031 A 
BRANCH  41  55
ATOM     55  C   UNL     1       5.353  12.842   0.585  1.00  0.00    -0.014 A 
ATOM     56  C   UNL     1       4.933  13.055  -0.738  1.00  0.00     0.009 A 
ATOM     57  C   UNL     1       6.678  12.448   0.823  1.00  0.00     0.009 A 
ATOM     58  C   UNL     1       5.809  12.835  -1.802  1.00  0.00     0.001 A 
ATOM     59  C   UNL     1       7.561  12.258  -0.242  1.00  0.00     0.001 A 
ATOM     60  C   UNL     1       7.123  12.441  -1.553  1.00  0.00     0.000 A 
ENDBRANCH  41  55
BRANCH  42  61
ATOM     61  C   UNL     1      -0.969  13.543   8.276  1.00  0.00    -0.014 A 
ATOM     62  C   UNL     1      -1.922  14.573   8.326  1.00  0.00     0.009 A 
ATOM     63  C   UNL     1      -0.899  12.631   9.340  1.00  0.00     0.009 A 
ATOM     64  C   UNL     1      -2.767  14.704   9.431  1.00  0.00     0.001 A 
ATOM     65  C   UNL     1      -1.762  12.750  10.432  1.00  0.00     0.001 A 
ATOM     66  C   UNL     1      -2.688  13.791  10.481  1.00  0.00     0.000 A 
ENDBRANCH  42  61
BRANCH  54  67
ATOM     67  C   UNL     1       4.334  17.451   6.039  1.00  0.00    -0.014 A 
ATOM     68  C   UNL     1       5.129  17.494   7.194  1.00  0.00     0.009 A 
ATOM     69  C   UNL     1       4.121  18.632   5.311  1.00  0.00     0.009 A 
ATOM     70  C   UNL     1       5.676  18.704   7.626  1.00  0.00     0.001 A 
ATOM     71  C   UNL     1       4.690  19.834   5.731  1.00  0.00     0.001 A 
ATOM     72  C   UNL     1       5.460  19.871   6.893  1.00  0.00     0.000 A 
ENDBRANCH  54  67
ENDBRANCH  28  29
ENDBRANCH  20  23
ENDBRANCH  18  19
ENDBRANCH  17  18
ENDBRANCH   1  17
TORSDOF 14
