REMARK SMILES O=C(NCCCCNC(=O)c1cccc2c(C(F)(F)F)cc(Br)nc12)c1ccc(-c2c3nc(c(-c4ccccc4)c4ccc([nH]4)c(-c4ccccc4)c4nc(c(-c5ccccc5)c5ccc2[nH]5)C=C4)C=C3)cc1
REMARK SMILES IDX 5 1 4 2 3 3 1 4 2 5 26 7 27 8 73 9 28 10 72 11 29 12 30 13
REMARK SMILES IDX 31 14 66 15 32 16 71 17 65 18 67 19 33 20 70 21 64 22 63 23
REMARK SMILES IDX 34 25 56 26 41 27 55 28 42 29 45 30 54 31 68 32 43 33 44 34
REMARK SMILES IDX 53 36 69 37 46 38 35 39 36 40 40 41 37 42 39 43 38 44 57 45
REMARK SMILES IDX 58 46 62 47 59 48 61 49 60 50 47 51 48 52 52 53 49 54 51 55
REMARK SMILES IDX 50 56 6 57 7 58 8 59 9 60 10 62 11 63 12 64 25 65 13 66
REMARK SMILES IDX 15 67 24 68 14 69 16 70 22 71 21 72 23 73 17 74 18 75 19 76
REMARK SMILES IDX 20 77
REMARK H PARENT 3 6 67 24 45 35 8 61
REMARK Flexibility Score: inf
ROOT
ATOM      1  C   UNL     1       4.981   2.288   1.196  1.00  0.00     0.023 C 
ENDROOT
BRANCH   1   2
ATOM      2  C   UNL     1       4.599   0.821   1.010  1.00  0.00     0.116 C 
BRANCH   2   3
ATOM      3  N   UNL     1       3.162   0.610   1.003  1.00  0.00    -0.352 N 
ATOM      4  O   UNL     1       1.145   0.006   0.216  1.00  0.00    -0.269 OA
ATOM      5  C   UNL     1       2.368  -0.053   0.100  1.00  0.00     0.251 C 
ATOM      6  H   UNL     1       2.681   1.005   1.766  1.00  0.00     0.163 HD
BRANCH   5   7
ATOM      7  C   UNL     1       2.954  -0.827  -1.018  1.00  0.00     0.039 A 
ATOM      8  C   UNL     1       2.341  -0.750  -2.275  1.00  0.00     0.014 A 
ATOM      9  C   UNL     1       4.046  -1.678  -0.831  1.00  0.00     0.014 A 
ATOM     10  C   UNL     1       2.845  -1.490  -3.349  1.00  0.00     0.010 A 
ATOM     11  C   UNL     1       4.579  -2.378  -1.914  1.00  0.00     0.010 A 
ATOM     12  C   UNL     1       3.977  -2.299  -3.180  1.00  0.00    -0.014 A 
BRANCH  12  13
ATOM     13  C   UNL     1       4.529  -3.101  -4.300  1.00  0.00     0.031 A 
ATOM     14  C   UNL     1       4.447  -4.601  -4.260  1.00  0.00     0.074 A 
ATOM     15  C   UNL     1       5.161  -2.493  -5.322  1.00  0.00     0.049 A 
ATOM     16  N   UNL     1       4.970  -5.478  -5.080  1.00  0.00    -0.248 NA
ATOM     17  C   UNL     1       3.693  -5.194  -3.144  1.00  0.00     0.031 C 
ATOM     18  C   UNL     1       5.312  -1.046  -5.482  1.00  0.00     0.029 A 
ATOM     19  N   UNL     1       5.806  -3.021  -6.413  1.00  0.00    -0.354 N 
ATOM     20  C   UNL     1       4.634  -6.722  -4.563  1.00  0.00     0.074 A 
ATOM     21  C   UNL     1       3.884  -6.490  -3.348  1.00  0.00     0.031 C 
ATOM     22  C   UNL     1       5.996  -0.802  -6.612  1.00  0.00     0.029 A 
ATOM     23  C   UNL     1       6.369  -2.072  -7.231  1.00  0.00     0.049 A 
ATOM     24  H   UNL     1       5.861  -3.987  -6.591  1.00  0.00     0.167 HD
ATOM     25  C   UNL     1       4.917  -7.948  -5.061  1.00  0.00     0.031 A 
ATOM     26  C   UNL     1       7.118  -2.205  -8.342  1.00  0.00     0.031 A 
ATOM     27  C   UNL     1       5.632  -8.182  -6.286  1.00  0.00     0.049 A 
ATOM     28  C   UNL     1       7.457  -3.575  -8.854  1.00  0.00     0.074 A 
ATOM     29  C   UNL     1       5.882  -9.389  -6.915  1.00  0.00     0.029 A 
ATOM     30  N   UNL     1       6.214  -7.194  -7.062  1.00  0.00    -0.354 N 
ATOM     31  N   UNL     1       7.095  -4.742  -8.379  1.00  0.00    -0.248 NA
ATOM     32  C   UNL     1       8.314  -3.650 -10.046  1.00  0.00     0.031 C 
ATOM     33  C   UNL     1       6.662  -9.136  -8.047  1.00  0.00     0.029 A 
ATOM     34  C   UNL     1       6.858  -7.767  -8.144  1.00  0.00     0.049 A 
ATOM     35  H   UNL     1       6.175  -6.229  -6.872  1.00  0.00     0.167 HD
ATOM     36  C   UNL     1       7.670  -5.688  -9.216  1.00  0.00     0.074 A 
ATOM     37  C   UNL     1       8.399  -4.962 -10.235  1.00  0.00     0.031 C 
ATOM     38  C   UNL     1       7.595  -7.038  -9.143  1.00  0.00     0.031 A 
BRANCH  25  39
ATOM     39  C   UNL     1       4.462  -9.144  -4.275  1.00  0.00    -0.014 A 
ATOM     40  C   UNL     1       5.410  -9.937  -3.610  1.00  0.00     0.009 A 
ATOM     41  C   UNL     1       3.112  -9.524  -4.245  1.00  0.00     0.009 A 
ATOM     42  C   UNL     1       5.015 -11.088  -2.926  1.00  0.00     0.001 A 
ATOM     43  C   UNL     1       2.717 -10.663  -3.541  1.00  0.00     0.001 A 
ATOM     44  C   UNL     1       3.668 -11.446  -2.888  1.00  0.00     0.000 A 
ENDBRANCH  25  39
BRANCH  26  45
ATOM     45  C   UNL     1       7.598  -0.986  -9.040  1.00  0.00    -0.014 A 
ATOM     46  C   UNL     1       8.636  -0.213  -8.497  1.00  0.00     0.009 A 
ATOM     47  C   UNL     1       6.976  -0.559 -10.223  1.00  0.00     0.009 A 
ATOM     48  C   UNL     1       9.027   0.978  -9.113  1.00  0.00     0.001 A 
ATOM     49  C   UNL     1       7.383   0.623 -10.846  1.00  0.00     0.001 A 
ATOM     50  C   UNL     1       8.401   1.394 -10.287  1.00  0.00     0.000 A 
ENDBRANCH  26  45
BRANCH  38  51
ATOM     51  C   UNL     1       8.320  -7.841 -10.183  1.00  0.00    -0.014 A 
ATOM     52  C   UNL     1       7.595  -8.496 -11.192  1.00  0.00     0.009 A 
ATOM     53  C   UNL     1       9.704  -8.047 -10.092  1.00  0.00     0.009 A 
ATOM     54  C   UNL     1       8.241  -9.358 -12.079  1.00  0.00     0.001 A 
ATOM     55  C   UNL     1      10.350  -8.895 -10.993  1.00  0.00     0.001 A 
ATOM     56  C   UNL     1       9.617  -9.557 -11.979  1.00  0.00     0.000 A 
ENDBRANCH  38  51
ENDBRANCH  12  13
ENDBRANCH   5   7
ENDBRANCH   2   3
ENDBRANCH   1   2
BRANCH   1  57
ATOM     57  C   UNL     1       4.502   2.951   2.491  1.00  0.00     0.023 C 
BRANCH  57  58
ATOM     58  C   UNL     1       4.864   2.230   3.787  1.00  0.00     0.116 C 
BRANCH  58  59
ATOM     59  N   UNL     1       6.294   2.029   3.940  1.00  0.00    -0.352 N 
ATOM     60  C   UNL     1       7.102   2.289   5.019  1.00  0.00     0.253 C 
ATOM     61  H   UNL     1       6.751   1.652   3.154  1.00  0.00     0.163 HD
ATOM     62  O   UNL     1       8.295   1.996   4.969  1.00  0.00    -0.269 OA
BRANCH  60  63
ATOM     63  C   UNL     1       6.525   2.829   6.265  1.00  0.00     0.066 A 
ATOM     64  C   UNL     1       5.621   2.017   6.966  1.00  0.00     0.016 A 
ATOM     65  C   UNL     1       6.955   4.073   6.747  1.00  0.00     0.085 A 
ATOM     66  C   UNL     1       5.097   2.461   8.168  1.00  0.00     0.002 A 
ATOM     67  C   UNL     1       6.445   4.506   7.997  1.00  0.00     0.013 A 
ATOM     68  N   UNL     1       7.816   4.837   6.042  1.00  0.00    -0.240 NA
ATOM     69  C   UNL     1       5.507   3.690   8.679  1.00  0.00     0.011 A 
ATOM     70  C   UNL     1       6.911   5.745   8.511  1.00  0.00     0.068 A 
ATOM     71  C   UNL     1       8.246   6.005   6.550  1.00  0.00     0.107 A 
ATOM     72  C   UNL     1       7.830   6.495   7.768  1.00  0.00     0.049 A 
ATOM     73  Br  UNL     1       9.480   7.013   5.526  1.00  0.00    -0.029 Br
BRANCH  70  74
ATOM     74  C   UNL     1       6.453   6.278   9.846  1.00  0.00     0.417 C 
ATOM     75  F   UNL     1       5.113   6.517   9.881  1.00  0.00    -0.166 F 
ATOM     76  F   UNL     1       6.710   5.421  10.873  1.00  0.00    -0.166 F 
ATOM     77  F   UNL     1       7.045   7.455  10.194  1.00  0.00    -0.166 F 
ENDBRANCH  70  74
ENDBRANCH  60  63
ENDBRANCH  58  59
ENDBRANCH  57  58
ENDBRANCH   1  57
TORSDOF 12
