REMARK SMILES O=C(NCCCCNC(=O)c1cc(Cl)cc(S(=O)(=O)N[C@@H]2CONC2=O)c1F)c1ccc(-c2c3nc(c(-c4ccccc4)c4ccc([nH]4)c(-c4ccccc4)c4nc(c(-c5ccccc5)c5ccc2[nH]5)C=C4)C=C3)cc1
REMARK SMILES IDX 6 1 5 2 4 3 3 4 1 5 2 6 29 8 30 9 76 10 31 11 75 12 32 13
REMARK SMILES IDX 33 14 34 15 69 16 35 17 74 18 68 19 70 20 36 21 73 22 67 23
REMARK SMILES IDX 66 24 37 26 59 27 44 28 58 29 45 30 48 31 57 32 71 33 46 34
REMARK SMILES IDX 47 35 56 37 72 38 49 39 38 40 39 41 43 42 40 43 42 44 41 45
REMARK SMILES IDX 60 46 61 47 65 48 62 49 64 50 63 51 50 52 51 53 55 54 52 55
REMARK SMILES IDX 54 56 53 57 7 58 8 59 9 60 10 62 11 63 12 64 27 65 13 66
REMARK SMILES IDX 16 67 28 68 14 69 15 70 17 71 18 72 19 73 20 74 21 76 22 77
REMARK SMILES IDX 25 78 23 79 24 80 26 81
REMARK H PARENT 3 7 70 25 48 36 8 61 20 75 24 82
REMARK Flexibility Score: inf
ROOT
ATOM      1  C   UNL     1       4.558   3.763  -0.118  1.00  0.00     0.023 C 
ENDROOT
BRANCH   1   2
ATOM      2  C   UNL     1       5.044   2.426  -0.663  1.00  0.00     0.023 C 
BRANCH   2   3
ATOM      3  C   UNL     1       4.692   1.221   0.198  1.00  0.00     0.116 C 
BRANCH   3   4
ATOM      4  N   UNL     1       3.256   1.018   0.328  1.00  0.00    -0.352 N 
ATOM      5  O   UNL     1       1.274  -0.013  -0.026  1.00  0.00    -0.269 OA
ATOM      6  C   UNL     1       2.499  -0.059  -0.068  1.00  0.00     0.251 C 
ATOM      7  H   UNL     1       2.759   1.752   0.756  1.00  0.00     0.163 HD
BRANCH   6   8
ATOM      8  C   UNL     1       3.181  -1.270  -0.565  1.00  0.00     0.039 A 
ATOM      9  C   UNL     1       4.260  -1.801   0.145  1.00  0.00     0.014 A 
ATOM     10  C   UNL     1       2.756  -1.861  -1.757  1.00  0.00     0.014 A 
ATOM     11  C   UNL     1       5.007  -2.829  -0.411  1.00  0.00     0.010 A 
ATOM     12  C   UNL     1       3.449  -2.964  -2.264  1.00  0.00     0.010 A 
ATOM     13  C   UNL     1       4.592  -3.442  -1.605  1.00  0.00    -0.014 A 
BRANCH  13  14
ATOM     14  C   UNL     1       5.306  -4.656  -2.069  1.00  0.00     0.031 A 
ATOM     15  C   UNL     1       6.063  -4.682  -3.365  1.00  0.00     0.074 A 
ATOM     16  C   UNL     1       5.276  -5.744  -1.273  1.00  0.00     0.049 A 
ATOM     17  N   UNL     1       6.748  -5.667  -3.891  1.00  0.00    -0.248 NA
ATOM     18  C   UNL     1       6.051  -3.458  -4.181  1.00  0.00     0.031 C 
ATOM     19  C   UNL     1       4.561  -5.833   0.006  1.00  0.00     0.029 A 
ATOM     20  N   UNL     1       5.869  -6.971  -1.405  1.00  0.00    -0.354 N 
ATOM     21  C   UNL     1       7.229  -5.192  -5.104  1.00  0.00     0.074 A 
ATOM     22  C   UNL     1       6.748  -3.834  -5.246  1.00  0.00     0.031 C 
ATOM     23  C   UNL     1       4.798  -7.029   0.560  1.00  0.00     0.029 A 
ATOM     24  C   UNL     1       5.612  -7.817  -0.354  1.00  0.00     0.049 A 
ATOM     25  H   UNL     1       6.424  -7.222  -2.178  1.00  0.00     0.167 HD
ATOM     26  C   UNL     1       8.000  -5.836  -6.013  1.00  0.00     0.031 A 
ATOM     27  C   UNL     1       5.966  -9.099  -0.156  1.00  0.00     0.031 A 
ATOM     28  C   UNL     1       8.478  -7.187  -5.861  1.00  0.00     0.049 A 
ATOM     29  C   UNL     1       6.787  -9.791  -1.202  1.00  0.00     0.074 A 
ATOM     30  C   UNL     1       9.306  -7.907  -6.706  1.00  0.00     0.029 A 
ATOM     31  N   UNL     1       8.165  -8.024  -4.801  1.00  0.00    -0.354 N 
ATOM     32  N   UNL     1       7.278  -9.308  -2.317  1.00  0.00    -0.248 NA
ATOM     33  C   UNL     1       7.099 -11.205  -0.964  1.00  0.00     0.031 C 
ATOM     34  C   UNL     1       9.443  -9.199  -6.189  1.00  0.00     0.029 A 
ATOM     35  C   UNL     1       8.750  -9.265  -4.991  1.00  0.00     0.049 A 
ATOM     36  H   UNL     1       7.608  -7.774  -4.029  1.00  0.00     0.167 HD
ATOM     37  C   UNL     1       7.966 -10.356  -2.909  1.00  0.00     0.074 A 
ATOM     38  C   UNL     1       7.857 -11.489  -2.013  1.00  0.00     0.031 C 
ATOM     39  C   UNL     1       8.623 -10.382  -4.093  1.00  0.00     0.031 A 
BRANCH  26  40
ATOM     40  C   UNL     1       8.363  -5.109  -7.279  1.00  0.00    -0.014 A 
ATOM     41  C   UNL     1       9.324  -4.088  -7.286  1.00  0.00     0.009 A 
ATOM     42  C   UNL     1       7.804  -5.523  -8.499  1.00  0.00     0.009 A 
ATOM     43  C   UNL     1       9.708  -3.487  -8.488  1.00  0.00     0.001 A 
ATOM     44  C   UNL     1       8.206  -4.938  -9.701  1.00  0.00     0.001 A 
ATOM     45  C   UNL     1       9.155  -3.917  -9.694  1.00  0.00     0.000 A 
ENDBRANCH  26  40
BRANCH  27  46
ATOM     46  C   UNL     1       5.503  -9.821   1.057  1.00  0.00    -0.014 A 
ATOM     47  C   UNL     1       6.415 -10.241   2.036  1.00  0.00     0.009 A 
ATOM     48  C   UNL     1       4.139 -10.104   1.233  1.00  0.00     0.009 A 
ATOM     49  C   UNL     1       5.973 -10.958   3.150  1.00  0.00     0.001 A 
ATOM     50  C   UNL     1       3.696 -10.789   2.365  1.00  0.00     0.001 A 
ATOM     51  C   UNL     1       4.614 -11.227   3.315  1.00  0.00     0.000 A 
ENDBRANCH  27  46
BRANCH  39  52
ATOM     52  C   UNL     1       9.288 -11.675  -4.469  1.00  0.00    -0.014 A 
ATOM     53  C   UNL     1       8.533 -12.792  -4.859  1.00  0.00     0.009 A 
ATOM     54  C   UNL     1      10.688 -11.770  -4.449  1.00  0.00     0.009 A 
ATOM     55  C   UNL     1       9.167 -13.992  -5.184  1.00  0.00     0.001 A 
ATOM     56  C   UNL     1      11.320 -12.962  -4.805  1.00  0.00     0.001 A 
ATOM     57  C   UNL     1      10.559 -14.074  -5.161  1.00  0.00     0.000 A 
ENDBRANCH  39  52
ENDBRANCH  13  14
ENDBRANCH   6   8
ENDBRANCH   3   4
ENDBRANCH   2   3
ENDBRANCH   1   2
BRANCH   1  58
ATOM     58  C   UNL     1       4.957   4.043   1.322  1.00  0.00     0.116 C 
BRANCH  58  59
ATOM     59  N   UNL     1       6.398   4.112   1.511  1.00  0.00    -0.352 N 
ATOM     60  C   UNL     1       7.115   5.028   2.239  1.00  0.00     0.254 C 
ATOM     61  H   UNL     1       6.925   3.414   1.060  1.00  0.00     0.163 HD
ATOM     62  O   UNL     1       8.341   5.005   2.252  1.00  0.00    -0.269 OA
BRANCH  60  63
ATOM     63  C   UNL     1       6.404   6.075   2.987  1.00  0.00     0.078 A 
ATOM     64  C   UNL     1       6.755   7.411   2.779  1.00  0.00     0.037 A 
ATOM     65  C   UNL     1       5.388   5.733   3.880  1.00  0.00     0.156 A 
ATOM     66  C   UNL     1       6.037   8.408   3.433  1.00  0.00     0.043 A 
ATOM     67  C   UNL     1       4.677   6.729   4.525  1.00  0.00     0.120 A 
ATOM     68  F   UNL     1       5.098   4.439   4.069  1.00  0.00    -0.205 F 
ATOM     69  Cl  UNL     1       6.418  10.059   3.149  1.00  0.00    -0.084 Cl
ATOM     70  C   UNL     1       4.996   8.077   4.301  1.00  0.00     0.045 A 
BRANCH  67  71
ATOM     71  S   UNL     1       3.358   6.372   5.632  1.00  0.00     0.244 S 
ATOM     72  O   UNL     1       3.586   7.155   6.820  1.00  0.00    -0.207 OA
ATOM     73  O   UNL     1       2.147   6.515   4.856  1.00  0.00    -0.207 OA
BRANCH  71  74
ATOM     74  N   UNL     1       3.426   4.755   6.035  1.00  0.00    -0.196 NA
ATOM     75  H   UNL     1       3.383   4.240   5.155  1.00  0.00     0.142 HD
BRANCH  74  76
ATOM     76  C   UNL     1       4.544   4.187   6.786  1.00  0.00     0.189 C 
ATOM     77  C   UNL     1       4.472   2.660   6.750  1.00  0.00     0.224 C 
ATOM     78  C   UNL     1       4.681   4.381   8.262  1.00  0.00     0.264 C 
ATOM     79  O   UNL     1       5.321   2.205   7.809  1.00  0.00    -0.271 OA
ATOM     80  N   UNL     1       5.252   3.237   8.770  1.00  0.00    -0.233 N 
ATOM     81  O   UNL     1       4.423   5.374   8.917  1.00  0.00    -0.271 OA
ATOM     82  H   UNL     1       5.575   3.148   9.696  1.00  0.00     0.199 HD
ENDBRANCH  74  76
ENDBRANCH  71  74
ENDBRANCH  67  71
ENDBRANCH  60  63
ENDBRANCH  58  59
ENDBRANCH   1  58
TORSDOF 14
