REMARK SMILES CC1(C)CN(C(=O)NC[C@H]2CC[C@@H](C(=O)NCCCCNC(=O)c3ccc(-c4c5nc(c(-c6ccccc6)c6ccc([nH]6)c(-c6ccccc6)c6nc(c(-c7ccccc7)c7ccc4[nH]7)C=C6)C=C5)cc3)CC2)CCO1
REMARK SMILES IDX 18 1 17 2 16 3 14 4 15 5 13 7 10 8 11 9 73 10 12 11 72 12
REMARK SMILES IDX 9 13 8 14 6 15 7 16 5 18 1 19 2 20 3 21 4 22 76 23 75 24
REMARK SMILES IDX 74 25 19 26 20 27 21 28 22 29 23 31 24 32 25 33 71 34 26 35
REMARK SMILES IDX 70 36 27 37 28 38 29 39 64 40 30 41 69 42 63 43 65 44 31 45
REMARK SMILES IDX 68 46 62 47 61 48 32 50 54 51 39 52 53 53 40 54 43 55 52 56
REMARK SMILES IDX 66 57 41 58 42 59 51 61 67 62 44 63 33 64 34 65 38 66 35 67
REMARK SMILES IDX 37 68 36 69 55 70 56 71 60 72 57 73 59 74 58 75 45 76 46 77
REMARK SMILES IDX 50 78 47 79 49 80 48 81
REMARK H PARENT 16 6 8 17 21 30 65 49 43 60
REMARK Flexibility Score: inf
ROOT
ATOM      1  C   UNL     1       3.833   5.032  -0.732  1.00  0.00     0.023 C 
ENDROOT
BRANCH   1   2
ATOM      2  C   UNL     1       2.322   5.181  -0.896  1.00  0.00     0.116 C 
BRANCH   2   3
ATOM      3  N   UNL     1       1.919   6.549  -1.135  1.00  0.00    -0.356 N 
ATOM      4  C   UNL     1       1.371   7.124  -2.240  1.00  0.00     0.223 C 
ATOM      5  O   UNL     1       1.065   8.318  -2.160  1.00  0.00    -0.275 OA
ATOM      6  H   UNL     1       2.063   7.162  -0.378  1.00  0.00     0.163 HD
BRANCH   4   7
ATOM      7  C   UNL     1       1.103   6.351  -3.534  1.00  0.00     0.078 C 
ATOM      8  C   UNL     1       0.865   4.069  -5.453  1.00  0.00     0.008 C 
ATOM      9  C   UNL     1      -0.349   4.648  -4.715  1.00  0.00     0.006 C 
ATOM     10  C   UNL     1       2.045   5.056  -5.503  1.00  0.00     0.006 C 
ATOM     11  C   UNL     1      -0.031   5.335  -3.392  1.00  0.00     0.014 C 
ATOM     12  C   UNL     1       2.357   5.757  -4.181  1.00  0.00     0.014 C 
BRANCH   8  13
ATOM     13  C   UNL     1       1.239   2.624  -5.053  1.00  0.00     0.121 C 
BRANCH  13  14
ATOM     14  N   UNL     1       2.033   2.446  -3.855  1.00  0.00    -0.338 N 
ATOM     15  C   UNL     1       1.876   2.140  -2.562  1.00  0.00     0.317 C 
ATOM     16  O   UNL     1       2.934   2.096  -1.920  1.00  0.00    -0.249 OA
ATOM     17  H   UNL     1       2.985   2.596  -4.054  1.00  0.00     0.165 HD
BRANCH  15  18
ATOM     18  N   UNL     1       0.680   1.974  -1.943  1.00  0.00    -0.320 N 
ATOM     19  C   UNL     1       0.933  -0.484  -0.058  1.00  0.00     0.044 C 
ATOM     20  C   UNL     1       0.039   0.748   0.141  1.00  0.00     0.080 C 
ATOM     21  C   UNL     1      -0.158   0.973   1.646  1.00  0.00     0.044 C 
ATOM     22  C   UNL     1       0.664   2.013  -0.475  1.00  0.00     0.156 C 
ATOM     23  O   UNL     1      -1.278   0.538  -0.413  1.00  0.00    -0.372 OA
ATOM     24  C   UNL     1      -1.287   0.485  -1.847  1.00  0.00     0.182 C 
ATOM     25  C   UNL     1      -0.649   1.724  -2.492  1.00  0.00     0.150 C 
ENDBRANCH  15  18
ENDBRANCH  13  14
ENDBRANCH   8  13
ENDBRANCH   4   7
ENDBRANCH   2   3
ENDBRANCH   1   2
BRANCH   1  26
ATOM     26  C   UNL     1       4.328   5.083   0.712  1.00  0.00     0.023 C 
BRANCH  26  27
ATOM     27  C   UNL     1       3.732   4.047   1.665  1.00  0.00     0.116 C 
BRANCH  27  28
ATOM     28  N   UNL     1       3.915   2.660   1.268  1.00  0.00    -0.352 N 
ATOM     29  C   UNL     1       3.998   1.544   2.073  1.00  0.00     0.251 C 
ATOM     30  H   UNL     1       3.990   2.498   0.300  1.00  0.00     0.163 HD
ATOM     31  O   UNL     1       4.187   0.433   1.586  1.00  0.00    -0.269 OA
BRANCH  29  32
ATOM     32  C   UNL     1       3.910   1.679   3.547  1.00  0.00     0.039 A 
ATOM     33  C   UNL     1       4.852   1.006   4.331  1.00  0.00     0.014 A 
ATOM     34  C   UNL     1       2.941   2.479   4.158  1.00  0.00     0.014 A 
ATOM     35  C   UNL     1       4.892   1.224   5.710  1.00  0.00     0.010 A 
ATOM     36  C   UNL     1       3.022   2.749   5.522  1.00  0.00     0.010 A 
ATOM     37  C   UNL     1       4.014   2.144   6.306  1.00  0.00    -0.014 A 
BRANCH  37  38
ATOM     38  C   UNL     1       4.179   2.539   7.727  1.00  0.00     0.031 A 
ATOM     39  C   UNL     1       3.128   2.216   8.749  1.00  0.00     0.074 A 
ATOM     40  C   UNL     1       5.260   3.264   8.079  1.00  0.00     0.049 A 
ATOM     41  N   UNL     1       3.112   2.495  10.028  1.00  0.00    -0.248 NA
ATOM     42  C   UNL     1       1.931   1.510   8.270  1.00  0.00     0.031 C 
ATOM     43  C   UNL     1       6.320   3.703   7.166  1.00  0.00     0.029 A 
ATOM     44  N   UNL     1       5.645   3.764   9.297  1.00  0.00    -0.354 N 
ATOM     45  C   UNL     1       1.902   2.009  10.505  1.00  0.00     0.074 A 
ATOM     46  C   UNL     1       1.192   1.458   9.370  1.00  0.00     0.031 C 
ATOM     47  C   UNL     1       7.248   4.378   7.863  1.00  0.00     0.029 A 
ATOM     48  C   UNL     1       6.838   4.444   9.261  1.00  0.00     0.049 A 
ATOM     49  H   UNL     1       5.116   3.647  10.119  1.00  0.00     0.167 HD
ATOM     50  C   UNL     1       1.431   2.006  11.775  1.00  0.00     0.031 A 
ATOM     51  C   UNL     1       7.530   5.048  10.244  1.00  0.00     0.031 A 
ATOM     52  C   UNL     1       2.137   2.550  12.905  1.00  0.00     0.049 A 
ATOM     53  C   UNL     1       6.998   5.010  11.647  1.00  0.00     0.074 A 
ATOM     54  C   UNL     1       1.770   2.540  14.240  1.00  0.00     0.029 A 
ATOM     55  N   UNL     1       3.356   3.206  12.831  1.00  0.00    -0.354 N 
ATOM     56  N   UNL     1       5.892   4.469  12.095  1.00  0.00    -0.248 NA
ATOM     57  C   UNL     1       7.821   5.651  12.682  1.00  0.00     0.031 C 
ATOM     58  C   UNL     1       2.749   3.224  14.969  1.00  0.00     0.029 A 
ATOM     59  C   UNL     1       3.747   3.621  14.094  1.00  0.00     0.049 A 
ATOM     60  H   UNL     1       3.869   3.355  12.004  1.00  0.00     0.167 HD
ATOM     61  C   UNL     1       5.897   4.683  13.467  1.00  0.00     0.074 A 
ATOM     62  C   UNL     1       7.124   5.388  13.778  1.00  0.00     0.031 C 
ATOM     63  C   UNL     1       4.968   4.325  14.386  1.00  0.00     0.031 A 
BRANCH  50  64
ATOM     64  C   UNL     1       0.079   1.392  12.005  1.00  0.00    -0.014 A 
ATOM     65  C   UNL     1      -0.109   0.003  11.922  1.00  0.00     0.009 A 
ATOM     66  C   UNL     1      -1.014   2.207  12.335  1.00  0.00     0.009 A 
ATOM     67  C   UNL     1      -1.373  -0.554  12.128  1.00  0.00     0.001 A 
ATOM     68  C   UNL     1      -2.272   1.645  12.565  1.00  0.00     0.001 A 
ATOM     69  C   UNL     1      -2.452   0.267  12.452  1.00  0.00     0.000 A 
ENDBRANCH  50  64
BRANCH  51  70
ATOM     70  C   UNL     1       8.826   5.707   9.941  1.00  0.00    -0.014 A 
ATOM     71  C   UNL     1      10.033   5.115  10.343  1.00  0.00     0.009 A 
ATOM     72  C   UNL     1       8.864   6.926   9.248  1.00  0.00     0.009 A 
ATOM     73  C   UNL     1      11.252   5.743  10.078  1.00  0.00     0.001 A 
ATOM     74  C   UNL     1      10.085   7.540   8.963  1.00  0.00     0.001 A 
ATOM     75  C   UNL     1      11.277   6.952   9.385  1.00  0.00     0.000 A 
ENDBRANCH  51  70
BRANCH  63  76
ATOM     76  C   UNL     1       5.261   4.669  15.818  1.00  0.00    -0.014 A 
ATOM     77  C   UNL     1       5.168   5.990  16.282  1.00  0.00     0.009 A 
ATOM     78  C   UNL     1       5.613   3.652  16.719  1.00  0.00     0.009 A 
ATOM     79  C   UNL     1       5.457   6.291  17.614  1.00  0.00     0.001 A 
ATOM     80  C   UNL     1       5.877   3.952  18.056  1.00  0.00     0.001 A 
ATOM     81  C   UNL     1       5.808   5.272  18.500  1.00  0.00     0.000 A 
ENDBRANCH  63  76
ENDBRANCH  37  38
ENDBRANCH  29  32
ENDBRANCH  27  28
ENDBRANCH  26  27
ENDBRANCH   1  26
TORSDOF 14
