REMARK SMILES Cc1c(CC(=O)N[C@@H](CCO)C(=O)NCCCCNC(=O)c2ccc(-c3c4nc(c(-c5ccccc5)c5ccc([nH]5)c(-c5ccccc5)c5nc(c(-c6ccccc6)c6ccc3[nH]6)C=C5)C=C4)cc2)cc(-c2ccc(S(C)(=O)=O)cc2)n1-c1ccc(F)cc1
REMARK SMILES IDX 15 1 14 2 12 3 13 4 8 6 7 7 5 8 6 9 4 11 3 12 1 13 2 14
REMARK SMILES IDX 82 15 70 16 71 17 83 18 84 19 89 20 85 21 88 22 86 23 87 24
REMARK SMILES IDX 72 25 73 26 81 27 74 28 80 29 75 30 76 31 77 32 78 33 79 34
REMARK SMILES IDX 9 35 10 36 11 37 16 39 17 40 18 41 19 42 20 43 21 45 22 46
REMARK SMILES IDX 23 47 69 48 24 49 68 50 25 51 26 52 27 53 62 54 28 55 67 56
REMARK SMILES IDX 61 57 63 58 29 59 66 60 60 61 59 62 30 64 52 65 37 66 51 67
REMARK SMILES IDX 38 68 41 69 50 70 64 71 39 72 40 73 49 75 65 76 42 77 31 78
REMARK SMILES IDX 32 79 36 80 33 81 35 82 34 83 53 84 54 85 58 86 55 87 57 88
REMARK SMILES IDX 56 89 43 90 44 91 48 92 45 93 47 94 46 95
REMARK H PARENT 14 5 7 10 11 38 19 44 63 63 41 74
REMARK Flexibility Score: inf
ROOT
ATOM      1  C   UNL     1       7.207  -2.995  -1.676  1.00  0.00     0.116 C 
ENDROOT
BRANCH   1   2
ATOM      2  N   UNL     1       6.366  -4.171  -1.555  1.00  0.00    -0.354 N 
ATOM      3  C   UNL     1       5.020  -4.375  -1.613  1.00  0.00     0.242 C 
ATOM      4  O   UNL     1       4.679  -5.540  -1.859  1.00  0.00    -0.273 OA
ATOM      5  H   UNL     1       6.876  -4.998  -1.398  1.00  0.00     0.163 HD
BRANCH   3   6
ATOM      6  C   UNL     1       3.917  -3.289  -1.502  1.00  0.00     0.173 C 
BRANCH   6   7
ATOM      7  N   UNL     1       4.028  -2.439  -0.319  1.00  0.00    -0.344 N 
ATOM      8  C   UNL     1       3.115  -2.282   0.694  1.00  0.00     0.225 C 
ATOM      9  O   UNL     1       3.458  -1.616   1.675  1.00  0.00    -0.275 OA
ATOM     10  H   UNL     1       4.859  -1.916  -0.238  1.00  0.00     0.164 HD
BRANCH   8  11
ATOM     11  C   UNL     1       1.728  -2.925   0.627  1.00  0.00     0.137 C 
BRANCH  11  12
ATOM     12  C   UNL     1       0.874  -2.391  -0.488  1.00  0.00    -0.017 A 
ATOM     13  C   UNL     1       0.925   0.132   0.065  1.00  0.00     0.065 C 
ATOM     14  C   UNL     1       0.565  -1.063  -0.759  1.00  0.00     0.024 A 
ATOM     15  N   UNL     1      -0.208  -1.018  -1.916  1.00  0.00    -0.314 N 
ATOM     16  C   UNL     1       0.212  -3.172  -1.472  1.00  0.00     0.033 A 
ATOM     17  C   UNL     1      -0.395  -2.321  -2.380  1.00  0.00     0.053 A 
BRANCH  15  18
ATOM     18  C   UNL     1      -0.731   0.153  -2.530  1.00  0.00     0.046 A 
ATOM     19  C   UNL     1      -2.091   0.204  -2.866  1.00  0.00     0.029 A 
ATOM     20  C   UNL     1       0.116   1.230  -2.822  1.00  0.00     0.029 A 
ATOM     21  C   UNL     1      -2.606   1.342  -3.484  1.00  0.00     0.041 A 
ATOM     22  C   UNL     1      -0.405   2.357  -3.458  1.00  0.00     0.041 A 
ATOM     23  C   UNL     1      -1.759   2.405  -3.779  1.00  0.00     0.123 A 
ATOM     24  F   UNL     1      -2.255   3.491  -4.385  1.00  0.00    -0.207 F 
ENDBRANCH  15  18
BRANCH  17  25
ATOM     25  C   UNL     1      -1.011  -2.687  -3.663  1.00  0.00    -0.001 A 
ATOM     26  C   UNL     1      -0.518  -2.166  -4.871  1.00  0.00     0.011 A 
ATOM     27  C   UNL     1      -2.076  -3.596  -3.700  1.00  0.00     0.011 A 
ATOM     28  C   UNL     1      -1.096  -2.523  -6.093  1.00  0.00     0.021 A 
ATOM     29  C   UNL     1      -2.662  -3.956  -4.918  1.00  0.00     0.021 A 
ATOM     30  C   UNL     1      -2.175  -3.409  -6.107  1.00  0.00     0.067 A 
BRANCH  30  31
ATOM     31  S   UNL     1      -2.893  -3.886  -7.662  1.00  0.00     0.175 S 
ATOM     32  C   UNL     1      -3.606  -2.390  -8.293  1.00  0.00     0.163 C 
ATOM     33  O   UNL     1      -1.789  -4.265  -8.535  1.00  0.00    -0.224 OA
ATOM     34  O   UNL     1      -3.973  -4.805  -7.388  1.00  0.00    -0.224 OA
ENDBRANCH  30  31
ENDBRANCH  17  25
ENDBRANCH  11  12
ENDBRANCH   8  11
ENDBRANCH   6   7
BRANCH   6  35
ATOM     35  C   UNL     1       3.553  -2.516  -2.783  1.00  0.00     0.063 C 
BRANCH  35  36
ATOM     36  C   UNL     1       4.657  -1.752  -3.490  1.00  0.00     0.158 C 
BRANCH  36  37
ATOM     37  O   UNL     1       5.467  -2.591  -4.298  1.00  0.00    -0.396 OA
ATOM     38  H   UNL     1       5.900  -3.256  -3.740  1.00  0.00     0.210 HD
ENDBRANCH  36  37
ENDBRANCH  35  36
ENDBRANCH   6  35
ENDBRANCH   3   6
ENDBRANCH   1   2
BRANCH   1  39
ATOM     39  C   UNL     1       8.568  -3.093  -0.964  1.00  0.00     0.023 C 
BRANCH  39  40
ATOM     40  C   UNL     1       9.556  -4.294  -1.176  1.00  0.00     0.023 C 
BRANCH  40  41
ATOM     41  C   UNL     1       9.934  -4.875  -2.585  1.00  0.00     0.116 C 
BRANCH  41  42
ATOM     42  N   UNL     1      11.376  -4.715  -2.947  1.00  0.00    -0.352 N 
ATOM     43  C   UNL     1      12.524  -5.444  -3.283  1.00  0.00     0.251 C 
ATOM     44  H   UNL     1      11.597  -3.756  -2.951  1.00  0.00     0.163 HD
ATOM     45  O   UNL     1      13.523  -4.727  -3.460  1.00  0.00    -0.269 OA
BRANCH  43  46
ATOM     46  C   UNL     1      12.774  -6.945  -3.513  1.00  0.00     0.039 A 
ATOM     47  C   UNL     1      14.007  -7.571  -3.175  1.00  0.00     0.014 A 
ATOM     48  C   UNL     1      12.053  -7.722  -4.381  1.00  0.00     0.014 A 
ATOM     49  C   UNL     1      14.473  -8.929  -3.634  1.00  0.00     0.010 A 
ATOM     50  C   UNL     1      12.557  -9.037  -4.861  1.00  0.00     0.010 A 
ATOM     51  C   UNL     1      13.789  -9.772  -4.550  1.00  0.00    -0.014 A 
BRANCH  51  52
ATOM     52  C   UNL     1      14.678 -11.015  -5.497  1.00  0.00     0.031 A 
ATOM     53  C   UNL     1      15.639 -10.235  -6.367  1.00  0.00     0.074 A 
ATOM     54  C   UNL     1      14.733 -12.344  -6.116  1.00  0.00     0.049 A 
ATOM     55  N   UNL     1      15.329 -10.223  -7.630  1.00  0.00    -0.248 NA
ATOM     56  C   UNL     1      16.296  -9.002  -5.951  1.00  0.00     0.031 C 
ATOM     57  C   UNL     1      15.806 -12.785  -7.157  1.00  0.00     0.029 A 
ATOM     58  N   UNL     1      13.963 -13.549  -6.196  1.00  0.00    -0.354 N 
ATOM     59  C   UNL     1      14.881  -8.961  -7.753  1.00  0.00     0.074 A 
ATOM     60  C   UNL     1      15.708  -8.171  -6.826  1.00  0.00     0.031 C 
ATOM     61  C   UNL     1      15.643 -14.035  -7.653  1.00  0.00     0.029 A 
ATOM     62  C   UNL     1      14.472 -14.632  -7.069  1.00  0.00     0.049 A 
ATOM     63  H   UNL     1      13.126 -13.654  -5.689  1.00  0.00     0.167 HD
ATOM     64  C   UNL     1      13.610  -8.748  -8.173  1.00  0.00     0.031 A 
ATOM     65  C   UNL     1      13.893 -15.812  -7.521  1.00  0.00     0.031 A 
ATOM     66  C   UNL     1      12.643  -9.882  -8.127  1.00  0.00     0.049 A 
ATOM     67  C   UNL     1      12.651 -15.266  -8.131  1.00  0.00     0.074 A 
ATOM     68  C   UNL     1      12.127 -10.753  -7.172  1.00  0.00     0.029 A 
ATOM     69  N   UNL     1      12.082 -10.414  -9.276  1.00  0.00    -0.354 N 
ATOM     70  N   UNL     1      12.508 -14.829  -9.349  1.00  0.00    -0.248 NA
ATOM     71  C   UNL     1      11.494 -15.164  -7.261  1.00  0.00     0.031 C 
ATOM     72  C   UNL     1      11.028 -11.465  -7.656  1.00  0.00     0.029 A 
ATOM     73  C   UNL     1      11.402 -11.602  -8.963  1.00  0.00     0.049 A 
ATOM     74  H   UNL     1      12.150 -10.019 -10.175  1.00  0.00     0.167 HD
ATOM     75  C   UNL     1      11.408 -13.996  -9.249  1.00  0.00     0.074 A 
ATOM     76  C   UNL     1      10.729 -14.390  -8.021  1.00  0.00     0.031 C 
ATOM     77  C   UNL     1      11.487 -12.758  -9.814  1.00  0.00     0.031 A 
BRANCH  64  78
ATOM     78  C   UNL     1      13.376  -7.441  -8.844  1.00  0.00    -0.014 A 
ATOM     79  C   UNL     1      14.431  -6.567  -9.193  1.00  0.00     0.009 A 
ATOM     80  C   UNL     1      12.107  -7.166  -9.353  1.00  0.00     0.009 A 
ATOM     81  C   UNL     1      14.239  -5.497 -10.056  1.00  0.00     0.001 A 
ATOM     82  C   UNL     1      11.922  -6.122 -10.256  1.00  0.00     0.001 A 
ATOM     83  C   UNL     1      12.987  -5.296 -10.614  1.00  0.00     0.000 A 
ENDBRANCH  64  78
BRANCH  65  84
ATOM     84  C   UNL     1      14.095 -17.241  -8.087  1.00  0.00    -0.014 A 
ATOM     85  C   UNL     1      15.069 -17.858  -8.892  1.00  0.00     0.009 A 
ATOM     86  C   UNL     1      13.011 -18.107  -7.739  1.00  0.00     0.009 A 
ATOM     87  C   UNL     1      14.946 -19.235  -9.292  1.00  0.00     0.001 A 
ATOM     88  C   UNL     1      12.872 -19.446  -8.143  1.00  0.00     0.001 A 
ATOM     89  C   UNL     1      13.853 -20.023  -8.918  1.00  0.00     0.000 A 
ENDBRANCH  65  84
BRANCH  77  90
ATOM     90  C   UNL     1      12.095 -12.656 -11.157  1.00  0.00    -0.014 A 
ATOM     91  C   UNL     1      11.283 -12.994 -12.241  1.00  0.00     0.009 A 
ATOM     92  C   UNL     1      13.341 -12.048 -11.373  1.00  0.00     0.009 A 
ATOM     93  C   UNL     1      11.667 -12.636 -13.525  1.00  0.00     0.001 A 
ATOM     94  C   UNL     1      13.697 -11.642 -12.653  1.00  0.00     0.001 A 
ATOM     95  C   UNL     1      12.852 -11.926 -13.726  1.00  0.00     0.000 A 
ENDBRANCH  77  90
ENDBRANCH  51  52
ENDBRANCH  43  46
ENDBRANCH  41  42
ENDBRANCH  40  41
ENDBRANCH  39  40
ENDBRANCH   1  39
TORSDOF 20
