REMARK SMILES Nc1ccc(C(=O)N[C@H]2CCCCC[C@@H]2C(=O)NCCCCNC(=O)c2ccc(-c3c4nc(c(-c5ccccc5)c5ccc([nH]5)c(-c5ccccc5)c5nc(c(-c6ccccc6)c6ccc3[nH]6)C=C5)C=C4)cc2)cc1Cl
REMARK SMILES IDX 19 1 18 2 16 3 17 4 15 6 9 7 8 8 6 9 7 10 5 12 2 13 3 14
REMARK SMILES IDX 75 15 4 16 74 17 76 18 1 19 10 22 11 23 14 25 13 26 12 27
REMARK SMILES IDX 20 29 21 30 22 31 23 32 24 33 25 35 26 36 27 37 73 38 28 39
REMARK SMILES IDX 72 40 29 41 30 42 31 43 66 44 32 45 71 46 65 47 67 48 33 49
REMARK SMILES IDX 70 50 64 51 63 52 34 54 56 55 41 56 55 57 42 58 45 59 54 60
REMARK SMILES IDX 68 61 43 62 44 63 53 65 69 66 46 67 35 68 36 69 40 70 37 71
REMARK SMILES IDX 39 72 38 73 57 74 58 75 62 76 59 77 61 78 60 79 47 80 48 81
REMARK SMILES IDX 52 82 49 83 51 84 50 85
REMARK H PARENT 18 5 8 11 1 20 1 21 23 34 67 53 45 64
REMARK Flexibility Score: 90.00
ROOT
ATOM      1  C   UNL     1       2.716   2.672   1.120  1.00  0.00     0.116 C 
ENDROOT
BRANCH   1   2
ATOM      2  N   UNL     1       3.875   3.207   1.803  1.00  0.00    -0.356 N 
ATOM      3  C   UNL     1       5.150   2.752   1.883  1.00  0.00     0.225 C 
ATOM      4  O   UNL     1       5.946   3.459   2.514  1.00  0.00    -0.275 OA
ATOM      5  H   UNL     1       3.709   4.044   2.294  1.00  0.00     0.163 HD
BRANCH   3   6
ATOM      6  C   UNL     1       5.609   1.387   1.346  1.00  0.00     0.101 C 
BRANCH   6   7
ATOM      7  C   UNL     1       5.149   1.041  -0.100  1.00  0.00     0.094 C 
BRANCH   7   8
ATOM      8  N   UNL     1       6.200   1.154  -1.149  1.00  0.00    -0.349 N 
ATOM      9  C   UNL     1       6.402   2.135  -2.104  1.00  0.00     0.251 C 
ATOM     10  O   UNL     1       6.787   1.799  -3.222  1.00  0.00    -0.269 OA
ATOM     11  H   UNL     1       6.851   0.416  -1.166  1.00  0.00     0.164 HD
BRANCH   9  12
ATOM     12  C   UNL     1       6.221   3.579  -1.814  1.00  0.00     0.041 A 
ATOM     13  C   UNL     1       5.995   6.347  -1.245  1.00  0.00     0.050 A 
ATOM     14  C   UNL     1       6.296   5.430  -0.242  1.00  0.00     0.028 A 
ATOM     15  C   UNL     1       5.837   5.857  -2.556  1.00  0.00     0.064 A 
ATOM     16  C   UNL     1       6.483   4.080  -0.546  1.00  0.00     0.016 A 
ATOM     17  C   UNL     1       5.940   4.487  -2.841  1.00  0.00     0.036 A 
ATOM     18  Cl  UNL     1       5.553   6.956  -3.863  1.00  0.00    -0.082 Cl
BRANCH  13  19
ATOM     19  N   UNL     1       5.760   7.675  -0.900  1.00  0.00    -0.398 N 
ATOM     20  H   UNL     1       5.884   7.970   0.031  1.00  0.00     0.156 HD
ATOM     21  H   UNL     1       5.471   8.318  -1.587  1.00  0.00     0.156 HD
ENDBRANCH  13  19
ENDBRANCH   9  12
ENDBRANCH   7   8
BRANCH   7  22
ATOM     22  C   UNL     1       4.484  -0.353  -0.230  1.00  0.00     0.026 C 
BRANCH  22  23
ATOM     23  C   UNL     1       5.381  -1.556   0.095  1.00  0.00     0.002 CG0
ATOM     24  G   UNL     1       5.414  -1.942   1.568  1.00  0.00     0.000 G0
ENDBRANCH  22  23
ENDBRANCH   7  22
ENDBRANCH   6   7
BRANCH   6  25
ATOM     25  C   UNL     1       5.261   0.413   2.490  1.00  0.00     0.015 C 
BRANCH  25  26
ATOM     26  C   UNL     1       6.043  -0.892   2.466  1.00  0.00     0.001 C 
BRANCH  26  27
ATOM     27  C   UNL     1       5.414  -1.942   1.568  1.00  0.00     0.000 CG0
ATOM     28  G   UNL     1       5.381  -1.556   0.095  1.00  0.00     0.000 G0
ENDBRANCH  26  27
ENDBRANCH  25  26
ENDBRANCH   6  25
ENDBRANCH   3   6
ENDBRANCH   1   2
BRANCH   1  29
ATOM     29  C   UNL     1       1.401   3.254   1.623  1.00  0.00     0.023 C 
BRANCH  29  30
ATOM     30  C   UNL     1       1.257   4.768   1.445  1.00  0.00     0.023 C 
BRANCH  30  31
ATOM     31  C   UNL     1       1.496   5.285   0.028  1.00  0.00     0.116 C 
BRANCH  31  32
ATOM     32  N   UNL     1       0.535   4.755  -0.929  1.00  0.00    -0.352 N 
ATOM     33  C   UNL     1      -0.546   5.360  -1.529  1.00  0.00     0.251 C 
ATOM     34  H   UNL     1       0.681   3.817  -1.187  1.00  0.00     0.163 HD
ATOM     35  O   UNL     1      -1.356   4.686  -2.152  1.00  0.00    -0.269 OA
BRANCH  33  36
ATOM     36  C   UNL     1      -0.748   6.819  -1.395  1.00  0.00     0.039 A 
ATOM     37  C   UNL     1      -2.025   7.301  -1.096  1.00  0.00     0.014 A 
ATOM     38  C   UNL     1       0.314   7.709  -1.564  1.00  0.00     0.014 A 
ATOM     39  C   UNL     1      -2.215   8.669  -0.880  1.00  0.00     0.010 A 
ATOM     40  C   UNL     1       0.143   9.055  -1.258  1.00  0.00     0.010 A 
ATOM     41  C   UNL     1      -1.122   9.551  -0.911  1.00  0.00    -0.014 A 
BRANCH  41  42
ATOM     42  C   UNL     1      -1.279  10.988  -0.571  1.00  0.00     0.031 A 
ATOM     43  C   UNL     1      -0.973  12.051  -1.590  1.00  0.00     0.074 A 
ATOM     44  C   UNL     1      -1.626  11.342   0.683  1.00  0.00     0.049 A 
ATOM     45  N   UNL     1      -1.004  13.354  -1.460  1.00  0.00    -0.248 NA
ATOM     46  C   UNL     1      -0.551  11.589  -2.922  1.00  0.00     0.031 C 
ATOM     47  C   UNL     1      -1.912  10.413   1.778  1.00  0.00     0.029 A 
ATOM     48  N   UNL     1      -1.795  12.582   1.247  1.00  0.00    -0.354 N 
ATOM     49  C   UNL     1      -0.587  13.864  -2.683  1.00  0.00     0.074 A 
ATOM     50  C   UNL     1      -0.255  12.732  -3.522  1.00  0.00     0.031 C 
ATOM     51  C   UNL     1      -2.261  11.114   2.869  1.00  0.00     0.029 A 
ATOM     52  C   UNL     1      -2.175  12.539   2.566  1.00  0.00     0.049 A 
ATOM     53  H   UNL     1      -1.657  13.422   0.753  1.00  0.00     0.167 HD
ATOM     54  C   UNL     1      -0.502  15.156  -3.081  1.00  0.00     0.031 A 
ATOM     55  C   UNL     1      -2.425  13.534   3.439  1.00  0.00     0.031 A 
ATOM     56  C   UNL     1      -0.831  16.282  -2.247  1.00  0.00     0.049 A 
ATOM     57  C   UNL     1      -2.295  14.960   2.985  1.00  0.00     0.074 A 
ATOM     58  C   UNL     1      -0.839  17.626  -2.578  1.00  0.00     0.029 A 
ATOM     59  N   UNL     1      -1.197  16.196  -0.913  1.00  0.00    -0.354 N 
ATOM     60  N   UNL     1      -1.974  15.426   1.802  1.00  0.00    -0.248 NA
ATOM     61  C   UNL     1      -2.570  15.999   3.988  1.00  0.00     0.031 C 
ATOM     62  C   UNL     1      -1.146  18.357  -1.425  1.00  0.00     0.029 A 
ATOM     63  C   UNL     1      -1.397  17.465  -0.394  1.00  0.00     0.049 A 
ATOM     64  H   UNL     1      -1.300  15.357  -0.408  1.00  0.00     0.167 HD
ATOM     65  C   UNL     1      -2.037  16.809   1.909  1.00  0.00     0.074 A 
ATOM     66  C   UNL     1      -2.441  17.105   3.269  1.00  0.00     0.031 C 
ATOM     67  C   UNL     1      -1.788  17.748   0.964  1.00  0.00     0.031 A 
BRANCH  54  68
ATOM     68  C   UNL     1      -0.008  15.415  -4.480  1.00  0.00    -0.014 A 
ATOM     69  C   UNL     1      -0.762  15.041  -5.605  1.00  0.00     0.009 A 
ATOM     70  C   UNL     1       1.228  16.049  -4.676  1.00  0.00     0.009 A 
ATOM     71  C   UNL     1      -0.264  15.248  -6.894  1.00  0.00     0.001 A 
ATOM     72  C   UNL     1       1.708  16.288  -5.965  1.00  0.00     0.001 A 
ATOM     73  C   UNL     1       0.969  15.874  -7.072  1.00  0.00     0.000 A 
ENDBRANCH  54  68
BRANCH  55  74
ATOM     74  C   UNL     1      -2.853  13.212   4.826  1.00  0.00    -0.014 A 
ATOM     75  C   UNL     1      -4.171  13.463   5.236  1.00  0.00     0.009 A 
ATOM     76  C   UNL     1      -1.954  12.643   5.742  1.00  0.00     0.009 A 
ATOM     77  C   UNL     1      -4.576  13.168   6.539  1.00  0.00     0.001 A 
ATOM     78  C   UNL     1      -2.370  12.322   7.036  1.00  0.00     0.001 A 
ATOM     79  C   UNL     1      -3.678  12.592   7.436  1.00  0.00     0.000 A 
ENDBRANCH  55  74
BRANCH  67  80
ATOM     80  C   UNL     1      -1.976  19.188   1.357  1.00  0.00    -0.014 A 
ATOM     81  C   UNL     1      -1.091  19.829   2.238  1.00  0.00     0.009 A 
ATOM     82  C   UNL     1      -3.034  19.926   0.803  1.00  0.00     0.009 A 
ATOM     83  C   UNL     1      -1.284  21.168   2.583  1.00  0.00     0.001 A 
ATOM     84  C   UNL     1      -3.205  21.273   1.123  1.00  0.00     0.001 A 
ATOM     85  C   UNL     1      -2.336  21.890   2.021  1.00  0.00     0.000 A 
ENDBRANCH  67  80
ENDBRANCH  41  42
ENDBRANCH  33  36
ENDBRANCH  31  32
ENDBRANCH  30  31
ENDBRANCH  29  30
ENDBRANCH   1  29
TORSDOF 14
