REMARK SMILES CC(C)Cc1cc2c(cc1Cl)C=C(C(=O)NCCCCNC(=O)c1ccc(-c3c4nc(c(-c5ccccc5)c5ccc([nH]5)c(-c5ccccc5)c5nc(c(-c6ccccc6)c6ccc3[nH]6)C=C5)C=C4)cc1)[C@H](C(F)(F)F)O2
REMARK SMILES IDX 18 1 17 2 16 3 14 4 15 5 13 7 5 8 6 9 10 10 7 11 9 12 11 13
REMARK SMILES IDX 8 14 77 15 12 16 72 17 4 18 2 19 1 20 3 21 73 22 74 23 75 24
REMARK SMILES IDX 76 25 19 26 20 27 21 28 22 29 23 31 24 32 25 33 71 34 26 35
REMARK SMILES IDX 70 36 27 37 28 38 29 39 64 40 30 41 69 42 63 43 65 44 31 45
REMARK SMILES IDX 68 46 62 47 61 48 32 50 54 51 39 52 53 53 40 54 43 55 52 56
REMARK SMILES IDX 66 57 41 58 42 59 51 61 67 62 44 63 33 64 34 65 38 66 35 67
REMARK SMILES IDX 37 68 36 69 55 70 56 71 60 72 57 73 59 74 58 75 45 76 46 77
REMARK SMILES IDX 50 78 47 79 49 80 48 81
REMARK H PARENT 16 6 21 30 65 49 43 60
REMARK Flexibility Score: inf
ROOT
ATOM      1  C   UNL     1      -6.829   4.149  -6.443  1.00  0.00     0.023 C 
ENDROOT
BRANCH   1   2
ATOM      2  C   UNL     1      -5.329   3.954  -6.654  1.00  0.00     0.116 C 
BRANCH   2   3
ATOM      3  N   UNL     1      -4.539   4.886  -5.870  1.00  0.00    -0.352 N 
ATOM      4  C   UNL     1      -3.742   4.842  -4.778  1.00  0.00     0.251 C 
ATOM      5  O   UNL     1      -3.296   5.940  -4.423  1.00  0.00    -0.270 OA
ATOM      6  H   UNL     1      -4.600   5.800  -6.232  1.00  0.00     0.163 HD
BRANCH   4   7
ATOM      7  C   UNL     1      -3.360   3.616  -4.018  1.00  0.00     0.067 C 
ATOM      8  C   UNL     1      -1.267   0.366  -0.774  1.00  0.00    -0.025 A 
ATOM      9  C   UNL     1      -1.765   0.268  -2.082  1.00  0.00     0.052 A 
ATOM     10  C   UNL     1      -1.224   1.636  -0.169  1.00  0.00     0.045 A 
ATOM     11  C   UNL     1      -2.222   1.400  -2.747  1.00  0.00     0.128 A 
ATOM     12  C   UNL     1      -1.649   2.777  -0.863  1.00  0.00     0.032 A 
ATOM     13  Cl  UNL     1      -0.653   1.864   1.446  1.00  0.00    -0.084 Cl
ATOM     14  C   UNL     1      -2.155   2.661  -2.156  1.00  0.00     0.019 A 
ATOM     15  O   UNL     1      -2.722   1.221  -4.006  1.00  0.00    -0.475 OA
ATOM     16  C   UNL     1      -2.595   3.822  -2.926  1.00  0.00     0.025 C 
ATOM     17  C   UNL     1      -3.728   2.204  -4.388  1.00  0.00     0.314 C 
BRANCH   8  18
ATOM     18  C   UNL     1      -0.788  -0.903  -0.105  1.00  0.00     0.040 C 
BRANCH  18  19
ATOM     19  C   UNL     1       0.622  -1.335  -0.557  1.00  0.00    -0.013 C 
ATOM     20  C   UNL     1       1.710  -0.392  -0.039  1.00  0.00     0.008 C 
ATOM     21  C   UNL     1       0.907  -2.761  -0.082  1.00  0.00     0.008 C 
ENDBRANCH  18  19
ENDBRANCH   8  18
BRANCH  17  22
ATOM     22  C   UNL     1      -5.101   1.780  -3.832  1.00  0.00     0.429 C 
ATOM     23  F   UNL     1      -6.075   2.654  -4.166  1.00  0.00    -0.167 F 
ATOM     24  F   UNL     1      -5.474   0.579  -4.337  1.00  0.00    -0.167 F 
ATOM     25  F   UNL     1      -5.120   1.676  -2.485  1.00  0.00    -0.167 F 
ENDBRANCH  17  22
ENDBRANCH   4   7
ENDBRANCH   2   3
ENDBRANCH   1   2
BRANCH   1  26
ATOM     26  C   UNL     1      -7.436   5.348  -7.159  1.00  0.00     0.023 C 
BRANCH  26  27
ATOM     27  C   UNL     1      -7.200   5.405  -8.661  1.00  0.00     0.116 C 
BRANCH  27  28
ATOM     28  N   UNL     1      -7.587   4.196  -9.379  1.00  0.00    -0.352 N 
ATOM     29  C   UNL     1      -8.210   4.097 -10.606  1.00  0.00     0.251 C 
ATOM     30  H   UNL     1      -7.378   3.344  -8.932  1.00  0.00     0.163 HD
ATOM     31  O   UNL     1      -8.513   3.014 -11.080  1.00  0.00    -0.269 OA
BRANCH  29  32
ATOM     32  C   UNL     1      -8.559   5.350 -11.304  1.00  0.00     0.039 A 
ATOM     33  C   UNL     1      -7.576   6.318 -11.514  1.00  0.00     0.014 A 
ATOM     34  C   UNL     1      -9.901   5.615 -11.582  1.00  0.00     0.014 A 
ATOM     35  C   UNL     1      -7.965   7.619 -11.799  1.00  0.00     0.010 A 
ATOM     36  C   UNL     1     -10.278   6.905 -11.958  1.00  0.00     0.010 A 
ATOM     37  C   UNL     1      -9.322   7.932 -11.997  1.00  0.00    -0.014 A 
BRANCH  37  38
ATOM     38  C   UNL     1      -9.715   9.351 -12.190  1.00  0.00     0.031 A 
ATOM     39  C   UNL     1     -10.553  10.066 -11.162  1.00  0.00     0.074 A 
ATOM     40  C   UNL     1      -9.232  10.023 -13.251  1.00  0.00     0.049 A 
ATOM     41  N   UNL     1     -10.958  11.312 -11.158  1.00  0.00    -0.248 NA
ATOM     42  C   UNL     1     -10.993   9.292  -9.990  1.00  0.00     0.031 C 
ATOM     43  C   UNL     1      -8.378   9.450 -14.293  1.00  0.00     0.029 A 
ATOM     44  N   UNL     1      -9.347  11.344 -13.601  1.00  0.00    -0.354 N 
ATOM     45  C   UNL     1     -11.726  11.459 -10.009  1.00  0.00     0.074 A 
ATOM     46  C   UNL     1     -11.738  10.177  -9.340  1.00  0.00     0.031 C 
ATOM     47  C   UNL     1      -7.978  10.429 -15.117  1.00  0.00     0.029 A 
ATOM     48  C   UNL     1      -8.603  11.681 -14.704  1.00  0.00     0.049 A 
ATOM     49  H   UNL     1      -9.907  11.986 -13.109  1.00  0.00     0.167 HD
ATOM     50  C   UNL     1     -12.362  12.564  -9.552  1.00  0.00     0.031 A 
ATOM     51  C   UNL     1      -8.443  12.864 -15.323  1.00  0.00     0.031 A 
ATOM     52  C   UNL     1     -12.326  13.848 -10.198  1.00  0.00     0.049 A 
ATOM     53  C   UNL     1      -9.175  14.066 -14.811  1.00  0.00     0.074 A 
ATOM     54  C   UNL     1     -12.938  15.026  -9.806  1.00  0.00     0.029 A 
ATOM     55  N   UNL     1     -11.629  14.126 -11.362  1.00  0.00    -0.354 N 
ATOM     56  N   UNL     1      -9.935  14.174 -13.749  1.00  0.00    -0.248 NA
ATOM     57  C   UNL     1      -9.044  15.303 -15.592  1.00  0.00     0.031 C 
ATOM     58  C   UNL     1     -12.639  16.010 -10.753  1.00  0.00     0.029 A 
ATOM     59  C   UNL     1     -11.808  15.453 -11.711  1.00  0.00     0.049 A 
ATOM     60  H   UNL     1     -11.087  13.477 -11.866  1.00  0.00     0.167 HD
ATOM     61  C   UNL     1     -10.384  15.486 -13.739  1.00  0.00     0.074 A 
ATOM     62  C   UNL     1      -9.789  16.144 -14.885  1.00  0.00     0.031 C 
ATOM     63  C   UNL     1     -11.224  16.087 -12.864  1.00  0.00     0.031 A 
BRANCH  50  64
ATOM     64  C   UNL     1     -13.178  12.436  -8.298  1.00  0.00    -0.014 A 
ATOM     65  C   UNL     1     -14.580  12.425  -8.382  1.00  0.00     0.009 A 
ATOM     66  C   UNL     1     -12.571  12.409  -7.034  1.00  0.00     0.009 A 
ATOM     67  C   UNL     1     -15.359  12.394  -7.224  1.00  0.00     0.001 A 
ATOM     68  C   UNL     1     -13.354  12.360  -5.877  1.00  0.00     0.001 A 
ATOM     69  C   UNL     1     -14.745  12.358  -5.973  1.00  0.00     0.000 A 
ENDBRANCH  50  64
BRANCH  51  70
ATOM     70  C   UNL     1      -7.549  12.947 -16.504  1.00  0.00    -0.014 A 
ATOM     71  C   UNL     1      -7.925  12.363 -17.724  1.00  0.00     0.009 A 
ATOM     72  C   UNL     1      -6.288  13.550 -16.395  1.00  0.00     0.009 A 
ATOM     73  C   UNL     1      -7.043  12.357 -18.805  1.00  0.00     0.001 A 
ATOM     74  C   UNL     1      -5.417  13.562 -17.487  1.00  0.00     0.001 A 
ATOM     75  C   UNL     1      -5.792  12.958 -18.687  1.00  0.00     0.000 A 
ENDBRANCH  51  70
BRANCH  63  76
ATOM     76  C   UNL     1     -11.563  17.525 -13.113  1.00  0.00    -0.014 A 
ATOM     77  C   UNL     1     -10.991  18.529 -12.318  1.00  0.00     0.009 A 
ATOM     78  C   UNL     1     -12.506  17.877 -14.090  1.00  0.00     0.009 A 
ATOM     79  C   UNL     1     -11.359  19.863 -12.496  1.00  0.00     0.001 A 
ATOM     80  C   UNL     1     -12.860  19.214 -14.277  1.00  0.00     0.001 A 
ATOM     81  C   UNL     1     -12.290  20.204 -13.477  1.00  0.00     0.000 A 
ENDBRANCH  63  76
ENDBRANCH  37  38
ENDBRANCH  29  32
ENDBRANCH  27  28
ENDBRANCH  26  27
ENDBRANCH   1  26
TORSDOF 14
