REMARK SMILES CC[C@](C)(NC(=O)NC[C@@H](C)[NH+](C)C)C(=O)NCCCCNC(=O)c1ccc(-c2c3nc(c(-c4ccccc4)c4ccc([nH]4)c(-c4ccccc4)c4nc(c(-c5ccccc5)c5ccc2[nH]5)C=C4)C=C3)cc1
REMARK SMILES IDX 18 1 17 2 15 3 16 4 3 6 4 7 2 8 1 9 5 10 6 11 7 13 8 14 9 16
REMARK SMILES IDX 10 17 11 18 12 19 13 20 14 21 19 23 20 24 21 25 22 26 23 27
REMARK SMILES IDX 24 29 25 30 26 31 72 32 27 33 71 34 28 35 29 36 30 37 65 38
REMARK SMILES IDX 31 39 70 40 64 41 66 42 32 43 69 44 63 45 62 46 33 48 55 49
REMARK SMILES IDX 40 50 54 51 41 52 44 53 53 54 67 55 42 56 43 57 52 59 68 60
REMARK SMILES IDX 45 61 34 62 35 63 39 64 36 65 38 66 37 67 56 68 57 69 61 70
REMARK SMILES IDX 58 71 60 72 59 73 46 74 47 75 51 76 48 77 50 78 49 79
REMARK H PARENT 17 5 5 12 8 15 12 22 22 28 66 47 44 58
REMARK Flexibility Score: inf
ROOT
ATOM      1  C   UNL     1       1.868   5.478   0.225  1.00  0.00     0.116 C 
ENDROOT
BRANCH   1   2
ATOM      2  N   UNL     1       2.584   4.244  -0.052  1.00  0.00    -0.354 N 
ATOM      3  C   UNL     1       2.208   2.926  -0.006  1.00  0.00     0.245 C 
ATOM      4  O   UNL     1       2.790   2.156  -0.780  1.00  0.00    -0.272 OA
ATOM      5  H   UNL     1       3.520   4.380  -0.326  1.00  0.00     0.163 HD
BRANCH   3   6
ATOM      6  C   UNL     1       1.005   2.424   0.827  1.00  0.00     0.117 C 
ATOM      7  C   UNL     1       0.999   0.898   1.064  1.00  0.00     0.045 C 
BRANCH   6   8
ATOM      8  C   UNL     1      -0.288   2.751   0.004  1.00  0.00     0.035 C 
ATOM      9  C   UNL     1      -0.230   2.350  -1.473  1.00  0.00     0.007 C 
ENDBRANCH   6   8
BRANCH   6  10
ATOM     10  N   UNL     1       0.964   3.103   2.133  1.00  0.00    -0.324 N 
ATOM     11  C   UNL     1       1.793   3.208   3.177  1.00  0.00     0.315 C 
ATOM     12  H   UNL     1       0.125   3.599   2.270  1.00  0.00     0.166 HD
ATOM     13  O   UNL     1       1.328   3.730   4.197  1.00  0.00    -0.249 OA
ATOM     14  N   UNL     1       3.083   2.861   3.217  1.00  0.00    -0.332 N 
ATOM     15  H   UNL     1       3.501   3.154   4.058  1.00  0.00     0.165 HD
BRANCH  14  16
ATOM     16  C   UNL     1       4.051   2.168   2.361  1.00  0.00     0.182 C 
BRANCH  16  17
ATOM     17  C   UNL     1       5.096   3.097   1.665  1.00  0.00     0.200 C 
ATOM     18  C   UNL     1       6.253   3.456   2.604  1.00  0.00     0.077 C 
BRANCH  17  19
ATOM     19  N   UNL     1       5.534   2.570   0.359  1.00  0.00    -0.336 N 
ATOM     20  C   UNL     1       6.245   3.523  -0.481  1.00  0.00     0.332 C 
ATOM     21  C   UNL     1       6.207   1.280   0.389  1.00  0.00     0.332 C 
ATOM     22  H   UNL     1       4.636   2.398  -0.093  1.00  0.00     0.347 HD
ENDBRANCH  17  19
ENDBRANCH  16  17
ENDBRANCH  14  16
ENDBRANCH   6  10
ENDBRANCH   3   6
ENDBRANCH   1   2
BRANCH   1  23
ATOM     23  C   UNL     1       2.112   6.207   1.551  1.00  0.00     0.023 C 
BRANCH  23  24
ATOM     24  C   UNL     1       3.540   6.554   1.974  1.00  0.00     0.023 C 
BRANCH  24  25
ATOM     25  C   UNL     1       4.454   7.091   0.883  1.00  0.00     0.116 C 
BRANCH  25  26
ATOM     26  N   UNL     1       4.042   8.409   0.432  1.00  0.00    -0.352 N 
ATOM     27  C   UNL     1       4.798   9.535   0.251  1.00  0.00     0.251 C 
ATOM     28  H   UNL     1       3.084   8.505   0.227  1.00  0.00     0.163 HD
ATOM     29  O   UNL     1       4.237  10.619   0.044  1.00  0.00    -0.269 OA
BRANCH  27  30
ATOM     30  C   UNL     1       6.275   9.485   0.310  1.00  0.00     0.039 A 
ATOM     31  C   UNL     1       6.956  10.510   0.974  1.00  0.00     0.014 A 
ATOM     32  C   UNL     1       6.996   8.472  -0.330  1.00  0.00     0.014 A 
ATOM     33  C   UNL     1       8.352  10.507   1.023  1.00  0.00     0.010 A 
ATOM     34  C   UNL     1       8.389   8.441  -0.237  1.00  0.00     0.010 A 
ATOM     35  C   UNL     1       9.081   9.465   0.430  1.00  0.00    -0.014 A 
BRANCH  35  36
ATOM     36  C   UNL     1      10.565   9.448   0.477  1.00  0.00     0.031 A 
ATOM     37  C   UNL     1      11.368   9.636  -0.782  1.00  0.00     0.074 A 
ATOM     38  C   UNL     1      11.196   9.226   1.646  1.00  0.00     0.049 A 
ATOM     39  N   UNL     1      12.667   9.616  -0.943  1.00  0.00    -0.248 NA
ATOM     40  C   UNL     1      10.611   9.856  -2.024  1.00  0.00     0.031 C 
ATOM     41  C   UNL     1      10.540   9.005   2.936  1.00  0.00     0.029 A 
ATOM     42  N   UNL     1      12.536   9.146   1.936  1.00  0.00    -0.354 N 
ATOM     43  C   UNL     1      12.882   9.803  -2.303  1.00  0.00     0.074 A 
ATOM     44  C   UNL     1      11.580   9.896  -2.928  1.00  0.00     0.031 C 
ATOM     45  C   UNL     1      11.478   8.837   3.882  1.00  0.00     0.029 A 
ATOM     46  C   UNL     1      12.798   8.904   3.263  1.00  0.00     0.049 A 
ATOM     47  H   UNL     1      13.241   9.252   1.258  1.00  0.00     0.167 HD
ATOM     48  C   UNL     1      14.056   9.905  -2.972  1.00  0.00     0.031 A 
ATOM     49  C   UNL     1      13.970   8.750   3.908  1.00  0.00     0.031 A 
ATOM     50  C   UNL     1      15.354   9.830  -2.355  1.00  0.00     0.049 A 
ATOM     51  C   UNL     1      15.258   8.855   3.141  1.00  0.00     0.074 A 
ATOM     52  C   UNL     1      16.598   9.979  -2.944  1.00  0.00     0.029 A 
ATOM     53  N   UNL     1      15.574   9.585  -1.010  1.00  0.00    -0.354 N 
ATOM     54  N   UNL     1      15.443   9.092   1.865  1.00  0.00    -0.248 NA
ATOM     55  C   UNL     1      16.500   8.680   3.908  1.00  0.00     0.031 C 
ATOM     56  C   UNL     1      17.573   9.781  -1.961  1.00  0.00     0.029 A 
ATOM     57  C   UNL     1      16.935   9.555  -0.753  1.00  0.00     0.049 A 
ATOM     58  H   UNL     1      14.869   9.451  -0.336  1.00  0.00     0.167 HD
ATOM     59  C   UNL     1      16.819   9.122   1.682  1.00  0.00     0.074 A 
ATOM     60  C   UNL     1      17.422   8.891   2.979  1.00  0.00     0.031 C 
ATOM     61  C   UNL     1      17.521   9.325   0.541  1.00  0.00     0.031 A 
BRANCH  48  62
ATOM     62  C   UNL     1      13.989  10.101  -4.460  1.00  0.00    -0.014 A 
ATOM     63  C   UNL     1      13.581  11.324  -5.015  1.00  0.00     0.009 A 
ATOM     64  C   UNL     1      14.381   9.062  -5.319  1.00  0.00     0.009 A 
ATOM     65  C   UNL     1      13.533  11.491  -6.401  1.00  0.00     0.001 A 
ATOM     66  C   UNL     1      14.357   9.241  -6.704  1.00  0.00     0.001 A 
ATOM     67  C   UNL     1      13.924  10.451  -7.243  1.00  0.00     0.000 A 
ENDBRANCH  48  62
BRANCH  49  68
ATOM     68  C   UNL     1      13.984   8.495   5.372  1.00  0.00    -0.014 A 
ATOM     69  C   UNL     1      14.408   9.493   6.262  1.00  0.00     0.009 A 
ATOM     70  C   UNL     1      13.585   7.251   5.884  1.00  0.00     0.009 A 
ATOM     71  C   UNL     1      14.456   9.242   7.635  1.00  0.00     0.001 A 
ATOM     72  C   UNL     1      13.609   7.011   7.259  1.00  0.00     0.001 A 
ATOM     73  C   UNL     1      14.053   8.003   8.132  1.00  0.00     0.000 A 
ENDBRANCH  49  68
BRANCH  61  74
ATOM     74  C   UNL     1      19.018   9.339   0.649  1.00  0.00    -0.014 A 
ATOM     75  C   UNL     1      19.745   8.153   0.836  1.00  0.00     0.009 A 
ATOM     76  C   UNL     1      19.713  10.552   0.524  1.00  0.00     0.009 A 
ATOM     77  C   UNL     1      21.138   8.187   0.926  1.00  0.00     0.001 A 
ATOM     78  C   UNL     1      21.107  10.580   0.589  1.00  0.00     0.001 A 
ATOM     79  C   UNL     1      21.817   9.399   0.798  1.00  0.00     0.000 A 
ENDBRANCH  61  74
ENDBRANCH  35  36
ENDBRANCH  27  30
ENDBRANCH  25  26
ENDBRANCH  24  25
ENDBRANCH  23  24
ENDBRANCH   1  23
TORSDOF 16
