REMARK SMILES C[C@@H](O)[C@@H](NC(=O)c1csc(-c2ccsc2)n1)C(=O)NCCCCNC(=O)c1ccc(-c2c3nc(c(-c4ccccc4)c4ccc([nH]4)c(-c4ccccc4)c4nc(c(-c5ccccc5)c5ccc2[nH]5)C=C4)C=C3)cc1
REMARK SMILES IDX 22 1 21 2 20 3 18 4 19 5 4 7 2 8 1 9 3 10 5 12 6 13 7 15
REMARK SMILES IDX 8 16 9 17 17 18 10 19 11 20 12 21 13 22 16 23 14 24 15 25
REMARK SMILES IDX 23 26 24 27 25 28 26 29 27 31 28 32 29 33 75 34 30 35 74 36
REMARK SMILES IDX 31 37 32 38 33 39 68 40 34 41 73 42 67 43 69 44 35 45 72 46
REMARK SMILES IDX 66 47 65 48 36 50 58 51 43 52 57 53 44 54 47 55 56 56 70 57
REMARK SMILES IDX 45 58 46 59 55 61 71 62 48 63 37 64 38 65 42 66 39 67 41 68
REMARK SMILES IDX 40 69 59 70 60 71 64 72 61 73 63 74 62 75 49 76 50 77 54 78
REMARK SMILES IDX 51 79 53 80 52 81
REMARK H PARENT 20 6 3 11 5 14 25 30 69 49 47 60
REMARK Flexibility Score: inf
ROOT
ATOM      1  C   UNL     1       1.413  -3.202   3.689  1.00  0.00     0.023 C 
ENDROOT
BRANCH   1   2
ATOM      2  C   UNL     1       0.141  -2.812   2.945  1.00  0.00     0.116 C 
BRANCH   2   3
ATOM      3  N   UNL     1      -0.494  -1.685   3.595  1.00  0.00    -0.354 N 
ATOM      4  C   UNL     1      -1.016  -0.539   3.072  1.00  0.00     0.245 C 
ATOM      5  O   UNL     1      -1.306   0.347   3.881  1.00  0.00    -0.273 OA
ATOM      6  H   UNL     1      -0.559  -1.757   4.574  1.00  0.00     0.163 HD
BRANCH   4   7
ATOM      7  C   UNL     1      -1.080  -0.305   1.547  1.00  0.00     0.200 C 
BRANCH   7   8
ATOM      8  C   UNL     1       0.379   0.109   1.147  1.00  0.00     0.143 C 
ATOM      9  C   UNL     1       0.640   0.232  -0.349  1.00  0.00     0.041 C 
BRANCH   8  10
ATOM     10  O   UNL     1       0.705   1.384   1.708  1.00  0.00    -0.391 OA
ATOM     11  H   UNL     1       0.128   2.063   1.326  1.00  0.00     0.211 HD
ENDBRANCH   8  10
ENDBRANCH   7   8
BRANCH   7  12
ATOM     12  N   UNL     1      -1.578  -1.449   0.748  1.00  0.00    -0.337 N 
ATOM     13  C   UNL     1      -2.689  -2.251   0.906  1.00  0.00     0.271 C 
ATOM     14  H   UNL     1      -1.020  -1.676  -0.031  1.00  0.00     0.164 HD
ATOM     15  O   UNL     1      -2.998  -2.991  -0.028  1.00  0.00    -0.267 OA
BRANCH  13  16
ATOM     16  C   UNL     1      -3.323  -2.363   2.216  1.00  0.00     0.139 A 
ATOM     17  C   UNL     1      -3.448  -3.582   2.863  1.00  0.00     0.101 A 
ATOM     18  N   UNL     1      -3.793  -1.278   2.946  1.00  0.00    -0.231 NA
ATOM     19  S   UNL     1      -3.833  -3.327   4.511  1.00  0.00    -0.122 S 
ATOM     20  C   UNL     1      -4.008  -1.645   4.194  1.00  0.00     0.125 A 
BRANCH  20  21
ATOM     21  C   UNL     1      -4.340  -0.653   5.265  1.00  0.00     0.021 A 
ATOM     22  C   UNL     1      -5.204   0.467   5.092  1.00  0.00     0.023 A 
ATOM     23  C   UNL     1      -3.804  -0.702   6.535  1.00  0.00     0.076 A 
ATOM     24  C   UNL     1      -5.332   1.202   6.251  1.00  0.00     0.065 A 
ATOM     25  S   UNL     1      -4.351   0.592   7.514  1.00  0.00    -0.152 S 
ENDBRANCH  20  21
ENDBRANCH  13  16
ENDBRANCH   7  12
ENDBRANCH   4   7
ENDBRANCH   2   3
ENDBRANCH   1   2
BRANCH   1  26
ATOM     26  C   UNL     1       1.166  -3.752   5.097  1.00  0.00     0.023 C 
BRANCH  26  27
ATOM     27  C   UNL     1       0.234  -4.956   5.156  1.00  0.00     0.116 C 
BRANCH  27  28
ATOM     28  N   UNL     1       0.725  -6.075   4.368  1.00  0.00    -0.352 N 
ATOM     29  C   UNL     1       0.883  -7.385   4.743  1.00  0.00     0.251 C 
ATOM     30  H   UNL     1       0.979  -5.864   3.440  1.00  0.00     0.163 HD
ATOM     31  O   UNL     1       1.480  -8.172   4.015  1.00  0.00    -0.269 OA
BRANCH  29  32
ATOM     32  C   UNL     1       0.350  -7.833   6.044  1.00  0.00     0.039 A 
ATOM     33  C   UNL     1       1.174  -8.580   6.888  1.00  0.00     0.014 A 
ATOM     34  C   UNL     1      -0.951  -7.501   6.433  1.00  0.00     0.014 A 
ATOM     35  C   UNL     1       0.708  -8.952   8.149  1.00  0.00     0.010 A 
ATOM     36  C   UNL     1      -1.386  -7.809   7.718  1.00  0.00     0.010 A 
ATOM     37  C   UNL     1      -0.564  -8.546   8.585  1.00  0.00    -0.014 A 
BRANCH  37  38
ATOM     38  C   UNL     1      -1.049  -8.896   9.943  1.00  0.00     0.031 A 
ATOM     39  C   UNL     1      -2.235  -9.805  10.112  1.00  0.00     0.074 A 
ATOM     40  C   UNL     1      -0.448  -8.361  11.023  1.00  0.00     0.049 A 
ATOM     41  N   UNL     1      -2.807 -10.217  11.215  1.00  0.00    -0.248 NA
ATOM     42  C   UNL     1      -2.878 -10.297   8.883  1.00  0.00     0.031 C 
ATOM     43  C   UNL     1       0.679  -7.425  10.992  1.00  0.00     0.029 A 
ATOM     44  N   UNL     1      -0.704  -8.527  12.361  1.00  0.00    -0.354 N 
ATOM     45  C   UNL     1      -3.882 -10.998  10.813  1.00  0.00     0.074 A 
ATOM     46  C   UNL     1      -3.915 -10.964   9.368  1.00  0.00     0.031 C 
ATOM     47  C   UNL     1       1.035  -7.125  12.252  1.00  0.00     0.029 A 
ATOM     48  C   UNL     1       0.144  -7.818  13.176  1.00  0.00     0.049 A 
ATOM     49  H   UNL     1      -1.427  -9.101  12.704  1.00  0.00     0.167 HD
ATOM     50  C   UNL     1      -4.754 -11.699  11.577  1.00  0.00     0.031 A 
ATOM     51  C   UNL     1       0.198  -7.735  14.519  1.00  0.00     0.031 A 
ATOM     52  C   UNL     1      -4.713 -11.747  13.014  1.00  0.00     0.049 A 
ATOM     53  C   UNL     1      -0.774  -8.533  15.343  1.00  0.00     0.074 A 
ATOM     54  C   UNL     1      -5.512 -12.479  13.875  1.00  0.00     0.029 A 
ATOM     55  N   UNL     1      -3.826 -11.030  13.802  1.00  0.00    -0.354 N 
ATOM     56  N   UNL     1      -1.732  -9.334  14.946  1.00  0.00    -0.248 NA
ATOM     57  C   UNL     1      -0.641  -8.430  16.803  1.00  0.00     0.031 C 
ATOM     58  C   UNL     1      -5.142 -12.166  15.187  1.00  0.00     0.029 A 
ATOM     59  C   UNL     1      -4.073 -11.285  15.140  1.00  0.00     0.049 A 
ATOM     60  H   UNL     1      -3.126 -10.428  13.461  1.00  0.00     0.167 HD
ATOM     61  C   UNL     1      -2.296  -9.853  16.104  1.00  0.00     0.074 A 
ATOM     62  C   UNL     1      -1.559  -9.291  17.217  1.00  0.00     0.031 C 
ATOM     63  C   UNL     1      -3.331 -10.719  16.236  1.00  0.00     0.031 A 
BRANCH  50  64
ATOM     64  C   UNL     1      -5.833 -12.470  10.869  1.00  0.00    -0.014 A 
ATOM     65  C   UNL     1      -5.535 -13.618  10.116  1.00  0.00     0.009 A 
ATOM     66  C   UNL     1      -7.172 -12.067  10.990  1.00  0.00     0.009 A 
ATOM     67  C   UNL     1      -6.552 -14.325   9.472  1.00  0.00     0.001 A 
ATOM     68  C   UNL     1      -8.190 -12.794  10.370  1.00  0.00     0.001 A 
ATOM     69  C   UNL     1      -7.879 -13.916   9.604  1.00  0.00     0.000 A 
ENDBRANCH  50  64
BRANCH  51  70
ATOM     70  C   UNL     1       1.221  -6.878  15.174  1.00  0.00    -0.014 A 
ATOM     71  C   UNL     1       2.283  -7.453  15.890  1.00  0.00     0.009 A 
ATOM     72  C   UNL     1       1.129  -5.479  15.103  1.00  0.00     0.009 A 
ATOM     73  C   UNL     1       3.212  -6.644  16.549  1.00  0.00     0.001 A 
ATOM     74  C   UNL     1       2.077  -4.674  15.738  1.00  0.00     0.001 A 
ATOM     75  C   UNL     1       3.110  -5.256  16.470  1.00  0.00     0.000 A 
ENDBRANCH  51  70
BRANCH  63  76
ATOM     76  C   UNL     1      -3.697 -11.142  17.631  1.00  0.00    -0.014 A 
ATOM     77  C   UNL     1      -4.313 -10.255  18.528  1.00  0.00     0.009 A 
ATOM     78  C   UNL     1      -3.444 -12.460  18.043  1.00  0.00     0.009 A 
ATOM     79  C   UNL     1      -4.628 -10.668  19.824  1.00  0.00     0.001 A 
ATOM     80  C   UNL     1      -3.789 -12.879  19.328  1.00  0.00     0.001 A 
ATOM     81  C   UNL     1      -4.370 -11.980  20.221  1.00  0.00     0.000 A 
ENDBRANCH  63  76
ENDBRANCH  37  38
ENDBRANCH  29  32
ENDBRANCH  27  28
ENDBRANCH  26  27
ENDBRANCH   1  26
TORSDOF 16
