REMARK SMILES O=C(NCCCCNC(=O)c1cc(Br)ccc1NC(=O)c1ccc(Br)s1)c1ccc(-c2c3nc(c(-c4ccccc4)c4ccc([nH]4)c(-c4ccccc4)c4nc(c(-c5ccccc5)c5ccc2[nH]5)C=C4)C=C3)cc1
REMARK SMILES IDX 5 1 4 2 3 3 1 4 2 5 27 7 28 8 74 9 29 10 73 11 30 12 31 13
REMARK SMILES IDX 32 14 67 15 33 16 72 17 66 18 68 19 34 20 71 21 65 22 64 23
REMARK SMILES IDX 35 25 57 26 42 27 56 28 43 29 46 30 55 31 69 32 44 33 45 34
REMARK SMILES IDX 54 36 70 37 47 38 36 39 37 40 41 41 38 42 40 43 39 44 58 45
REMARK SMILES IDX 59 46 63 47 60 48 62 49 61 50 48 51 49 52 53 53 50 54 52 55
REMARK SMILES IDX 51 56 6 57 7 58 8 59 9 60 10 62 11 63 12 64 17 65 13 66
REMARK SMILES IDX 16 67 14 68 15 69 18 70 19 71 20 73 21 74 22 75 26 76 23 77
REMARK SMILES IDX 24 78 25 79
REMARK H PARENT 3 6 68 24 46 35 8 61 18 72
REMARK Flexibility Score: inf
ROOT
ATOM      1  C   UNL     1       4.979  -2.666   0.659  1.00  0.00     0.023 C 
ENDROOT
BRANCH   1   2
ATOM      2  C   UNL     1       4.664  -1.392  -0.117  1.00  0.00     0.116 C 
BRANCH   2   3
ATOM      3  N   UNL     1       3.241  -1.188  -0.344  1.00  0.00    -0.352 N 
ATOM      4  O   UNL     1       1.256  -0.119  -0.283  1.00  0.00    -0.269 OA
ATOM      5  C   UNL     1       2.471  -0.071  -0.121  1.00  0.00     0.251 C 
ATOM      6  H   UNL     1       2.759  -1.963  -0.712  1.00  0.00     0.163 HD
BRANCH   5   7
ATOM      7  C   UNL     1       3.101   1.179   0.357  1.00  0.00     0.039 A 
ATOM      8  C   UNL     1       4.273   1.663  -0.227  1.00  0.00     0.014 A 
ATOM      9  C   UNL     1       2.513   1.866   1.424  1.00  0.00     0.014 A 
ATOM     10  C   UNL     1       4.942   2.734   0.356  1.00  0.00     0.010 A 
ATOM     11  C   UNL     1       3.148   2.989   1.961  1.00  0.00     0.010 A 
ATOM     12  C   UNL     1       4.393   3.402   1.463  1.00  0.00    -0.014 A 
BRANCH  12  13
ATOM     13  C   UNL     1       5.139   4.528   2.077  1.00  0.00     0.031 A 
ATOM     14  C   UNL     1       5.717   4.410   3.461  1.00  0.00     0.074 A 
ATOM     15  C   UNL     1       5.343   5.648   1.357  1.00  0.00     0.049 A 
ATOM     16  N   UNL     1       6.457   5.269   4.118  1.00  0.00    -0.248 NA
ATOM     17  C   UNL     1       5.425   3.176   4.206  1.00  0.00     0.031 C 
ATOM     18  C   UNL     1       4.835   5.886   0.005  1.00  0.00     0.029 A 
ATOM     19  N   UNL     1       6.060   6.779   1.650  1.00  0.00    -0.354 N 
ATOM     20  C   UNL     1       6.695   4.693   5.360  1.00  0.00     0.074 A 
ATOM     21  C   UNL     1       6.010   3.419   5.372  1.00  0.00     0.031 C 
ATOM     22  C   UNL     1       5.306   7.062  -0.438  1.00  0.00     0.029 A 
ATOM     23  C   UNL     1       6.110   7.677   0.613  1.00  0.00     0.049 A 
ATOM     24  H   UNL     1       6.496   6.933   2.519  1.00  0.00     0.167 HD
ATOM     25  C   UNL     1       7.421   5.178   6.396  1.00  0.00     0.031 A 
ATOM     26  C   UNL     1       6.738   8.862   0.513  1.00  0.00     0.031 A 
ATOM     27  C   UNL     1       8.122   6.434   6.384  1.00  0.00     0.049 A 
ATOM     28  C   UNL     1       7.538   9.374   1.672  1.00  0.00     0.074 A 
ATOM     29  C   UNL     1       8.916   6.989   7.374  1.00  0.00     0.029 A 
ATOM     30  N   UNL     1       8.116   7.330   5.328  1.00  0.00    -0.354 N 
ATOM     31  N   UNL     1       7.773   8.803   2.827  1.00  0.00    -0.248 NA
ATOM     32  C   UNL     1       8.160  10.696   1.510  1.00  0.00     0.031 C 
ATOM     33  C   UNL     1       9.364   8.238   6.928  1.00  0.00     0.029 A 
ATOM     34  C   UNL     1       8.877   8.442   5.647  1.00  0.00     0.049 A 
ATOM     35  H   UNL     1       7.641   7.196   4.476  1.00  0.00     0.167 HD
ATOM     36  C   UNL     1       8.580   9.689   3.527  1.00  0.00     0.074 A 
ATOM     37  C   UNL     1       8.807  10.828   2.660  1.00  0.00     0.031 C 
ATOM     38  C   UNL     1       9.088   9.568   4.777  1.00  0.00     0.031 A 
BRANCH  25  39
ATOM     39  C   UNL     1       7.471   4.351   7.648  1.00  0.00    -0.014 A 
ATOM     40  C   UNL     1       8.269   3.199   7.729  1.00  0.00     0.009 A 
ATOM     41  C   UNL     1       6.733   4.750   8.773  1.00  0.00     0.009 A 
ATOM     42  C   UNL     1       8.303   2.447   8.905  1.00  0.00     0.001 A 
ATOM     43  C   UNL     1       6.785   4.006   9.954  1.00  0.00     0.001 A 
ATOM     44  C   UNL     1       7.564   2.852  10.016  1.00  0.00     0.000 A 
ENDBRANCH  25  39
BRANCH  26  45
ATOM     45  C   UNL     1       6.646   9.633  -0.750  1.00  0.00    -0.014 A 
ATOM     46  C   UNL     1       7.741   9.690  -1.625  1.00  0.00     0.009 A 
ATOM     47  C   UNL     1       5.457  10.291  -1.099  1.00  0.00     0.009 A 
ATOM     48  C   UNL     1       7.650  10.401  -2.823  1.00  0.00     0.001 A 
ATOM     49  C   UNL     1       5.362  10.983  -2.308  1.00  0.00     0.001 A 
ATOM     50  C   UNL     1       6.460  11.042  -3.165  1.00  0.00     0.000 A 
ENDBRANCH  26  45
BRANCH  38  51
ATOM     51  C   UNL     1       9.953  10.690   5.268  1.00  0.00    -0.014 A 
ATOM     52  C   UNL     1       9.389  11.900   5.701  1.00  0.00     0.009 A 
ATOM     53  C   UNL     1      11.345  10.527   5.316  1.00  0.00     0.009 A 
ATOM     54  C   UNL     1      10.209  12.939   6.145  1.00  0.00     0.001 A 
ATOM     55  C   UNL     1      12.161  11.561   5.779  1.00  0.00     0.001 A 
ATOM     56  C   UNL     1      11.593  12.768   6.185  1.00  0.00     0.000 A 
ENDBRANCH  38  51
ENDBRANCH  12  13
ENDBRANCH   5   7
ENDBRANCH   2   3
ENDBRANCH   1   2
BRANCH   1  57
ATOM     57  C   UNL     1       4.486  -3.964   0.025  1.00  0.00     0.023 C 
BRANCH  57  58
ATOM     58  C   UNL     1       4.882  -4.171  -1.433  1.00  0.00     0.116 C 
BRANCH  58  59
ATOM     59  N   UNL     1       6.321  -4.300  -1.620  1.00  0.00    -0.352 N 
ATOM     60  C   UNL     1       7.017  -5.343  -2.186  1.00  0.00     0.253 C 
ATOM     61  H   UNL     1       6.865  -3.545  -1.299  1.00  0.00     0.163 HD
ATOM     62  O   UNL     1       8.241  -5.385  -2.145  1.00  0.00    -0.269 OA
BRANCH  60  63
ATOM     63  C   UNL     1       6.258  -6.461  -2.780  1.00  0.00     0.064 A 
ATOM     64  C   UNL     1       5.380  -6.167  -3.835  1.00  0.00     0.031 A 
ATOM     65  C   UNL     1       6.343  -7.753  -2.225  1.00  0.00     0.054 A 
ATOM     66  C   UNL     1       4.477  -7.132  -4.255  1.00  0.00     0.018 A 
ATOM     67  C   UNL     1       5.366  -8.672  -2.615  1.00  0.00     0.028 A 
ATOM     68  Br  UNL     1       3.238  -6.732  -5.621  1.00  0.00    -0.051 Br
ATOM     69  C   UNL     1       4.442  -8.370  -3.624  1.00  0.00     0.018 A 
BRANCH  65  70
ATOM     70  N   UNL     1       7.366  -8.037  -1.289  1.00  0.00    -0.321 N 
ATOM     71  C   UNL     1       7.830  -9.201  -0.708  1.00  0.00     0.265 C 
ATOM     72  H   UNL     1       7.850  -7.234  -0.988  1.00  0.00     0.170 HD
ATOM     73  O   UNL     1       8.624  -9.087   0.228  1.00  0.00    -0.268 OA
BRANCH  71  74
ATOM     74  C   UNL     1       7.432 -10.490  -1.230  1.00  0.00     0.093 A 
ATOM     75  C   UNL     1       7.541 -10.990  -2.518  1.00  0.00     0.027 A 
ATOM     76  S   UNL     1       6.742 -11.642  -0.165  1.00  0.00    -0.123 S 
ATOM     77  C   UNL     1       6.946 -12.282  -2.644  1.00  0.00     0.028 A 
ATOM     78  C   UNL     1       6.467 -12.725  -1.438  1.00  0.00     0.071 A 
ATOM     79  Br  UNL     1       5.588 -14.363  -1.212  1.00  0.00    -0.039 Br
ENDBRANCH  71  74
ENDBRANCH  65  70
ENDBRANCH  60  63
ENDBRANCH  58  59
ENDBRANCH  57  58
ENDBRANCH   1  57
TORSDOF 13
