REMARK SMILES O=C(NCCCCNC(=O)[C@@H]1CC2(CC[NH2+]CC2)C[N@H+]1Cc1cccc2nonc12)c1ccc(-c2c3nc(c(-c4ccccc4)c4ccc([nH]4)c(-c4ccccc4)c4nc(c(-c5ccccc5)c5ccc2[nH]5)C=C4)C=C3)cc1
REMARK SMILES IDX 5 1 4 2 3 3 1 4 2 5 31 7 32 8 78 9 33 10 77 11 34 12 35 13
REMARK SMILES IDX 36 14 71 15 37 16 76 17 70 18 72 19 38 20 75 21 69 22 68 23
REMARK SMILES IDX 39 25 61 26 46 27 60 28 47 29 50 30 59 31 73 32 48 33 49 34
REMARK SMILES IDX 58 36 74 37 51 38 40 39 41 40 45 41 42 42 44 43 43 44 62 45
REMARK SMILES IDX 63 46 67 47 64 48 66 49 65 50 52 51 53 52 57 53 54 54 56 55
REMARK SMILES IDX 55 56 6 57 7 58 8 59 9 60 10 62 11 63 12 64 20 65 13 66
REMARK SMILES IDX 19 67 14 69 18 70 15 71 17 72 16 73 21 76 22 77 23 78 30 79
REMARK SMILES IDX 24 80 26 81 29 82 25 83 27 84 28 85
REMARK H PARENT 3 6 72 24 50 35 8 61 20 68 16 74 16 75
REMARK Flexibility Score: inf
ROOT
ATOM      1  C   UNL     1       5.278  -1.141  -0.286  1.00  0.00     0.023 C 
ENDROOT
BRANCH   1   2
ATOM      2  C   UNL     1       4.483   0.147  -0.468  1.00  0.00     0.116 C 
BRANCH   2   3
ATOM      3  N   UNL     1       3.049  -0.092  -0.564  1.00  0.00    -0.352 N 
ATOM      4  O   UNL     1       0.891   0.045   0.074  1.00  0.00    -0.269 OA
ATOM      5  C   UNL     1       2.030   0.516   0.115  1.00  0.00     0.251 C 
ATOM      6  H   UNL     1       2.776  -0.786  -1.206  1.00  0.00     0.163 HD
BRANCH   5   7
ATOM      7  C   UNL     1       2.297   1.729   0.906  1.00  0.00     0.039 A 
ATOM      8  C   UNL     1       1.730   1.838   2.177  1.00  0.00     0.014 A 
ATOM      9  C   UNL     1       3.076   2.766   0.380  1.00  0.00     0.014 A 
ATOM     10  C   UNL     1       1.991   2.968   2.943  1.00  0.00     0.010 A 
ATOM     11  C   UNL     1       3.363   3.879   1.157  1.00  0.00     0.010 A 
ATOM     12  C   UNL     1       2.823   3.979   2.442  1.00  0.00    -0.014 A 
BRANCH  12  13
ATOM     13  C   UNL     1       3.069   5.157   3.285  1.00  0.00     0.031 A 
ATOM     14  C   UNL     1       4.500   5.524   3.518  1.00  0.00     0.074 A 
ATOM     15  C   UNL     1       2.158   6.151   3.298  1.00  0.00     0.049 A 
ATOM     16  N   UNL     1       5.224   6.181   2.656  1.00  0.00    -0.248 NA
ATOM     17  C   UNL     1       5.265   4.982   4.641  1.00  0.00     0.031 C 
ATOM     18  C   UNL     1       1.292   6.482   2.156  1.00  0.00     0.029 A 
ATOM     19  N   UNL     1       1.979   7.190   4.171  1.00  0.00    -0.354 N 
ATOM     20  C   UNL     1       6.538   6.106   3.083  1.00  0.00     0.074 A 
ATOM     21  C   UNL     1       6.512   5.364   4.326  1.00  0.00     0.031 C 
ATOM     22  C   UNL     1       0.836   7.740   2.312  1.00  0.00     0.029 A 
ATOM     23  C   UNL     1       1.224   8.223   3.629  1.00  0.00     0.049 A 
ATOM     24  H   UNL     1       2.347   7.205   5.085  1.00  0.00     0.167 HD
ATOM     25  C   UNL     1       7.586   6.641   2.402  1.00  0.00     0.031 A 
ATOM     26  C   UNL     1       1.312   9.526   4.002  1.00  0.00     0.031 A 
ATOM     27  C   UNL     1       7.261   7.352   1.203  1.00  0.00     0.049 A 
ATOM     28  C   UNL     1       2.634   9.907   3.377  1.00  0.00     0.074 A 
ATOM     29  C   UNL     1       7.208   7.091  -0.149  1.00  0.00     0.029 A 
ATOM     30  N   UNL     1       6.843   8.655   1.316  1.00  0.00    -0.354 N 
ATOM     31  N   UNL     1       2.848  10.219   2.125  1.00  0.00    -0.248 NA
ATOM     32  C   UNL     1       3.845   9.580   4.135  1.00  0.00     0.031 C 
ATOM     33  C   UNL     1       6.338   8.086  -0.698  1.00  0.00     0.029 A 
ATOM     34  C   UNL     1       5.870   8.850   0.370  1.00  0.00     0.049 A 
ATOM     35  H   UNL     1       7.178   9.324   1.956  1.00  0.00     0.167 HD
ATOM     36  C   UNL     1       4.167   9.837   1.865  1.00  0.00     0.074 A 
ATOM     37  C   UNL     1       4.726   9.470   3.151  1.00  0.00     0.031 C 
ATOM     38  C   UNL     1       4.687   9.650   0.615  1.00  0.00     0.031 A 
BRANCH  25  39
ATOM     39  C   UNL     1       8.984   6.611   2.884  1.00  0.00    -0.014 A 
ATOM     40  C   UNL     1       9.788   5.476   2.740  1.00  0.00     0.009 A 
ATOM     41  C   UNL     1       9.559   7.801   3.357  1.00  0.00     0.009 A 
ATOM     42  C   UNL     1      11.151   5.540   3.048  1.00  0.00     0.001 A 
ATOM     43  C   UNL     1      10.919   7.865   3.658  1.00  0.00     0.001 A 
ATOM     44  C   UNL     1      11.716   6.735   3.497  1.00  0.00     0.000 A 
ENDBRANCH  25  39
BRANCH  26  45
ATOM     45  C   UNL     1       0.975   9.746   5.448  1.00  0.00    -0.014 A 
ATOM     46  C   UNL     1       1.786  10.399   6.383  1.00  0.00     0.009 A 
ATOM     47  C   UNL     1      -0.254   9.224   5.914  1.00  0.00     0.009 A 
ATOM     48  C   UNL     1       1.456  10.400   7.746  1.00  0.00     0.001 A 
ATOM     49  C   UNL     1      -0.597   9.247   7.268  1.00  0.00     0.001 A 
ATOM     50  C   UNL     1       0.275   9.810   8.190  1.00  0.00     0.000 A 
ENDBRANCH  26  45
BRANCH  38  51
ATOM     51  C   UNL     1       3.863  10.098  -0.549  1.00  0.00    -0.014 A 
ATOM     52  C   UNL     1       3.356   9.171  -1.474  1.00  0.00     0.009 A 
ATOM     53  C   UNL     1       3.684  11.465  -0.799  1.00  0.00     0.009 A 
ATOM     54  C   UNL     1       2.744   9.600  -2.653  1.00  0.00     0.001 A 
ATOM     55  C   UNL     1       3.053  11.894  -1.969  1.00  0.00     0.001 A 
ATOM     56  C   UNL     1       2.600  10.963  -2.903  1.00  0.00     0.000 A 
ENDBRANCH  38  51
ENDBRANCH  12  13
ENDBRANCH   5   7
ENDBRANCH   2   3
ENDBRANCH   1   2
BRANCH   1  57
ATOM     57  C   UNL     1       5.016  -2.203  -1.340  1.00  0.00     0.023 C 
BRANCH  57  58
ATOM     58  C   UNL     1       5.247  -1.790  -2.778  1.00  0.00     0.116 C 
BRANCH  58  59
ATOM     59  N   UNL     1       6.604  -1.830  -3.277  1.00  0.00    -0.351 N 
ATOM     60  C   UNL     1       7.047  -2.249  -4.511  1.00  0.00     0.278 C 
ATOM     61  H   UNL     1       7.300  -1.518  -2.655  1.00  0.00     0.163 HD
ATOM     62  O   UNL     1       8.100  -1.743  -4.921  1.00  0.00    -0.268 OA
BRANCH  60  63
ATOM     63  C   UNL     1       6.317  -3.313  -5.385  1.00  0.00     0.275 C 
ATOM     64  C   UNL     1       5.453  -2.770  -6.551  1.00  0.00     0.089 C 
ATOM     65  N   UNL     1       5.438  -4.182  -4.575  1.00  0.00    -0.320 N 
ATOM     66  C   UNL     1       3.988  -3.021  -6.144  1.00  0.00     0.036 C 
ATOM     67  C   UNL     1       4.166  -4.300  -5.277  1.00  0.00     0.270 C 
ATOM     68  H   UNL     1       5.263  -3.756  -3.665  1.00  0.00     0.349 HD
ATOM     69  C   UNL     1       3.000  -3.383  -7.276  1.00  0.00     0.074 C 
ATOM     70  C   UNL     1       3.464  -1.759  -5.412  1.00  0.00     0.074 C 
ATOM     71  C   UNL     1       2.455  -2.202  -8.072  1.00  0.00     0.261 C 
ATOM     72  C   UNL     1       2.900  -0.665  -6.317  1.00  0.00     0.261 C 
ATOM     73  N   UNL     1       1.873  -1.185  -7.202  1.00  0.00    -0.346 N 
ATOM     74  H   UNL     1       1.124  -1.599  -6.648  1.00  0.00     0.346 HD
ATOM     75  H   UNL     1       1.496  -0.426  -7.769  1.00  0.00     0.346 HD
BRANCH  65  76
ATOM     76  C   UNL     1       6.064  -5.455  -4.188  1.00  0.00     0.302 C 
BRANCH  76  77
ATOM     77  C   UNL     1       6.726  -5.345  -2.839  1.00  0.00     0.038 A 
ATOM     78  C   UNL     1       5.995  -5.569  -1.641  1.00  0.00     0.012 A 
ATOM     79  C   UNL     1       8.052  -4.909  -2.605  1.00  0.00     0.144 A 
ATOM     80  C   UNL     1       6.503  -5.317  -0.337  1.00  0.00     0.003 A 
ATOM     81  C   UNL     1       8.562  -4.625  -1.267  1.00  0.00     0.135 A 
ATOM     82  N   UNL     1       9.035  -4.657  -3.480  1.00  0.00    -0.049 NA
ATOM     83  C   UNL     1       7.791  -4.803  -0.105  1.00  0.00     0.034 A 
ATOM     84  N   UNL     1       9.816  -4.171  -1.378  1.00  0.00    -0.050 NA
ATOM     85  O   UNL     1      10.102  -4.191  -2.733  1.00  0.00    -0.243 OA
ENDBRANCH  76  77
ENDBRANCH  65  76
ENDBRANCH  60  63
ENDBRANCH  58  59
ENDBRANCH  57  58
ENDBRANCH   1  57
TORSDOF 13
