REMARK SMILES C[C@@H]1[C@H](C(=O)NCCCCNC(=O)c2ccc(-c3c4nc(c(-c5ccccc5)c5ccc([nH]5)c(-c5ccccc5)c5nc(c(-c6ccccc6)c6ccc3[nH]6)C=C5)C=C4)cc2)CCN1S(=O)(=O)c1cc(F)cc(F)c1
REMARK SMILES IDX 8 1 7 2 6 3 4 4 5 5 3 7 1 8 2 9 64 10 62 11 63 12 65 13
REMARK SMILES IDX 66 14 67 15 68 16 69 17 75 18 70 19 73 20 71 21 72 22 74 23
REMARK SMILES IDX 9 24 10 25 11 26 12 27 13 29 14 30 15 31 61 32 16 33 60 34
REMARK SMILES IDX 17 35 18 36 19 37 54 38 20 39 59 40 53 41 55 42 21 43 58 44
REMARK SMILES IDX 52 45 51 46 22 48 44 49 29 50 43 51 30 52 33 53 42 54 56 55
REMARK SMILES IDX 31 56 32 57 41 59 57 60 34 61 23 62 24 63 28 64 25 65 27 66
REMARK SMILES IDX 26 67 45 68 46 69 50 70 47 71 49 72 48 73 35 74 36 75 40 76
REMARK SMILES IDX 37 77 39 78 38 79
REMARK H PARENT 6 6 11 28 55 47 33 58
REMARK Flexibility Score: inf
ROOT
ATOM      1  C   UNL     1       2.658   1.646   2.516  1.00  0.00     0.023 C 
ENDROOT
BRANCH   1   2
ATOM      2  C   UNL     1       1.226   2.118   2.232  1.00  0.00     0.116 C 
BRANCH   2   3
ATOM      3  N   UNL     1       1.085   2.731   0.919  1.00  0.00    -0.356 N 
ATOM      4  C   UNL     1       0.574   2.330  -0.272  1.00  0.00     0.224 C 
ATOM      5  O   UNL     1       0.670   3.156  -1.190  1.00  0.00    -0.275 OA
ATOM      6  H   UNL     1       1.443   3.648   0.888  1.00  0.00     0.163 HD
BRANCH   4   7
ATOM      7  C   UNL     1      -0.061   0.972  -0.587  1.00  0.00     0.098 C 
ATOM      8  C   UNL     1       2.076  -0.220   0.113  1.00  0.00     0.026 C 
ATOM      9  C   UNL     1       0.864  -0.248  -0.775  1.00  0.00     0.082 C 
ATOM     10  N   UNL     1      -0.021  -1.460  -0.611  1.00  0.00    -0.194 NA
ATOM     11  C   UNL     1      -1.183   0.468   0.291  1.00  0.00     0.032 C 
ATOM     12  C   UNL     1      -1.389  -0.947  -0.231  1.00  0.00     0.104 C 
BRANCH  10  13
ATOM     13  S   UNL     1       0.389  -2.853   0.279  1.00  0.00     0.243 S 
ATOM     14  O   UNL     1       0.687  -2.419   1.629  1.00  0.00    -0.207 OA
ATOM     15  O   UNL     1      -0.669  -3.814   0.039  1.00  0.00    -0.207 OA
BRANCH  13  16
ATOM     16  C   UNL     1       1.867  -3.621  -0.338  1.00  0.00     0.088 A 
ATOM     17  C   UNL     1       2.241  -4.815   0.298  1.00  0.00     0.061 A 
ATOM     18  C   UNL     1       2.706  -3.061  -1.297  1.00  0.00     0.061 A 
ATOM     19  C   UNL     1       3.485  -5.376   0.037  1.00  0.00     0.127 A 
ATOM     20  C   UNL     1       3.976  -3.606  -1.485  1.00  0.00     0.127 A 
ATOM     21  F   UNL     1       3.840  -6.509   0.656  1.00  0.00    -0.207 F 
ATOM     22  C   UNL     1       4.379  -4.757  -0.822  1.00  0.00     0.078 A 
ATOM     23  F   UNL     1       4.843  -2.976  -2.288  1.00  0.00    -0.207 F 
ENDBRANCH  13  16
ENDBRANCH  10  13
ENDBRANCH   4   7
ENDBRANCH   2   3
ENDBRANCH   1   2
BRANCH   1  24
ATOM     24  C   UNL     1       3.602   2.647   3.143  1.00  0.00     0.023 C 
BRANCH  24  25
ATOM     25  C   UNL     1       3.233   3.054   4.550  1.00  0.00     0.116 C 
BRANCH  25  26
ATOM     26  N   UNL     1       3.112   1.944   5.487  1.00  0.00    -0.352 N 
ATOM     27  C   UNL     1       3.527   1.895   6.801  1.00  0.00     0.251 C 
ATOM     28  H   UNL     1       2.681   1.130   5.139  1.00  0.00     0.163 HD
ATOM     29  O   UNL     1       3.416   0.881   7.468  1.00  0.00    -0.269 OA
BRANCH  27  30
ATOM     30  C   UNL     1       4.166   3.102   7.363  1.00  0.00     0.039 A 
ATOM     31  C   UNL     1       5.423   2.990   7.956  1.00  0.00     0.014 A 
ATOM     32  C   UNL     1       3.576   4.351   7.161  1.00  0.00     0.014 A 
ATOM     33  C   UNL     1       6.132   4.150   8.268  1.00  0.00     0.010 A 
ATOM     34  C   UNL     1       4.334   5.493   7.348  1.00  0.00     0.010 A 
ATOM     35  C   UNL     1       5.611   5.407   7.923  1.00  0.00    -0.014 A 
BRANCH  35  36
ATOM     36  C   UNL     1       6.346   6.663   8.199  1.00  0.00     0.031 A 
ATOM     37  C   UNL     1       5.717   7.691   9.099  1.00  0.00     0.074 A 
ATOM     38  C   UNL     1       7.517   6.917   7.584  1.00  0.00     0.049 A 
ATOM     39  N   UNL     1       6.122   8.902   9.383  1.00  0.00    -0.248 NA
ATOM     40  C   UNL     1       4.433   7.327   9.724  1.00  0.00     0.031 C 
ATOM     41  C   UNL     1       8.200   6.027   6.642  1.00  0.00     0.029 A 
ATOM     42  N   UNL     1       8.339   8.012   7.661  1.00  0.00    -0.354 N 
ATOM     43  C   UNL     1       5.123   9.451  10.176  1.00  0.00     0.074 A 
ATOM     44  C   UNL     1       4.067   8.472  10.275  1.00  0.00     0.031 C 
ATOM     45  C   UNL     1       9.358   6.594   6.262  1.00  0.00     0.029 A 
ATOM     46  C   UNL     1       9.480   7.899   6.904  1.00  0.00     0.049 A 
ATOM     47  H   UNL     1       8.132   8.805   8.207  1.00  0.00     0.167 HD
ATOM     48  C   UNL     1       5.099  10.652  10.797  1.00  0.00     0.031 A 
ATOM     49  C   UNL     1      10.510   8.752   6.754  1.00  0.00     0.031 A 
ATOM     50  C   UNL     1       6.176  11.600  10.745  1.00  0.00     0.049 A 
ATOM     51  C   UNL     1      10.489  10.058   7.499  1.00  0.00     0.074 A 
ATOM     52  C   UNL     1       6.290  12.814  11.395  1.00  0.00     0.029 A 
ATOM     53  N   UNL     1       7.338  11.422  10.010  1.00  0.00    -0.354 N 
ATOM     54  N   UNL     1       9.564  10.541   8.293  1.00  0.00    -0.248 NA
ATOM     55  C   UNL     1      11.663  10.927   7.340  1.00  0.00     0.031 C 
ATOM     56  C   UNL     1       7.514  13.386  11.032  1.00  0.00     0.029 A 
ATOM     57  C   UNL     1       8.176  12.507  10.188  1.00  0.00     0.049 A 
ATOM     58  H   UNL     1       7.536  10.641   9.445  1.00  0.00     0.167 HD
ATOM     59  C   UNL     1      10.056  11.755   8.752  1.00  0.00     0.074 A 
ATOM     60  C   UNL     1      11.365  11.929   8.156  1.00  0.00     0.031 C 
ATOM     61  C   UNL     1       9.478  12.648   9.592  1.00  0.00     0.031 A 
BRANCH  48  62
ATOM     62  C   UNL     1       3.868  10.986  11.591  1.00  0.00    -0.014 A 
ATOM     63  C   UNL     1       3.567  10.309  12.785  1.00  0.00     0.009 A 
ATOM     64  C   UNL     1       2.992  11.981  11.135  1.00  0.00     0.009 A 
ATOM     65  C   UNL     1       2.388  10.587  13.478  1.00  0.00     0.001 A 
ATOM     66  C   UNL     1       1.829  12.280  11.848  1.00  0.00     0.001 A 
ATOM     67  C   UNL     1       1.522  11.574  13.010  1.00  0.00     0.000 A 
ENDBRANCH  48  62
BRANCH  49  68
ATOM     68  C   UNL     1      11.671   8.380   5.906  1.00  0.00    -0.014 A 
ATOM     69  C   UNL     1      12.893   8.024   6.499  1.00  0.00     0.009 A 
ATOM     70  C   UNL     1      11.570   8.376   4.507  1.00  0.00     0.009 A 
ATOM     71  C   UNL     1      13.997   7.698   5.708  1.00  0.00     0.001 A 
ATOM     72  C   UNL     1      12.669   8.026   3.719  1.00  0.00     0.001 A 
ATOM     73  C   UNL     1      13.883   7.696   4.319  1.00  0.00     0.000 A 
ENDBRANCH  49  68
BRANCH  61  74
ATOM     74  C   UNL     1      10.276  13.866   9.950  1.00  0.00    -0.014 A 
ATOM     75  C   UNL     1      10.441  14.920   9.040  1.00  0.00     0.009 A 
ATOM     76  C   UNL     1      10.827  13.978  11.236  1.00  0.00     0.009 A 
ATOM     77  C   UNL     1      11.169  16.054   9.404  1.00  0.00     0.001 A 
ATOM     78  C   UNL     1      11.533  15.123  11.604  1.00  0.00     0.001 A 
ATOM     79  C   UNL     1      11.710  16.156  10.686  1.00  0.00     0.000 A 
ENDBRANCH  61  74
ENDBRANCH  35  36
ENDBRANCH  27  30
ENDBRANCH  25  26
ENDBRANCH  24  25
ENDBRANCH   1  24
TORSDOF 13
