REMARK SMILES O=C(NCCCCNC(=O)c1ccc(-c2c3nc(c(-c4ccccc4)c4ccc([nH]4)c(-c4ccccc4)c4nc(c(-c5ccccc5)c5ccc2[nH]5)C=C4)C=C3)cc1)C1=NN(c2ccccc2-c2ccccc2)[C@@H](c2ccccc2)C1
REMARK SMILES IDX 5 1 4 2 3 3 1 4 2 5 59 7 60 8 81 9 61 10 74 11 62 12 63 13
REMARK SMILES IDX 67 14 64 15 66 16 65 17 68 18 69 19 73 20 70 21 72 22 71 23
REMARK SMILES IDX 75 24 76 25 80 26 77 27 79 28 78 29 6 30 7 31 8 32 9 33
REMARK SMILES IDX 10 35 11 36 12 37 58 38 13 39 57 40 14 41 15 42 16 43 51 44
REMARK SMILES IDX 17 45 56 46 50 47 52 48 18 49 55 50 49 51 48 52 19 54 41 55
REMARK SMILES IDX 26 56 40 57 27 58 30 59 39 60 53 61 28 62 29 63 38 65 54 66
REMARK SMILES IDX 31 67 20 68 21 69 25 70 22 71 24 72 23 73 42 74 43 75 47 76
REMARK SMILES IDX 44 77 46 78 45 79 32 80 33 81 37 82 34 83 36 84 35 85
REMARK H PARENT 3 6 8 34 52 53 30 64
REMARK Flexibility Score: inf
ROOT
ATOM      1  C   UNL     1       5.127   1.040   1.664  1.00  0.00     0.023 C 
ENDROOT
BRANCH   1   2
ATOM      2  C   UNL     1       4.553  -0.269   1.125  1.00  0.00     0.116 C 
BRANCH   2   3
ATOM      3  N   UNL     1       3.121  -0.193   0.903  1.00  0.00    -0.351 N 
ATOM      4  O   UNL     1       1.232   0.041  -0.342  1.00  0.00    -0.268 OA
ATOM      5  C   UNL     1       2.451  -0.037  -0.289  1.00  0.00     0.267 C 
ATOM      6  H   UNL     1       2.557  -0.260   1.707  1.00  0.00     0.163 HD
BRANCH   5   7
ATOM      7  C   UNL     1       3.238   0.104  -1.561  1.00  0.00     0.128 C 
ATOM      8  N   UNL     1       4.145  -0.742  -1.937  1.00  0.00    -0.171 NA
ATOM      9  C   UNL     1       2.998   1.284  -2.442  1.00  0.00     0.096 C 
ATOM     10  N   UNL     1       4.708  -0.205  -3.056  1.00  0.00    -0.257 N 
ATOM     11  C   UNL     1       4.012   0.989  -3.552  1.00  0.00     0.144 C 
BRANCH  10  12
ATOM     12  C   UNL     1       5.807  -0.821  -3.655  1.00  0.00     0.068 A 
ATOM     13  C   UNL     1       5.783  -2.222  -3.811  1.00  0.00     0.028 A 
ATOM     14  C   UNL     1       6.958  -0.120  -4.099  1.00  0.00     0.007 A 
ATOM     15  C   UNL     1       6.820  -2.916  -4.435  1.00  0.00     0.002 A 
ATOM     16  C   UNL     1       7.995  -0.841  -4.733  1.00  0.00     0.011 A 
ATOM     17  C   UNL     1       7.924  -2.223  -4.906  1.00  0.00     0.001 A 
BRANCH  14  18
ATOM     18  C   UNL     1       7.183   1.312  -3.830  1.00  0.00    -0.016 A 
ATOM     19  C   UNL     1       7.325   2.236  -4.877  1.00  0.00     0.009 A 
ATOM     20  C   UNL     1       7.271   1.784  -2.508  1.00  0.00     0.009 A 
ATOM     21  C   UNL     1       7.526   3.593  -4.610  1.00  0.00     0.001 A 
ATOM     22  C   UNL     1       7.471   3.140  -2.240  1.00  0.00     0.001 A 
ATOM     23  C   UNL     1       7.596   4.044  -3.292  1.00  0.00     0.000 A 
ENDBRANCH  14  18
ENDBRANCH  10  12
BRANCH  11  24
ATOM     24  C   UNL     1       3.354   0.751  -4.902  1.00  0.00    -0.023 A 
ATOM     25  C   UNL     1       2.531  -0.363  -5.139  1.00  0.00     0.006 A 
ATOM     26  C   UNL     1       3.570   1.659  -5.951  1.00  0.00     0.006 A 
ATOM     27  C   UNL     1       1.943  -0.562  -6.390  1.00  0.00     0.000 A 
ATOM     28  C   UNL     1       2.981   1.458  -7.201  1.00  0.00     0.000 A 
ATOM     29  C   UNL     1       2.168   0.348  -7.420  1.00  0.00     0.000 A 
ENDBRANCH  11  24
ENDBRANCH   5   7
ENDBRANCH   2   3
ENDBRANCH   1   2
BRANCH   1  30
ATOM     30  C   UNL     1       4.700   1.403   3.093  1.00  0.00     0.023 C 
BRANCH  30  31
ATOM     31  C   UNL     1       4.897   0.315   4.151  1.00  0.00     0.116 C 
BRANCH  31  32
ATOM     32  N   UNL     1       6.253  -0.202   4.202  1.00  0.00    -0.352 N 
ATOM     33  C   UNL     1       6.938  -0.758   5.253  1.00  0.00     0.251 C 
ATOM     34  H   UNL     1       6.755  -0.145   3.357  1.00  0.00     0.163 HD
ATOM     35  O   UNL     1       8.119  -1.064   5.112  1.00  0.00    -0.269 OA
BRANCH  33  36
ATOM     36  C   UNL     1       6.288  -0.956   6.567  1.00  0.00     0.039 A 
ATOM     37  C   UNL     1       6.997  -0.577   7.713  1.00  0.00     0.014 A 
ATOM     38  C   UNL     1       5.027  -1.546   6.691  1.00  0.00     0.014 A 
ATOM     39  C   UNL     1       6.422  -0.729   8.976  1.00  0.00     0.010 A 
ATOM     40  C   UNL     1       4.442  -1.681   7.953  1.00  0.00     0.010 A 
ATOM     41  C   UNL     1       5.132  -1.263   9.102  1.00  0.00    -0.014 A 
BRANCH  41  42
ATOM     42  C   UNL     1       4.480  -1.355  10.427  1.00  0.00     0.031 A 
ATOM     43  C   UNL     1       4.382  -2.668  11.144  1.00  0.00     0.074 A 
ATOM     44  C   UNL     1       3.938  -0.251  10.972  1.00  0.00     0.049 A 
ATOM     45  N   UNL     1       3.745  -2.952  12.252  1.00  0.00    -0.248 NA
ATOM     46  C   UNL     1       5.078  -3.809  10.533  1.00  0.00     0.031 C 
ATOM     47  C   UNL     1       3.952   1.085  10.373  1.00  0.00     0.029 A 
ATOM     48  N   UNL     1       3.262  -0.084  12.153  1.00  0.00    -0.354 N 
ATOM     49  C   UNL     1       3.930  -4.312  12.453  1.00  0.00     0.074 A 
ATOM     50  C   UNL     1       4.759  -4.792  11.366  1.00  0.00     0.031 C 
ATOM     51  C   UNL     1       3.317   1.937  11.195  1.00  0.00     0.029 A 
ATOM     52  C   UNL     1       2.842   1.205  12.365  1.00  0.00     0.049 A 
ATOM     53  H   UNL     1       3.095  -0.817  12.788  1.00  0.00     0.167 HD
ATOM     54  C   UNL     1       3.444  -5.093  13.445  1.00  0.00     0.031 A 
ATOM     55  C   UNL     1       2.143   1.736  13.383  1.00  0.00     0.031 A 
ATOM     56  C   UNL     1       2.644  -4.626  14.544  1.00  0.00     0.049 A 
ATOM     57  C   UNL     1       1.689   0.865  14.514  1.00  0.00     0.074 A 
ATOM     58  C   UNL     1       2.084  -5.356  15.580  1.00  0.00     0.029 A 
ATOM     59  N   UNL     1       2.305  -3.301  14.760  1.00  0.00    -0.354 N 
ATOM     60  N   UNL     1       1.835  -0.428  14.664  1.00  0.00    -0.248 NA
ATOM     61  C   UNL     1       0.971   1.528  15.612  1.00  0.00     0.031 C 
ATOM     62  C   UNL     1       1.416  -4.467  16.432  1.00  0.00     0.029 A 
ATOM     63  C   UNL     1       1.562  -3.188  15.922  1.00  0.00     0.049 A 
ATOM     64  H   UNL     1       2.557  -2.551  14.175  1.00  0.00     0.167 HD
ATOM     65  C   UNL     1       1.215  -0.737  15.866  1.00  0.00     0.074 A 
ATOM     66  C   UNL     1       0.706   0.504  16.413  1.00  0.00     0.031 C 
ATOM     67  C   UNL     1       1.070  -1.947  16.456  1.00  0.00     0.031 A 
BRANCH  54  68
ATOM     68  C   UNL     1       3.755  -6.555  13.367  1.00  0.00    -0.014 A 
ATOM     69  C   UNL     1       4.912  -7.073  13.964  1.00  0.00     0.009 A 
ATOM     70  C   UNL     1       2.874  -7.423  12.704  1.00  0.00     0.009 A 
ATOM     71  C   UNL     1       5.190  -8.438  13.886  1.00  0.00     0.001 A 
ATOM     72  C   UNL     1       3.154  -8.788  12.630  1.00  0.00     0.001 A 
ATOM     73  C   UNL     1       4.313  -9.294  13.219  1.00  0.00     0.000 A 
ENDBRANCH  54  68
BRANCH  55  74
ATOM     74  C   UNL     1       1.817   3.179  13.370  1.00  0.00    -0.014 A 
ATOM     75  C   UNL     1       2.690   4.106  13.956  1.00  0.00     0.009 A 
ATOM     76  C   UNL     1       0.639   3.631  12.759  1.00  0.00     0.009 A 
ATOM     77  C   UNL     1       2.383   5.468  13.936  1.00  0.00     0.001 A 
ATOM     78  C   UNL     1       0.337   4.993  12.739  1.00  0.00     0.001 A 
ATOM     79  C   UNL     1       1.208   5.910  13.328  1.00  0.00     0.000 A 
ENDBRANCH  55  74
BRANCH  67  80
ATOM     80  C   UNL     1       0.328  -1.978  17.754  1.00  0.00    -0.014 A 
ATOM     81  C   UNL     1      -1.063  -2.154  17.768  1.00  0.00     0.009 A 
ATOM     82  C   UNL     1       1.017  -1.841  18.968  1.00  0.00     0.009 A 
ATOM     83  C   UNL     1      -1.756  -2.180  18.979  1.00  0.00     0.001 A 
ATOM     84  C   UNL     1       0.321  -1.866  20.177  1.00  0.00     0.001 A 
ATOM     85  C   UNL     1      -1.064  -2.033  20.181  1.00  0.00     0.000 A 
ENDBRANCH  67  80
ENDBRANCH  41  42
ENDBRANCH  33  36
ENDBRANCH  31  32
ENDBRANCH  30  31
ENDBRANCH   1  30
TORSDOF 14
