REMARK SMILES [NH3+][C@]1(C(=O)NCCCCNC(=O)c2ccc(-c3c4nc(c(-c5ccccc5)c5ccc([nH]5)c(-c5ccccc5)c5nc(c(-c6ccccc6)c6ccc3[nH]6)C=C5)C=C4)cc2)CC[C@@H]([NH+]2CCC(C(F)(F)F)CC2)C1
REMARK SMILES IDX 7 1 6 2 5 3 3 4 4 5 2 7 61 8 74 9 62 10 63 11 1 12 64 16
REMARK SMILES IDX 65 17 73 18 66 20 72 21 67 22 68 23 69 24 70 25 71 26 8 27
REMARK SMILES IDX 9 28 10 29 11 30 12 32 13 33 14 34 60 35 15 36 59 37 16 38
REMARK SMILES IDX 17 39 18 40 53 41 19 42 58 43 52 44 54 45 20 46 57 47 51 48
REMARK SMILES IDX 50 49 21 51 43 52 28 53 42 54 29 55 32 56 41 57 55 58 30 59
REMARK SMILES IDX 31 60 40 62 56 63 33 64 22 65 23 66 27 67 24 68 26 69 25 70
REMARK SMILES IDX 44 71 45 72 49 73 46 74 48 75 47 76 34 77 35 78 39 79 36 80
REMARK SMILES IDX 38 81 37 82
REMARK H PARENT 5 6 1 13 1 14 1 15 64 19 10 31 54 50 32 61
REMARK Flexibility Score: inf
ROOT
ATOM      1  C   UNL     1       3.732   2.423   0.204  1.00  0.00     0.023 C 
ENDROOT
BRANCH   1   2
ATOM      2  C   UNL     1       3.373   1.129  -0.520  1.00  0.00     0.116 C 
BRANCH   2   3
ATOM      3  N   UNL     1       2.382   0.343   0.192  1.00  0.00    -0.351 N 
ATOM      4  C   UNL     1       1.124  -0.057  -0.166  1.00  0.00     0.281 C 
ATOM      5  O   UNL     1       0.524  -0.785   0.629  1.00  0.00    -0.268 OA
ATOM      6  H   UNL     1       2.664   0.046   1.088  1.00  0.00     0.163 HD
BRANCH   4   7
ATOM      7  C   UNL     1       0.508   0.366  -1.529  1.00  0.00     0.179 C 
ATOM      8  C   UNL     1      -0.962  -0.074  -1.646  1.00  0.00     0.085 C 
ATOM      9  C   UNL     1       0.435   1.900  -1.667  1.00  0.00     0.144 C 
ATOM     10  C   UNL     1      -1.569   0.908  -2.639  1.00  0.00     0.072 C 
ATOM     11  C   UNL     1      -0.932   2.260  -2.288  1.00  0.00     0.191 C 
BRANCH   7  12
ATOM     12  N   UNL     1       1.248  -0.274  -2.643  1.00  0.00    -0.345 N 
ATOM     13  H   UNL     1       0.836   0.010  -3.532  1.00  0.00     0.345 HD
ATOM     14  H   UNL     1       1.192  -1.289  -2.551  1.00  0.00     0.345 HD
ATOM     15  H   UNL     1       2.226   0.016  -2.613  1.00  0.00     0.345 HD
ENDBRANCH   7  12
BRANCH  11  16
ATOM     16  N   UNL     1      -1.792   3.159  -1.483  1.00  0.00    -0.332 N 
ATOM     17  C   UNL     1      -2.318   2.583  -0.243  1.00  0.00     0.263 C 
ATOM     18  C   UNL     1      -1.165   4.469  -1.258  1.00  0.00     0.263 C 
ATOM     19  H   UNL     1      -2.618   3.297  -2.066  1.00  0.00     0.348 HD
ATOM     20  C   UNL     1      -3.331   3.518   0.416  1.00  0.00     0.074 C 
ATOM     21  C   UNL     1      -2.144   5.457  -0.623  1.00  0.00     0.074 C 
ATOM     22  C   UNL     1      -2.731   4.898   0.677  1.00  0.00     0.106 C 
BRANCH  22  23
ATOM     23  C   UNL     1      -3.768   5.838   1.260  1.00  0.00     0.392 C 
ATOM     24  F   UNL     1      -4.266   5.349   2.417  1.00  0.00    -0.171 F 
ATOM     25  F   UNL     1      -3.223   7.045   1.535  1.00  0.00    -0.171 F 
ATOM     26  F   UNL     1      -4.803   6.037   0.417  1.00  0.00    -0.171 F 
ENDBRANCH  22  23
ENDBRANCH  11  16
ENDBRANCH   4   7
ENDBRANCH   2   3
ENDBRANCH   1   2
BRANCH   1  27
ATOM     27  C   UNL     1       4.429   2.245   1.552  1.00  0.00     0.023 C 
BRANCH  27  28
ATOM     28  C   UNL     1       5.660   1.344   1.547  1.00  0.00     0.116 C 
BRANCH  28  29
ATOM     29  N   UNL     1       6.689   1.774   0.611  1.00  0.00    -0.352 N 
ATOM     30  C   UNL     1       8.042   1.913   0.808  1.00  0.00     0.251 C 
ATOM     31  H   UNL     1       6.370   1.998  -0.293  1.00  0.00     0.163 HD
ATOM     32  O   UNL     1       8.751   2.385  -0.075  1.00  0.00    -0.269 OA
BRANCH  30  33
ATOM     33  C   UNL     1       8.637   1.532   2.107  1.00  0.00     0.039 A 
ATOM     34  C   UNL     1       9.476   2.442   2.754  1.00  0.00     0.014 A 
ATOM     35  C   UNL     1       8.335   0.304   2.701  1.00  0.00     0.014 A 
ATOM     36  C   UNL     1       9.938   2.161   4.041  1.00  0.00     0.010 A 
ATOM     37  C   UNL     1       8.741   0.055   4.009  1.00  0.00     0.010 A 
ATOM     38  C   UNL     1       9.532   0.988   4.698  1.00  0.00    -0.014 A 
BRANCH  38  39
ATOM     39  C   UNL     1       9.881   0.739   6.119  1.00  0.00     0.031 A 
ATOM     40  C   UNL     1      10.749  -0.426   6.498  1.00  0.00     0.074 A 
ATOM     41  C   UNL     1       9.338   1.514   7.079  1.00  0.00     0.049 A 
ATOM     42  N   UNL     1      11.084  -0.851   7.690  1.00  0.00    -0.248 NA
ATOM     43  C   UNL     1      11.291  -1.236   5.395  1.00  0.00     0.031 C 
ATOM     44  C   UNL     1       8.440   2.649   6.848  1.00  0.00     0.029 A 
ATOM     45  N   UNL     1       9.448   1.454   8.446  1.00  0.00    -0.354 N 
ATOM     46  C   UNL     1      11.856  -1.986   7.482  1.00  0.00     0.074 A 
ATOM     47  C   UNL     1      11.909  -2.207   6.053  1.00  0.00     0.031 C 
ATOM     48  C   UNL     1       8.095   3.185   8.030  1.00  0.00     0.029 A 
ATOM     49  C   UNL     1       8.713   2.411   9.101  1.00  0.00     0.049 A 
ATOM     50  H   UNL     1      10.002   0.787   8.912  1.00  0.00     0.167 HD
ATOM     51  C   UNL     1      12.475  -2.768   8.398  1.00  0.00     0.031 A 
ATOM     52  C   UNL     1       8.541   2.635  10.418  1.00  0.00     0.031 A 
ATOM     53  C   UNL     1      12.438  -2.542   9.818  1.00  0.00     0.049 A 
ATOM     54  C   UNL     1       9.235   1.749  11.413  1.00  0.00     0.074 A 
ATOM     55  C   UNL     1      13.098  -3.234  10.818  1.00  0.00     0.029 A 
ATOM     56  N   UNL     1      11.695  -1.551  10.440  1.00  0.00    -0.354 N 
ATOM     57  N   UNL     1      10.027   0.727  11.196  1.00  0.00    -0.248 NA
ATOM     58  C   UNL     1       9.016   2.052  12.834  1.00  0.00     0.031 C 
ATOM     59  C   UNL     1      12.716  -2.693  12.050  1.00  0.00     0.029 A 
ATOM     60  C   UNL     1      11.856  -1.633  11.813  1.00  0.00     0.049 A 
ATOM     61  H   UNL     1      11.136  -0.887   9.975  1.00  0.00     0.167 HD
ATOM     62  C   UNL     1      10.416   0.278  12.450  1.00  0.00     0.074 A 
ATOM     63  C   UNL     1       9.788   1.149  13.423  1.00  0.00     0.031 C 
ATOM     64  C   UNL     1      11.221  -0.764  12.768  1.00  0.00     0.031 A 
BRANCH  51  65
ATOM     65  C   UNL     1      13.245  -3.954   7.890  1.00  0.00    -0.014 A 
ATOM     66  C   UNL     1      14.464  -3.793   7.212  1.00  0.00     0.009 A 
ATOM     67  C   UNL     1      12.768  -5.251   8.133  1.00  0.00     0.009 A 
ATOM     68  C   UNL     1      15.172  -4.908   6.759  1.00  0.00     0.001 A 
ATOM     69  C   UNL     1      13.492  -6.364   7.702  1.00  0.00     0.001 A 
ATOM     70  C   UNL     1      14.688  -6.191   7.008  1.00  0.00     0.000 A 
ENDBRANCH  51  65
BRANCH  52  71
ATOM     71  C   UNL     1       7.672   3.750  10.875  1.00  0.00    -0.014 A 
ATOM     72  C   UNL     1       8.234   4.897  11.456  1.00  0.00     0.009 A 
ATOM     73  C   UNL     1       6.278   3.669  10.740  1.00  0.00     0.009 A 
ATOM     74  C   UNL     1       7.414   5.931  11.914  1.00  0.00     0.001 A 
ATOM     75  C   UNL     1       5.462   4.716  11.175  1.00  0.00     0.001 A 
ATOM     76  C   UNL     1       6.030   5.842  11.770  1.00  0.00     0.000 A 
ENDBRANCH  52  71
BRANCH  64  77
ATOM     77  C   UNL     1      11.486  -1.007  14.226  1.00  0.00    -0.014 A 
ATOM     78  C   UNL     1      10.504  -1.565  15.058  1.00  0.00     0.009 A 
ATOM     79  C   UNL     1      12.750  -0.714  14.762  1.00  0.00     0.009 A 
ATOM     80  C   UNL     1      10.775  -1.800  16.408  1.00  0.00     0.001 A 
ATOM     81  C   UNL     1      13.025  -0.974  16.105  1.00  0.00     0.001 A 
ATOM     82  C   UNL     1      12.036  -1.509  16.928  1.00  0.00     0.000 A 
ENDBRANCH  64  77
ENDBRANCH  38  39
ENDBRANCH  30  33
ENDBRANCH  28  29
ENDBRANCH  27  28
ENDBRANCH   1  27
TORSDOF 14
