REMARK SMILES Cc1ccn2c(CC(=O)NCCCCNC(=O)c3ccc(-c4c5nc(c(-c6ccccc6)c6ccc([nH]6)c(-c6ccccc6)c6nc(c(-c7ccccc7)c7ccc4[nH]7)C=C6)C=C5)cc3)nnc2c1
REMARK SMILES IDX 13 1 12 2 11 3 10 4 8 5 9 6 7 8 6 9 1 10 2 11 3 12 69 13
REMARK SMILES IDX 4 14 68 15 5 16 67 17 66 18 14 19 15 20 16 21 17 23 18 24
REMARK SMILES IDX 19 25 65 26 20 27 64 28 21 29 22 30 23 31 58 32 24 33 63 34
REMARK SMILES IDX 57 35 59 36 25 37 62 38 56 39 55 40 26 42 48 43 33 44 47 45
REMARK SMILES IDX 34 46 37 47 46 48 60 49 35 50 36 51 45 53 61 54 38 55 27 56
REMARK SMILES IDX 28 57 32 58 29 59 31 60 30 61 49 62 50 63 54 64 51 65 53 66
REMARK SMILES IDX 52 67 39 68 40 69 44 70 41 71 43 72 42 73
REMARK H PARENT 10 7 15 22 59 41 37 52
REMARK Flexibility Score: inf
ROOT
ATOM      1  C   UNL     1      -2.996  -5.160   3.208  1.00  0.00     0.023 C 
ENDROOT
BRANCH   1   2
ATOM      2  C   UNL     1      -2.010  -4.683   2.131  1.00  0.00     0.023 C 
BRANCH   2   3
ATOM      3  C   UNL     1      -0.949  -5.716   1.757  1.00  0.00     0.116 C 
BRANCH   3   4
ATOM      4  N   UNL     1      -1.506  -6.823   1.015  1.00  0.00    -0.356 N 
ATOM      5  C   UNL     1      -1.308  -7.181  -0.293  1.00  0.00     0.227 C 
ATOM      6  O   UNL     1      -1.865  -8.188  -0.703  1.00  0.00    -0.275 OA
ATOM      7  H   UNL     1      -2.117  -7.405   1.523  1.00  0.00     0.163 HD
BRANCH   5   8
ATOM      8  C   UNL     1      -0.322  -6.405  -1.154  1.00  0.00     0.177 C 
BRANCH   8   9
ATOM      9  C   UNL     1      -0.809  -5.028  -1.427  1.00  0.00     0.146 A 
ATOM     10  C   UNL     1       1.030   0.090  -0.103  1.00  0.00     0.044 C 
ATOM     11  C   UNL     1       0.570  -1.287  -0.480  1.00  0.00    -0.046 A 
ATOM     12  C   UNL     1       1.459  -2.398  -0.146  1.00  0.00     0.022 A 
ATOM     13  C   UNL     1      -0.603  -1.512  -1.113  1.00  0.00     0.053 A 
ATOM     14  C   UNL     1       1.096  -3.651  -0.467  1.00  0.00     0.095 A 
ATOM     15  C   UNL     1      -0.998  -2.840  -1.429  1.00  0.00     0.161 A 
ATOM     16  N   UNL     1      -0.137  -3.870  -1.084  1.00  0.00    -0.286 N 
ATOM     17  N   UNL     1      -2.076  -3.337  -1.991  1.00  0.00    -0.130 NA
ATOM     18  N   UNL     1      -1.955  -4.706  -1.998  1.00  0.00    -0.134 NA
ENDBRANCH   8   9
ENDBRANCH   5   8
ENDBRANCH   3   4
ENDBRANCH   2   3
ENDBRANCH   1   2
BRANCH   1  19
ATOM     19  C   UNL     1      -2.325  -5.803   4.424  1.00  0.00     0.116 C 
BRANCH  19  20
ATOM     20  N   UNL     1      -1.359  -4.933   5.069  1.00  0.00    -0.352 N 
ATOM     21  C   UNL     1      -1.408  -4.026   6.088  1.00  0.00     0.251 C 
ATOM     22  H   UNL     1      -0.459  -5.017   4.681  1.00  0.00     0.163 HD
ATOM     23  O   UNL     1      -0.330  -3.531   6.426  1.00  0.00    -0.269 OA
BRANCH  21  24
ATOM     24  C   UNL     1      -2.652  -3.550   6.747  1.00  0.00     0.039 A 
ATOM     25  C   UNL     1      -3.935  -4.030   6.490  1.00  0.00     0.014 A 
ATOM     26  C   UNL     1      -2.502  -2.468   7.635  1.00  0.00     0.014 A 
ATOM     27  C   UNL     1      -5.045  -3.367   6.987  1.00  0.00     0.010 A 
ATOM     28  C   UNL     1      -3.609  -1.813   8.157  1.00  0.00     0.010 A 
ATOM     29  C   UNL     1      -4.878  -2.225   7.768  1.00  0.00    -0.014 A 
BRANCH  29  30
ATOM     30  C   UNL     1      -6.085  -1.507   8.153  1.00  0.00     0.031 A 
ATOM     31  C   UNL     1      -7.052  -2.278   8.979  1.00  0.00     0.074 A 
ATOM     32  C   UNL     1      -6.291  -0.221   7.809  1.00  0.00     0.049 A 
ATOM     33  N   UNL     1      -8.290  -2.549   8.720  1.00  0.00    -0.248 NA
ATOM     34  C   UNL     1      -6.541  -2.909  10.205  1.00  0.00     0.031 C 
ATOM     35  C   UNL     1      -5.327   0.716   7.220  1.00  0.00     0.029 A 
ATOM     36  N   UNL     1      -7.389   0.555   8.022  1.00  0.00    -0.354 N 
ATOM     37  C   UNL     1      -8.762  -3.272   9.814  1.00  0.00     0.074 A 
ATOM     38  C   UNL     1      -7.621  -3.555  10.645  1.00  0.00     0.031 C 
ATOM     39  C   UNL     1      -5.794   1.976   7.357  1.00  0.00     0.029 A 
ATOM     40  C   UNL     1      -7.145   1.913   7.883  1.00  0.00     0.049 A 
ATOM     41  H   UNL     1      -8.272   0.188   8.253  1.00  0.00     0.167 HD
ATOM     42  C   UNL     1     -10.091  -3.439  10.056  1.00  0.00     0.031 A 
ATOM     43  C   UNL     1      -7.978   2.918   8.232  1.00  0.00     0.031 A 
ATOM     44  C   UNL     1     -10.893  -3.138   8.905  1.00  0.00     0.049 A 
ATOM     45  C   UNL     1      -9.350   2.378   8.299  1.00  0.00     0.074 A 
ATOM     46  C   UNL     1     -11.198  -3.768   7.720  1.00  0.00     0.029 A 
ATOM     47  N   UNL     1     -11.262  -1.824   8.777  1.00  0.00    -0.354 N 
ATOM     48  N   UNL     1     -10.001   1.950   7.257  1.00  0.00    -0.248 NA
ATOM     49  C   UNL     1      -9.912   1.995   9.587  1.00  0.00     0.031 C 
ATOM     50  C   UNL     1     -11.465  -2.724   6.789  1.00  0.00     0.029 A 
ATOM     51  C   UNL     1     -11.341  -1.499   7.448  1.00  0.00     0.049 A 
ATOM     52  H   UNL     1     -11.443  -1.209   9.524  1.00  0.00     0.167 HD
ATOM     53  C   UNL     1     -10.780   0.913   7.736  1.00  0.00     0.074 A 
ATOM     54  C   UNL     1     -10.823   1.106   9.180  1.00  0.00     0.031 C 
ATOM     55  C   UNL     1     -11.068  -0.165   6.951  1.00  0.00     0.031 A 
BRANCH  42  56
ATOM     56  C   UNL     1     -10.693  -3.503  11.438  1.00  0.00    -0.014 A 
ATOM     57  C   UNL     1     -10.003  -3.091  12.594  1.00  0.00     0.009 A 
ATOM     58  C   UNL     1     -12.078  -3.712  11.574  1.00  0.00     0.009 A 
ATOM     59  C   UNL     1     -10.652  -2.891  13.816  1.00  0.00     0.001 A 
ATOM     60  C   UNL     1     -12.739  -3.478  12.788  1.00  0.00     0.001 A 
ATOM     61  C   UNL     1     -12.025  -3.063  13.908  1.00  0.00     0.000 A 
ENDBRANCH  42  56
BRANCH  43  62
ATOM     62  C   UNL     1      -7.611   4.215   8.831  1.00  0.00    -0.014 A 
ATOM     63  C   UNL     1      -6.537   4.277   9.738  1.00  0.00     0.009 A 
ATOM     64  C   UNL     1      -8.476   5.315   8.751  1.00  0.00     0.009 A 
ATOM     65  C   UNL     1      -6.362   5.382  10.575  1.00  0.00     0.001 A 
ATOM     66  C   UNL     1      -8.297   6.423   9.589  1.00  0.00     0.001 A 
ATOM     67  C   UNL     1      -7.253   6.447  10.512  1.00  0.00     0.000 A 
ENDBRANCH  43  62
BRANCH  55  68
ATOM     68  C   UNL     1     -10.840  -0.027   5.467  1.00  0.00    -0.014 A 
ATOM     69  C   UNL     1     -11.929  -0.231   4.607  1.00  0.00     0.009 A 
ATOM     70  C   UNL     1      -9.567   0.163   4.902  1.00  0.00     0.009 A 
ATOM     71  C   UNL     1     -11.752  -0.256   3.222  1.00  0.00     0.001 A 
ATOM     72  C   UNL     1      -9.395   0.164   3.514  1.00  0.00     0.001 A 
ATOM     73  C   UNL     1     -10.486  -0.056   2.676  1.00  0.00     0.000 A 
ENDBRANCH  55  68
ENDBRANCH  29  30
ENDBRANCH  21  24
ENDBRANCH  19  20
ENDBRANCH   1  19
TORSDOF 12
