REMARK SMILES COC(=O)C[C@H](NC(=O)N[C@H]1CCCC1(C)C)C(=O)NCCCCNC(=O)c1ccc(-c2c3nc(c(-c4ccccc4)c4ccc([nH]4)c(-c4ccccc4)c4nc(c(-c5ccccc5)c5ccc2[nH]5)C=C4)C=C3)cc1
REMARK SMILES IDX 22 1 21 2 20 3 18 4 19 5 6 7 5 8 3 9 4 10 2 11 1 12 7 13
REMARK SMILES IDX 8 14 9 16 10 17 11 19 12 20 15 21 13 22 14 23 16 24 17 25
REMARK SMILES IDX 23 26 24 27 25 28 26 29 27 31 28 32 29 33 75 34 30 35 74 36
REMARK SMILES IDX 31 37 32 38 33 39 68 40 34 41 73 42 67 43 69 44 35 45 72 46
REMARK SMILES IDX 66 47 65 48 36 50 58 51 43 52 57 53 44 54 47 55 56 56 70 57
REMARK SMILES IDX 45 58 46 59 55 61 71 62 48 63 37 64 38 65 42 66 39 67 41 68
REMARK SMILES IDX 40 69 59 70 60 71 64 72 61 73 63 74 62 75 49 76 50 77 54 78
REMARK SMILES IDX 51 79 53 80 52 81
REMARK H PARENT 20 6 7 15 10 18 25 30 69 49 47 60
REMARK Flexibility Score: inf
ROOT
ATOM      1  C   UNL     1      -3.270   4.050  -0.964  1.00  0.00     0.023 C 
ENDROOT
BRANCH   1   2
ATOM      2  C   UNL     1      -2.828   3.233  -2.181  1.00  0.00     0.116 C 
BRANCH   2   3
ATOM      3  N   UNL     1      -1.824   3.726  -3.105  1.00  0.00    -0.354 N 
ATOM      4  C   UNL     1      -0.467   3.750  -3.135  1.00  0.00     0.243 C 
ATOM      5  O   UNL     1       0.048   3.846  -4.259  1.00  0.00    -0.273 OA
ATOM      6  H   UNL     1      -2.223   4.143  -3.903  1.00  0.00     0.163 HD
BRANCH   4   7
ATOM      7  C   UNL     1       0.457   3.597  -1.921  1.00  0.00     0.184 C 
BRANCH   7   8
ATOM      8  C   UNL     1       0.882   2.129  -1.765  1.00  0.00     0.157 C 
BRANCH   8   9
ATOM      9  C   UNL     1      -0.268   1.212  -1.449  1.00  0.00     0.308 C 
ATOM     10  O   UNL     1      -0.790   0.464  -2.264  1.00  0.00    -0.252 OA
BRANCH   9  11
ATOM     11  O   UNL     1      -0.664   1.377  -0.156  1.00  0.00    -0.469 OA
ATOM     12  C   UNL     1      -1.866   0.705   0.248  1.00  0.00     0.282 C 
ENDBRANCH   9  11
ENDBRANCH   8   9
ENDBRANCH   7   8
BRANCH   7  13
ATOM     13  N   UNL     1      -0.004   4.192  -0.678  1.00  0.00    -0.326 N 
ATOM     14  C   UNL     1      -0.280   5.438  -0.288  1.00  0.00     0.315 C 
ATOM     15  H   UNL     1      -0.143   3.528   0.035  1.00  0.00     0.166 HD
ATOM     16  O   UNL     1      -0.503   5.608   0.914  1.00  0.00    -0.249 OA
ATOM     17  N   UNL     1      -0.415   6.497  -1.089  1.00  0.00    -0.335 N 
ATOM     18  H   UNL     1      -0.815   7.258  -0.609  1.00  0.00     0.165 HD
BRANCH  17  19
ATOM     19  C   UNL     1      -0.134   6.840  -2.486  1.00  0.00     0.089 C 
ATOM     20  C   UNL     1      -1.378   6.738  -3.387  1.00  0.00     0.025 C 
ATOM     21  C   UNL     1       0.262   8.335  -2.652  1.00  0.00    -0.015 C 
ATOM     22  C   UNL     1      -1.996   8.126  -3.523  1.00  0.00     0.003 C 
ATOM     23  C   UNL     1      -1.099   9.052  -2.722  1.00  0.00     0.008 C 
ATOM     24  C   UNL     1       1.106   8.903  -1.507  1.00  0.00     0.013 C 
ATOM     25  C   UNL     1       1.039   8.515  -3.972  1.00  0.00     0.013 C 
ENDBRANCH  17  19
ENDBRANCH   7  13
ENDBRANCH   4   7
ENDBRANCH   2   3
ENDBRANCH   1   2
BRANCH   1  26
ATOM     26  C   UNL     1      -3.938   5.414  -1.155  1.00  0.00     0.023 C 
BRANCH  26  27
ATOM     27  C   UNL     1      -4.888   5.542  -2.337  1.00  0.00     0.116 C 
BRANCH  27  28
ATOM     28  N   UNL     1      -6.000   4.614  -2.253  1.00  0.00    -0.352 N 
ATOM     29  C   UNL     1      -7.338   4.824  -2.487  1.00  0.00     0.251 C 
ATOM     30  H   UNL     1      -5.761   3.696  -1.989  1.00  0.00     0.163 HD
ATOM     31  O   UNL     1      -8.146   3.943  -2.244  1.00  0.00    -0.269 OA
BRANCH  29  32
ATOM     32  C   UNL     1      -7.804   6.136  -2.991  1.00  0.00     0.039 A 
ATOM     33  C   UNL     1      -8.906   6.726  -2.368  1.00  0.00     0.014 A 
ATOM     34  C   UNL     1      -7.175   6.778  -4.062  1.00  0.00     0.014 A 
ATOM     35  C   UNL     1      -9.341   7.988  -2.776  1.00  0.00     0.010 A 
ATOM     36  C   UNL     1      -7.576   8.063  -4.432  1.00  0.00     0.010 A 
ATOM     37  C   UNL     1      -8.658   8.682  -3.788  1.00  0.00    -0.014 A 
BRANCH  37  38
ATOM     38  C   UNL     1      -9.052  10.068  -4.147  1.00  0.00     0.031 A 
ATOM     39  C   UNL     1      -9.639  10.374  -5.496  1.00  0.00     0.074 A 
ATOM     40  C   UNL     1      -8.846  11.062  -3.261  1.00  0.00     0.049 A 
ATOM     41  N   UNL     1     -10.037  11.525  -5.977  1.00  0.00    -0.248 NA
ATOM     42  C   UNL     1      -9.786   9.249  -6.432  1.00  0.00     0.031 C 
ATOM     43  C   UNL     1      -8.250  10.903  -1.932  1.00  0.00     0.029 A 
ATOM     44  N   UNL     1      -9.114  12.406  -3.344  1.00  0.00    -0.354 N 
ATOM     45  C   UNL     1     -10.475  11.265  -7.270  1.00  0.00     0.074 A 
ATOM     46  C   UNL     1     -10.255   9.856  -7.514  1.00  0.00     0.031 C 
ATOM     47  C   UNL     1      -8.222  12.096  -1.317  1.00  0.00     0.029 A 
ATOM     48  C   UNL     1      -8.761  13.109  -2.217  1.00  0.00     0.049 A 
ATOM     49  H   UNL     1      -9.522  12.826  -4.136  1.00  0.00     0.167 HD
ATOM     50  C   UNL     1     -11.024  12.119  -8.166  1.00  0.00     0.031 A 
ATOM     51  C   UNL     1      -8.852  14.424  -1.942  1.00  0.00     0.031 A 
ATOM     52  C   UNL     1     -11.249  13.519  -7.923  1.00  0.00     0.049 A 
ATOM     53  C   UNL     1      -9.442  15.351  -2.968  1.00  0.00     0.074 A 
ATOM     54  C   UNL     1     -11.858  14.448  -8.749  1.00  0.00     0.029 A 
ATOM     55  N   UNL     1     -10.868  14.194  -6.775  1.00  0.00    -0.354 N 
ATOM     56  N   UNL     1      -9.928  15.071  -4.152  1.00  0.00    -0.248 NA
ATOM     57  C   UNL     1      -9.501  16.777  -2.614  1.00  0.00     0.031 C 
ATOM     58  C   UNL     1     -11.793  15.698  -8.126  1.00  0.00     0.029 A 
ATOM     59  C   UNL     1     -11.196  15.535  -6.887  1.00  0.00     0.049 A 
ATOM     60  H   UNL     1     -10.429  13.782  -5.996  1.00  0.00     0.167 HD
ATOM     61  C   UNL     1     -10.371  16.280  -4.674  1.00  0.00     0.074 A 
ATOM     62  C   UNL     1     -10.118  17.290  -3.669  1.00  0.00     0.031 C 
ATOM     63  C   UNL     1     -10.934  16.531  -5.881  1.00  0.00     0.031 A 
BRANCH  50  64
ATOM     64  C   UNL     1     -11.419  11.567  -9.507  1.00  0.00    -0.014 A 
ATOM     65  C   UNL     1     -12.537  10.729  -9.647  1.00  0.00     0.009 A 
ATOM     66  C   UNL     1     -10.708  11.949 -10.655  1.00  0.00     0.009 A 
ATOM     67  C   UNL     1     -12.920  10.267 -10.908  1.00  0.00     0.001 A 
ATOM     68  C   UNL     1     -11.109  11.506 -11.917  1.00  0.00     0.001 A 
ATOM     69  C   UNL     1     -12.211  10.661 -12.042  1.00  0.00     0.000 A 
ENDBRANCH  50  64
BRANCH  51  70
ATOM     70  C   UNL     1      -8.367  14.954  -0.640  1.00  0.00    -0.014 A 
ATOM     71  C   UNL     1      -9.269  15.465   0.306  1.00  0.00     0.009 A 
ATOM     72  C   UNL     1      -6.994  14.982  -0.350  1.00  0.00     0.009 A 
ATOM     73  C   UNL     1      -8.803  16.025   1.498  1.00  0.00     0.001 A 
ATOM     74  C   UNL     1      -6.533  15.512   0.856  1.00  0.00     0.001 A 
ATOM     75  C   UNL     1      -7.437  16.045   1.773  1.00  0.00     0.000 A 
ENDBRANCH  51  70
BRANCH  63  76
ATOM     76  C   UNL     1     -11.332  17.951  -6.171  1.00  0.00    -0.014 A 
ATOM     77  C   UNL     1     -10.367  18.940  -6.418  1.00  0.00     0.009 A 
ATOM     78  C   UNL     1     -12.691  18.295  -6.230  1.00  0.00     0.009 A 
ATOM     79  C   UNL     1     -10.756  20.253  -6.686  1.00  0.00     0.001 A 
ATOM     80  C   UNL     1     -13.078  19.603  -6.528  1.00  0.00     0.001 A 
ATOM     81  C   UNL     1     -12.110  20.582  -6.746  1.00  0.00     0.000 A 
ENDBRANCH  63  76
ENDBRANCH  37  38
ENDBRANCH  29  32
ENDBRANCH  27  28
ENDBRANCH  26  27
ENDBRANCH   1  26
TORSDOF 16
