REMARK SMILES COc1ccc(CCN2/C(=[NH+]/C(=O)CCC(=O)NCCCCNC(=O)c3ccc(-c4c5nc(c(-c6ccccc6)c6ccc([nH]6)c(-c6ccccc6)c6nc(c(-c7ccccc7)c7ccc4[nH]7)C=C6)C=C5)cc3)S[C@@H]3CS(=O)(=O)C[C@@H]32)cc1
REMARK SMILES IDX 16 1 17 2 18 3 15 5 14 6 12 7 9 8 10 9 81 10 11 11 74 12
REMARK SMILES IDX 75 13 80 14 76 16 77 17 13 18 78 19 79 20 8 21 7 22 6 23
REMARK SMILES IDX 3 24 4 25 83 26 5 27 82 28 2 29 1 30 19 31 20 32 21 33 22 34
REMARK SMILES IDX 23 35 24 36 25 38 26 39 27 40 73 41 28 42 72 43 29 44 30 45
REMARK SMILES IDX 31 46 66 47 32 48 71 49 65 50 67 51 33 52 70 53 64 54 63 55
REMARK SMILES IDX 34 57 56 58 41 59 55 60 42 61 45 62 54 63 68 64 43 65 44 66
REMARK SMILES IDX 53 68 69 69 46 70 35 71 36 72 40 73 37 74 39 75 38 76 57 77
REMARK SMILES IDX 58 78 62 79 59 80 61 81 60 82 47 83 48 84 52 85 49 86 51 87
REMARK SMILES IDX 50 88
REMARK H PARENT 18 4 11 15 23 37 67 56 45 67
REMARK Flexibility Score: inf
ROOT
ATOM      1  C   UNL     1       2.245  -3.443   5.567  1.00  0.00     0.220 C 
ATOM      2  O   UNL     1       3.223  -2.777   5.225  1.00  0.00    -0.275 OA
ATOM      3  N   UNL     1       2.462  -4.686   6.101  1.00  0.00    -0.356 N 
ATOM      4  H   UNL     1       3.398  -4.923   6.291  1.00  0.00     0.163 HD
ENDROOT
BRANCH   1   5
ATOM      5  C   UNL     1       0.819  -2.914   5.399  1.00  0.00     0.112 C 
BRANCH   5   6
ATOM      6  C   UNL     1       0.429  -2.726   3.920  1.00  0.00     0.138 C 
BRANCH   6   7
ATOM      7  C   UNL     1      -0.648  -3.697   3.405  1.00  0.00     0.308 C 
ATOM      8  N   UNL     1      -0.228  -6.757   1.367  1.00  0.00    -0.251 N 
ATOM      9  C   UNL     1      -0.784  -5.764   2.202  1.00  0.00     0.314 C 
ATOM     10  C   UNL     1      -0.753  -8.136   1.483  1.00  0.00     0.206 C 
ATOM     11  N   UNL     1      -0.190  -4.643   2.493  1.00  0.00    -0.205 N 
ATOM     12  S   UNL     1      -2.333  -6.243   2.985  1.00  0.00    -0.030 SA
ATOM     13  C   UNL     1      -2.392  -8.001   2.521  1.00  0.00     0.120 C 
ATOM     14  C   UNL     1       0.576  -9.452   2.251  1.00  0.00     0.187 C 
ATOM     15  H   UNL     1       0.656  -4.448   2.028  1.00  0.00     0.316 HD
ATOM     16  C   UNL     1      -2.460  -9.257   4.065  1.00  0.00     0.156 C 
ATOM     17  S   UNL     1      -0.569 -10.585   4.075  1.00  0.00     0.155 S 
ATOM     18  O   UNL     1      -1.781  -3.605   3.875  1.00  0.00    -0.247 OA
ATOM     19  O   UNL     1       0.126 -10.540   5.354  1.00  0.00    -0.229 OA
ATOM     20  O   UNL     1      -1.085 -11.922   3.806  1.00  0.00    -0.229 OA
BRANCH   8  21
ATOM     21  C   UNL     1       1.051  -6.687   0.625  1.00  0.00     0.242 C 
BRANCH  21  22
ATOM     22  C   UNL     1       1.173  -5.756  -0.583  1.00  0.00     0.081 C 
BRANCH  22  23
ATOM     23  C   UNL     1       1.130  -4.292  -0.264  1.00  0.00    -0.044 A 
ATOM     24  C   UNL     1       0.927  -1.640   0.541  1.00  0.00     0.118 A 
ATOM     25  C   UNL     1      -0.205  -2.305   0.082  1.00  0.00     0.046 A 
ATOM     26  C   UNL     1       2.165  -2.277   0.597  1.00  0.00     0.046 A 
ATOM     27  C   UNL     1      -0.097  -3.622  -0.346  1.00  0.00     0.007 A 
ATOM     28  C   UNL     1       2.268  -3.608   0.194  1.00  0.00     0.007 A 
BRANCH  24  29
ATOM     29  O   UNL     1       0.785  -0.373   1.035  1.00  0.00    -0.497 OA
ATOM     30  C   UNL     1       1.081   0.569   0.007  1.00  0.00     0.278 C 
ENDBRANCH  24  29
ENDBRANCH  22  23
ENDBRANCH  21  22
ENDBRANCH   8  21
ENDBRANCH   6   7
ENDBRANCH   5   6
ENDBRANCH   1   5
BRANCH   3  31
ATOM     31  C   UNL     1       1.468  -5.693   6.417  1.00  0.00     0.116 C 
BRANCH  31  32
ATOM     32  C   UNL     1       0.708  -6.051   5.159  1.00  0.00     0.023 C 
BRANCH  32  33
ATOM     33  C   UNL     1       1.411  -7.043   4.267  1.00  0.00     0.023 C 
BRANCH  33  34
ATOM     34  C   UNL     1       0.728  -8.376   4.422  1.00  0.00     0.116 C 
BRANCH  34  35
ATOM     35  N   UNL     1      -0.670  -8.658   3.399  1.00  0.00    -0.352 N 
ATOM     36  C   UNL     1      -1.415  -9.979   2.190  1.00  0.00     0.251 C 
ATOM     37  H   UNL     1      -1.280  -7.888   3.459  1.00  0.00     0.163 HD
ATOM     38  O   UNL     1      -2.605 -10.052   1.823  1.00  0.00    -0.269 OA
BRANCH  36  39
ATOM     39  C   UNL     1      -0.670 -11.290   1.339  1.00  0.00     0.039 A 
ATOM     40  C   UNL     1      -1.114 -11.529   0.028  1.00  0.00     0.014 A 
ATOM     41  C   UNL     1       0.502 -11.994   1.740  1.00  0.00     0.014 A 
ATOM     42  C   UNL     1      -0.317 -12.267  -0.874  1.00  0.00     0.010 A 
ATOM     43  C   UNL     1       1.357 -12.550   0.817  1.00  0.00     0.010 A 
ATOM     44  C   UNL     1       0.963 -12.708  -0.502  1.00  0.00    -0.014 A 
BRANCH  44  45
ATOM     45  C   UNL     1       1.986 -13.296  -1.399  1.00  0.00     0.031 A 
ATOM     46  C   UNL     1       2.659 -14.593  -1.002  1.00  0.00     0.074 A 
ATOM     47  C   UNL     1       2.495 -12.549  -2.398  1.00  0.00     0.049 A 
ATOM     48  N   UNL     1       3.713 -15.169  -1.520  1.00  0.00    -0.248 NA
ATOM     49  C   UNL     1       2.136 -15.282   0.196  1.00  0.00     0.031 C 
ATOM     50  C   UNL     1       2.048 -11.206  -2.782  1.00  0.00     0.029 A 
ATOM     51  N   UNL     1       3.531 -12.807  -3.259  1.00  0.00    -0.354 N 
ATOM     52  C   UNL     1       3.991 -16.250  -0.691  1.00  0.00     0.074 A 
ATOM     53  C   UNL     1       3.076 -16.184   0.421  1.00  0.00     0.031 C 
ATOM     54  C   UNL     1       2.768 -10.785  -3.835  1.00  0.00     0.029 A 
ATOM     55  C   UNL     1       3.748 -11.809  -4.178  1.00  0.00     0.049 A 
ATOM     56  H   UNL     1       4.069 -13.631  -3.222  1.00  0.00     0.167 HD
ATOM     57  C   UNL     1       4.891 -17.246  -0.864  1.00  0.00     0.031 A 
ATOM     58  C   UNL     1       4.628 -11.742  -5.194  1.00  0.00     0.031 A 
ATOM     59  C   UNL     1       5.758 -17.337  -2.004  1.00  0.00     0.049 A 
ATOM     60  C   UNL     1       5.568 -12.895  -5.421  1.00  0.00     0.074 A 
ATOM     61  C   UNL     1       6.603 -18.369  -2.366  1.00  0.00     0.029 A 
ATOM     62  N   UNL     1       5.881 -16.352  -2.970  1.00  0.00    -0.354 N 
ATOM     63  N   UNL     1       5.707 -13.997  -4.724  1.00  0.00    -0.248 NA
ATOM     64  C   UNL     1       6.458 -12.801  -6.587  1.00  0.00     0.031 C 
ATOM     65  C   UNL     1       7.277 -17.984  -3.529  1.00  0.00     0.029 A 
ATOM     66  C   UNL     1       6.810 -16.738  -3.917  1.00  0.00     0.049 A 
ATOM     67  H   UNL     1       5.382 -15.503  -2.981  1.00  0.00     0.167 HD
ATOM     68  C   UNL     1       6.675 -14.743  -5.386  1.00  0.00     0.074 A 
ATOM     69  C   UNL     1       7.075 -13.973  -6.546  1.00  0.00     0.031 C 
ATOM     70  C   UNL     1       7.187 -15.956  -5.065  1.00  0.00     0.031 A 
BRANCH  57  71
ATOM     71  C   UNL     1       4.941 -18.331   0.178  1.00  0.00    -0.014 A 
ATOM     72  C   UNL     1       3.850 -19.193   0.382  1.00  0.00     0.009 A 
ATOM     73  C   UNL     1       6.096 -18.510   0.954  1.00  0.00     0.009 A 
ATOM     74  C   UNL     1       3.893 -20.173   1.375  1.00  0.00     0.001 A 
ATOM     75  C   UNL     1       6.151 -19.517   1.921  1.00  0.00     0.001 A 
ATOM     76  C   UNL     1       5.046 -20.338   2.140  1.00  0.00     0.000 A 
ENDBRANCH  57  71
BRANCH  58  77
ATOM     77  C   UNL     1       4.606 -10.586  -6.130  1.00  0.00    -0.014 A 
ATOM     78  C   UNL     1       4.114 -10.755  -7.434  1.00  0.00     0.009 A 
ATOM     79  C   UNL     1       5.075  -9.323  -5.741  1.00  0.00     0.009 A 
ATOM     80  C   UNL     1       4.125  -9.694  -8.341  1.00  0.00     0.001 A 
ATOM     81  C   UNL     1       5.057  -8.254  -6.643  1.00  0.00     0.001 A 
ATOM     82  C   UNL     1       4.593  -8.443  -7.944  1.00  0.00     0.000 A 
ENDBRANCH  58  77
BRANCH  70  83
ATOM     83  C   UNL     1       8.211 -16.541  -5.994  1.00  0.00    -0.014 A 
ATOM     84  C   UNL     1       9.515 -16.026  -6.055  1.00  0.00     0.009 A 
ATOM     85  C   UNL     1       7.884 -17.667  -6.766  1.00  0.00     0.009 A 
ATOM     86  C   UNL     1      10.463 -16.612  -6.894  1.00  0.00     0.001 A 
ATOM     87  C   UNL     1       8.843 -18.270  -7.579  1.00  0.00     0.001 A 
ATOM     88  C   UNL     1      10.130 -17.737  -7.648  1.00  0.00     0.000 A 
ENDBRANCH  70  83
ENDBRANCH  44  45
ENDBRANCH  36  39
ENDBRANCH  34  35
ENDBRANCH  33  34
ENDBRANCH  32  33
ENDBRANCH  31  32
ENDBRANCH   3  31
TORSDOF 17
