REMARK SMILES CCOc1ccc(-c2nc(C(=O)NCCCCNC(=O)c3ccc(-c4c5nc(c(-c6ccccc6)c6ccc([nH]6)c(-c6ccccc6)c6nc(c(-c7ccccc7)c7ccc4[nH]7)C=C6)C=C5)cc3)cc(=O)[nH]2)cc1
REMARK SMILES IDX 15 1 14 2 13 3 11 4 12 5 10 7 8 8 9 9 72 10 70 11 69 13
REMARK SMILES IDX 71 14 7 15 4 16 5 17 74 18 6 19 73 20 3 21 2 22 1 23 16 24
REMARK SMILES IDX 17 25 18 26 19 27 20 29 21 30 22 31 68 32 23 33 67 34 24 35
REMARK SMILES IDX 25 36 26 37 61 38 27 39 66 40 60 41 62 42 28 43 65 44 59 45
REMARK SMILES IDX 58 46 29 48 51 49 36 50 50 51 37 52 40 53 49 54 63 55 38 56
REMARK SMILES IDX 39 57 48 59 64 60 41 61 30 62 31 63 35 64 32 65 34 66 33 67
REMARK SMILES IDX 52 68 53 69 57 70 54 71 56 72 55 73 42 74 43 75 47 76 44 77
REMARK SMILES IDX 46 78 45 79
REMARK H PARENT 13 6 72 12 18 28 62 47 40 58
REMARK Flexibility Score: inf
ROOT
ATOM      1  C   UNL     1      12.649   2.751   1.573  1.00  0.00     0.023 C 
ENDROOT
BRANCH   1   2
ATOM      2  C   UNL     1      11.613   3.306   2.540  1.00  0.00     0.116 C 
BRANCH   2   3
ATOM      3  N   UNL     1      10.575   4.093   1.900  1.00  0.00    -0.351 N 
ATOM      4  C   UNL     1       9.210   4.026   1.923  1.00  0.00     0.270 C 
ATOM      5  O   UNL     1       8.608   4.859   1.241  1.00  0.00    -0.268 OA
ATOM      6  H   UNL     1      10.924   4.820   1.336  1.00  0.00     0.163 HD
BRANCH   4   7
ATOM      7  C   UNL     1       8.444   2.965   2.692  1.00  0.00     0.136 A 
ATOM      8  C   UNL     1       6.457   1.843   2.930  1.00  0.00     0.141 A 
ATOM      9  N   UNL     1       7.179   2.651   2.222  1.00  0.00    -0.225 NA
ATOM     10  N   UNL     1       6.946   1.170   4.017  1.00  0.00    -0.306 N 
ATOM     11  C   UNL     1       8.191   1.401   4.501  1.00  0.00     0.251 A 
ATOM     12  H   UNL     1       6.377   0.499   4.460  1.00  0.00     0.171 HD
ATOM     13  C   UNL     1       8.914   2.498   3.856  1.00  0.00     0.105 A 
ATOM     14  O   UNL     1       8.690   0.755   5.409  1.00  0.00    -0.269 OA
BRANCH   8  15
ATOM     15  C   UNL     1       5.028   1.610   2.628  1.00  0.00     0.018 A 
ATOM     16  C   UNL     1       2.319   1.279   2.086  1.00  0.00     0.119 A 
ATOM     17  C   UNL     1       2.744   1.371   3.408  1.00  0.00     0.047 A 
ATOM     18  C   UNL     1       3.229   1.406   1.036  1.00  0.00     0.047 A 
ATOM     19  C   UNL     1       4.102   1.534   3.681  1.00  0.00     0.016 A 
ATOM     20  C   UNL     1       4.589   1.566   1.304  1.00  0.00     0.016 A 
BRANCH  16  21
ATOM     21  O   UNL     1       0.977   1.189   1.845  1.00  0.00    -0.494 OA
BRANCH  21  22
ATOM     22  C   UNL     1       0.583  -0.116   1.405  1.00  0.00     0.226 C 
ATOM     23  C   UNL     1       0.618  -0.222  -0.111  1.00  0.00     0.049 C 
ENDBRANCH  21  22
ENDBRANCH  16  21
ENDBRANCH   8  15
ENDBRANCH   4   7
ENDBRANCH   2   3
ENDBRANCH   1   2
BRANCH   1  24
ATOM     24  C   UNL     1      13.564   3.775   0.917  1.00  0.00     0.023 C 
BRANCH  24  25
ATOM     25  C   UNL     1      14.258   4.740   1.868  1.00  0.00     0.116 C 
BRANCH  25  26
ATOM     26  N   UNL     1      15.034   4.085   2.915  1.00  0.00    -0.352 N 
ATOM     27  C   UNL     1      16.320   4.358   3.323  1.00  0.00     0.251 C 
ATOM     28  H   UNL     1      14.579   3.353   3.392  1.00  0.00     0.163 HD
ATOM     29  O   UNL     1      16.879   3.671   4.169  1.00  0.00    -0.269 OA
BRANCH  27  30
ATOM     30  C   UNL     1      17.031   5.481   2.685  1.00  0.00     0.039 A 
ATOM     31  C   UNL     1      18.252   5.245   2.049  1.00  0.00     0.014 A 
ATOM     32  C   UNL     1      16.417   6.733   2.617  1.00  0.00     0.014 A 
ATOM     33  C   UNL     1      18.817   6.249   1.261  1.00  0.00     0.010 A 
ATOM     34  C   UNL     1      16.932   7.693   1.760  1.00  0.00     0.010 A 
ATOM     35  C   UNL     1      18.135   7.461   1.071  1.00  0.00    -0.014 A 
BRANCH  35  36
ATOM     36  C   UNL     1      18.650   8.531   0.181  1.00  0.00     0.031 A 
ATOM     37  C   UNL     1      18.960   9.879   0.766  1.00  0.00     0.074 A 
ATOM     38  C   UNL     1      18.726   8.335  -1.149  1.00  0.00     0.049 A 
ATOM     39  N   UNL     1      19.231  11.005   0.158  1.00  0.00    -0.248 NA
ATOM     40  C   UNL     1      18.918   9.980   2.235  1.00  0.00     0.031 C 
ATOM     41  C   UNL     1      18.431   7.082  -1.846  1.00  0.00     0.029 A 
ATOM     42  N   UNL     1      19.052   9.208  -2.159  1.00  0.00    -0.354 N 
ATOM     43  C   UNL     1      19.359  11.950   1.167  1.00  0.00     0.074 A 
ATOM     44  C   UNL     1      19.078  11.281   2.417  1.00  0.00     0.031 C 
ATOM     45  C   UNL     1      18.596   7.264  -3.166  1.00  0.00     0.029 A 
ATOM     46  C   UNL     1      18.954   8.658  -3.414  1.00  0.00     0.049 A 
ATOM     47  H   UNL     1      19.328  10.139  -1.998  1.00  0.00     0.167 HD
ATOM     48  C   UNL     1      19.700  13.256   1.065  1.00  0.00     0.031 A 
ATOM     49  C   UNL     1      19.109   9.219  -4.630  1.00  0.00     0.031 A 
ATOM     50  C   UNL     1      19.982  13.916  -0.179  1.00  0.00     0.049 A 
ATOM     51  C   UNL     1      19.456  10.680  -4.726  1.00  0.00     0.074 A 
ATOM     52  C   UNL     1      20.376  15.225  -0.391  1.00  0.00     0.029 A 
ATOM     53  N   UNL     1      19.899  13.314  -1.426  1.00  0.00    -0.354 N 
ATOM     54  N   UNL     1      19.620  11.554  -3.762  1.00  0.00    -0.248 NA
ATOM     55  C   UNL     1      19.648  11.231  -6.075  1.00  0.00     0.031 C 
ATOM     56  C   UNL     1      20.477  15.431  -1.770  1.00  0.00     0.029 A 
ATOM     57  C   UNL     1      20.216  14.230  -2.412  1.00  0.00     0.049 A 
ATOM     58  H   UNL     1      19.652  12.374  -1.585  1.00  0.00     0.167 HD
ATOM     59  C   UNL     1      19.972  12.745  -4.384  1.00  0.00     0.074 A 
ATOM     60  C   UNL     1      19.999  12.482  -5.808  1.00  0.00     0.031 C 
ATOM     61  C   UNL     1      20.255  13.946  -3.824  1.00  0.00     0.031 A 
BRANCH  48  62
ATOM     62  C   UNL     1      19.765  14.049   2.341  1.00  0.00    -0.014 A 
ATOM     63  C   UNL     1      20.738  13.782   3.319  1.00  0.00     0.009 A 
ATOM     64  C   UNL     1      18.839  15.078   2.572  1.00  0.00     0.009 A 
ATOM     65  C   UNL     1      20.748  14.490   4.522  1.00  0.00     0.001 A 
ATOM     66  C   UNL     1      18.874  15.810   3.760  1.00  0.00     0.001 A 
ATOM     67  C   UNL     1      19.818  15.506   4.740  1.00  0.00     0.000 A 
ENDBRANCH  48  62
BRANCH  49  68
ATOM     68  C   UNL     1      18.936   8.393  -5.855  1.00  0.00    -0.014 A 
ATOM     69  C   UNL     1      20.042   8.060  -6.653  1.00  0.00     0.009 A 
ATOM     70  C   UNL     1      17.667   7.923  -6.228  1.00  0.00     0.009 A 
ATOM     71  C   UNL     1      19.876   7.295  -7.810  1.00  0.00     0.001 A 
ATOM     72  C   UNL     1      17.509   7.132  -7.369  1.00  0.00     0.001 A 
ATOM     73  C   UNL     1      18.612   6.826  -8.163  1.00  0.00     0.000 A 
ENDBRANCH  49  68
BRANCH  61  74
ATOM     74  C   UNL     1      20.686  15.061  -4.736  1.00  0.00    -0.014 A 
ATOM     75  C   UNL     1      19.773  15.727  -5.566  1.00  0.00     0.009 A 
ATOM     76  C   UNL     1      22.016  15.509  -4.688  1.00  0.00     0.009 A 
ATOM     77  C   UNL     1      20.189  16.812  -6.342  1.00  0.00     0.001 A 
ATOM     78  C   UNL     1      22.422  16.611  -5.440  1.00  0.00     0.001 A 
ATOM     79  C   UNL     1      21.509  17.259  -6.271  1.00  0.00     0.000 A 
ENDBRANCH  61  74
ENDBRANCH  35  36
ENDBRANCH  27  30
ENDBRANCH  25  26
ENDBRANCH  24  25
ENDBRANCH   1  24
TORSDOF 14
