REMARK SMILES Cc1c(CC(=O)N[C@@H](C)C(=O)NCCCCNC(=O)c2ccc(-c3c4nc(c(-c5ccccc5)c5ccc([nH]5)c(-c5ccccc5)c5nc(c(-c6ccccc6)c6ccc3[nH]6)C=C5)C=C4)cc2)c(=O)oc2cc3oc4c(c3cc12)CCCC4
REMARK SMILES IDX 14 1 13 2 12 3 10 4 11 5 8 7 9 8 7 9 5 10 6 11 4 13 3 14
REMARK SMILES IDX 1 15 2 16 79 17 68 18 71 19 78 20 69 21 70 22 72 23 77 24
REMARK SMILES IDX 73 25 76 26 74 27 75 28 80 29 83 30 81 31 82 32 15 33 16 34
REMARK SMILES IDX 17 35 18 36 19 38 20 39 21 40 67 41 22 42 66 43 23 44 24 45
REMARK SMILES IDX 25 46 60 47 26 48 65 49 59 50 61 51 27 52 64 53 58 54 57 55
REMARK SMILES IDX 28 57 50 58 35 59 49 60 36 61 39 62 48 63 62 64 37 65 38 66
REMARK SMILES IDX 47 68 63 69 40 70 29 71 30 72 34 73 31 74 33 75 32 76 51 77
REMARK SMILES IDX 52 78 56 79 53 80 55 81 54 82 41 83 42 84 46 85 43 86 45 87
REMARK SMILES IDX 44 88
REMARK H PARENT 12 6 7 12 17 37 61 56 39 67
REMARK Flexibility Score: inf
ROOT
ATOM      1  C   UNL     1      -2.380   4.854   4.160  1.00  0.00     0.023 C 
ENDROOT
BRANCH   1   2
ATOM      2  C   UNL     1      -2.567   4.716   2.652  1.00  0.00     0.116 C 
BRANCH   2   3
ATOM      3  N   UNL     1      -1.911   5.794   1.924  1.00  0.00    -0.354 N 
ATOM      4  C   UNL     1      -1.135   5.790   0.806  1.00  0.00     0.242 C 
ATOM      5  O   UNL     1      -0.855   6.878   0.299  1.00  0.00    -0.273 OA
ATOM      6  H   UNL     1      -2.055   6.688   2.312  1.00  0.00     0.163 HD
BRANCH   4   7
ATOM      7  C   UNL     1      -0.702   4.474   0.161  1.00  0.00     0.168 C 
ATOM      8  C   UNL     1      -1.914   3.765  -0.442  1.00  0.00     0.041 C 
BRANCH   7   9
ATOM      9  N   UNL     1       0.027   3.679   1.152  1.00  0.00    -0.344 N 
ATOM     10  C   UNL     1       1.238   3.067   1.048  1.00  0.00     0.225 C 
ATOM     11  O   UNL     1       1.738   2.603   2.074  1.00  0.00    -0.275 OA
ATOM     12  H   UNL     1      -0.426   3.571   2.019  1.00  0.00     0.164 HD
BRANCH  10  13
ATOM     13  C   UNL     1       1.928   2.937  -0.302  1.00  0.00     0.143 C 
BRANCH  13  14
ATOM     14  C   UNL     1       1.053   2.182  -1.272  1.00  0.00     0.051 A 
ATOM     15  C   UNL     1       0.877   0.131   0.188  1.00  0.00     0.046 C 
ATOM     16  C   UNL     1       0.493   0.985  -0.999  1.00  0.00    -0.029 A 
ATOM     17  C   UNL     1      -0.502   0.442  -1.933  1.00  0.00     0.022 A 
ATOM     18  C   UNL     1       0.783   2.895  -2.550  1.00  0.00     0.340 A 
ATOM     19  C   UNL     1      -0.665   1.046  -3.182  1.00  0.00     0.142 A 
ATOM     20  C   UNL     1      -1.197  -0.738  -1.649  1.00  0.00     0.024 A 
ATOM     21  O   UNL     1       1.278   3.989  -2.796  1.00  0.00    -0.246 OA
ATOM     22  O   UNL     1      -0.052   2.278  -3.464  1.00  0.00    -0.422 OA
ATOM     23  C   UNL     1      -1.345   0.448  -4.246  1.00  0.00     0.095 A 
ATOM     24  C   UNL     1      -1.711  -1.452  -2.737  1.00  0.00     0.025 A 
ATOM     25  C   UNL     1      -1.712  -0.866  -4.000  1.00  0.00     0.138 A 
ATOM     26  C   UNL     1      -1.968  -2.829  -2.932  1.00  0.00     0.001 A 
ATOM     27  O   UNL     1      -1.909  -1.816  -4.960  1.00  0.00    -0.461 OA
ATOM     28  C   UNL     1      -1.859  -2.997  -4.297  1.00  0.00     0.108 A 
ATOM     29  C   UNL     1      -1.687  -3.972  -2.026  1.00  0.00     0.040 C 
ATOM     30  C   UNL     1      -1.102  -4.137  -4.885  1.00  0.00     0.076 C 
ATOM     31  C   UNL     1      -0.332  -4.600  -2.422  1.00  0.00     0.005 C 
ATOM     32  C   UNL     1       0.084  -4.390  -3.910  1.00  0.00     0.008 C 
ENDBRANCH  13  14
ENDBRANCH  10  13
ENDBRANCH   7   9
ENDBRANCH   4   7
ENDBRANCH   2   3
ENDBRANCH   1   2
BRANCH   1  33
ATOM     33  C   UNL     1      -2.732   6.240   4.702  1.00  0.00     0.023 C 
BRANCH  33  34
ATOM     34  C   UNL     1      -4.110   6.737   4.266  1.00  0.00     0.116 C 
BRANCH  34  35
ATOM     35  N   UNL     1      -5.179   6.234   5.107  1.00  0.00    -0.352 N 
ATOM     36  C   UNL     1      -5.570   6.703   6.344  1.00  0.00     0.251 C 
ATOM     37  H   UNL     1      -5.685   5.467   4.754  1.00  0.00     0.163 HD
ATOM     38  O   UNL     1      -6.409   6.126   7.009  1.00  0.00    -0.269 OA
BRANCH  36  39
ATOM     39  C   UNL     1      -4.886   7.904   6.862  1.00  0.00     0.039 A 
ATOM     40  C   UNL     1      -4.914   9.095   6.128  1.00  0.00     0.014 A 
ATOM     41  C   UNL     1      -4.130   7.792   8.027  1.00  0.00     0.014 A 
ATOM     42  C   UNL     1      -4.071  10.139   6.480  1.00  0.00     0.010 A 
ATOM     43  C   UNL     1      -3.323   8.859   8.408  1.00  0.00     0.010 A 
ATOM     44  C   UNL     1      -3.267  10.019   7.614  1.00  0.00    -0.014 A 
BRANCH  44  45
ATOM     45  C   UNL     1      -2.483  11.196   8.016  1.00  0.00     0.031 A 
ATOM     46  C   UNL     1      -3.030  11.859   9.224  1.00  0.00     0.074 A 
ATOM     47  C   UNL     1      -1.151  11.304   7.823  1.00  0.00     0.049 A 
ATOM     48  N   UNL     1      -2.731  11.386  10.393  1.00  0.00    -0.248 NA
ATOM     49  C   UNL     1      -4.119  12.828   9.238  1.00  0.00     0.031 C 
ATOM     50  C   UNL     1      -0.260  10.181   7.501  1.00  0.00     0.029 A 
ATOM     51  N   UNL     1      -0.297  12.352   8.081  1.00  0.00    -0.354 N 
ATOM     52  C   UNL     1      -3.632  11.905  11.295  1.00  0.00     0.074 A 
ATOM     53  C   UNL     1      -4.450  12.832  10.542  1.00  0.00     0.031 C 
ATOM     54  C   UNL     1       1.011  10.552   7.757  1.00  0.00     0.029 A 
ATOM     55  C   UNL     1       1.036  11.970   8.087  1.00  0.00     0.049 A 
ATOM     56  H   UNL     1      -0.600  13.274   8.243  1.00  0.00     0.167 HD
ATOM     57  C   UNL     1      -3.633  11.507  12.595  1.00  0.00     0.031 A 
ATOM     58  C   UNL     1       2.057  12.606   8.713  1.00  0.00     0.031 A 
ATOM     59  C   UNL     1      -2.635  10.541  13.012  1.00  0.00     0.049 A 
ATOM     60  C   UNL     1       1.818  12.277  10.162  1.00  0.00     0.074 A 
ATOM     61  C   UNL     1      -2.507   9.531  13.945  1.00  0.00     0.029 A 
ATOM     62  N   UNL     1      -1.438  10.560  12.351  1.00  0.00    -0.354 N 
ATOM     63  N   UNL     1       2.137  11.159  10.757  1.00  0.00    -0.248 NA
ATOM     64  C   UNL     1       0.954  13.167  10.957  1.00  0.00     0.031 C 
ATOM     65  C   UNL     1      -1.146   9.076  13.908  1.00  0.00     0.029 A 
ATOM     66  C   UNL     1      -0.463   9.846  12.983  1.00  0.00     0.049 A 
ATOM     67  H   UNL     1      -1.295  11.040  11.503  1.00  0.00     0.167 HD
ATOM     68  C   UNL     1       1.289  11.088  11.854  1.00  0.00     0.074 A 
ATOM     69  C   UNL     1       0.700  12.402  12.013  1.00  0.00     0.031 C 
ATOM     70  C   UNL     1       0.861   9.921  12.414  1.00  0.00     0.031 A 
BRANCH  57  71
ATOM     71  C   UNL     1      -4.457  12.184  13.621  1.00  0.00    -0.014 A 
ATOM     72  C   UNL     1      -5.824  11.956  13.794  1.00  0.00     0.009 A 
ATOM     73  C   UNL     1      -3.779  13.009  14.536  1.00  0.00     0.009 A 
ATOM     74  C   UNL     1      -6.494  12.538  14.877  1.00  0.00     0.001 A 
ATOM     75  C   UNL     1      -4.446  13.585  15.613  1.00  0.00     0.001 A 
ATOM     76  C   UNL     1      -5.806  13.346  15.786  1.00  0.00     0.000 A 
ENDBRANCH  57  71
BRANCH  58  77
ATOM     77  C   UNL     1       2.380  13.983   8.228  1.00  0.00    -0.014 A 
ATOM     78  C   UNL     1       2.633  15.083   9.058  1.00  0.00     0.009 A 
ATOM     79  C   UNL     1       2.506  14.188   6.837  1.00  0.00     0.009 A 
ATOM     80  C   UNL     1       2.871  16.356   8.523  1.00  0.00     0.001 A 
ATOM     81  C   UNL     1       2.774  15.451   6.300  1.00  0.00     0.001 A 
ATOM     82  C   UNL     1       2.930  16.542   7.145  1.00  0.00     0.000 A 
ENDBRANCH  58  77
BRANCH  70  83
ATOM     83  C   UNL     1       1.699   8.708  12.235  1.00  0.00    -0.014 A 
ATOM     84  C   UNL     1       1.165   7.523  11.711  1.00  0.00     0.009 A 
ATOM     85  C   UNL     1       3.034   8.719  12.665  1.00  0.00     0.009 A 
ATOM     86  C   UNL     1       1.952   6.373  11.626  1.00  0.00     0.001 A 
ATOM     87  C   UNL     1       3.819   7.571  12.578  1.00  0.00     0.001 A 
ATOM     88  C   UNL     1       3.276   6.397  12.062  1.00  0.00     0.000 A 
ENDBRANCH  70  83
ENDBRANCH  44  45
ENDBRANCH  36  39
ENDBRANCH  34  35
ENDBRANCH  33  34
ENDBRANCH   1  33
TORSDOF 14
