REMARK SMILES Cc1cc(-c2cncc(C(=O)NCCCCNC(=O)c3ccc(-c4c5nc(c(-c6ccccc6)c6ccc([nH]6)c(-c6ccccc6)c6nc(c(-c7ccccc7)c7ccc4[nH]7)C=C6)C=C5)cc3)c2)ccc1F
REMARK SMILES IDX 15 1 14 2 13 3 12 4 10 5 11 6 9 8 5 9 6 10 68 11 7 12 8 13
REMARK SMILES IDX 4 14 1 15 2 16 3 17 71 18 70 19 72 20 69 21 16 22 17 23
REMARK SMILES IDX 18 24 19 26 20 27 21 28 67 29 22 30 66 31 23 32 24 33 25 34
REMARK SMILES IDX 60 35 26 36 65 37 59 38 61 39 27 40 64 41 58 42 57 43 28 45
REMARK SMILES IDX 50 46 35 47 49 48 36 49 39 50 48 51 62 52 37 53 38 54 47 56
REMARK SMILES IDX 63 57 40 58 29 59 30 60 34 61 31 62 33 63 32 64 51 65 52 66
REMARK SMILES IDX 56 67 53 68 55 69 54 70 41 71 42 72 46 73 43 74 45 75 44 76
REMARK H PARENT 12 7 17 25 61 44 39 55
REMARK Flexibility Score: inf
ROOT
ATOM      1  C   UNL     1      -3.302   2.848  -5.766  1.00  0.00     0.023 C 
ENDROOT
BRANCH   1   2
ATOM      2  C   UNL     1      -3.055   2.489  -4.298  1.00  0.00     0.023 C 
BRANCH   2   3
ATOM      3  C   UNL     1      -3.515   3.557  -3.303  1.00  0.00     0.116 C 
BRANCH   3   4
ATOM      4  N   UNL     1      -4.950   3.489  -3.094  1.00  0.00    -0.352 N 
ATOM      5  C   UNL     1      -5.716   2.896  -2.120  1.00  0.00     0.252 C 
ATOM      6  O   UNL     1      -6.934   3.064  -2.175  1.00  0.00    -0.269 OA
ATOM      7  H   UNL     1      -5.474   3.959  -3.781  1.00  0.00     0.163 HD
BRANCH   5   8
ATOM      8  C   UNL     1      -5.154   2.110  -0.995  1.00  0.00     0.058 A 
ATOM      9  C   UNL     1      -3.451   0.799   0.147  1.00  0.00     0.001 A 
ATOM     10  C   UNL     1      -4.291   0.776   1.255  1.00  0.00     0.119 A 
ATOM     11  C   UNL     1      -3.933   1.442  -1.003  1.00  0.00     0.025 A 
ATOM     12  N   UNL     1      -5.514   1.353   1.289  1.00  0.00    -0.263 NA
ATOM     13  C   UNL     1      -5.911   2.011   0.169  1.00  0.00     0.124 A 
BRANCH   9  14
ATOM     14  C   UNL     1      -2.090   0.262   0.172  1.00  0.00    -0.016 A 
ATOM     15  C   UNL     1       1.483   1.627   0.070  1.00  0.00     0.047 C 
ATOM     16  C   UNL     1       0.324   0.679   0.114  1.00  0.00    -0.015 A 
ATOM     17  C   UNL     1      -0.995   1.149   0.135  1.00  0.00     0.015 A 
ATOM     18  C   UNL     1       0.538  -0.698   0.132  1.00  0.00     0.126 A 
ATOM     19  C   UNL     1      -0.527  -1.594   0.174  1.00  0.00     0.040 A 
ATOM     20  F   UNL     1       1.789  -1.178   0.104  1.00  0.00    -0.207 F 
ATOM     21  C   UNL     1      -1.840  -1.117   0.197  1.00  0.00     0.012 A 
ENDBRANCH   9  14
ENDBRANCH   5   8
ENDBRANCH   3   4
ENDBRANCH   2   3
ENDBRANCH   1   2
BRANCH   1  22
ATOM     22  C   UNL     1      -2.504   4.042  -6.282  1.00  0.00     0.116 C 
BRANCH  22  23
ATOM     23  N   UNL     1      -1.063   3.865  -6.176  1.00  0.00    -0.352 N 
ATOM     24  C   UNL     1      -0.080   4.346  -7.009  1.00  0.00     0.251 C 
ATOM     25  H   UNL     1      -0.752   3.331  -5.409  1.00  0.00     0.163 HD
ATOM     26  O   UNL     1       1.093   4.043  -6.836  1.00  0.00    -0.269 OA
BRANCH  24  27
ATOM     27  C   UNL     1      -0.468   5.197  -8.152  1.00  0.00     0.039 A 
ATOM     28  C   UNL     1      -0.073   4.816  -9.436  1.00  0.00     0.014 A 
ATOM     29  C   UNL     1      -1.275   6.321  -7.957  1.00  0.00     0.014 A 
ATOM     30  C   UNL     1      -0.567   5.511 -10.541  1.00  0.00     0.010 A 
ATOM     31  C   UNL     1      -1.806   6.981  -9.060  1.00  0.00     0.010 A 
ATOM     32  C   UNL     1      -1.476   6.566 -10.360  1.00  0.00    -0.014 A 
BRANCH  32  33
ATOM     33  C   UNL     1      -2.149   7.209 -11.513  1.00  0.00     0.031 A 
ATOM     34  C   UNL     1      -1.883   8.648 -11.843  1.00  0.00     0.074 A 
ATOM     35  C   UNL     1      -3.081   6.519 -12.199  1.00  0.00     0.049 A 
ATOM     36  N   UNL     1      -2.461   9.408 -12.738  1.00  0.00    -0.248 NA
ATOM     37  C   UNL     1      -0.848   9.328 -11.048  1.00  0.00     0.031 C 
ATOM     38  C   UNL     1      -3.460   5.126 -11.949  1.00  0.00     0.029 A 
ATOM     39  N   UNL     1      -3.895   6.904 -13.234  1.00  0.00    -0.354 N 
ATOM     40  C   UNL     1      -1.876  10.659 -12.602  1.00  0.00     0.074 A 
ATOM     41  C   UNL     1      -0.920  10.565 -11.518  1.00  0.00     0.031 C 
ATOM     42  C   UNL     1      -4.425   4.772 -12.813  1.00  0.00     0.029 A 
ATOM     43  C   UNL     1      -4.760   5.920 -13.648  1.00  0.00     0.049 A 
ATOM     44  H   UNL     1      -3.863   7.800 -13.640  1.00  0.00     0.167 HD
ATOM     45  C   UNL     1      -2.107  11.782 -13.322  1.00  0.00     0.031 A 
ATOM     46  C   UNL     1      -5.727   5.944 -14.583  1.00  0.00     0.031 A 
ATOM     47  C   UNL     1      -3.047  11.873 -14.406  1.00  0.00     0.049 A 
ATOM     48  C   UNL     1      -5.978   7.208 -15.352  1.00  0.00     0.074 A 
ATOM     49  C   UNL     1      -3.296  12.947 -15.243  1.00  0.00     0.029 A 
ATOM     50  N   UNL     1      -3.900  10.854 -14.797  1.00  0.00    -0.354 N 
ATOM     51  N   UNL     1      -5.368   8.364 -15.258  1.00  0.00    -0.248 NA
ATOM     52  C   UNL     1      -7.052   7.171 -16.355  1.00  0.00     0.031 C 
ATOM     53  C   UNL     1      -4.331  12.591 -16.114  1.00  0.00     0.029 A 
ATOM     54  C   UNL     1      -4.698  11.283 -15.844  1.00  0.00     0.049 A 
ATOM     55  H   UNL     1      -3.934   9.957 -14.391  1.00  0.00     0.167 HD
ATOM     56  C   UNL     1      -5.973   9.187 -16.198  1.00  0.00     0.074 A 
ATOM     57  C   UNL     1      -6.988   8.395 -16.862  1.00  0.00     0.031 C 
ATOM     58  C   UNL     1      -5.710  10.485 -16.485  1.00  0.00     0.031 A 
BRANCH  45  59
ATOM     59  C   UNL     1      -1.329  13.011 -12.949  1.00  0.00    -0.014 A 
ATOM     60  C   UNL     1       0.036  13.125 -13.255  1.00  0.00     0.009 A 
ATOM     61  C   UNL     1      -1.978  14.080 -12.313  1.00  0.00     0.009 A 
ATOM     62  C   UNL     1       0.744  14.276 -12.901  1.00  0.00     0.001 A 
ATOM     63  C   UNL     1      -1.272  15.238 -11.982  1.00  0.00     0.001 A 
ATOM     64  C   UNL     1       0.089  15.332 -12.268  1.00  0.00     0.000 A 
ENDBRANCH  45  59
BRANCH  46  65
ATOM     65  C   UNL     1      -6.538   4.728 -14.840  1.00  0.00    -0.014 A 
ATOM     66  C   UNL     1      -6.332   3.972 -16.003  1.00  0.00     0.009 A 
ATOM     67  C   UNL     1      -7.517   4.315 -13.923  1.00  0.00     0.009 A 
ATOM     68  C   UNL     1      -7.103   2.835 -16.253  1.00  0.00     0.001 A 
ATOM     69  C   UNL     1      -8.271   3.165 -14.165  1.00  0.00     0.001 A 
ATOM     70  C   UNL     1      -8.069   2.430 -15.332  1.00  0.00     0.000 A 
ENDBRANCH  46  65
BRANCH  58  71
ATOM     71  C   UNL     1      -6.526  11.123 -17.570  1.00  0.00    -0.014 A 
ATOM     72  C   UNL     1      -7.850  11.523 -17.336  1.00  0.00     0.009 A 
ATOM     73  C   UNL     1      -5.949  11.367 -18.826  1.00  0.00     0.009 A 
ATOM     74  C   UNL     1      -8.589  12.137 -18.348  1.00  0.00     0.001 A 
ATOM     75  C   UNL     1      -6.684  12.000 -19.829  1.00  0.00     0.001 A 
ATOM     76  C   UNL     1      -8.005  12.379 -19.591  1.00  0.00     0.000 A 
ENDBRANCH  58  71
ENDBRANCH  32  33
ENDBRANCH  24  27
ENDBRANCH  22  23
ENDBRANCH   1  22
TORSDOF 12
