REMARK SMILES Cc1ccc(-c2cc(OCC(=O)NCCCCNC(=O)c3ccc(-c4c5nc(c(-c6ccccc6)c6ccc([nH]6)c(-c6ccccc6)c6nc(c(-c7ccccc7)c7ccc4[nH]7)C=C6)C=C5)cc3)nc(NCc3ccc4c(c3)OCO4)n2)cc1
REMARK SMILES IDX 14 1 13 2 11 3 12 4 10 6 9 7 8 8 6 9 7 10 82 11 70 12 69 13
REMARK SMILES IDX 5 14 1 15 2 16 3 17 84 18 4 19 83 20 71 21 72 23 73 24 74 25
REMARK SMILES IDX 78 26 75 27 77 28 76 29 79 30 81 31 80 32 15 33 16 34 17 35
REMARK SMILES IDX 18 36 19 37 20 39 21 40 22 41 68 42 23 43 67 44 24 45 25 46
REMARK SMILES IDX 26 47 61 48 27 49 66 50 60 51 62 52 28 53 65 54 59 55 58 56
REMARK SMILES IDX 29 58 51 59 36 60 50 61 37 62 40 63 49 64 63 65 38 66 39 67
REMARK SMILES IDX 48 69 64 70 41 71 30 72 31 73 35 74 32 75 34 76 33 77 52 78
REMARK SMILES IDX 53 79 57 80 54 81 56 82 55 83 42 84 43 85 47 86 44 87 46 88
REMARK SMILES IDX 45 89
REMARK H PARENT 13 5 71 22 18 38 62 57 40 68
REMARK Flexibility Score: inf
ROOT
ATOM      1  C   UNL     1      -6.810   3.970  -1.613  1.00  0.00     0.116 C 
ENDROOT
BRANCH   1   2
ATOM      2  N   UNL     1      -5.398   3.955  -1.955  1.00  0.00    -0.353 N 
ATOM      3  C   UNL     1      -4.684   2.995  -2.611  1.00  0.00     0.258 C 
ATOM      4  O   UNL     1      -3.486   3.189  -2.825  1.00  0.00    -0.271 OA
ATOM      5  H   UNL     1      -4.885   4.747  -1.674  1.00  0.00     0.163 HD
BRANCH   3   6
ATOM      6  C   UNL     1      -5.376   1.709  -3.076  1.00  0.00     0.331 C 
BRANCH   6   7
ATOM      7  O   UNL     1      -5.970   0.913  -2.067  1.00  0.00    -0.467 OA
BRANCH   7   8
ATOM      8  C   UNL     1      -5.157   0.456  -1.068  1.00  0.00     0.219 A 
ATOM      9  C   UNL     1      -3.156  -0.076   0.001  1.00  0.00     0.080 A 
ATOM     10  C   UNL     1      -3.794   0.357  -1.142  1.00  0.00     0.097 A 
ATOM     11  N   UNL     1      -3.823  -0.443   1.114  1.00  0.00    -0.213 NA
ATOM     12  C   UNL     1      -5.153  -0.318   1.091  1.00  0.00     0.226 A 
ATOM     13  N   UNL     1      -5.843   0.126   0.036  1.00  0.00    -0.177 NA
BRANCH   9  14
ATOM     14  C   UNL     1      -1.693  -0.087   0.075  1.00  0.00     0.000 A 
ATOM     15  C   UNL     1       2.633  -0.076   0.037  1.00  0.00     0.044 C 
ATOM     16  C   UNL     1       1.134  -0.072   0.074  1.00  0.00    -0.051 A 
ATOM     17  C   UNL     1       0.427  -1.278   0.150  1.00  0.00     0.004 A 
ATOM     18  C   UNL     1       0.422   1.129   0.011  1.00  0.00     0.004 A 
ATOM     19  C   UNL     1      -0.973  -1.285   0.160  1.00  0.00     0.010 A 
ATOM     20  C   UNL     1      -0.974   1.119   0.010  1.00  0.00     0.010 A 
ENDBRANCH   9  14
BRANCH  12  21
ATOM     21  N   UNL     1      -5.911  -0.606   2.194  1.00  0.00    -0.350 N 
ATOM     22  H   UNL     1      -6.767  -0.137   2.325  1.00  0.00     0.164 HD
BRANCH  21  23
ATOM     23  C   UNL     1      -5.486  -1.579   3.165  1.00  0.00     0.152 C 
BRANCH  23  24
ATOM     24  C   UNL     1      -5.831  -3.006   2.772  1.00  0.00    -0.025 A 
ATOM     25  C   UNL     1      -5.242  -4.068   3.504  1.00  0.00     0.009 A 
ATOM     26  C   UNL     1      -6.722  -3.315   1.728  1.00  0.00     0.056 A 
ATOM     27  C   UNL     1      -5.492  -5.406   3.176  1.00  0.00     0.051 A 
ATOM     28  C   UNL     1      -6.929  -4.641   1.412  1.00  0.00     0.166 A 
ATOM     29  C   UNL     1      -6.326  -5.657   2.110  1.00  0.00     0.165 A 
ATOM     30  O   UNL     1      -7.706  -5.100   0.393  1.00  0.00    -0.454 OA
ATOM     31  O   UNL     1      -6.641  -6.883   1.612  1.00  0.00    -0.454 OA
ATOM     32  C   UNL     1      -7.392  -6.506   0.439  1.00  0.00     0.468 C 
ENDBRANCH  23  24
ENDBRANCH  21  23
ENDBRANCH  12  21
ENDBRANCH   7   8
ENDBRANCH   6   7
ENDBRANCH   3   6
ENDBRANCH   1   2
BRANCH   1  33
ATOM     33  C   UNL     1      -7.102   3.592  -0.155  1.00  0.00     0.023 C 
BRANCH  33  34
ATOM     34  C   UNL     1      -6.299   4.342   0.910  1.00  0.00     0.023 C 
BRANCH  34  35
ATOM     35  C   UNL     1      -6.538   5.843   0.942  1.00  0.00     0.116 C 
BRANCH  35  36
ATOM     36  N   UNL     1      -7.688   6.272   1.725  1.00  0.00    -0.352 N 
ATOM     37  C   UNL     1      -8.268   7.528   1.842  1.00  0.00     0.251 C 
ATOM     38  H   UNL     1      -8.121   5.562   2.252  1.00  0.00     0.163 HD
ATOM     39  O   UNL     1      -9.176   7.703   2.634  1.00  0.00    -0.269 OA
BRANCH  37  40
ATOM     40  C   UNL     1      -7.886   8.620   0.902  1.00  0.00     0.039 A 
ATOM     41  C   UNL     1      -8.911   9.437   0.406  1.00  0.00     0.014 A 
ATOM     42  C   UNL     1      -6.613   8.706   0.352  1.00  0.00     0.014 A 
ATOM     43  C   UNL     1      -8.729  10.111  -0.800  1.00  0.00     0.010 A 
ATOM     44  C   UNL     1      -6.463   9.270  -0.897  1.00  0.00     0.010 A 
ATOM     45  C   UNL     1      -7.545   9.911  -1.503  1.00  0.00    -0.014 A 
BRANCH  45  46
ATOM     46  C   UNL     1      -7.391  10.198  -2.921  1.00  0.00     0.031 A 
ATOM     47  C   UNL     1      -6.565  11.327  -3.380  1.00  0.00     0.074 A 
ATOM     48  C   UNL     1      -7.936   9.356  -3.826  1.00  0.00     0.049 A 
ATOM     49  N   UNL     1      -6.719  11.915  -4.518  1.00  0.00    -0.248 NA
ATOM     50  C   UNL     1      -5.508  11.913  -2.563  1.00  0.00     0.031 C 
ATOM     51  C   UNL     1      -7.660   9.275  -5.257  1.00  0.00     0.029 A 
ATOM     52  N   UNL     1      -9.020   8.512  -3.649  1.00  0.00    -0.354 N 
ATOM     53  C   UNL     1      -5.615  12.708  -4.715  1.00  0.00     0.074 A 
ATOM     54  C   UNL     1      -4.943  12.750  -3.437  1.00  0.00     0.031 C 
ATOM     55  C   UNL     1      -8.671   8.628  -5.861  1.00  0.00     0.029 A 
ATOM     56  C   UNL     1      -9.706   8.411  -4.863  1.00  0.00     0.049 A 
ATOM     57  H   UNL     1      -9.267   8.061  -2.810  1.00  0.00     0.167 HD
ATOM     58  C   UNL     1      -5.293  13.110  -5.976  1.00  0.00     0.031 A 
ATOM     59  C   UNL     1     -10.994   8.855  -4.973  1.00  0.00     0.031 A 
ATOM     60  C   UNL     1      -6.265  12.645  -6.965  1.00  0.00     0.049 A 
ATOM     61  C   UNL     1     -11.158  10.004  -5.948  1.00  0.00     0.074 A 
ATOM     62  C   UNL     1      -6.253  11.602  -7.877  1.00  0.00     0.029 A 
ATOM     63  N   UNL     1      -7.579  13.091  -6.896  1.00  0.00    -0.354 N 
ATOM     64  N   UNL     1     -10.173  10.744  -6.378  1.00  0.00    -0.248 NA
ATOM     65  C   UNL     1     -12.445  10.430  -6.491  1.00  0.00     0.031 C 
ATOM     66  C   UNL     1      -7.583  11.393  -8.325  1.00  0.00     0.029 A 
ATOM     67  C   UNL     1      -8.395  12.323  -7.703  1.00  0.00     0.049 A 
ATOM     68  H   UNL     1      -7.886  13.850  -6.349  1.00  0.00     0.167 HD
ATOM     69  C   UNL     1     -10.651  11.709  -7.228  1.00  0.00     0.074 A 
ATOM     70  C   UNL     1     -12.081  11.465  -7.271  1.00  0.00     0.031 C 
ATOM     71  C   UNL     1      -9.819  12.623  -7.811  1.00  0.00     0.031 A 
BRANCH  58  72
ATOM     72  C   UNL     1      -3.929  13.648  -6.333  1.00  0.00    -0.014 A 
ATOM     73  C   UNL     1      -3.394  13.400  -7.611  1.00  0.00     0.009 A 
ATOM     74  C   UNL     1      -3.103  14.357  -5.445  1.00  0.00     0.009 A 
ATOM     75  C   UNL     1      -2.076  13.739  -7.943  1.00  0.00     0.001 A 
ATOM     76  C   UNL     1      -1.770  14.661  -5.754  1.00  0.00     0.001 A 
ATOM     77  C   UNL     1      -1.252  14.340  -7.001  1.00  0.00     0.000 A 
ENDBRANCH  58  72
BRANCH  59  78
ATOM     78  C   UNL     1     -11.786   8.685  -3.720  1.00  0.00    -0.014 A 
ATOM     79  C   UNL     1     -12.050   7.372  -3.278  1.00  0.00     0.009 A 
ATOM     80  C   UNL     1     -11.924   9.739  -2.806  1.00  0.00     0.009 A 
ATOM     81  C   UNL     1     -12.317   7.109  -1.931  1.00  0.00     0.001 A 
ATOM     82  C   UNL     1     -12.209   9.471  -1.460  1.00  0.00     0.001 A 
ATOM     83  C   UNL     1     -12.365   8.158  -1.017  1.00  0.00     0.000 A 
ENDBRANCH  59  78
BRANCH  71  84
ATOM     84  C   UNL     1     -10.215  13.854  -8.598  1.00  0.00    -0.014 A 
ATOM     85  C   UNL     1     -11.492  14.424  -8.611  1.00  0.00     0.009 A 
ATOM     86  C   UNL     1      -9.206  14.566  -9.293  1.00  0.00     0.009 A 
ATOM     87  C   UNL     1     -11.754  15.618  -9.303  1.00  0.00     0.001 A 
ATOM     88  C   UNL     1      -9.450  15.778  -9.944  1.00  0.00     0.001 A 
ATOM     89  C   UNL     1     -10.733  16.300  -9.957  1.00  0.00     0.000 A 
ENDBRANCH  71  84
ENDBRANCH  45  46
ENDBRANCH  37  40
ENDBRANCH  35  36
ENDBRANCH  34  35
ENDBRANCH  33  34
ENDBRANCH   1  33
TORSDOF 17
