REMARK SMILES O=C(NCCCCNC(=O)c1ccc(Cl)cc1-c1ccc(C(F)(F)F)cc1)c1ccc(-c2c3nc(c(-c4ccccc4)c4ccc([nH]4)c(-c4ccccc4)c4nc(c(-c5ccccc5)c5ccc2[nH]5)C=C4)C=C3)cc1
REMARK SMILES IDX 5 1 4 2 3 3 1 4 2 5 28 7 29 8 75 9 30 10 74 11 31 12 32 13
REMARK SMILES IDX 33 14 68 15 34 16 73 17 67 18 69 19 35 20 72 21 66 22 65 23
REMARK SMILES IDX 36 25 58 26 43 27 57 28 44 29 47 30 56 31 70 32 45 33 46 34
REMARK SMILES IDX 55 36 71 37 48 38 37 39 38 40 42 41 39 42 41 43 40 44 59 45
REMARK SMILES IDX 60 46 64 47 61 48 63 49 62 50 49 51 50 52 54 53 51 54 53 55
REMARK SMILES IDX 52 56 6 57 7 58 8 59 9 60 10 62 11 63 12 64 17 65 13 66
REMARK SMILES IDX 16 67 14 68 15 69 18 70 19 71 27 72 20 73 26 74 21 75 22 76
REMARK SMILES IDX 23 77 24 78 25 79
REMARK H PARENT 3 6 69 24 47 35 8 61
REMARK Flexibility Score: inf
ROOT
ATOM      1  C   UNL     1       4.991   2.602   0.108  1.00  0.00     0.023 C 
ENDROOT
BRANCH   1   2
ATOM      2  C   UNL     1       4.609   1.198   0.558  1.00  0.00     0.116 C 
BRANCH   2   3
ATOM      3  N   UNL     1       3.172   0.981   0.589  1.00  0.00    -0.352 N 
ATOM      4  O   UNL     1       1.210   0.022   0.017  1.00  0.00    -0.269 OA
ATOM      5  C   UNL     1       2.437  -0.017  -0.002  1.00  0.00     0.251 C 
ATOM      6  H   UNL     1       2.654   1.641   1.106  1.00  0.00     0.163 HD
BRANCH   5   7
ATOM      7  C   UNL     1       3.129  -1.131  -0.684  1.00  0.00     0.039 A 
ATOM      8  C   UNL     1       4.205  -1.780  -0.072  1.00  0.00     0.014 A 
ATOM      9  C   UNL     1       2.687  -1.539  -1.946  1.00  0.00     0.014 A 
ATOM     10  C   UNL     1       4.913  -2.752  -0.769  1.00  0.00     0.010 A 
ATOM     11  C   UNL     1       3.351  -2.573  -2.613  1.00  0.00     0.010 A 
ATOM     12  C   UNL     1       4.477  -3.177  -2.034  1.00  0.00    -0.014 A 
BRANCH  12  13
ATOM     13  C   UNL     1       5.142  -4.337  -2.675  1.00  0.00     0.031 A 
ATOM     14  C   UNL     1       5.924  -4.195  -3.949  1.00  0.00     0.074 A 
ATOM     15  C   UNL     1       5.030  -5.539  -2.075  1.00  0.00     0.049 A 
ATOM     16  N   UNL     1       6.563  -5.118  -4.622  1.00  0.00    -0.248 NA
ATOM     17  C   UNL     1       5.997  -2.854  -4.549  1.00  0.00     0.031 C 
ATOM     18  C   UNL     1       4.280  -5.798  -0.841  1.00  0.00     0.029 A 
ATOM     19  N   UNL     1       5.549  -6.762  -2.409  1.00  0.00    -0.354 N 
ATOM     20  C   UNL     1       7.097  -4.478  -5.734  1.00  0.00     0.074 A 
ATOM     21  C   UNL     1       6.698  -3.089  -5.652  1.00  0.00     0.031 C 
ATOM     22  C   UNL     1       4.417  -7.088  -0.505  1.00  0.00     0.029 A 
ATOM     23  C   UNL     1       5.206  -7.760  -1.530  1.00  0.00     0.049 A 
ATOM     24  H   UNL     1       6.112  -6.911  -3.203  1.00  0.00     0.167 HD
ATOM     25  C   UNL     1       7.850  -5.007  -6.728  1.00  0.00     0.031 A 
ATOM     26  C   UNL     1       5.471  -9.078  -1.556  1.00  0.00     0.031 A 
ATOM     27  C   UNL     1       8.251  -6.388  -6.798  1.00  0.00     0.049 A 
ATOM     28  C   UNL     1       6.277  -9.634  -2.691  1.00  0.00     0.074 A 
ATOM     29  C   UNL     1       9.068  -7.001  -7.733  1.00  0.00     0.029 A 
ATOM     30  N   UNL     1       7.854  -7.374  -5.908  1.00  0.00    -0.354 N 
ATOM     31  N   UNL     1       6.828  -9.001  -3.697  1.00  0.00    -0.248 NA
ATOM     32  C   UNL     1       6.490 -11.087  -2.697  1.00  0.00     0.031 C 
ATOM     33  C   UNL     1       9.118  -8.368  -7.442  1.00  0.00     0.029 A 
ATOM     34  C   UNL     1       8.374  -8.597  -6.297  1.00  0.00     0.049 A 
ATOM     35  H   UNL     1       7.287  -7.226  -5.117  1.00  0.00     0.167 HD
ATOM     36  C   UNL     1       7.458  -9.977  -4.454  1.00  0.00     0.074 A 
ATOM     37  C   UNL     1       7.248 -11.239  -3.774  1.00  0.00     0.031 C 
ATOM     38  C   UNL     1       8.142  -9.843  -5.616  1.00  0.00     0.031 A 
BRANCH  25  39
ATOM     39  C   UNL     1       8.280  -4.102  -7.848  1.00  0.00    -0.014 A 
ATOM     40  C   UNL     1       9.317  -3.173  -7.678  1.00  0.00     0.009 A 
ATOM     41  C   UNL     1       7.706  -4.256  -9.121  1.00  0.00     0.009 A 
ATOM     42  C   UNL     1       9.761  -2.406  -8.759  1.00  0.00     0.001 A 
ATOM     43  C   UNL     1       8.165  -3.503 -10.203  1.00  0.00     0.001 A 
ATOM     44  C   UNL     1       9.190  -2.577 -10.021  1.00  0.00     0.000 A 
ENDBRANCH  25  39
BRANCH  26  45
ATOM     45  C   UNL     1       4.924  -9.966  -0.498  1.00  0.00    -0.014 A 
ATOM     46  C   UNL     1       5.772 -10.585   0.431  1.00  0.00     0.009 A 
ATOM     47  C   UNL     1       3.542 -10.201  -0.420  1.00  0.00     0.009 A 
ATOM     48  C   UNL     1       5.249 -11.443   1.400  1.00  0.00     0.001 A 
ATOM     49  C   UNL     1       3.019 -11.034   0.570  1.00  0.00     0.001 A 
ATOM     50  C   UNL     1       3.874 -11.663   1.472  1.00  0.00     0.000 A 
ENDBRANCH  26  45
BRANCH  38  51
ATOM     51  C   UNL     1       8.710 -11.096  -6.215  1.00  0.00    -0.014 A 
ATOM     52  C   UNL     1       7.876 -12.037  -6.839  1.00  0.00     0.009 A 
ATOM     53  C   UNL     1      10.092 -11.328  -6.173  1.00  0.00     0.009 A 
ATOM     54  C   UNL     1       8.415 -13.204  -7.382  1.00  0.00     0.001 A 
ATOM     55  C   UNL     1      10.631 -12.482  -6.741  1.00  0.00     0.001 A 
ATOM     56  C   UNL     1       9.792 -13.424  -7.336  1.00  0.00     0.000 A 
ENDBRANCH  38  51
ENDBRANCH  12  13
ENDBRANCH   5   7
ENDBRANCH   2   3
ENDBRANCH   1   2
BRANCH   1  57
ATOM     57  C   UNL     1       4.499   3.732   1.008  1.00  0.00     0.023 C 
BRANCH  57  58
ATOM     58  C   UNL     1       4.836   3.582   2.487  1.00  0.00     0.116 C 
BRANCH  58  59
ATOM     59  N   UNL     1       6.266   3.511   2.745  1.00  0.00    -0.352 N 
ATOM     60  C   UNL     1       7.031   4.289   3.583  1.00  0.00     0.251 C 
ATOM     61  H   UNL     1       6.753   2.811   2.252  1.00  0.00     0.163 HD
ATOM     62  O   UNL     1       8.232   4.082   3.709  1.00  0.00    -0.269 OA
BRANCH  60  63
ATOM     63  C   UNL     1       6.366   5.372   4.339  1.00  0.00     0.047 A 
ATOM     64  C   UNL     1       5.406   4.990   5.295  1.00  0.00     0.016 A 
ATOM     65  C   UNL     1       6.660   6.729   4.101  1.00  0.00    -0.004 A 
ATOM     66  C   UNL     1       4.658   5.958   5.958  1.00  0.00     0.021 A 
ATOM     67  C   UNL     1       5.882   7.686   4.782  1.00  0.00     0.030 A 
ATOM     68  C   UNL     1       4.886   7.302   5.684  1.00  0.00     0.041 A 
ATOM     69  Cl  UNL     1       3.934   8.503   6.466  1.00  0.00    -0.084 Cl
BRANCH  65  70
ATOM     70  C   UNL     1       7.746   7.190   3.216  1.00  0.00    -0.018 A 
ATOM     71  C   UNL     1       8.810   7.938   3.752  1.00  0.00     0.009 A 
ATOM     72  C   UNL     1       7.763   6.916   1.841  1.00  0.00     0.009 A 
ATOM     73  C   UNL     1       9.857   8.391   2.945  1.00  0.00     0.014 A 
ATOM     74  C   UNL     1       8.815   7.364   1.030  1.00  0.00     0.014 A 
ATOM     75  C   UNL     1       9.874   8.104   1.575  1.00  0.00     0.056 A 
BRANCH  75  76
ATOM     76  C   UNL     1      11.018   8.594   0.721  1.00  0.00     0.416 C 
ATOM     77  F   UNL     1      11.080   9.954   0.671  1.00  0.00    -0.166 F 
ATOM     78  F   UNL     1      12.232   8.183   1.182  1.00  0.00    -0.166 F 
ATOM     79  F   UNL     1      10.950   8.178  -0.575  1.00  0.00    -0.166 F 
ENDBRANCH  75  76
ENDBRANCH  65  70
ENDBRANCH  60  63
ENDBRANCH  58  59
ENDBRANCH  57  58
ENDBRANCH   1  57
TORSDOF 13
