REMARK SMILES C[C@@H]1C(C(=O)NCCCCNC(=O)c2ccc(-c3c4nc(c(-c5ccccc5)c5ccc([nH]5)c(-c5ccccc5)c5nc(c(-c6ccccc6)c6ccc3[nH]6)C=C5)C=C4)cc2)=NC2=C1C(=O)C[C@H](c1ccccc1)C2
REMARK SMILES IDX 9 1 8 2 7 3 6 4 4 5 5 6 3 8 1 9 2 10 64 11 62 12 63 13 65 14
REMARK SMILES IDX 75 15 66 16 67 17 68 18 69 19 70 20 74 21 71 22 73 23 72 24
REMARK SMILES IDX 10 25 11 26 12 27 13 29 14 30 15 31 61 32 16 33 60 34 17 35
REMARK SMILES IDX 18 36 19 37 54 38 20 39 59 40 53 41 55 42 21 43 58 44 52 45
REMARK SMILES IDX 51 46 22 48 44 49 29 50 43 51 30 52 33 53 42 54 56 55 31 56
REMARK SMILES IDX 32 57 41 59 57 60 34 61 23 62 24 63 28 64 25 65 27 66 26 67
REMARK SMILES IDX 45 68 46 69 50 70 47 71 49 72 48 73 35 74 36 75 40 76 37 77
REMARK SMILES IDX 39 78 38 79
REMARK H PARENT 6 7 11 28 55 47 33 58
REMARK Flexibility Score: inf
ROOT
ATOM      1  C   UNL     1      -0.602  -1.010  -4.078  1.00  0.00     0.023 C 
ENDROOT
BRANCH   1   2
ATOM      2  C   UNL     1       0.116  -1.614  -2.874  1.00  0.00     0.023 C 
BRANCH   2   3
ATOM      3  C   UNL     1       0.319  -0.790  -1.599  1.00  0.00     0.116 C 
BRANCH   3   4
ATOM      4  N   UNL     1      -0.844  -0.295  -0.882  1.00  0.00    -0.351 N 
ATOM      5  C   UNL     1      -0.977   0.016   0.472  1.00  0.00     0.266 C 
ATOM      6  O   UNL     1      -1.822   0.841   0.810  1.00  0.00    -0.268 OA
ATOM      7  H   UNL     1      -1.651  -0.161  -1.428  1.00  0.00     0.163 HD
BRANCH   5   8
ATOM      8  C   UNL     1      -0.230  -0.758   1.564  1.00  0.00     0.113 C 
ATOM      9  C   UNL     1       2.025  -0.178   2.468  1.00  0.00     0.020 C 
ATOM     10  C   UNL     1       1.238  -1.087   1.521  1.00  0.00     0.076 C 
ATOM     11  C   UNL     1       0.980  -2.433   2.120  1.00  0.00     0.026 C 
ATOM     12  N   UNL     1      -0.860  -1.279   2.591  1.00  0.00    -0.251 NA
ATOM     13  C   UNL     1      -0.081  -2.368   2.932  1.00  0.00     0.049 C 
ATOM     14  C   UNL     1       1.076  -3.688   1.336  1.00  0.00     0.161 C 
ATOM     15  C   UNL     1      -0.705  -3.623   3.471  1.00  0.00     0.065 C 
ATOM     16  O   UNL     1       2.071  -3.874   0.636  1.00  0.00    -0.294 OA
ATOM     17  C   UNL     1      -0.127  -4.660   1.292  1.00  0.00     0.089 C 
ATOM     18  C   UNL     1      -1.312  -4.384   2.278  1.00  0.00     0.033 C 
BRANCH  18  19
ATOM     19  C   UNL     1      -2.561  -3.683   1.703  1.00  0.00    -0.044 A 
ATOM     20  C   UNL     1      -3.352  -2.841   2.516  1.00  0.00     0.004 A 
ATOM     21  C   UNL     1      -2.968  -3.831   0.371  1.00  0.00     0.004 A 
ATOM     22  C   UNL     1      -4.367  -2.041   1.990  1.00  0.00     0.000 A 
ATOM     23  C   UNL     1      -4.012  -3.054  -0.153  1.00  0.00     0.000 A 
ATOM     24  C   UNL     1      -4.683  -2.131   0.645  1.00  0.00     0.000 A 
ENDBRANCH  18  19
ENDBRANCH   5   8
ENDBRANCH   3   4
ENDBRANCH   2   3
ENDBRANCH   1   2
BRANCH   1  25
ATOM     25  C   UNL     1      -0.112   0.355  -4.523  1.00  0.00     0.116 C 
BRANCH  25  26
ATOM     26  N   UNL     1       1.268   0.392  -5.006  1.00  0.00    -0.352 N 
ATOM     27  C   UNL     1       1.905   1.454  -5.639  1.00  0.00     0.251 C 
ATOM     28  H   UNL     1       1.804  -0.423  -4.870  1.00  0.00     0.163 HD
ATOM     29  O   UNL     1       2.934   1.298  -6.272  1.00  0.00    -0.269 OA
BRANCH  27  30
ATOM     30  C   UNL     1       1.300   2.797  -5.516  1.00  0.00     0.039 A 
ATOM     31  C   UNL     1       1.204   3.674  -6.601  1.00  0.00     0.014 A 
ATOM     32  C   UNL     1       0.776   3.144  -4.275  1.00  0.00     0.014 A 
ATOM     33  C   UNL     1       0.493   4.863  -6.441  1.00  0.00     0.010 A 
ATOM     34  C   UNL     1      -0.065   4.217  -4.167  1.00  0.00     0.010 A 
ATOM     35  C   UNL     1      -0.158   5.115  -5.223  1.00  0.00    -0.014 A 
BRANCH  35  36
ATOM     36  C   UNL     1      -1.051   6.253  -5.050  1.00  0.00     0.031 A 
ATOM     37  C   UNL     1      -2.202   6.276  -5.992  1.00  0.00     0.074 A 
ATOM     38  C   UNL     1      -0.991   7.056  -3.964  1.00  0.00     0.049 A 
ATOM     39  N   UNL     1      -2.437   7.137  -6.925  1.00  0.00    -0.248 NA
ATOM     40  C   UNL     1      -3.131   5.131  -5.993  1.00  0.00     0.031 C 
ATOM     41  C   UNL     1      -0.114   6.930  -2.791  1.00  0.00     0.029 A 
ATOM     42  N   UNL     1      -1.803   8.087  -3.610  1.00  0.00    -0.354 N 
ATOM     43  C   UNL     1      -3.654   6.768  -7.491  1.00  0.00     0.074 A 
ATOM     44  C   UNL     1      -3.929   5.436  -7.018  1.00  0.00     0.031 C 
ATOM     45  C   UNL     1      -0.603   7.674  -1.774  1.00  0.00     0.029 A 
ATOM     46  C   UNL     1      -1.716   8.459  -2.271  1.00  0.00     0.049 A 
ATOM     47  H   UNL     1      -2.403   8.535  -4.248  1.00  0.00     0.167 HD
ATOM     48  C   UNL     1      -4.463   7.692  -8.082  1.00  0.00     0.031 A 
ATOM     49  C   UNL     1      -2.519   9.331  -1.612  1.00  0.00     0.031 A 
ATOM     50  C   UNL     1      -3.759   8.928  -8.318  1.00  0.00     0.049 A 
ATOM     51  C   UNL     1      -3.204  10.154  -2.634  1.00  0.00     0.074 A 
ATOM     52  C   UNL     1      -2.645   9.295  -9.045  1.00  0.00     0.029 A 
ATOM     53  N   UNL     1      -3.969   9.937  -7.408  1.00  0.00    -0.354 N 
ATOM     54  N   UNL     1      -2.581  11.001  -3.401  1.00  0.00    -0.248 NA
ATOM     55  C   UNL     1      -4.493   9.696  -3.124  1.00  0.00     0.031 C 
ATOM     56  C   UNL     1      -1.972  10.248  -8.224  1.00  0.00     0.029 A 
ATOM     57  C   UNL     1      -2.751  10.476  -7.088  1.00  0.00     0.049 A 
ATOM     58  H   UNL     1      -4.840  10.222  -7.049  1.00  0.00     0.167 HD
ATOM     59  C   UNL     1      -3.155  10.825  -4.652  1.00  0.00     0.074 A 
ATOM     60  C   UNL     1      -4.395  10.091  -4.397  1.00  0.00     0.031 C 
ATOM     61  C   UNL     1      -2.430  11.030  -5.791  1.00  0.00     0.031 A 
BRANCH  48  62
ATOM     62  C   UNL     1      -5.974   7.647  -8.026  1.00  0.00    -0.014 A 
ATOM     63  C   UNL     1      -6.696   8.686  -8.644  1.00  0.00     0.009 A 
ATOM     64  C   UNL     1      -6.699   6.810  -7.158  1.00  0.00     0.009 A 
ATOM     65  C   UNL     1      -8.038   8.931  -8.331  1.00  0.00     0.001 A 
ATOM     66  C   UNL     1      -8.050   7.026  -6.875  1.00  0.00     0.001 A 
ATOM     67  C   UNL     1      -8.712   8.107  -7.437  1.00  0.00     0.000 A 
ENDBRANCH  48  62
BRANCH  49  68
ATOM     68  C   UNL     1      -2.938   9.341  -0.193  1.00  0.00    -0.014 A 
ATOM     69  C   UNL     1      -3.472  10.500   0.395  1.00  0.00     0.009 A 
ATOM     70  C   UNL     1      -3.080   8.130   0.508  1.00  0.00     0.009 A 
ATOM     71  C   UNL     1      -4.157  10.441   1.617  1.00  0.00     0.001 A 
ATOM     72  C   UNL     1      -3.765   8.070   1.728  1.00  0.00     0.001 A 
ATOM     73  C   UNL     1      -4.317   9.223   2.275  1.00  0.00     0.000 A 
ENDBRANCH  49  68
BRANCH  61  74
ATOM     74  C   UNL     1      -1.072  11.678  -5.658  1.00  0.00    -0.014 A 
ATOM     75  C   UNL     1      -0.006  11.110  -4.935  1.00  0.00     0.009 A 
ATOM     76  C   UNL     1      -0.818  12.829  -6.418  1.00  0.00     0.009 A 
ATOM     77  C   UNL     1       1.265  11.696  -4.953  1.00  0.00     0.001 A 
ATOM     78  C   UNL     1       0.455  13.400  -6.454  1.00  0.00     0.001 A 
ATOM     79  C   UNL     1       1.495  12.838  -5.717  1.00  0.00     0.000 A 
ENDBRANCH  61  74
ENDBRANCH  35  36
ENDBRANCH  27  30
ENDBRANCH  25  26
ENDBRANCH   1  25
TORSDOF 12
