REMARK SMILES Cc1c(C(=O)NCCCCNC(=O)c2ccc(-c3c4nc(c(-c5ccccc5)c5ccc([nH]5)c(-c5ccccc5)c5nc(c(-c6ccccc6)c6ccc3[nH]6)C=C5)C=C4)cc2)sc2nc3n(c(=O)c12)CC/C3=C\c1ccc(OC(F)F)cc1
REMARK SMILES IDX 8 1 7 2 6 3 4 4 5 5 3 7 1 8 2 9 69 10 62 11 63 12 67 13
REMARK SMILES IDX 64 14 66 15 68 16 65 17 70 18 72 19 71 20 73 21 74 22 75 23
REMARK SMILES IDX 83 24 76 25 82 26 77 27 78 28 79 29 80 30 81 31 9 32 10 33
REMARK SMILES IDX 11 34 12 35 13 37 14 38 15 39 61 40 16 41 60 42 17 43 18 44
REMARK SMILES IDX 19 45 54 46 20 47 59 48 53 49 55 50 21 51 58 52 52 53 51 54
REMARK SMILES IDX 22 56 44 57 29 58 43 59 30 60 33 61 42 62 56 63 31 64 32 65
REMARK SMILES IDX 41 67 57 68 34 69 23 70 24 71 28 72 25 73 27 74 26 75 45 76
REMARK SMILES IDX 46 77 50 78 47 79 49 80 48 81 35 82 36 83 40 84 37 85 39 86
REMARK SMILES IDX 38 87
REMARK H PARENT 6 6 11 36 55 55 33 66
REMARK Flexibility Score: inf
ROOT
ATOM      1  C   UNL     1       0.689   1.595  -2.286  1.00  0.00     0.023 C 
ENDROOT
BRANCH   1   2
ATOM      2  C   UNL     1       1.740   1.974  -1.230  1.00  0.00     0.116 C 
BRANCH   2   3
ATOM      3  N   UNL     1       1.177   2.750  -0.138  1.00  0.00    -0.351 N 
ATOM      4  C   UNL     1       0.679   2.486   1.121  1.00  0.00     0.261 C 
ATOM      5  O   UNL     1       0.439   3.531   1.744  1.00  0.00    -0.268 OA
ATOM      6  H   UNL     1       1.142   3.711  -0.352  1.00  0.00     0.163 HD
BRANCH   4   7
ATOM      7  C   UNL     1       0.450   1.154   1.712  1.00  0.00     0.098 A 
ATOM      8  C   UNL     1       0.402  -0.656  -0.154  1.00  0.00     0.047 C 
ATOM      9  C   UNL     1       0.376  -0.158   1.244  1.00  0.00    -0.012 A 
ATOM     10  C   UNL     1       0.147  -1.096   2.311  1.00  0.00     0.081 A 
ATOM     11  S   UNL     1       0.051   1.165   3.428  1.00  0.00    -0.110 S 
ATOM     12  C   UNL     1      -0.187  -0.516   3.513  1.00  0.00     0.132 A 
ATOM     13  C   UNL     1       0.086  -2.539   2.217  1.00  0.00     0.262 A 
ATOM     14  N   UNL     1      -0.663  -1.160   4.628  1.00  0.00    -0.219 NA
ATOM     15  N   UNL     1      -0.557  -3.110   3.279  1.00  0.00    -0.292 N 
ATOM     16  O   UNL     1       0.566  -3.189   1.289  1.00  0.00    -0.269 OA
ATOM     17  C   UNL     1      -0.862  -2.426   4.450  1.00  0.00     0.140 A 
ATOM     18  C   UNL     1      -0.887  -4.501   3.285  1.00  0.00     0.132 C 
ATOM     19  C   UNL     1      -1.404  -3.462   5.376  1.00  0.00    -0.002 C 
ATOM     20  C   UNL     1      -1.457  -4.784   4.648  1.00  0.00     0.061 C 
ATOM     21  C   UNL     1      -1.755  -3.261   6.656  1.00  0.00     0.015 C 
BRANCH  21  22
ATOM     22  C   UNL     1      -2.198  -4.407   7.465  1.00  0.00    -0.025 A 
ATOM     23  C   UNL     1      -3.541  -4.570   7.806  1.00  0.00     0.012 A 
ATOM     24  C   UNL     1      -1.293  -5.434   7.767  1.00  0.00     0.012 A 
ATOM     25  C   UNL     1      -3.973  -5.770   8.387  1.00  0.00     0.047 A 
ATOM     26  C   UNL     1      -1.732  -6.642   8.317  1.00  0.00     0.047 A 
ATOM     27  C   UNL     1      -3.079  -6.822   8.621  1.00  0.00     0.126 A 
BRANCH  27  28
ATOM     28  O   UNL     1      -3.643  -7.955   9.135  1.00  0.00    -0.435 OA
BRANCH  28  29
ATOM     29  C   UNL     1      -2.821  -9.107   9.284  1.00  0.00     0.542 C 
ATOM     30  F   UNL     1      -2.306  -9.470   8.084  1.00  0.00    -0.167 F 
ATOM     31  F   UNL     1      -1.793  -8.842  10.125  1.00  0.00    -0.167 F 
ENDBRANCH  28  29
ENDBRANCH  27  28
ENDBRANCH  21  22
ENDBRANCH   4   7
ENDBRANCH   2   3
ENDBRANCH   1   2
BRANCH   1  32
ATOM     32  C   UNL     1       0.655   2.402  -3.585  1.00  0.00     0.023 C 
BRANCH  32  33
ATOM     33  C   UNL     1       1.828   2.152  -4.525  1.00  0.00     0.116 C 
BRANCH  33  34
ATOM     34  N   UNL     1       1.930   0.764  -4.982  1.00  0.00    -0.352 N 
ATOM     35  C   UNL     1       3.026   0.142  -5.552  1.00  0.00     0.251 C 
ATOM     36  H   UNL     1       1.124   0.209  -4.871  1.00  0.00     0.163 HD
ATOM     37  O   UNL     1       2.907  -0.859  -6.246  1.00  0.00    -0.269 OA
BRANCH  35  38
ATOM     38  C   UNL     1       4.355   0.721  -5.300  1.00  0.00     0.039 A 
ATOM     39  C   UNL     1       5.252   0.954  -6.342  1.00  0.00     0.014 A 
ATOM     40  C   UNL     1       4.641   1.126  -3.998  1.00  0.00     0.014 A 
ATOM     41  C   UNL     1       6.395   1.704  -6.080  1.00  0.00     0.010 A 
ATOM     42  C   UNL     1       5.692   1.985  -3.775  1.00  0.00     0.010 A 
ATOM     43  C   UNL     1       6.592   2.257  -4.800  1.00  0.00    -0.014 A 
BRANCH  43  44
ATOM     44  C   UNL     1       7.671   3.219  -4.577  1.00  0.00     0.031 A 
ATOM     45  C   UNL     1       7.754   4.309  -5.586  1.00  0.00     0.074 A 
ATOM     46  C   UNL     1       8.453   3.257  -3.476  1.00  0.00     0.049 A 
ATOM     47  N   UNL     1       8.641   4.435  -6.515  1.00  0.00    -0.248 NA
ATOM     48  C   UNL     1       6.672   5.305  -5.654  1.00  0.00     0.031 C 
ATOM     49  C   UNL     1       8.320   2.470  -2.244  1.00  0.00     0.029 A 
ATOM     50  N   UNL     1       9.492   4.093  -3.185  1.00  0.00    -0.354 N 
ATOM     51  C   UNL     1       8.363   5.641  -7.148  1.00  0.00     0.074 A 
ATOM     52  C   UNL     1       7.053   6.041  -6.702  1.00  0.00     0.031 C 
ATOM     53  C   UNL     1       9.063   3.028  -1.264  1.00  0.00     0.029 A 
ATOM     54  C   UNL     1       9.882   4.070  -1.853  1.00  0.00     0.049 A 
ATOM     55  H   UNL     1       9.927   4.662  -3.861  1.00  0.00     0.167 HD
ATOM     56  C   UNL     1       9.355   6.351  -7.755  1.00  0.00     0.031 A 
ATOM     57  C   UNL     1      10.831   4.835  -1.269  1.00  0.00     0.031 A 
ATOM     58  C   UNL     1      10.566   5.578  -7.856  1.00  0.00     0.049 A 
ATOM     59  C   UNL     1      11.775   5.251  -2.323  1.00  0.00     0.074 A 
ATOM     60  C   UNL     1      11.056   4.553  -8.632  1.00  0.00     0.029 A 
ATOM     61  N   UNL     1      11.344   5.648  -6.731  1.00  0.00    -0.354 N 
ATOM     62  N   UNL     1      12.540   4.415  -2.964  1.00  0.00    -0.248 NA
ATOM     63  C   UNL     1      11.677   6.585  -2.901  1.00  0.00     0.031 C 
ATOM     64  C   UNL     1      12.042   3.891  -7.838  1.00  0.00     0.029 A 
ATOM     65  C   UNL     1      12.153   4.551  -6.616  1.00  0.00     0.049 A 
ATOM     66  H   UNL     1      11.323   6.393  -6.087  1.00  0.00     0.167 HD
ATOM     67  C   UNL     1      12.648   4.961  -4.226  1.00  0.00     0.074 A 
ATOM     68  C   UNL     1      12.278   6.362  -4.073  1.00  0.00     0.031 C 
ATOM     69  C   UNL     1      12.697   4.165  -5.332  1.00  0.00     0.031 A 
BRANCH  56  70
ATOM     70  C   UNL     1       9.424   7.862  -7.779  1.00  0.00    -0.014 A 
ATOM     71  C   UNL     1      10.479   8.475  -8.482  1.00  0.00     0.009 A 
ATOM     72  C   UNL     1       8.694   8.681  -6.898  1.00  0.00     0.009 A 
ATOM     73  C   UNL     1      10.812   9.820  -8.276  1.00  0.00     0.001 A 
ATOM     74  C   UNL     1       9.002  10.034  -6.716  1.00  0.00     0.001 A 
ATOM     75  C   UNL     1      10.076  10.598  -7.389  1.00  0.00     0.000 A 
ENDBRANCH  56  70
BRANCH  57  76
ATOM     76  C   UNL     1      10.876   5.414   0.088  1.00  0.00    -0.014 A 
ATOM     77  C   UNL     1      12.072   5.968   0.574  1.00  0.00     0.009 A 
ATOM     78  C   UNL     1       9.684   5.722   0.766  1.00  0.00     0.009 A 
ATOM     79  C   UNL     1      12.064   6.873   1.640  1.00  0.00     0.001 A 
ATOM     80  C   UNL     1       9.678   6.621   1.838  1.00  0.00     0.001 A 
ATOM     81  C   UNL     1      10.864   7.218   2.256  1.00  0.00     0.000 A 
ENDBRANCH  57  76
BRANCH  69  82
ATOM     82  C   UNL     1      13.160   2.749  -5.154  1.00  0.00    -0.014 A 
ATOM     83  C   UNL     1      12.456   1.782  -4.418  1.00  0.00     0.009 A 
ATOM     84  C   UNL     1      14.328   2.360  -5.825  1.00  0.00     0.009 A 
ATOM     85  C   UNL     1      12.924   0.466  -4.344  1.00  0.00     0.001 A 
ATOM     86  C   UNL     1      14.784   1.043  -5.768  1.00  0.00     0.001 A 
ATOM     87  C   UNL     1      14.084   0.097  -5.024  1.00  0.00     0.000 A 
ENDBRANCH  69  82
ENDBRANCH  43  44
ENDBRANCH  35  38
ENDBRANCH  33  34
ENDBRANCH  32  33
ENDBRANCH   1  32
TORSDOF 14
