REMARK SMILES CC(C)CCNC(=O)[C@@H](C)Oc1ccc(N)cc1C(=O)NCCCCNC(=O)c1ccc(-c2c3nc(c(-c4ccccc4)c4ccc([nH]4)c(-c4ccccc4)c4nc(c(-c5ccccc5)c5ccc2[nH]5)C=C4)C=C3)cc1
REMARK SMILES IDX 19 1 20 2 21 3 18 5 12 6 13 7 14 8 17 9 15 10 11 11 9 12
REMARK SMILES IDX 10 13 7 14 6 15 8 17 5 18 4 19 2 20 1 21 3 22 16 23 22 26
REMARK SMILES IDX 23 27 24 28 25 29 26 30 27 31 28 33 29 34 30 35 76 36 31 37
REMARK SMILES IDX 75 38 32 39 33 40 34 41 69 42 35 43 74 44 68 45 70 46 36 47
REMARK SMILES IDX 73 48 67 49 66 50 37 52 59 53 44 54 58 55 45 56 48 57 57 58
REMARK SMILES IDX 71 59 46 60 47 61 56 63 72 64 49 65 38 66 39 67 43 68 40 69
REMARK SMILES IDX 42 70 41 71 60 72 61 73 65 74 62 75 64 76 63 77 50 78 51 79
REMARK SMILES IDX 55 80 52 81 54 82 53 83
REMARK H PARENT 21 4 6 16 16 24 16 25 26 32 70 51 48 62
REMARK Flexibility Score: inf
ROOT
ATOM      1  C   UNL     1      -5.710  -1.207   1.003  1.00  0.00     0.255 C 
ATOM      2  O   UNL     1      -6.254  -1.013  -0.089  1.00  0.00    -0.269 OA
ATOM      3  N   UNL     1      -6.559  -1.278   2.075  1.00  0.00    -0.352 N 
ATOM      4  H   UNL     1      -7.500  -1.421   1.825  1.00  0.00     0.163 HD
ENDROOT
BRANCH   1   5
ATOM      5  C   UNL     1      -4.235  -1.459   1.028  1.00  0.00     0.083 A 
ATOM      6  C   UNL     1      -3.304  -1.225   2.047  1.00  0.00     0.133 A 
ATOM      7  C   UNL     1      -2.031  -1.800   1.954  1.00  0.00     0.049 A 
ATOM      8  C   UNL     1      -1.591  -2.375   0.758  1.00  0.00     0.029 A 
ATOM      9  C   UNL     1      -3.748  -2.007  -0.183  1.00  0.00     0.043 A 
ATOM     10  C   UNL     1      -2.417  -2.381  -0.357  1.00  0.00     0.032 A 
BRANCH   6  11
ATOM     11  O   UNL     1      -3.588  -0.514   3.170  1.00  0.00    -0.480 OA
BRANCH  11  12
ATOM     12  C   UNL     1      -3.015   0.793   3.310  1.00  0.00     0.258 C 
ATOM     13  C   UNL     1      -3.669   1.848   2.406  1.00  0.00     0.064 C 
BRANCH  12  14
ATOM     14  C   UNL     1      -1.496   1.026   3.544  1.00  0.00     0.260 C 
ATOM     15  N   UNL     1      -0.619   1.223   2.519  1.00  0.00    -0.353 N 
ATOM     16  H   UNL     1       0.251   1.608   2.771  1.00  0.00     0.163 HD
ATOM     17  O   UNL     1      -1.039   1.065   4.691  1.00  0.00    -0.271 OA
BRANCH  15  18
ATOM     18  C   UNL     1      -0.794   0.942   1.111  1.00  0.00     0.116 C 
BRANCH  18  19
ATOM     19  C   UNL     1      -0.215   2.008   0.196  1.00  0.00     0.024 C 
BRANCH  19  20
ATOM     20  C   UNL     1       1.318   1.971   0.052  1.00  0.00    -0.016 C 
ATOM     21  C   UNL     1       1.843   0.597  -0.379  1.00  0.00     0.007 C 
ATOM     22  C   UNL     1       1.742   3.024  -0.974  1.00  0.00     0.007 C 
ENDBRANCH  19  20
ENDBRANCH  18  19
ENDBRANCH  15  18
ENDBRANCH  12  14
ENDBRANCH  11  12
ENDBRANCH   6  11
BRANCH  10  23
ATOM     23  N   UNL     1      -1.978  -2.879  -1.571  1.00  0.00    -0.399 N 
ATOM     24  H   UNL     1      -1.036  -3.141  -1.685  1.00  0.00     0.156 HD
ATOM     25  H   UNL     1      -2.608  -2.972  -2.322  1.00  0.00     0.156 HD
ENDBRANCH  10  23
ENDBRANCH   1   5
BRANCH   3  26
ATOM     26  C   UNL     1      -6.347  -1.183   3.502  1.00  0.00     0.116 C 
BRANCH  26  27
ATOM     27  C   UNL     1      -6.340   0.297   3.896  1.00  0.00     0.023 C 
BRANCH  27  28
ATOM     28  C   UNL     1      -7.643   0.807   4.493  1.00  0.00     0.023 C 
BRANCH  28  29
ATOM     29  C   UNL     1      -7.910   0.270   5.887  1.00  0.00     0.116 C 
BRANCH  29  30
ATOM     30  N   UNL     1      -6.893   0.632   6.869  1.00  0.00    -0.352 N 
ATOM     31  C   UNL     1      -7.065   0.794   8.225  1.00  0.00     0.251 C 
ATOM     32  H   UNL     1      -5.982   0.775   6.524  1.00  0.00     0.163 HD
ATOM     33  O   UNL     1      -6.148   1.156   8.953  1.00  0.00    -0.269 OA
BRANCH  31  34
ATOM     34  C   UNL     1      -8.418   0.579   8.767  1.00  0.00     0.039 A 
ATOM     35  C   UNL     1      -9.053   1.631   9.427  1.00  0.00     0.014 A 
ATOM     36  C   UNL     1      -9.102  -0.598   8.458  1.00  0.00     0.014 A 
ATOM     37  C   UNL     1     -10.417   1.536   9.697  1.00  0.00     0.010 A 
ATOM     38  C   UNL     1     -10.476  -0.644   8.631  1.00  0.00     0.010 A 
ATOM     39  C   UNL     1     -11.147   0.421   9.253  1.00  0.00    -0.014 A 
BRANCH  39  40
ATOM     40  C   UNL     1     -12.616   0.337   9.430  1.00  0.00     0.031 A 
ATOM     41  C   UNL     1     -13.200  -0.776  10.252  1.00  0.00     0.074 A 
ATOM     42  C   UNL     1     -13.422   1.203   8.787  1.00  0.00     0.049 A 
ATOM     43  N   UNL     1     -14.456  -1.070  10.470  1.00  0.00    -0.248 NA
ATOM     44  C   UNL     1     -12.247  -1.708  10.879  1.00  0.00     0.031 C 
ATOM     45  C   UNL     1     -12.982   2.292   7.911  1.00  0.00     0.029 A 
ATOM     46  N   UNL     1     -14.791   1.301   8.774  1.00  0.00    -0.354 N 
ATOM     47  C   UNL     1     -14.440  -2.238  11.221  1.00  0.00     0.074 A 
ATOM     48  C   UNL     1     -13.057  -2.629  11.373  1.00  0.00     0.031 C 
ATOM     49  C   UNL     1     -14.057   2.978   7.488  1.00  0.00     0.029 A 
ATOM     50  C   UNL     1     -15.260   2.356   8.028  1.00  0.00     0.049 A 
ATOM     51  H   UNL     1     -15.381   0.675   9.253  1.00  0.00     0.167 HD
ATOM     52  C   UNL     1     -15.482  -2.914  11.759  1.00  0.00     0.031 A 
ATOM     53  C   UNL     1     -16.521   2.777   7.815  1.00  0.00     0.031 A 
ATOM     54  C   UNL     1     -16.852  -2.499  11.647  1.00  0.00     0.049 A 
ATOM     55  C   UNL     1     -17.660   2.028   8.447  1.00  0.00     0.074 A 
ATOM     56  C   UNL     1     -17.973  -3.057  12.233  1.00  0.00     0.029 A 
ATOM     57  N   UNL     1     -17.284  -1.416  10.898  1.00  0.00    -0.354 N 
ATOM     58  N   UNL     1     -17.626   0.972   9.222  1.00  0.00    -0.248 NA
ATOM     59  C   UNL     1     -19.012   2.538   8.179  1.00  0.00     0.031 C 
ATOM     60  C   UNL     1     -19.092  -2.332  11.807  1.00  0.00     0.029 A 
ATOM     61  C   UNL     1     -18.660  -1.299  10.990  1.00  0.00     0.049 A 
ATOM     62  H   UNL     1     -16.700  -0.818  10.378  1.00  0.00     0.167 HD
ATOM     63  C   UNL     1     -18.946   0.707   9.559  1.00  0.00     0.074 A 
ATOM     64  C   UNL     1     -19.756   1.718   8.910  1.00  0.00     0.031 C 
ATOM     65  C   UNL     1     -19.444  -0.284  10.338  1.00  0.00     0.031 A 
BRANCH  52  66
ATOM     66  C   UNL     1     -15.162  -4.173  12.514  1.00  0.00    -0.014 A 
ATOM     67  C   UNL     1     -14.493  -4.133  13.749  1.00  0.00     0.009 A 
ATOM     68  C   UNL     1     -15.523  -5.417  11.977  1.00  0.00     0.009 A 
ATOM     69  C   UNL     1     -14.147  -5.316  14.404  1.00  0.00     0.001 A 
ATOM     70  C   UNL     1     -15.203  -6.597  12.650  1.00  0.00     0.001 A 
ATOM     71  C   UNL     1     -14.504  -6.547  13.855  1.00  0.00     0.000 A 
ENDBRANCH  52  66
BRANCH  53  72
ATOM     72  C   UNL     1     -16.772   4.000   7.011  1.00  0.00    -0.014 A 
ATOM     73  C   UNL     1     -17.163   5.189   7.646  1.00  0.00     0.009 A 
ATOM     74  C   UNL     1     -16.622   3.991   5.616  1.00  0.00     0.009 A 
ATOM     75  C   UNL     1     -17.421   6.340   6.899  1.00  0.00     0.001 A 
ATOM     76  C   UNL     1     -16.860   5.151   4.873  1.00  0.00     0.001 A 
ATOM     77  C   UNL     1     -17.266   6.321   5.514  1.00  0.00     0.000 A 
ENDBRANCH  53  72
BRANCH  65  78
ATOM     78  C   UNL     1     -20.928  -0.300  10.558  1.00  0.00    -0.014 A 
ATOM     79  C   UNL     1     -21.808  -0.724   9.551  1.00  0.00     0.009 A 
ATOM     80  C   UNL     1     -21.448   0.072  11.808  1.00  0.00     0.009 A 
ATOM     81  C   UNL     1     -23.184  -0.749   9.784  1.00  0.00     0.001 A 
ATOM     82  C   UNL     1     -22.821   0.021  12.046  1.00  0.00     0.001 A 
ATOM     83  C   UNL     1     -23.688  -0.382  11.031  1.00  0.00     0.000 A 
ENDBRANCH  65  78
ENDBRANCH  39  40
ENDBRANCH  31  34
ENDBRANCH  29  30
ENDBRANCH  28  29
ENDBRANCH  27  28
ENDBRANCH  26  27
ENDBRANCH   3  26
TORSDOF 18
