REMARK SMILES COc1cccc(-c2c(C(=O)NCCCCNC(=O)c3ccc(-c4c5nc(c(-c6ccccc6)c6ccc([nH]6)c(-c6ccccc6)c6nc(c(-c7ccccc7)c7ccc4[nH]7)C=C6)C=C5)cc3)nnn2-c2ccc(OC(F)(F)F)cc2)c1
REMARK SMILES IDX 14 1 13 2 12 3 10 4 11 5 9 7 8 8 70 9 68 10 69 11 7 12 3 13
REMARK SMILES IDX 4 14 82 15 5 16 6 17 2 18 1 19 71 20 72 21 81 22 73 23 80 24
REMARK SMILES IDX 74 25 75 26 76 27 77 28 78 29 79 30 15 31 16 32 17 33 18 34
REMARK SMILES IDX 19 36 20 37 21 38 67 39 22 40 66 41 23 42 24 43 25 44 60 45
REMARK SMILES IDX 26 46 65 47 59 48 61 49 27 50 64 51 58 52 57 53 28 55 50 56
REMARK SMILES IDX 35 57 49 58 36 59 39 60 48 61 62 62 37 63 38 64 47 66 63 67
REMARK SMILES IDX 40 68 29 69 30 70 34 71 31 72 33 73 32 74 51 75 52 76 56 77
REMARK SMILES IDX 53 78 55 79 54 80 41 81 42 82 46 83 43 84 45 85 44 86
REMARK H PARENT 12 6 17 35 61 54 39 65
REMARK Flexibility Score: inf
ROOT
ATOM      1  C   UNL     1       1.116  -3.951  -3.047  1.00  0.00     0.023 C 
ENDROOT
BRANCH   1   2
ATOM      2  C   UNL     1       1.750  -4.926  -2.068  1.00  0.00     0.116 C 
BRANCH   2   3
ATOM      3  N   UNL     1       2.896  -5.675  -2.498  1.00  0.00    -0.351 N 
ATOM      4  C   UNL     1       4.150  -5.797  -1.927  1.00  0.00     0.274 C 
ATOM      5  O   UNL     1       4.895  -6.595  -2.506  1.00  0.00    -0.267 OA
ATOM      6  H   UNL     1       2.769  -6.183  -3.332  1.00  0.00     0.163 HD
BRANCH   4   7
ATOM      7  C   UNL     1       4.644  -5.040  -0.756  1.00  0.00     0.178 A 
ATOM      8  C   UNL     1       4.077  -4.420   0.365  1.00  0.00     0.108 A 
ATOM      9  N   UNL     1       5.178  -3.911   1.058  1.00  0.00    -0.212 N 
ATOM     10  N   UNL     1       6.014  -4.826  -0.700  1.00  0.00    -0.124 NA
ATOM     11  N   UNL     1       6.298  -4.051   0.331  1.00  0.00    -0.061 NA
BRANCH   8  12
ATOM     12  C   UNL     1       2.709  -4.078   0.771  1.00  0.00     0.006 A 
ATOM     13  C   UNL     1       0.963  -2.375   0.896  1.00  0.00     0.119 A 
ATOM     14  C   UNL     1       0.060  -3.364   1.290  1.00  0.00     0.046 A 
ATOM     15  C   UNL     1       2.288  -2.731   0.653  1.00  0.00     0.056 A 
ATOM     16  C   UNL     1       0.470  -4.693   1.433  1.00  0.00     0.005 A 
ATOM     17  C   UNL     1       1.795  -5.054   1.179  1.00  0.00     0.011 A 
BRANCH  13  18
ATOM     18  O   UNL     1       0.447  -1.113   0.812  1.00  0.00    -0.497 OA
ATOM     19  C   UNL     1       1.092  -0.204  -0.074  1.00  0.00     0.278 C 
ENDBRANCH  13  18
ENDBRANCH   8  12
BRANCH   9  20
ATOM     20  C   UNL     1       5.188  -3.242   2.307  1.00  0.00     0.067 A 
ATOM     21  C   UNL     1       6.004  -2.125   2.495  1.00  0.00     0.032 A 
ATOM     22  C   UNL     1       4.332  -3.662   3.331  1.00  0.00     0.032 A 
ATOM     23  C   UNL     1       5.889  -1.388   3.679  1.00  0.00     0.049 A 
ATOM     24  C   UNL     1       4.242  -2.936   4.518  1.00  0.00     0.049 A 
ATOM     25  C   UNL     1       5.004  -1.782   4.692  1.00  0.00     0.129 A 
BRANCH  25  26
ATOM     26  O   UNL     1       4.979  -0.964   5.785  1.00  0.00    -0.406 OA
BRANCH  26  27
ATOM     27  C   UNL     1       4.108  -1.322   6.847  1.00  0.00     0.573 C 
ATOM     28  F   UNL     1       2.821  -1.343   6.438  1.00  0.00    -0.132 F 
ATOM     29  F   UNL     1       4.437  -2.528   7.359  1.00  0.00    -0.132 F 
ATOM     30  F   UNL     1       4.220  -0.404   7.831  1.00  0.00    -0.132 F 
ENDBRANCH  26  27
ENDBRANCH  25  26
ENDBRANCH   9  20
ENDBRANCH   4   7
ENDBRANCH   2   3
ENDBRANCH   1   2
BRANCH   1  31
ATOM     31  C   UNL     1       0.129  -4.517  -4.059  1.00  0.00     0.023 C 
BRANCH  31  32
ATOM     32  C   UNL     1      -1.017  -5.320  -3.460  1.00  0.00     0.116 C 
BRANCH  32  33
ATOM     33  N   UNL     1      -1.904  -4.556  -2.584  1.00  0.00    -0.352 N 
ATOM     34  C   UNL     1      -3.077  -5.016  -2.001  1.00  0.00     0.251 C 
ATOM     35  H   UNL     1      -1.644  -3.627  -2.389  1.00  0.00     0.163 HD
ATOM     36  O   UNL     1      -3.937  -4.261  -1.588  1.00  0.00    -0.269 OA
BRANCH  34  37
ATOM     37  C   UNL     1      -3.231  -6.476  -1.865  1.00  0.00     0.039 A 
ATOM     38  C   UNL     1      -4.388  -7.143  -2.275  1.00  0.00     0.014 A 
ATOM     39  C   UNL     1      -2.129  -7.173  -1.372  1.00  0.00     0.014 A 
ATOM     40  C   UNL     1      -4.390  -8.537  -2.265  1.00  0.00     0.010 A 
ATOM     41  C   UNL     1      -2.083  -8.537  -1.492  1.00  0.00     0.010 A 
ATOM     42  C   UNL     1      -3.223  -9.226  -1.892  1.00  0.00    -0.014 A 
BRANCH  42  43
ATOM     43  C   UNL     1      -3.115 -10.671  -2.048  1.00  0.00     0.031 A 
ATOM     44  C   UNL     1      -3.319 -11.154  -3.441  1.00  0.00     0.074 A 
ATOM     45  C   UNL     1      -2.634 -11.477  -1.077  1.00  0.00     0.049 A 
ATOM     46  N   UNL     1      -4.313 -11.844  -3.889  1.00  0.00    -0.248 NA
ATOM     47  C   UNL     1      -2.387 -10.706  -4.491  1.00  0.00     0.031 C 
ATOM     48  C   UNL     1      -2.084 -11.100   0.232  1.00  0.00     0.029 A 
ATOM     49  N   UNL     1      -2.421 -12.820  -1.105  1.00  0.00    -0.354 N 
ATOM     50  C   UNL     1      -4.034 -12.102  -5.227  1.00  0.00     0.074 A 
ATOM     51  C   UNL     1      -2.943 -11.231  -5.585  1.00  0.00     0.031 C 
ATOM     52  C   UNL     1      -1.390 -12.138   0.751  1.00  0.00     0.029 A 
ATOM     53  C   UNL     1      -1.591 -13.299  -0.096  1.00  0.00     0.049 A 
ATOM     54  H   UNL     1      -2.823 -13.407  -1.786  1.00  0.00     0.167 HD
ATOM     55  C   UNL     1      -4.551 -13.195  -5.855  1.00  0.00     0.031 A 
ATOM     56  C   UNL     1      -1.089 -14.555   0.017  1.00  0.00     0.031 A 
ATOM     57  C   UNL     1      -5.592 -13.808  -5.067  1.00  0.00     0.049 A 
ATOM     58  C   UNL     1      -1.931 -15.439  -0.819  1.00  0.00     0.074 A 
ATOM     59  C   UNL     1      -6.815 -13.400  -4.575  1.00  0.00     0.029 A 
ATOM     60  N   UNL     1      -5.230 -14.908  -4.326  1.00  0.00    -0.354 N 
ATOM     61  N   UNL     1      -3.177 -15.700  -0.547  1.00  0.00    -0.248 NA
ATOM     62  C   UNL     1      -1.534 -15.649  -2.201  1.00  0.00     0.031 C 
ATOM     63  C   UNL     1      -6.887 -13.967  -3.268  1.00  0.00     0.029 A 
ATOM     64  C   UNL     1      -5.753 -14.757  -3.070  1.00  0.00     0.049 A 
ATOM     65  H   UNL     1      -4.691 -15.669  -4.643  1.00  0.00     0.167 HD
ATOM     66  C   UNL     1      -3.818 -15.649  -1.776  1.00  0.00     0.074 A 
ATOM     67  C   UNL     1      -2.743 -15.716  -2.767  1.00  0.00     0.031 C 
ATOM     68  C   UNL     1      -5.125 -15.262  -1.870  1.00  0.00     0.031 A 
BRANCH  55  69
ATOM     69  C   UNL     1      -3.840 -13.971  -6.937  1.00  0.00    -0.014 A 
ATOM     70  C   UNL     1      -4.498 -15.076  -7.510  1.00  0.00     0.009 A 
ATOM     71  C   UNL     1      -2.462 -13.853  -7.197  1.00  0.00     0.009 A 
ATOM     72  C   UNL     1      -3.798 -16.054  -8.224  1.00  0.00     0.001 A 
ATOM     73  C   UNL     1      -1.767 -14.807  -7.945  1.00  0.00     0.001 A 
ATOM     74  C   UNL     1      -2.429 -15.924  -8.432  1.00  0.00     0.000 A 
ENDBRANCH  55  69
BRANCH  56  75
ATOM     75  C   UNL     1       0.207 -15.012   0.569  1.00  0.00    -0.014 A 
ATOM     76  C   UNL     1       0.414 -16.364   0.892  1.00  0.00     0.009 A 
ATOM     77  C   UNL     1       1.337 -14.179   0.497  1.00  0.00     0.009 A 
ATOM     78  C   UNL     1       1.707 -16.871   1.087  1.00  0.00     0.001 A 
ATOM     79  C   UNL     1       2.628 -14.685   0.692  1.00  0.00     0.001 A 
ATOM     80  C   UNL     1       2.814 -16.035   0.971  1.00  0.00     0.000 A 
ENDBRANCH  56  75
BRANCH  68  81
ATOM     81  C   UNL     1      -5.918 -15.129  -0.592  1.00  0.00    -0.014 A 
ATOM     82  C   UNL     1      -5.596 -14.221   0.434  1.00  0.00     0.009 A 
ATOM     83  C   UNL     1      -7.121 -15.841  -0.493  1.00  0.00     0.009 A 
ATOM     84  C   UNL     1      -6.443 -14.057   1.537  1.00  0.00     0.001 A 
ATOM     85  C   UNL     1      -7.976 -15.662   0.595  1.00  0.00     0.001 A 
ATOM     86  C   UNL     1      -7.635 -14.775   1.613  1.00  0.00     0.000 A 
ENDBRANCH  68  81
ENDBRANCH  42  43
ENDBRANCH  34  37
ENDBRANCH  32  33
ENDBRANCH  31  32
ENDBRANCH   1  31
TORSDOF 16
