REMARK SMILES O=C(NCCCCNC(=O)c1cc(NC(=S)NC(=O)c2ccccc2F)ccc1Cl)c1ccc(-c2c3nc(c(-c4ccccc4)c4ccc([nH]4)c(-c4ccccc4)c4nc(c(-c5ccccc5)c5ccc2[nH]5)C=C4)C=C3)cc1
REMARK SMILES IDX 6 1 5 2 4 3 3 4 1 5 2 6 31 8 32 9 78 10 33 11 77 12 34 13
REMARK SMILES IDX 35 14 36 15 71 16 37 17 76 18 70 19 72 20 38 21 75 22 69 23
REMARK SMILES IDX 68 24 39 26 61 27 46 28 60 29 47 30 50 31 59 32 73 33 48 34
REMARK SMILES IDX 49 35 58 37 74 38 51 39 40 40 41 41 45 42 42 43 44 44 43 45
REMARK SMILES IDX 62 46 63 47 67 48 64 49 66 50 65 51 52 52 53 53 57 54 54 55
REMARK SMILES IDX 56 56 55 57 7 58 8 59 9 60 10 62 11 63 12 64 29 65 13 66
REMARK SMILES IDX 28 67 30 68 27 69 14 70 15 72 16 73 17 74 18 75 19 77 20 78
REMARK SMILES IDX 21 79 25 80 22 81 24 82 26 83 23 84
REMARK H PARENT 3 7 72 25 50 36 8 61 14 71 17 76
REMARK Flexibility Score: inf
ROOT
ATOM      1  C   UNL     1       4.097   1.461   3.310  1.00  0.00     0.023 C 
ENDROOT
BRANCH   1   2
ATOM      2  C   UNL     1       4.693   1.496   1.904  1.00  0.00     0.023 C 
BRANCH   2   3
ATOM      3  C   UNL     1       4.389   0.262   1.069  1.00  0.00     0.116 C 
BRANCH   3   4
ATOM      4  N   UNL     1       2.960  -0.002   0.968  1.00  0.00    -0.352 N 
ATOM      5  O   UNL     1       0.973  -0.208  -0.091  1.00  0.00    -0.269 OA
ATOM      6  C   UNL     1       2.193  -0.140  -0.160  1.00  0.00     0.251 C 
ATOM      7  H   UNL     1       2.481  -0.094   1.823  1.00  0.00     0.163 HD
BRANCH   6   8
ATOM      8  C   UNL     1       2.879  -0.173  -1.461  1.00  0.00     0.039 A 
ATOM      9  C   UNL     1       3.998  -0.991  -1.629  1.00  0.00     0.014 A 
ATOM     10  C   UNL     1       2.451   0.677  -2.480  1.00  0.00     0.014 A 
ATOM     11  C   UNL     1       4.788  -0.837  -2.754  1.00  0.00     0.010 A 
ATOM     12  C   UNL     1       3.180   0.736  -3.667  1.00  0.00     0.010 A 
ATOM     13  C   UNL     1       4.367  -0.002  -3.802  1.00  0.00    -0.014 A 
BRANCH  13  14
ATOM     14  C   UNL     1       5.134  -0.002  -5.068  1.00  0.00     0.031 A 
ATOM     15  C   UNL     1       5.786   1.243  -5.593  1.00  0.00     0.074 A 
ATOM     16  C   UNL     1       5.241  -1.165  -5.739  1.00  0.00     0.049 A 
ATOM     17  N   UNL     1       6.483   1.401  -6.690  1.00  0.00    -0.248 NA
ATOM     18  C   UNL     1       5.634   2.470  -4.795  1.00  0.00     0.031 C 
ATOM     19  C   UNL     1       4.650  -2.441  -5.318  1.00  0.00     0.029 A 
ATOM     20  N   UNL     1       5.897  -1.474  -6.900  1.00  0.00    -0.354 N 
ATOM     21  C   UNL     1       6.837   2.743  -6.726  1.00  0.00     0.074 A 
ATOM     22  C   UNL     1       6.251   3.364  -5.557  1.00  0.00     0.031 C 
ATOM     23  C   UNL     1       5.017  -3.401  -6.175  1.00  0.00     0.029 A 
ATOM     24  C   UNL     1       5.787  -2.796  -7.253  1.00  0.00     0.049 A 
ATOM     25  H   UNL     1       6.397  -0.812  -7.431  1.00  0.00     0.167 HD
ATOM     26  C   UNL     1       7.585   3.393  -7.650  1.00  0.00     0.031 A 
ATOM     27  C   UNL     1       6.229  -3.451  -8.340  1.00  0.00     0.031 A 
ATOM     28  C   UNL     1       8.147   2.766  -8.820  1.00  0.00     0.049 A 
ATOM     29  C   UNL     1       6.988  -2.686  -9.382  1.00  0.00     0.074 A 
ATOM     30  C   UNL     1       8.938   3.333  -9.805  1.00  0.00     0.029 A 
ATOM     31  N   UNL     1       7.966   1.436  -9.172  1.00  0.00    -0.354 N 
ATOM     32  N   UNL     1       7.346  -1.425  -9.384  1.00  0.00    -0.248 NA
ATOM     33  C   UNL     1       7.407  -3.437 -10.571  1.00  0.00     0.031 C 
ATOM     34  C   UNL     1       9.170   2.368 -10.790  1.00  0.00     0.029 A 
ATOM     35  C   UNL     1       8.600   1.175 -10.377  1.00  0.00     0.049 A 
ATOM     36  H   UNL     1       7.463   0.775  -8.643  1.00  0.00     0.167 HD
ATOM     37  C   UNL     1       8.060  -1.238 -10.559  1.00  0.00     0.074 A 
ATOM     38  C   UNL     1       8.102  -2.522 -11.230  1.00  0.00     0.031 C 
ATOM     39  C   UNL     1       8.630  -0.106 -11.037  1.00  0.00     0.031 A 
BRANCH  26  40
ATOM     40  C   UNL     1       7.809   4.870  -7.457  1.00  0.00    -0.014 A 
ATOM     41  C   UNL     1       8.599   5.363  -6.407  1.00  0.00     0.009 A 
ATOM     42  C   UNL     1       7.260   5.782  -8.374  1.00  0.00     0.009 A 
ATOM     43  C   UNL     1       8.803   6.738  -6.258  1.00  0.00     0.001 A 
ATOM     44  C   UNL     1       7.494   7.152  -8.243  1.00  0.00     0.001 A 
ATOM     45  C   UNL     1       8.256   7.630  -7.179  1.00  0.00     0.000 A 
ENDBRANCH  26  40
BRANCH  27  46
ATOM     46  C   UNL     1       5.936  -4.898  -8.506  1.00  0.00    -0.014 A 
ATOM     47  C   UNL     1       6.973  -5.843  -8.500  1.00  0.00     0.009 A 
ATOM     48  C   UNL     1       4.614  -5.343  -8.675  1.00  0.00     0.009 A 
ATOM     49  C   UNL     1       6.695  -7.197  -8.698  1.00  0.00     0.001 A 
ATOM     50  C   UNL     1       4.336  -6.701  -8.832  1.00  0.00     0.001 A 
ATOM     51  C   UNL     1       5.378  -7.625  -8.859  1.00  0.00     0.000 A 
ENDBRANCH  27  46
BRANCH  39  52
ATOM     52  C   UNL     1       9.393  -0.218 -12.329  1.00  0.00    -0.014 A 
ATOM     53  C   UNL     1       8.745  -0.464 -13.550  1.00  0.00     0.009 A 
ATOM     54  C   UNL     1      10.787  -0.047 -12.324  1.00  0.00     0.009 A 
ATOM     55  C   UNL     1       9.482  -0.579 -14.730  1.00  0.00     0.001 A 
ATOM     56  C   UNL     1      11.516  -0.121 -13.511  1.00  0.00     0.001 A 
ATOM     57  C   UNL     1      10.864  -0.400 -14.711  1.00  0.00     0.000 A 
ENDBRANCH  39  52
ENDBRANCH  13  14
ENDBRANCH   6   8
ENDBRANCH   3   4
ENDBRANCH   2   3
ENDBRANCH   1   2
BRANCH   1  58
ATOM     58  C   UNL     1       4.292   0.128   4.028  1.00  0.00     0.116 C 
BRANCH  58  59
ATOM     59  N   UNL     1       5.693  -0.209   4.118  1.00  0.00    -0.352 N 
ATOM     60  C   UNL     1       6.496  -0.414   5.198  1.00  0.00     0.252 C 
ATOM     61  H   UNL     1       6.145  -0.307   3.249  1.00  0.00     0.163 HD
ATOM     62  O   UNL     1       7.647  -0.789   4.991  1.00  0.00    -0.269 OA
BRANCH  60  63
ATOM     63  C   UNL     1       5.957  -0.280   6.618  1.00  0.00     0.060 A 
ATOM     64  C   UNL     1       6.237   0.971   8.174  1.00  0.00     0.041 A 
ATOM     65  C   UNL     1       5.033  -1.792   7.008  1.00  0.00     0.053 A 
ATOM     66  C   UNL     1       5.786   0.594   9.768  1.00  0.00     0.041 A 
ATOM     67  C   UNL     1       4.500  -2.040   8.697  1.00  0.00     0.023 A 
ATOM     68  Cl  UNL     1       4.654  -2.992   5.838  1.00  0.00    -0.083 Cl
ATOM     69  C   UNL     1       4.884  -0.885  10.025  1.00  0.00     0.028 A 
BRANCH  66  70
ATOM     70  N   UNL     1       6.563   1.353  10.658  1.00  0.00    -0.332 N 
ATOM     71  H   UNL     1       6.316   1.263  11.607  1.00  0.00     0.169 HD
BRANCH  70  72
ATOM     72  C   UNL     1       7.625   2.208  10.406  1.00  0.00     0.177 C 
ATOM     73  S   UNL     1       8.152   3.133  11.709  1.00  0.00    -0.040 S 
BRANCH  72  74
ATOM     74  N   UNL     1       8.356   2.408   9.176  1.00  0.00    -0.299 N 
ATOM     75  C   UNL     1       8.668   2.196   7.716  1.00  0.00     0.260 C 
ATOM     76  H   UNL     1       9.047   3.054   9.447  1.00  0.00     0.172 HD
ATOM     77  O   UNL     1       9.590   2.827   7.204  1.00  0.00    -0.269 OA
BRANCH  75  78
ATOM     78  C   UNL     1       7.857   1.242   6.852  1.00  0.00     0.075 A 
ATOM     79  C   UNL     1       7.901  -0.262   7.751  1.00  0.00     0.017 A 
ATOM     80  C   UNL     1       6.328   2.017   6.298  1.00  0.00     0.135 A 
ATOM     81  C   UNL     1       6.369  -0.903   8.370  1.00  0.00     0.001 A 
ATOM     82  C   UNL     1       4.714   1.494   6.855  1.00  0.00     0.040 A 
ATOM     83  F   UNL     1       6.401   3.275   5.829  1.00  0.00    -0.206 F 
ATOM     84  C   UNL     1       4.633   0.055   7.953  1.00  0.00     0.003 A 
ENDBRANCH  75  78
ENDBRANCH  72  74
ENDBRANCH  70  72
ENDBRANCH  66  70
ENDBRANCH  60  63
ENDBRANCH  58  59
ENDBRANCH   1  58
TORSDOF 15
