REMARK SMILES CS(=O)(=O)c1ccc(C2=NN(c3ccc(C(=O)NCCCCNC(=O)c4ccc(-c5c6nc(c(-c7ccccc7)c7ccc([nH]7)c(-c7ccccc7)c7nc(c(-c8ccccc8)c8ccc5[nH]8)C=C7)C=C6)cc4)cc3)[C@H](c3ccccc3)C2)cc1
REMARK SMILES IDX 20 1 19 2 18 3 16 4 17 5 15 7 12 8 13 9 75 10 14 11 74 12
REMARK SMILES IDX 11 13 9 14 10 15 83 16 76 17 8 18 5 19 6 20 85 21 7 22 84 23
REMARK SMILES IDX 2 24 1 25 3 26 4 27 77 28 78 29 82 30 79 31 81 32 80 33
REMARK SMILES IDX 21 34 22 35 23 36 24 37 25 39 26 40 27 41 73 42 28 43 72 44
REMARK SMILES IDX 29 45 30 46 31 47 66 48 32 49 71 50 65 51 67 52 33 53 70 54
REMARK SMILES IDX 64 55 63 56 34 58 56 59 41 60 55 61 42 62 45 63 54 64 68 65
REMARK SMILES IDX 43 66 44 67 53 69 69 70 46 71 35 72 36 73 40 74 37 75 39 76
REMARK SMILES IDX 38 77 57 78 58 79 62 80 59 81 61 82 60 83 47 84 48 85 52 86
REMARK SMILES IDX 49 87 51 88 50 89
REMARK H PARENT 18 6 23 38 67 57 45 68
REMARK Flexibility Score: inf
ROOT
ATOM      1  C   UNL     1       4.240  -3.618 -14.569  1.00  0.00     0.023 C 
ENDROOT
BRANCH   1   2
ATOM      2  C   UNL     1       3.800  -2.162 -14.738  1.00  0.00     0.116 C 
BRANCH   2   3
ATOM      3  N   UNL     1       2.364  -2.071 -14.922  1.00  0.00    -0.352 N 
ATOM      4  C   UNL     1       1.370  -1.713 -14.042  1.00  0.00     0.251 C 
ATOM      5  O   UNL     1       0.218  -1.621 -14.460  1.00  0.00    -0.269 OA
ATOM      6  H   UNL     1       2.049  -2.303 -15.825  1.00  0.00     0.163 HD
BRANCH   4   7
ATOM      7  C   UNL     1       1.667  -1.369 -12.628  1.00  0.00     0.039 A 
ATOM      8  C   UNL     1       2.264  -0.519 -10.014  1.00  0.00     0.060 A 
ATOM      9  C   UNL     1       1.261   0.115 -10.753  1.00  0.00     0.029 A 
ATOM     10  C   UNL     1       2.901  -1.632 -10.564  1.00  0.00     0.029 A 
ATOM     11  C   UNL     1       0.958  -0.309 -12.051  1.00  0.00     0.016 A 
ATOM     12  C   UNL     1       2.596  -2.064 -11.853  1.00  0.00     0.016 A 
BRANCH   8  13
ATOM     13  N   UNL     1       2.644  -0.068  -8.766  1.00  0.00    -0.257 N 
ATOM     14  C   UNL     1       2.372   0.182  -6.685  1.00  0.00     0.071 C 
ATOM     15  N   UNL     1       2.101  -0.622  -7.663  1.00  0.00    -0.176 NA
ATOM     16  C   UNL     1       3.122   1.434  -7.059  1.00  0.00     0.091 C 
ATOM     17  C   UNL     1       3.474   1.111  -8.523  1.00  0.00     0.144 C 
BRANCH  14  18
ATOM     18  C   UNL     1       1.928  -0.100  -5.311  1.00  0.00    -0.002 A 
ATOM     19  C   UNL     1       0.922  -0.758  -2.804  1.00  0.00     0.067 A 
ATOM     20  C   UNL     1       1.448  -1.763  -3.619  1.00  0.00     0.021 A 
ATOM     21  C   UNL     1       0.897   0.575  -3.233  1.00  0.00     0.021 A 
ATOM     22  C   UNL     1       1.939  -1.433  -4.880  1.00  0.00     0.011 A 
ATOM     23  C   UNL     1       1.416   0.907  -4.489  1.00  0.00     0.011 A 
BRANCH  19  24
ATOM     24  S   UNL     1       0.243  -1.196  -1.220  1.00  0.00     0.175 S 
ATOM     25  C   UNL     1       0.969  -0.053  -0.078  1.00  0.00     0.163 C 
ATOM     26  O   UNL     1       0.750  -2.514  -0.880  1.00  0.00    -0.224 OA
ATOM     27  O   UNL     1      -1.180  -0.932  -1.290  1.00  0.00    -0.224 OA
ENDBRANCH  19  24
ENDBRANCH  14  18
BRANCH  17  28
ATOM     28  C   UNL     1       4.933   0.806  -8.862  1.00  0.00    -0.023 A 
ATOM     29  C   UNL     1       5.902   0.445  -7.914  1.00  0.00     0.006 A 
ATOM     30  C   UNL     1       5.323   0.828 -10.218  1.00  0.00     0.006 A 
ATOM     31  C   UNL     1       7.211   0.138  -8.305  1.00  0.00     0.000 A 
ATOM     32  C   UNL     1       6.622   0.496 -10.610  1.00  0.00     0.000 A 
ATOM     33  C   UNL     1       7.569   0.157  -9.651  1.00  0.00     0.000 A 
ENDBRANCH  17  28
ENDBRANCH   8  13
ENDBRANCH   4   7
ENDBRANCH   2   3
ENDBRANCH   1   2
BRANCH   1  34
ATOM     34  C   UNL     1       4.257  -4.425 -15.866  1.00  0.00     0.023 C 
BRANCH  34  35
ATOM     35  C   UNL     1       5.257  -3.941 -16.906  1.00  0.00     0.116 C 
BRANCH  35  36
ATOM     36  N   UNL     1       6.635  -3.962 -16.436  1.00  0.00    -0.352 N 
ATOM     37  C   UNL     1       7.771  -4.264 -17.148  1.00  0.00     0.251 C 
ATOM     38  H   UNL     1       6.769  -3.731 -15.488  1.00  0.00     0.163 HD
ATOM     39  O   UNL     1       8.861  -4.338 -16.594  1.00  0.00    -0.269 OA
BRANCH  37  40
ATOM     40  C   UNL     1       7.648  -4.541 -18.593  1.00  0.00     0.039 A 
ATOM     41  C   UNL     1       8.173  -5.731 -19.099  1.00  0.00     0.014 A 
ATOM     42  C   UNL     1       6.954  -3.657 -19.423  1.00  0.00     0.014 A 
ATOM     43  C   UNL     1       7.933  -6.075 -20.431  1.00  0.00     0.010 A 
ATOM     44  C   UNL     1       6.657  -4.034 -20.727  1.00  0.00     0.010 A 
ATOM     45  C   UNL     1       7.138  -5.249 -21.241  1.00  0.00    -0.014 A 
BRANCH  45  46
ATOM     46  C   UNL     1       6.778  -5.635 -22.628  1.00  0.00     0.031 A 
ATOM     47  C   UNL     1       7.242  -4.794 -23.783  1.00  0.00     0.074 A 
ATOM     48  C   UNL     1       5.955  -6.681 -22.838  1.00  0.00     0.049 A 
ATOM     49  N   UNL     1       6.937  -4.894 -25.052  1.00  0.00    -0.248 NA
ATOM     50  C   UNL     1       8.144  -3.674 -23.467  1.00  0.00     0.031 C 
ATOM     51  C   UNL     1       5.401  -7.550 -21.798  1.00  0.00     0.029 A 
ATOM     52  N   UNL     1       5.424  -7.178 -24.003  1.00  0.00    -0.354 N 
ATOM     53  C   UNL     1       7.584  -3.837 -25.678  1.00  0.00     0.074 A 
ATOM     54  C   UNL     1       8.267  -3.086 -24.648  1.00  0.00     0.031 C 
ATOM     55  C   UNL     1       4.618  -8.478 -22.372  1.00  0.00     0.029 A 
ATOM     56  C   UNL     1       4.579  -8.245 -23.811  1.00  0.00     0.049 A 
ATOM     57  H   UNL     1       5.628  -6.805 -24.890  1.00  0.00     0.167 HD
ATOM     58  C   UNL     1       7.617  -3.527 -26.995  1.00  0.00     0.031 A 
ATOM     59  C   UNL     1       3.842  -8.945 -24.694  1.00  0.00     0.031 A 
ATOM     60  C   UNL     1       6.956  -4.287 -28.021  1.00  0.00     0.049 A 
ATOM     61  C   UNL     1       3.896  -8.579 -26.151  1.00  0.00     0.074 A 
ATOM     62  C   UNL     1       6.994  -4.098 -29.391  1.00  0.00     0.029 A 
ATOM     63  N   UNL     1       6.136  -5.380 -27.788  1.00  0.00    -0.354 N 
ATOM     64  N   UNL     1       4.577  -7.624 -26.738  1.00  0.00    -0.248 NA
ATOM     65  C   UNL     1       3.086  -9.393 -27.070  1.00  0.00     0.031 C 
ATOM     66  C   UNL     1       6.154  -5.044 -29.985  1.00  0.00     0.029 A 
ATOM     67  C   UNL     1       5.639  -5.857 -28.989  1.00  0.00     0.049 A 
ATOM     68  H   UNL     1       5.937  -5.760 -26.902  1.00  0.00     0.167 HD
ATOM     69  C   UNL     1       4.300  -7.741 -28.094  1.00  0.00     0.074 A 
ATOM     70  C   UNL     1       3.402  -8.866 -28.245  1.00  0.00     0.031 C 
ATOM     71  C   UNL     1       4.751  -6.983 -29.122  1.00  0.00     0.031 A 
BRANCH  58  72
ATOM     72  C   UNL     1       8.387  -2.303 -27.403  1.00  0.00    -0.014 A 
ATOM     73  C   UNL     1       9.790  -2.272 -27.352  1.00  0.00     0.009 A 
ATOM     74  C   UNL     1       7.700  -1.180 -27.889  1.00  0.00     0.009 A 
ATOM     75  C   UNL     1      10.486  -1.129 -27.749  1.00  0.00     0.001 A 
ATOM     76  C   UNL     1       8.400  -0.049 -28.313  1.00  0.00     0.001 A 
ATOM     77  C   UNL     1       9.792  -0.022 -28.234  1.00  0.00     0.000 A 
ENDBRANCH  58  72
BRANCH  59  78
ATOM     78  C   UNL     1       2.982 -10.065 -24.227  1.00  0.00    -0.014 A 
ATOM     79  C   UNL     1       3.309 -11.393 -24.540  1.00  0.00     0.009 A 
ATOM     80  C   UNL     1       1.822  -9.810 -23.480  1.00  0.00     0.009 A 
ATOM     81  C   UNL     1       2.476 -12.440 -24.140  1.00  0.00     0.001 A 
ATOM     82  C   UNL     1       1.006 -10.861 -23.056  1.00  0.00     0.001 A 
ATOM     83  C   UNL     1       1.328 -12.174 -23.395  1.00  0.00     0.000 A 
ENDBRANCH  59  78
BRANCH  71  84
ATOM     84  C   UNL     1       4.315  -7.367 -30.507  1.00  0.00    -0.014 A 
ATOM     85  C   UNL     1       3.007  -7.126 -30.953  1.00  0.00     0.009 A 
ATOM     86  C   UNL     1       5.247  -7.925 -31.397  1.00  0.00     0.009 A 
ATOM     87  C   UNL     1       2.634  -7.461 -32.256  1.00  0.00     0.001 A 
ATOM     88  C   UNL     1       4.879  -8.232 -32.707  1.00  0.00     0.001 A 
ATOM     89  C   UNL     1       3.571  -8.007 -33.133  1.00  0.00     0.000 A 
ENDBRANCH  71  84
ENDBRANCH  45  46
ENDBRANCH  37  40
ENDBRANCH  35  36
ENDBRANCH  34  35
ENDBRANCH   1  34
TORSDOF 15
