REMARK SMILES CSc1ccccc1Sc1cc(C(=O)NCCCCNC(=O)c2ccc(-c3c4nc(c(-c5ccccc5)c5ccc([nH]5)c(-c5ccccc5)c5nc(c(-c6ccccc6)c6ccc3[nH]6)C=C5)C=C4)cc2)c2ccccc2n1
REMARK SMILES IDX 17 1 16 2 15 3 13 4 14 5 12 7 10 8 11 9 77 10 76 11 71 12
REMARK SMILES IDX 75 13 72 14 74 15 73 16 9 17 8 18 3 19 4 20 5 21 7 22 6 23
REMARK SMILES IDX 2 24 1 25 18 26 19 27 20 28 21 29 22 31 23 32 24 33 70 34
REMARK SMILES IDX 25 35 69 36 26 37 27 38 28 39 63 40 29 41 68 42 62 43 64 44
REMARK SMILES IDX 30 45 67 46 61 47 60 48 31 50 53 51 38 52 52 53 39 54 42 55
REMARK SMILES IDX 51 56 65 57 40 58 41 59 50 61 66 62 43 63 32 64 33 65 37 66
REMARK SMILES IDX 34 67 36 68 35 69 54 70 55 71 59 72 56 73 58 74 57 75 44 76
REMARK SMILES IDX 45 77 49 78 46 79 48 80 47 81
REMARK H PARENT 15 6 20 30 64 49 42 60
REMARK Flexibility Score: inf
ROOT
ATOM      1  C   UNL     1      -2.318  -0.885   3.393  1.00  0.00     0.023 C 
ENDROOT
BRANCH   1   2
ATOM      2  C   UNL     1      -3.295  -0.316   2.357  1.00  0.00     0.116 C 
BRANCH   2   3
ATOM      3  N   UNL     1      -3.642   1.055   2.696  1.00  0.00    -0.352 N 
ATOM      4  C   UNL     1      -3.408   2.294   2.151  1.00  0.00     0.252 C 
ATOM      5  O   UNL     1      -3.877   3.233   2.791  1.00  0.00    -0.269 OA
ATOM      6  H   UNL     1      -4.177   1.109   3.520  1.00  0.00     0.163 HD
BRANCH   4   7
ATOM      7  C   UNL     1      -2.691   2.528   0.857  1.00  0.00     0.051 A 
ATOM      8  C   UNL     1      -1.061   1.948  -0.761  1.00  0.00     0.102 A 
ATOM      9  C   UNL     1      -1.699   1.656   0.432  1.00  0.00     0.050 A 
ATOM     10  N   UNL     1      -1.569   2.783  -1.675  1.00  0.00    -0.241 NA
ATOM     11  C   UNL     1      -2.339   3.749  -1.201  1.00  0.00     0.072 A 
ATOM     12  C   UNL     1      -2.838   3.744   0.119  1.00  0.00     0.013 A 
ATOM     13  C   UNL     1      -2.467   4.859  -2.016  1.00  0.00     0.029 A 
ATOM     14  C   UNL     1      -3.306   4.988   0.614  1.00  0.00     0.011 A 
ATOM     15  C   UNL     1      -2.902   6.072  -1.500  1.00  0.00     0.002 A 
ATOM     16  C   UNL     1      -3.282   6.145  -0.169  1.00  0.00     0.001 A 
BRANCH   8  17
ATOM     17  S   UNL     1       0.732   1.996  -0.647  1.00  0.00    -0.069 SA
BRANCH  17  18
ATOM     18  C   UNL     1       1.238   1.669  -2.316  1.00  0.00     0.027 A 
ATOM     19  C   UNL     1       1.539   0.373  -2.771  1.00  0.00     0.021 A 
ATOM     20  C   UNL     1       2.059   0.227  -4.068  1.00  0.00     0.016 A 
ATOM     21  C   UNL     1       2.270   1.333  -4.897  1.00  0.00     0.001 A 
ATOM     22  C   UNL     1       1.429   2.775  -3.167  1.00  0.00     0.016 A 
ATOM     23  C   UNL     1       1.939   2.608  -4.454  1.00  0.00     0.001 A 
BRANCH  19  24
ATOM     24  S   UNL     1       1.200  -1.160  -1.883  1.00  0.00    -0.128 SA
ATOM     25  C   UNL     1       2.055  -0.919  -0.298  1.00  0.00     0.091 C 
ENDBRANCH  19  24
ENDBRANCH  17  18
ENDBRANCH   8  17
ENDBRANCH   4   7
ENDBRANCH   2   3
ENDBRANCH   1   2
BRANCH   1  26
ATOM     26  C   UNL     1      -2.940  -1.158   4.772  1.00  0.00     0.023 C 
BRANCH  26  27
ATOM     27  C   UNL     1      -4.049  -2.209   4.794  1.00  0.00     0.116 C 
BRANCH  27  28
ATOM     28  N   UNL     1      -3.605  -3.515   4.333  1.00  0.00    -0.352 N 
ATOM     29  C   UNL     1      -3.928  -4.758   4.816  1.00  0.00     0.251 C 
ATOM     30  H   UNL     1      -2.985  -3.505   3.567  1.00  0.00     0.163 HD
ATOM     31  O   UNL     1      -3.359  -5.757   4.381  1.00  0.00    -0.269 OA
BRANCH  29  32
ATOM     32  C   UNL     1      -4.938  -4.895   5.886  1.00  0.00     0.039 A 
ATOM     33  C   UNL     1      -4.645  -5.701   6.989  1.00  0.00     0.014 A 
ATOM     34  C   UNL     1      -6.162  -4.226   5.808  1.00  0.00     0.014 A 
ATOM     35  C   UNL     1      -5.552  -5.783   8.047  1.00  0.00     0.010 A 
ATOM     36  C   UNL     1      -7.038  -4.259   6.891  1.00  0.00     0.010 A 
ATOM     37  C   UNL     1      -6.740  -5.034   8.023  1.00  0.00    -0.014 A 
BRANCH  37  38
ATOM     38  C   UNL     1      -7.673  -5.036   9.177  1.00  0.00     0.031 A 
ATOM     39  C   UNL     1      -9.062  -5.593   9.030  1.00  0.00     0.074 A 
ATOM     40  C   UNL     1      -7.293  -4.471  10.340  1.00  0.00     0.049 A 
ATOM     41  N   UNL     1     -10.036  -5.622   9.905  1.00  0.00    -0.248 NA
ATOM     42  C   UNL     1      -9.412  -6.169   7.722  1.00  0.00     0.031 C 
ATOM     43  C   UNL     1      -5.990  -3.854  10.598  1.00  0.00     0.029 A 
ATOM     44  N   UNL     1      -7.974  -4.312  11.521  1.00  0.00    -0.354 N 
ATOM     45  C   UNL     1     -11.116  -6.198   9.248  1.00  0.00     0.074 A 
ATOM     46  C   UNL     1     -10.693  -6.466   7.891  1.00  0.00     0.031 C 
ATOM     47  C   UNL     1      -5.960  -3.403  11.863  1.00  0.00     0.029 A 
ATOM     48  C   UNL     1      -7.250  -3.663  12.492  1.00  0.00     0.049 A 
ATOM     49  H   UNL     1      -8.895  -4.634  11.660  1.00  0.00     0.167 HD
ATOM     50  C   UNL     1     -12.345  -6.492   9.735  1.00  0.00     0.031 A 
ATOM     51  C   UNL     1      -7.590  -3.308  13.746  1.00  0.00     0.031 A 
ATOM     52  C   UNL     1     -12.761  -6.244  11.089  1.00  0.00     0.049 A 
ATOM     53  C   UNL     1      -8.960  -3.650  14.262  1.00  0.00     0.074 A 
ATOM     54  C   UNL     1     -13.962  -6.571  11.694  1.00  0.00     0.029 A 
ATOM     55  N   UNL     1     -11.990  -5.605  12.047  1.00  0.00    -0.354 N 
ATOM     56  N   UNL     1      -9.942  -4.267  13.651  1.00  0.00    -0.248 NA
ATOM     57  C   UNL     1      -9.263  -3.257  15.645  1.00  0.00     0.031 C 
ATOM     58  C   UNL     1     -13.937  -6.086  13.006  1.00  0.00     0.029 A 
ATOM     59  C   UNL     1     -12.699  -5.506  13.232  1.00  0.00     0.049 A 
ATOM     60  H   UNL     1     -11.074  -5.272  11.906  1.00  0.00     0.167 HD
ATOM     61  C   UNL     1     -10.967  -4.361  14.583  1.00  0.00     0.074 A 
ATOM     62  C   UNL     1     -10.482  -3.753  15.805  1.00  0.00     0.031 C 
ATOM     63  C   UNL     1     -12.201  -4.902  14.440  1.00  0.00     0.031 A 
BRANCH  50  64
ATOM     64  C   UNL     1     -13.336  -7.115   8.792  1.00  0.00    -0.014 A 
ATOM     65  C   UNL     1     -13.188  -8.440   8.352  1.00  0.00     0.009 A 
ATOM     66  C   UNL     1     -14.460  -6.384   8.379  1.00  0.00     0.009 A 
ATOM     67  C   UNL     1     -14.130  -9.009   7.492  1.00  0.00     0.001 A 
ATOM     68  C   UNL     1     -15.415  -6.964   7.542  1.00  0.00     0.001 A 
ATOM     69  C   UNL     1     -15.245  -8.272   7.092  1.00  0.00     0.000 A 
ENDBRANCH  50  64
BRANCH  51  70
ATOM     70  C   UNL     1      -6.615  -2.593  14.610  1.00  0.00    -0.014 A 
ATOM     71  C   UNL     1      -6.037  -3.235  15.716  1.00  0.00     0.009 A 
ATOM     72  C   UNL     1      -6.271  -1.258  14.344  1.00  0.00     0.009 A 
ATOM     73  C   UNL     1      -5.160  -2.545  16.556  1.00  0.00     0.001 A 
ATOM     74  C   UNL     1      -5.371  -0.580  15.169  1.00  0.00     0.001 A 
ATOM     75  C   UNL     1      -4.825  -1.220  16.280  1.00  0.00     0.000 A 
ENDBRANCH  51  70
BRANCH  63  76
ATOM     76  C   UNL     1     -13.099  -4.895  15.644  1.00  0.00    -0.014 A 
ATOM     77  C   UNL     1     -13.695  -3.710  16.103  1.00  0.00     0.009 A 
ATOM     78  C   UNL     1     -13.386  -6.101  16.303  1.00  0.00     0.009 A 
ATOM     79  C   UNL     1     -14.534  -3.729  17.219  1.00  0.00     0.001 A 
ATOM     80  C   UNL     1     -14.248  -6.121  17.400  1.00  0.00     0.001 A 
ATOM     81  C   UNL     1     -14.814  -4.934  17.862  1.00  0.00     0.000 A 
ENDBRANCH  63  76
ENDBRANCH  37  38
ENDBRANCH  29  32
ENDBRANCH  27  28
ENDBRANCH  26  27
ENDBRANCH   1  26
TORSDOF 14
