REMARK SMILES O=C(NCCCCNC(=O)c1cccc(S(=O)(=O)NC[C@@H]2CCOC2)c1)c1ccc(-c2c3nc(c(-c4ccccc4)c4ccc([nH]4)c(-c4ccccc4)c4nc(c(-c5ccccc5)c5ccc2[nH]5)C=C4)C=C3)cc1
REMARK SMILES IDX 6 1 5 2 4 3 3 4 1 5 2 6 27 8 28 9 74 10 29 11 73 12 30 13
REMARK SMILES IDX 31 14 32 15 67 16 33 17 72 18 66 19 68 20 34 21 71 22 65 23
REMARK SMILES IDX 64 24 35 26 57 27 42 28 56 29 43 30 46 31 55 32 69 33 44 34
REMARK SMILES IDX 45 35 54 37 70 38 47 39 36 40 37 41 41 42 38 43 40 44 39 45
REMARK SMILES IDX 58 46 59 47 63 48 60 49 62 50 61 51 48 52 49 53 53 54 50 55
REMARK SMILES IDX 52 56 51 57 7 58 8 59 9 60 10 62 11 63 12 64 26 65 13 66
REMARK SMILES IDX 15 67 14 68 16 69 17 70 18 71 19 72 20 74 21 75 22 76 25 77
REMARK SMILES IDX 23 78 24 79
REMARK H PARENT 3 7 68 25 46 36 8 61 19 73
REMARK Flexibility Score: inf
ROOT
ATOM      1  C   UNL     1       4.387   2.258  -3.124  1.00  0.00     0.023 C 
ENDROOT
BRANCH   1   2
ATOM      2  C   UNL     1       4.879   0.992  -2.441  1.00  0.00     0.023 C 
BRANCH   2   3
ATOM      3  C   UNL     1       4.525   0.889  -0.967  1.00  0.00     0.116 C 
BRANCH   3   4
ATOM      4  N   UNL     1       3.090   0.859  -0.717  1.00  0.00    -0.352 N 
ATOM      5  O   UNL     1       1.123  -0.043  -0.052  1.00  0.00    -0.269 OA
ATOM      6  C   UNL     1       2.346  -0.106  -0.077  1.00  0.00     0.251 C 
ATOM      7  H   UNL     1       2.583   1.635  -1.051  1.00  0.00     0.163 HD
BRANCH   6   8
ATOM      8  C   UNL     1       3.048  -1.241   0.556  1.00  0.00     0.039 A 
ATOM      9  C   UNL     1       4.173  -1.001   1.345  1.00  0.00     0.014 A 
ATOM     10  C   UNL     1       2.624  -2.548   0.305  1.00  0.00     0.014 A 
ATOM     11  C   UNL     1       4.983  -2.062   1.713  1.00  0.00     0.010 A 
ATOM     12  C   UNL     1       3.374  -3.622   0.794  1.00  0.00     0.010 A 
ATOM     13  C   UNL     1       4.579  -3.387   1.473  1.00  0.00    -0.014 A 
BRANCH  13  14
ATOM     14  C   UNL     1       5.403  -4.484   2.040  1.00  0.00     0.031 A 
ATOM     15  C   UNL     1       6.083  -5.503   1.169  1.00  0.00     0.074 A 
ATOM     16  C   UNL     1       5.584  -4.503   3.376  1.00  0.00     0.049 A 
ATOM     17  N   UNL     1       6.888  -6.474   1.524  1.00  0.00    -0.248 NA
ATOM     18  C   UNL     1       5.831  -5.435  -0.279  1.00  0.00     0.031 C 
ATOM     19  C   UNL     1       4.965  -3.567   4.323  1.00  0.00     0.029 A 
ATOM     20  N   UNL     1       6.365  -5.302   4.168  1.00  0.00    -0.354 N 
ATOM     21  C   UNL     1       7.229  -7.138   0.352  1.00  0.00     0.074 A 
ATOM     22  C   UNL     1       6.521  -6.478  -0.724  1.00  0.00     0.031 C 
ATOM     23  C   UNL     1       5.448  -3.797   5.550  1.00  0.00     0.029 A 
ATOM     24  C   UNL     1       6.337  -4.949   5.495  1.00  0.00     0.049 A 
ATOM     25  H   UNL     1       6.895  -6.055   3.820  1.00  0.00     0.167 HD
ATOM     26  C   UNL     1       8.059  -8.197   0.192  1.00  0.00     0.031 A 
ATOM     27  C   UNL     1       6.940  -5.502   6.562  1.00  0.00     0.031 A 
ATOM     28  C   UNL     1       8.753  -8.856   1.271  1.00  0.00     0.049 A 
ATOM     29  C   UNL     1       7.817  -6.698   6.352  1.00  0.00     0.074 A 
ATOM     30  C   UNL     1       9.624  -9.931   1.206  1.00  0.00     0.029 A 
ATOM     31  N   UNL     1       8.655  -8.504   2.608  1.00  0.00    -0.354 N 
ATOM     32  N   UNL     1       8.146  -7.295   5.232  1.00  0.00    -0.248 NA
ATOM     33  C   UNL     1       8.405  -7.298   7.556  1.00  0.00     0.031 C 
ATOM     34  C   UNL     1      10.008 -10.264   2.509  1.00  0.00     0.029 A 
ATOM     35  C   UNL     1       9.430  -9.356   3.380  1.00  0.00     0.049 A 
ATOM     36  H   UNL     1       8.114  -7.759   2.958  1.00  0.00     0.167 HD
ATOM     37  C   UNL     1       8.990  -8.334   5.595  1.00  0.00     0.074 A 
ATOM     38  C   UNL     1       9.152  -8.259   7.033  1.00  0.00     0.031 C 
ATOM     39  C   UNL     1       9.571  -9.274   4.811  1.00  0.00     0.031 A 
BRANCH  26  40
ATOM     40  C   UNL     1       8.256  -8.734  -1.200  1.00  0.00    -0.014 A 
ATOM     41  C   UNL     1       9.008  -8.028  -2.153  1.00  0.00     0.009 A 
ATOM     42  C   UNL     1       7.752 -10.000  -1.540  1.00  0.00     0.009 A 
ATOM     43  C   UNL     1       9.234  -8.571  -3.421  1.00  0.00     0.001 A 
ATOM     44  C   UNL     1       8.001 -10.551  -2.798  1.00  0.00     0.001 A 
ATOM     45  C   UNL     1       8.737  -9.834  -3.740  1.00  0.00     0.000 A 
ENDBRANCH  26  40
BRANCH  27  46
ATOM     46  C   UNL     1       6.694  -4.957   7.923  1.00  0.00    -0.014 A 
ATOM     47  C   UNL     1       7.730  -4.370   8.663  1.00  0.00     0.009 A 
ATOM     48  C   UNL     1       5.414  -5.041   8.495  1.00  0.00     0.009 A 
ATOM     49  C   UNL     1       7.497  -3.912   9.962  1.00  0.00     0.001 A 
ATOM     50  C   UNL     1       5.175  -4.546   9.777  1.00  0.00     0.001 A 
ATOM     51  C   UNL     1       6.220  -3.996  10.515  1.00  0.00     0.000 A 
ENDBRANCH  27  46
BRANCH  39  52
ATOM     52  C   UNL     1      10.454 -10.274   5.502  1.00  0.00    -0.014 A 
ATOM     53  C   UNL     1       9.918 -11.254   6.354  1.00  0.00     0.009 A 
ATOM     54  C   UNL     1      11.842 -10.231   5.304  1.00  0.00     0.009 A 
ATOM     55  C   UNL     1      10.760 -12.136   7.032  1.00  0.00     0.001 A 
ATOM     56  C   UNL     1      12.678 -11.137   5.956  1.00  0.00     0.001 A 
ATOM     57  C   UNL     1      12.138 -12.079   6.831  1.00  0.00     0.000 A 
ENDBRANCH  39  52
ENDBRANCH  13  14
ENDBRANCH   6   8
ENDBRANCH   3   4
ENDBRANCH   2   3
ENDBRANCH   1   2
BRANCH   1  58
ATOM     58  C   UNL     1       4.745   3.546  -2.402  1.00  0.00     0.116 C 
BRANCH  58  59
ATOM     59  N   UNL     1       6.181   3.738  -2.259  1.00  0.00    -0.352 N 
ATOM     60  C   UNL     1       6.969   4.768  -2.708  1.00  0.00     0.251 C 
ATOM     61  H   UNL     1       6.655   3.026  -1.771  1.00  0.00     0.163 HD
ATOM     62  O   UNL     1       8.190   4.690  -2.635  1.00  0.00    -0.269 OA
BRANCH  60  63
ATOM     63  C   UNL     1       6.340   5.983  -3.268  1.00  0.00     0.041 A 
ATOM     64  C   UNL     1       6.878   6.566  -4.418  1.00  0.00     0.014 A 
ATOM     65  C   UNL     1       5.232   6.553  -2.639  1.00  0.00     0.035 A 
ATOM     66  C   UNL     1       6.268   7.695  -4.968  1.00  0.00     0.002 A 
ATOM     67  C   UNL     1       4.624   7.672  -3.189  1.00  0.00     0.083 A 
ATOM     68  C   UNL     1       5.139   8.247  -4.357  1.00  0.00     0.022 A 
BRANCH  67  69
ATOM     69  S   UNL     1       3.184   8.380  -2.448  1.00  0.00     0.240 S 
ATOM     70  O   UNL     1       3.268   9.811  -2.620  1.00  0.00    -0.207 OA
ATOM     71  O   UNL     1       2.062   7.632  -2.969  1.00  0.00    -0.207 OA
BRANCH  69  72
ATOM     72  N   UNL     1       3.182   8.038  -0.808  1.00  0.00    -0.211 NA
ATOM     73  H   UNL     1       2.801   7.093  -0.751  1.00  0.00     0.141 HD
BRANCH  72  74
ATOM     74  C   UNL     1       4.285   8.036   0.154  1.00  0.00     0.105 C 
BRANCH  74  75
ATOM     75  C   UNL     1       4.984   9.332   0.530  1.00  0.00     0.032 C 
ATOM     76  C   UNL     1       4.099  10.454   1.020  1.00  0.00     0.036 C 
ATOM     77  C   UNL     1       5.854   9.958  -0.541  1.00  0.00     0.165 C 
ATOM     78  C   UNL     1       4.134  11.461  -0.101  1.00  0.00     0.160 C 
ATOM     79  O   UNL     1       5.382  11.286  -0.775  1.00  0.00    -0.381 OA
ENDBRANCH  74  75
ENDBRANCH  72  74
ENDBRANCH  69  72
ENDBRANCH  67  69
ENDBRANCH  60  63
ENDBRANCH  58  59
ENDBRANCH   1  58
TORSDOF 15
