REMARK SMILES O=C(COc1ccc(NC(=O)c2ccc(Br)cc2)cc1-c1nc2ccccc2o1)NCCCCNC(=O)c1ccc(-c2c3nc(c(-c4ccccc4)c4ccc([nH]4)c(-c4ccccc4)c4nc(c(-c5ccccc5)c5ccc2[nH]5)C=C4)C=C3)cc1
REMARK SMILES IDX 31 1 30 2 1 3 2 4 3 6 4 7 5 8 6 9 20 10 7 11 19 12 8 13
REMARK SMILES IDX 21 14 22 15 29 16 23 17 28 18 24 19 27 20 25 21 26 22 9 23
REMARK SMILES IDX 10 24 11 26 12 27 13 28 18 29 14 30 17 31 15 32 16 33 32 34
REMARK SMILES IDX 33 35 34 36 35 37 36 38 37 40 38 41 39 42 85 43 40 44 84 45
REMARK SMILES IDX 41 46 42 47 43 48 78 49 44 50 83 51 77 52 79 53 45 54 82 55
REMARK SMILES IDX 76 56 75 57 46 59 68 60 53 61 67 62 54 63 57 64 66 65 80 66
REMARK SMILES IDX 55 67 56 68 65 70 81 71 58 72 47 73 48 74 52 75 49 76 51 77
REMARK SMILES IDX 50 78 69 79 70 80 74 81 71 82 73 83 72 84 59 85 60 86 64 87
REMARK SMILES IDX 61 88 63 89 62 90
REMARK H PARENT 30 5 9 25 35 39 79 58 57 69
REMARK Flexibility Score: inf
ROOT
ATOM      1  C   UNL     1       3.603  -0.323  -2.162  1.00  0.00     0.116 C 
ENDROOT
BRANCH   1   2
ATOM      2  N   UNL     1       4.616   0.161  -1.244  1.00  0.00    -0.353 N 
ATOM      3  O   UNL     1       3.939   2.107  -0.211  1.00  0.00    -0.271 OA
ATOM      4  C   UNL     1       4.195   0.911  -0.144  1.00  0.00     0.257 C 
ATOM      5  H   UNL     1       5.570  -0.034  -1.392  1.00  0.00     0.163 HD
BRANCH   4   6
ATOM      6  C   UNL     1       4.103   0.078   1.144  1.00  0.00     0.329 C 
BRANCH   6   7
ATOM      7  O   UNL     1       3.971  -1.264   0.671  1.00  0.00    -0.483 OA
BRANCH   7   8
ATOM      8  C   UNL     1       3.158  -2.128   1.342  1.00  0.00     0.132 A 
ATOM      9  C   UNL     1       3.886  -3.133   1.964  1.00  0.00     0.049 A 
ATOM     10  C   UNL     1       1.775  -2.269   1.085  1.00  0.00     0.081 A 
ATOM     11  C   UNL     1       3.268  -4.323   2.297  1.00  0.00     0.030 A 
ATOM     12  C   UNL     1       1.164  -3.491   1.442  1.00  0.00     0.043 A 
ATOM     13  C   UNL     1       1.906  -4.516   2.065  1.00  0.00     0.042 A 
BRANCH  10  14
ATOM     14  C   UNL     1       1.029  -1.173   0.455  1.00  0.00     0.231 A 
ATOM     15  N   UNL     1       1.257   0.118   0.600  1.00  0.00    -0.209 NA
ATOM     16  O   UNL     1       0.107  -1.473  -0.526  1.00  0.00    -0.436 OA
ATOM     17  C   UNL     1       0.600   0.701  -0.444  1.00  0.00     0.110 A 
ATOM     18  C   UNL     1      -0.140  -0.254  -1.121  1.00  0.00     0.155 A 
ATOM     19  C   UNL     1       0.663   2.012  -0.933  1.00  0.00     0.032 A 
ATOM     20  C   UNL     1      -0.901   0.024  -2.253  1.00  0.00     0.049 A 
ATOM     21  C   UNL     1      -0.036   2.312  -2.106  1.00  0.00     0.003 A 
ATOM     22  C   UNL     1      -0.819   1.340  -2.742  1.00  0.00     0.004 A 
ENDBRANCH  10  14
BRANCH  13  23
ATOM     23  N   UNL     1       1.274  -5.739   2.373  1.00  0.00    -0.322 N 
ATOM     24  C   UNL     1       1.697  -6.783   3.182  1.00  0.00     0.255 C 
ATOM     25  H   UNL     1       0.396  -5.873   1.948  1.00  0.00     0.170 HD
ATOM     26  O   UNL     1       1.214  -7.905   3.053  1.00  0.00    -0.269 OA
BRANCH  24  27
ATOM     27  C   UNL     1       2.692  -6.557   4.263  1.00  0.00     0.040 A 
ATOM     28  C   UNL     1       3.773  -7.439   4.398  1.00  0.00     0.015 A 
ATOM     29  C   UNL     1       2.582  -5.449   5.116  1.00  0.00     0.015 A 
ATOM     30  C   UNL     1       4.779  -7.168   5.332  1.00  0.00     0.016 A 
ATOM     31  C   UNL     1       3.594  -5.175   6.039  1.00  0.00     0.016 A 
ATOM     32  C   UNL     1       4.692  -6.029   6.134  1.00  0.00     0.018 A 
ATOM     33  Br  UNL     1       6.083  -5.626   7.349  1.00  0.00    -0.051 Br
ENDBRANCH  24  27
ENDBRANCH  13  23
ENDBRANCH   7   8
ENDBRANCH   6   7
ENDBRANCH   4   6
ENDBRANCH   1   2
BRANCH   1  34
ATOM     34  C   UNL     1       3.324   0.591  -3.341  1.00  0.00     0.023 C 
BRANCH  34  35
ATOM     35  C   UNL     1       4.526   0.777  -4.255  1.00  0.00     0.023 C 
BRANCH  35  36
ATOM     36  C   UNL     1       5.068  -0.513  -4.848  1.00  0.00     0.116 C 
BRANCH  36  37
ATOM     37  N   UNL     1       4.221  -1.081  -5.888  1.00  0.00    -0.352 N 
ATOM     38  C   UNL     1       4.647  -1.701  -7.046  1.00  0.00     0.251 C 
ATOM     39  H   UNL     1       3.248  -1.015  -5.753  1.00  0.00     0.163 HD
ATOM     40  O   UNL     1       3.872  -2.049  -7.920  1.00  0.00    -0.269 OA
BRANCH  38  41
ATOM     41  C   UNL     1       6.105  -1.891  -7.207  1.00  0.00     0.039 A 
ATOM     42  C   UNL     1       6.762  -1.260  -8.263  1.00  0.00     0.014 A 
ATOM     43  C   UNL     1       6.821  -2.549  -6.203  1.00  0.00     0.014 A 
ATOM     44  C   UNL     1       8.157  -1.226  -8.273  1.00  0.00     0.010 A 
ATOM     45  C   UNL     1       8.204  -2.434  -6.170  1.00  0.00     0.010 A 
ATOM     46  C   UNL     1       8.888  -1.775  -7.205  1.00  0.00    -0.014 A 
BRANCH  46  47
ATOM     47  C   UNL     1      10.369  -1.688  -7.154  1.00  0.00     0.031 A 
ATOM     48  C   UNL     1      11.188  -2.950  -7.160  1.00  0.00     0.074 A 
ATOM     49  C   UNL     1      10.975  -0.490  -7.032  1.00  0.00     0.049 A 
ATOM     50  N   UNL     1      12.485  -3.094  -7.061  1.00  0.00    -0.248 NA
ATOM     51  C   UNL     1      10.448  -4.220  -7.255  1.00  0.00     0.031 C 
ATOM     52  C   UNL     1      10.295   0.806  -6.961  1.00  0.00     0.029 A 
ATOM     53  N   UNL     1      12.307  -0.168  -6.947  1.00  0.00    -0.354 N 
ATOM     54  C   UNL     1      12.709  -4.465  -7.048  1.00  0.00     0.074 A 
ATOM     55  C   UNL     1      11.415  -5.109  -7.092  1.00  0.00     0.031 C 
ATOM     56  C   UNL     1      11.215   1.782  -6.889  1.00  0.00     0.029 A 
ATOM     57  C   UNL     1      12.546   1.183  -6.870  1.00  0.00     0.049 A 
ATOM     58  H   UNL     1      13.024  -0.843  -6.942  1.00  0.00     0.167 HD
ATOM     59  C   UNL     1      13.886  -5.132  -7.027  1.00  0.00     0.031 A 
ATOM     60  C   UNL     1      13.707   1.862  -6.800  1.00  0.00     0.031 A 
ATOM     61  C   UNL     1      15.172  -4.493  -7.022  1.00  0.00     0.049 A 
ATOM     62  C   UNL     1      15.003   1.099  -6.798  1.00  0.00     0.074 A 
ATOM     63  C   UNL     1      16.425  -5.078  -7.081  1.00  0.00     0.029 A 
ATOM     64  N   UNL     1      15.370  -3.123  -6.960  1.00  0.00    -0.354 N 
ATOM     65  N   UNL     1      15.200  -0.196  -6.859  1.00  0.00    -0.248 NA
ATOM     66  C   UNL     1      16.238   1.894  -6.730  1.00  0.00     0.031 C 
ATOM     67  C   UNL     1      17.382  -4.062  -7.009  1.00  0.00     0.029 A 
ATOM     68  C   UNL     1      16.725  -2.843  -6.959  1.00  0.00     0.049 A 
ATOM     69  H   UNL     1      14.652  -2.449  -6.923  1.00  0.00     0.167 HD
ATOM     70  C   UNL     1      16.578  -0.369  -6.866  1.00  0.00     0.074 A 
ATOM     71  C   UNL     1      17.168   0.953  -6.816  1.00  0.00     0.031 C 
ATOM     72  C   UNL     1      17.292  -1.520  -6.911  1.00  0.00     0.031 A 
BRANCH  59  73
ATOM     73  C   UNL     1      13.828  -6.634  -7.008  1.00  0.00    -0.014 A 
ATOM     74  C   UNL     1      13.394  -7.362  -8.128  1.00  0.00     0.009 A 
ATOM     75  C   UNL     1      14.232  -7.332  -5.860  1.00  0.00     0.009 A 
ATOM     76  C   UNL     1      13.326  -8.756  -8.083  1.00  0.00     0.001 A 
ATOM     77  C   UNL     1      14.193  -8.727  -5.829  1.00  0.00     0.001 A 
ATOM     78  C   UNL     1      13.730  -9.437  -6.936  1.00  0.00     0.000 A 
ENDBRANCH  59  73
BRANCH  60  79
ATOM     79  C   UNL     1      13.704   3.348  -6.768  1.00  0.00    -0.014 A 
ATOM     80  C   UNL     1      14.132   4.080  -7.887  1.00  0.00     0.009 A 
ATOM     81  C   UNL     1      13.278   4.044  -5.626  1.00  0.00     0.009 A 
ATOM     82  C   UNL     1      14.158   5.476  -7.855  1.00  0.00     0.001 A 
ATOM     83  C   UNL     1      13.280   5.441  -5.607  1.00  0.00     0.001 A 
ATOM     84  C   UNL     1      13.727   6.156  -6.717  1.00  0.00     0.000 A 
ENDBRANCH  60  79
BRANCH  72  85
ATOM     85  C   UNL     1      18.788  -1.402  -6.944  1.00  0.00    -0.014 A 
ATOM     86  C   UNL     1      19.516  -1.033  -5.803  1.00  0.00     0.009 A 
ATOM     87  C   UNL     1      19.482  -1.719  -8.123  1.00  0.00     0.009 A 
ATOM     88  C   UNL     1      20.909  -0.954  -5.851  1.00  0.00     0.001 A 
ATOM     89  C   UNL     1      20.875  -1.667  -8.160  1.00  0.00     0.001 A 
ATOM     90  C   UNL     1      21.587  -1.277  -7.027  1.00  0.00     0.000 A 
ENDBRANCH  72  85
ENDBRANCH  46  47
ENDBRANCH  38  41
ENDBRANCH  36  37
ENDBRANCH  35  36
ENDBRANCH  34  35
ENDBRANCH   1  34
TORSDOF 16
