REMARK SMILES C[NH2+][C@]1(C(=O)NCCCCNC(=O)c2ccc(-c3c4nc(c(-c5ccccc5)c5ccc([nH]5)c(-c5ccccc5)c5nc(c(-c6ccccc6)c6ccc3[nH]6)C=C5)C=C4)cc2)CCC[C@@H]1CC[N@H+]1CCC[C@H]([NH+](C)C)C1
REMARK SMILES IDX 7 1 6 2 4 3 5 4 3 6 62 7 65 8 63 9 64 10 2 11 1 12 66 15
REMARK SMILES IDX 67 16 68 17 69 18 76 19 70 21 72 22 71 23 73 24 74 25 75 26
REMARK SMILES IDX 8 28 9 29 10 30 11 31 12 32 13 34 14 35 15 36 61 37 16 38
REMARK SMILES IDX 60 39 17 40 18 41 19 42 54 43 20 44 59 45 53 46 55 47 21 48
REMARK SMILES IDX 58 49 52 50 51 51 22 53 44 54 29 55 43 56 30 57 33 58 42 59
REMARK SMILES IDX 56 60 31 61 32 62 41 64 57 65 34 66 23 67 24 68 28 69 25 70
REMARK SMILES IDX 27 71 26 72 45 73 46 74 50 75 47 76 49 77 48 78 35 79 36 80
REMARK SMILES IDX 40 81 37 82 39 83 38 84
REMARK H PARENT 6 5 2 13 2 14 68 20 73 27 11 33 55 52 33 63
REMARK Flexibility Score: inf
ROOT
ATOM      1  C   UNL     1       0.341   0.496  -1.578  1.00  0.00     0.116 C 
ENDROOT
BRANCH   1   2
ATOM      2  N   UNL     1       0.884   0.812  -0.268  1.00  0.00    -0.351 N 
ATOM      3  C   UNL     1       0.303   0.944   0.959  1.00  0.00     0.281 C 
ATOM      4  O   UNL     1       1.081   1.200   1.889  1.00  0.00    -0.268 OA
ATOM      5  H   UNL     1       1.858   0.959  -0.266  1.00  0.00     0.163 HD
BRANCH   3   6
ATOM      6  C   UNL     1      -1.250   0.843   1.214  1.00  0.00     0.178 C 
ATOM      7  C   UNL     1      -1.976   1.924   0.394  1.00  0.00     0.079 C 
ATOM      8  C   UNL     1      -1.829  -0.504   0.696  1.00  0.00     0.066 C 
ATOM      9  C   UNL     1      -3.304   1.322  -0.050  1.00  0.00     0.008 C 
ATOM     10  C   UNL     1      -3.255  -0.180   0.234  1.00  0.00     0.011 C 
BRANCH   6  11
ATOM     11  N   UNL     1      -1.451   0.977   2.685  1.00  0.00    -0.336 N 
ATOM     12  C   UNL     1      -2.727   1.439   3.187  1.00  0.00     0.331 C 
ATOM     13  H   UNL     1      -1.286   0.057   3.093  1.00  0.00     0.346 HD
ATOM     14  H   UNL     1      -0.805   1.720   2.950  1.00  0.00     0.346 HD
ENDBRANCH   6  11
BRANCH   8  15
ATOM     15  C   UNL     1      -1.763  -1.670   1.708  1.00  0.00     0.072 C 
BRANCH  15  16
ATOM     16  C   UNL     1      -1.649  -3.067   1.076  1.00  0.00     0.262 C 
BRANCH  16  17
ATOM     17  N   UNL     1      -0.486  -3.289   0.193  1.00  0.00    -0.330 N 
ATOM     18  C   UNL     1       0.796  -2.932   0.813  1.00  0.00     0.262 C 
ATOM     19  C   UNL     1      -0.448  -4.710  -0.218  1.00  0.00     0.327 C 
ATOM     20  H   UNL     1      -0.608  -2.674  -0.612  1.00  0.00     0.348 HD
ATOM     21  C   UNL     1       1.931  -3.056  -0.200  1.00  0.00     0.068 C 
ATOM     22  C   UNL     1       0.672  -5.055  -1.242  1.00  0.00     0.239 C 
ATOM     23  C   UNL     1       2.025  -4.449  -0.810  1.00  0.00     0.077 C 
BRANCH  22  24
ATOM     24  N   UNL     1       0.371  -4.821  -2.677  1.00  0.00    -0.333 N 
ATOM     25  C   UNL     1      -0.622  -5.774  -3.182  1.00  0.00     0.332 C 
ATOM     26  C   UNL     1      -0.051  -3.463  -3.002  1.00  0.00     0.332 C 
ATOM     27  H   UNL     1       1.266  -4.966  -3.144  1.00  0.00     0.348 HD
ENDBRANCH  22  24
ENDBRANCH  16  17
ENDBRANCH  15  16
ENDBRANCH   8  15
ENDBRANCH   3   6
ENDBRANCH   1   2
BRANCH   1  28
ATOM     28  C   UNL     1       0.901   1.394  -2.678  1.00  0.00     0.023 C 
BRANCH  28  29
ATOM     29  C   UNL     1       2.404   1.267  -2.940  1.00  0.00     0.023 C 
BRANCH  29  30
ATOM     30  C   UNL     1       2.925  -0.141  -3.215  1.00  0.00     0.116 C 
BRANCH  30  31
ATOM     31  N   UNL     1       2.247  -0.809  -4.314  1.00  0.00    -0.352 N 
ATOM     32  C   UNL     1       2.772  -1.575  -5.329  1.00  0.00     0.251 C 
ATOM     33  H   UNL     1       1.269  -0.698  -4.334  1.00  0.00     0.163 HD
ATOM     34  O   UNL     1       2.043  -2.004  -6.215  1.00  0.00    -0.269 OA
BRANCH  32  35
ATOM     35  C   UNL     1       4.230  -1.822  -5.387  1.00  0.00     0.039 A 
ATOM     36  C   UNL     1       4.896  -1.570  -6.589  1.00  0.00     0.014 A 
ATOM     37  C   UNL     1       4.941  -2.260  -4.267  1.00  0.00     0.014 A 
ATOM     38  C   UNL     1       6.288  -1.669  -6.644  1.00  0.00     0.010 A 
ATOM     39  C   UNL     1       6.334  -2.301  -4.307  1.00  0.00     0.010 A 
ATOM     40  C   UNL     1       7.021  -1.989  -5.490  1.00  0.00    -0.014 A 
BRANCH  40  41
ATOM     41  C   UNL     1       8.506  -1.954  -5.501  1.00  0.00     0.031 A 
ATOM     42  C   UNL     1       9.304  -3.213  -5.317  1.00  0.00     0.074 A 
ATOM     43  C   UNL     1       9.139  -0.770  -5.619  1.00  0.00     0.049 A 
ATOM     44  N   UNL     1      10.604  -3.364  -5.265  1.00  0.00    -0.248 NA
ATOM     45  C   UNL     1       8.545  -4.461  -5.150  1.00  0.00     0.031 C 
ATOM     46  C   UNL     1       8.484   0.532  -5.762  1.00  0.00     0.029 A 
ATOM     47  N   UNL     1      10.479  -0.470  -5.631  1.00  0.00    -0.354 N 
ATOM     48  C   UNL     1      10.818  -4.718  -5.046  1.00  0.00     0.074 A 
ATOM     49  C   UNL     1       9.515  -5.339  -4.936  1.00  0.00     0.031 C 
ATOM     50  C   UNL     1       9.422   1.487  -5.871  1.00  0.00     0.029 A 
ATOM     51  C   UNL     1      10.742   0.871  -5.773  1.00  0.00     0.049 A 
ATOM     52  H   UNL     1      11.184  -1.151  -5.546  1.00  0.00     0.167 HD
ATOM     53  C   UNL     1      11.992  -5.388  -4.959  1.00  0.00     0.031 A 
ATOM     54  C   UNL     1      11.913   1.534  -5.817  1.00  0.00     0.031 A 
ATOM     55  C   UNL     1      13.290  -4.778  -5.076  1.00  0.00     0.049 A 
ATOM     56  C   UNL     1      13.200   0.768  -5.714  1.00  0.00     0.074 A 
ATOM     57  C   UNL     1      14.533  -5.387  -5.059  1.00  0.00     0.029 A 
ATOM     58  N   UNL     1      13.512  -3.419  -5.229  1.00  0.00    -0.354 N 
ATOM     59  N   UNL     1      13.384  -0.522  -5.577  1.00  0.00    -0.248 NA
ATOM     60  C   UNL     1      14.443   1.551  -5.782  1.00  0.00     0.031 C 
ATOM     61  C   UNL     1      15.510  -4.390  -5.159  1.00  0.00     0.029 A 
ATOM     62  C   UNL     1      14.873  -3.167  -5.285  1.00  0.00     0.049 A 
ATOM     63  H   UNL     1      12.807  -2.734  -5.288  1.00  0.00     0.167 HD
ATOM     64  C   UNL     1      14.760  -0.709  -5.568  1.00  0.00     0.074 A 
ATOM     65  C   UNL     1      15.364   0.598  -5.726  1.00  0.00     0.031 C 
ATOM     66  C   UNL     1      15.460  -1.862  -5.441  1.00  0.00     0.031 A 
BRANCH  53  67
ATOM     67  C   UNL     1      11.922  -6.869  -4.717  1.00  0.00    -0.014 A 
ATOM     68  C   UNL     1      11.499  -7.749  -5.726  1.00  0.00     0.009 A 
ATOM     69  C   UNL     1      12.314  -7.394  -3.476  1.00  0.00     0.009 A 
ATOM     70  C   UNL     1      11.438  -9.123  -5.484  1.00  0.00     0.001 A 
ATOM     71  C   UNL     1      12.275  -8.770  -3.246  1.00  0.00     0.001 A 
ATOM     72  C   UNL     1      11.829  -9.632  -4.247  1.00  0.00     0.000 A 
ENDBRANCH  53  67
BRANCH  54  73
ATOM     73  C   UNL     1      11.924   3.009  -5.986  1.00  0.00    -0.014 A 
ATOM     74  C   UNL     1      12.321   3.581  -7.205  1.00  0.00     0.009 A 
ATOM     75  C   UNL     1      11.545   3.853  -4.931  1.00  0.00     0.009 A 
ATOM     76  C   UNL     1      12.360   4.969  -7.356  1.00  0.00     0.001 A 
ATOM     77  C   UNL     1      11.562   5.239  -5.093  1.00  0.00     0.001 A 
ATOM     78  C   UNL     1      11.977   5.796  -6.301  1.00  0.00     0.000 A 
ENDBRANCH  54  73
BRANCH  66  79
ATOM     79  C   UNL     1      16.957  -1.765  -5.498  1.00  0.00    -0.014 A 
ATOM     80  C   UNL     1      17.694  -1.250  -4.420  1.00  0.00     0.009 A 
ATOM     81  C   UNL     1      17.641  -2.229  -6.633  1.00  0.00     0.009 A 
ATOM     82  C   UNL     1      19.087  -1.176  -4.491  1.00  0.00     0.001 A 
ATOM     83  C   UNL     1      19.034  -2.176  -6.690  1.00  0.00     0.001 A 
ATOM     84  C   UNL     1      19.755  -1.642  -5.623  1.00  0.00     0.000 A 
ENDBRANCH  66  79
ENDBRANCH  40  41
ENDBRANCH  32  35
ENDBRANCH  30  31
ENDBRANCH  29  30
ENDBRANCH  28  29
ENDBRANCH   1  28
TORSDOF 16
