REMARK SMILES O=C(NCCCCNC(=O)[C@H]1C[C@@H]1C(=O)Nc1ccc(Cl)c(Br)c1)c1ccc(-c2c3nc(c(-c4ccccc4)c4ccc([nH]4)c(-c4ccccc4)c4nc(c(-c5ccccc5)c5ccc2[nH]5)C=C4)C=C3)cc1
REMARK SMILES IDX 5 1 4 2 3 3 1 4 2 5 25 7 26 8 72 9 27 10 71 11 28 12 29 13
REMARK SMILES IDX 30 14 65 15 31 16 70 17 64 18 66 19 32 20 69 21 63 22 62 23
REMARK SMILES IDX 33 25 55 26 40 27 54 28 41 29 44 30 53 31 67 32 42 33 43 34
REMARK SMILES IDX 52 36 68 37 45 38 34 39 35 40 39 41 36 42 38 43 37 44 56 45
REMARK SMILES IDX 57 46 61 47 58 48 60 49 59 50 46 51 47 52 51 53 48 54 50 55
REMARK SMILES IDX 49 56 6 57 7 58 8 59 9 60 10 62 11 63 12 64 13 65 14 66
REMARK SMILES IDX 15 67 16 68 17 70 18 71 24 72 19 73 22 74 20 75 23 76 21 77
REMARK H PARENT 3 6 66 24 44 35 8 61 16 69
REMARK Flexibility Score: inf
ROOT
ATOM      1  C   UNL     1       9.957   0.250   5.152  1.00  0.00     0.023 C 
ENDROOT
BRANCH   1   2
ATOM      2  C   UNL     1      11.415  -0.198   5.183  1.00  0.00     0.116 C 
BRANCH   2   3
ATOM      3  N   UNL     1      11.939  -0.466   3.854  1.00  0.00    -0.352 N 
ATOM      4  O   UNL     1      13.323  -0.238   2.095  1.00  0.00    -0.269 OA
ATOM      5  C   UNL     1      13.123  -0.067   3.293  1.00  0.00     0.251 C 
ATOM      6  H   UNL     1      11.361  -1.013   3.275  1.00  0.00     0.163 HD
BRANCH   5   7
ATOM      7  C   UNL     1      14.162   0.570   4.128  1.00  0.00     0.039 A 
ATOM      8  C   UNL     1      14.858   1.665   3.612  1.00  0.00     0.014 A 
ATOM      9  C   UNL     1      14.493   0.051   5.383  1.00  0.00     0.014 A 
ATOM     10  C   UNL     1      15.888   2.244   4.355  1.00  0.00     0.010 A 
ATOM     11  C   UNL     1      15.471   0.672   6.153  1.00  0.00     0.010 A 
ATOM     12  C   UNL     1      16.203   1.749   5.630  1.00  0.00    -0.014 A 
BRANCH  12  13
ATOM     13  C   UNL     1      17.360   2.274   6.394  1.00  0.00     0.031 A 
ATOM     14  C   UNL     1      18.537   1.374   6.652  1.00  0.00     0.074 A 
ATOM     15  C   UNL     1      17.345   3.530   6.879  1.00  0.00     0.049 A 
ATOM     16  N   UNL     1      19.601   1.597   7.380  1.00  0.00    -0.248 NA
ATOM     17  C   UNL     1      18.509   0.039   6.027  1.00  0.00     0.031 C 
ATOM     18  C   UNL     1      16.264   4.497   6.689  1.00  0.00     0.029 A 
ATOM     19  N   UNL     1      18.268   4.205   7.639  1.00  0.00    -0.354 N 
ATOM     20  C   UNL     1      20.352   0.430   7.314  1.00  0.00     0.074 A 
ATOM     21  C   UNL     1      19.607  -0.517   6.518  1.00  0.00     0.031 C 
ATOM     22  C   UNL     1      16.591   5.644   7.304  1.00  0.00     0.029 A 
ATOM     23  C   UNL     1      17.880   5.479   7.974  1.00  0.00     0.049 A 
ATOM     24  H   UNL     1      19.128   3.813   7.916  1.00  0.00     0.167 HD
ATOM     25  C   UNL     1      21.567   0.182   7.852  1.00  0.00     0.031 A 
ATOM     26  C   UNL     1      18.480   6.405   8.750  1.00  0.00     0.031 A 
ATOM     27  C   UNL     1      22.321   1.142   8.611  1.00  0.00     0.049 A 
ATOM     28  C   UNL     1      19.819   6.092   9.364  1.00  0.00     0.074 A 
ATOM     29  C   UNL     1      23.586   0.997   9.150  1.00  0.00     0.029 A 
ATOM     30  N   UNL     1      21.888   2.418   8.929  1.00  0.00    -0.354 N 
ATOM     31  N   UNL     1      20.536   4.999   9.259  1.00  0.00    -0.248 NA
ATOM     32  C   UNL     1      20.439   7.137  10.192  1.00  0.00     0.031 C 
ATOM     33  C   UNL     1      23.889   2.158   9.858  1.00  0.00     0.029 A 
ATOM     34  C   UNL     1      22.850   3.059   9.688  1.00  0.00     0.049 A 
ATOM     35  H   UNL     1      21.026   2.810   8.657  1.00  0.00     0.167 HD
ATOM     36  C   UNL     1      21.698   5.233   9.986  1.00  0.00     0.074 A 
ATOM     37  C   UNL     1      21.599   6.577  10.513  1.00  0.00     0.031 C 
ATOM     38  C   UNL     1      22.748   4.404  10.196  1.00  0.00     0.031 A 
BRANCH  25  39
ATOM     39  C   UNL     1      22.186  -1.171   7.638  1.00  0.00    -0.014 A 
ATOM     40  C   UNL     1      22.398  -2.018   8.738  1.00  0.00     0.009 A 
ATOM     41  C   UNL     1      22.686  -1.548   6.382  1.00  0.00     0.009 A 
ATOM     42  C   UNL     1      23.127  -3.200   8.592  1.00  0.00     0.001 A 
ATOM     43  C   UNL     1      23.386  -2.747   6.233  1.00  0.00     0.001 A 
ATOM     44  C   UNL     1      23.620  -3.563   7.340  1.00  0.00     0.000 A 
ENDBRANCH  25  39
BRANCH  26  45
ATOM     45  C   UNL     1      17.808   7.713   8.979  1.00  0.00    -0.014 A 
ATOM     46  C   UNL     1      16.602   7.779   9.698  1.00  0.00     0.009 A 
ATOM     47  C   UNL     1      18.335   8.896   8.440  1.00  0.00     0.009 A 
ATOM     48  C   UNL     1      15.925   8.991   9.847  1.00  0.00     0.001 A 
ATOM     49  C   UNL     1      17.674  10.114   8.621  1.00  0.00     0.001 A 
ATOM     50  C   UNL     1      16.464  10.159   9.313  1.00  0.00     0.000 A 
ENDBRANCH  26  45
BRANCH  38  51
ATOM     51  C   UNL     1      23.907   4.902  11.016  1.00  0.00    -0.014 A 
ATOM     52  C   UNL     1      25.162   5.075  10.407  1.00  0.00     0.009 A 
ATOM     53  C   UNL     1      23.802   5.035  12.408  1.00  0.00     0.009 A 
ATOM     54  C   UNL     1      26.295   5.335  11.180  1.00  0.00     0.001 A 
ATOM     55  C   UNL     1      24.931   5.329  13.174  1.00  0.00     0.001 A 
ATOM     56  C   UNL     1      26.178   5.462  12.562  1.00  0.00     0.000 A 
ENDBRANCH  38  51
ENDBRANCH  12  13
ENDBRANCH   5   7
ENDBRANCH   2   3
ENDBRANCH   1   2
BRANCH   1  57
ATOM     57  C   UNL     1       9.002  -0.717   4.444  1.00  0.00     0.023 C 
BRANCH  57  58
ATOM     58  C   UNL     1       9.040  -2.138   4.999  1.00  0.00     0.116 C 
BRANCH  58  59
ATOM     59  N   UNL     1       8.410  -2.205   6.301  1.00  0.00    -0.356 N 
ATOM     60  C   UNL     1       7.154  -2.639   6.614  1.00  0.00     0.223 C 
ATOM     61  H   UNL     1       8.958  -1.897   7.059  1.00  0.00     0.163 HD
ATOM     62  O   UNL     1       6.758  -2.588   7.776  1.00  0.00    -0.275 OA
BRANCH  60  63
ATOM     63  C   UNL     1       6.295  -3.196   5.540  1.00  0.00     0.091 C 
ATOM     64  C   UNL     1       5.578  -4.503   5.759  1.00  0.00     0.028 C 
ATOM     65  C   UNL     1       4.791  -3.211   5.728  1.00  0.00     0.092 C 
BRANCH  65  66
ATOM     66  C   UNL     1       3.921  -2.912   4.559  1.00  0.00     0.228 C 
ATOM     67  O   UNL     1       4.394  -2.365   3.566  1.00  0.00    -0.274 OA
ATOM     68  N   UNL     1       2.640  -3.406   4.529  1.00  0.00    -0.326 N 
ATOM     69  H   UNL     1       2.214  -3.406   3.641  1.00  0.00     0.169 HD
BRANCH  68  70
ATOM     70  C   UNL     1       1.847  -3.911   5.567  1.00  0.00     0.042 A 
ATOM     71  C   UNL     1       1.904  -3.427   6.874  1.00  0.00     0.028 A 
ATOM     72  C   UNL     1       0.923  -4.910   5.250  1.00  0.00     0.043 A 
ATOM     73  C   UNL     1       1.113  -3.995   7.875  1.00  0.00     0.024 A 
ATOM     74  C   UNL     1       0.137  -5.492   6.253  1.00  0.00     0.038 A 
ATOM     75  C   UNL     1       0.242  -5.043   7.573  1.00  0.00     0.055 A 
ATOM     76  Br  UNL     1      -1.029  -6.900   5.740  1.00  0.00    -0.049 Br
ATOM     77  Cl  UNL     1      -0.673  -5.720   8.871  1.00  0.00    -0.083 Cl
ENDBRANCH  68  70
ENDBRANCH  65  66
ENDBRANCH  60  63
ENDBRANCH  58  59
ENDBRANCH  57  58
ENDBRANCH   1  57
TORSDOF 13
