REMARK SMILES CN(c1ccc(C(N)=O)nn1)[C@H]1COC[C@@H]1C(=O)NCCCCNC(=O)c1ccc(-c2c3nc(c(-c4ccccc4)c4ccc([nH]4)c(-c4ccccc4)c4nc(c(-c5ccccc5)c5ccc2[nH]5)C=C4)C=C3)cc1
REMARK SMILES IDX 21 1 20 2 19 3 17 4 18 5 16 7 12 8 13 9 14 10 15 11 2 12
REMARK SMILES IDX 1 13 3 14 4 15 11 16 5 17 10 18 6 19 7 20 8 21 9 22 22 25
REMARK SMILES IDX 23 26 24 27 25 28 26 30 27 31 28 32 74 33 29 34 73 35 30 36
REMARK SMILES IDX 31 37 32 38 67 39 33 40 72 41 66 42 68 43 34 44 71 45 65 46
REMARK SMILES IDX 64 47 35 49 57 50 42 51 56 52 43 53 46 54 55 55 69 56 44 57
REMARK SMILES IDX 45 58 54 60 70 61 47 62 36 63 37 64 41 65 38 66 40 67 39 68
REMARK SMILES IDX 58 69 59 70 63 71 60 72 62 73 61 74 48 75 49 76 53 77 50 78
REMARK SMILES IDX 52 79 51 80
REMARK H PARENT 19 6 8 23 8 24 24 29 68 48 46 59
REMARK Flexibility Score: inf
ROOT
ATOM      1  C   UNL     1      -3.166   4.661  -3.601  1.00  0.00     0.023 C 
ENDROOT
BRANCH   1   2
ATOM      2  C   UNL     1      -2.287   5.123  -2.441  1.00  0.00     0.116 C 
BRANCH   2   3
ATOM      3  N   UNL     1      -2.323   4.180  -1.338  1.00  0.00    -0.356 N 
ATOM      4  C   UNL     1      -1.361   3.297  -0.936  1.00  0.00     0.227 C 
ATOM      5  O   UNL     1      -1.622   2.530  -0.011  1.00  0.00    -0.275 OA
ATOM      6  H   UNL     1      -3.153   4.176  -0.809  1.00  0.00     0.163 HD
BRANCH   4   7
ATOM      7  C   UNL     1       0.002   3.361  -1.597  1.00  0.00     0.129 C 
ATOM      8  C   UNL     1       0.794   2.083  -1.372  1.00  0.00     0.124 C 
ATOM      9  C   UNL     1       1.593   2.419  -0.113  1.00  0.00     0.186 C 
ATOM     10  O   UNL     1       1.864   3.829  -0.154  1.00  0.00    -0.378 OA
ATOM     11  C   UNL     1       0.824   4.449  -0.925  1.00  0.00     0.176 C 
BRANCH   8  12
ATOM     12  N   UNL     1       1.643   1.746  -2.548  1.00  0.00    -0.352 N 
ATOM     13  C   UNL     1       2.912   2.429  -2.767  1.00  0.00     0.145 C 
BRANCH  12  14
ATOM     14  C   UNL     1       0.992   1.137  -3.618  1.00  0.00     0.151 A 
ATOM     15  C   UNL     1       1.686   0.388  -4.564  1.00  0.00     0.051 A 
ATOM     16  N   UNL     1      -0.354   1.246  -3.740  1.00  0.00    -0.132 NA
ATOM     17  C   UNL     1       1.007  -0.214  -5.625  1.00  0.00     0.040 A 
ATOM     18  N   UNL     1      -1.041   0.680  -4.791  1.00  0.00    -0.143 NA
ATOM     19  C   UNL     1      -0.359  -0.038  -5.708  1.00  0.00     0.150 A 
BRANCH  19  20
ATOM     20  C   UNL     1      -1.149  -0.637  -6.818  1.00  0.00     0.269 C 
ATOM     21  N   UNL     1      -2.488  -0.353  -6.832  1.00  0.00    -0.364 N 
ATOM     22  O   UNL     1      -0.634  -1.343  -7.678  1.00  0.00    -0.268 OA
ATOM     23  H   UNL     1      -2.878   0.217  -6.130  1.00  0.00     0.160 HD
ATOM     24  H   UNL     1      -3.061  -0.718  -7.545  1.00  0.00     0.160 HD
ENDBRANCH  19  20
ENDBRANCH  12  14
ENDBRANCH   8  12
ENDBRANCH   4   7
ENDBRANCH   2   3
ENDBRANCH   1   2
BRANCH   1  25
ATOM     25  C   UNL     1      -4.662   4.616  -3.279  1.00  0.00     0.023 C 
BRANCH  25  26
ATOM     26  C   UNL     1      -5.244   5.911  -2.723  1.00  0.00     0.116 C 
BRANCH  26  27
ATOM     27  N   UNL     1      -5.090   7.039  -3.629  1.00  0.00    -0.352 N 
ATOM     28  C   UNL     1      -6.019   7.982  -4.000  1.00  0.00     0.251 C 
ATOM     29  H   UNL     1      -4.197   7.141  -4.032  1.00  0.00     0.163 HD
ATOM     30  O   UNL     1      -5.761   8.791  -4.885  1.00  0.00    -0.269 OA
BRANCH  28  31
ATOM     31  C   UNL     1      -7.346   7.990  -3.351  1.00  0.00     0.039 A 
ATOM     32  C   UNL     1      -8.488   8.065  -4.152  1.00  0.00     0.014 A 
ATOM     33  C   UNL     1      -7.464   7.891  -1.962  1.00  0.00     0.014 A 
ATOM     34  C   UNL     1      -9.750   7.962  -3.565  1.00  0.00     0.010 A 
ATOM     35  C   UNL     1      -8.719   7.711  -1.388  1.00  0.00     0.010 A 
ATOM     36  C   UNL     1      -9.874   7.741  -2.183  1.00  0.00    -0.014 A 
BRANCH  36  37
ATOM     37  C   UNL     1     -11.202   7.521  -1.554  1.00  0.00     0.031 A 
ATOM     38  C   UNL     1     -11.723   8.485  -0.525  1.00  0.00     0.074 A 
ATOM     39  C   UNL     1     -11.912   6.418  -1.864  1.00  0.00     0.049 A 
ATOM     40  N   UNL     1     -12.828   8.427   0.175  1.00  0.00    -0.248 NA
ATOM     41  C   UNL     1     -10.883   9.655  -0.225  1.00  0.00     0.031 C 
ATOM     42  C   UNL     1     -11.507   5.388  -2.824  1.00  0.00     0.029 A 
ATOM     43  N   UNL     1     -13.127   5.977  -1.400  1.00  0.00    -0.354 N 
ATOM     44  C   UNL     1     -12.810   9.543   1.001  1.00  0.00     0.074 A 
ATOM     45  C   UNL     1     -11.560  10.230   0.757  1.00  0.00     0.031 C 
ATOM     46  C   UNL     1     -12.470   4.456  -2.901  1.00  0.00     0.029 A 
ATOM     47  C   UNL     1     -13.535   4.793  -1.964  1.00  0.00     0.049 A 
ATOM     48  H   UNL     1     -13.655   6.464  -0.727  1.00  0.00     0.167 HD
ATOM     49  C   UNL     1     -13.756   9.971   1.871  1.00  0.00     0.031 A 
ATOM     50  C   UNL     1     -14.640   4.054  -1.744  1.00  0.00     0.031 A 
ATOM     51  C   UNL     1     -14.999   9.289   2.116  1.00  0.00     0.049 A 
ATOM     52  C   UNL     1     -15.654   4.528  -0.740  1.00  0.00     0.074 A 
ATOM     53  C   UNL     1     -16.039   9.666   2.947  1.00  0.00     0.029 A 
ATOM     54  N   UNL     1     -15.366   8.085   1.536  1.00  0.00    -0.354 N 
ATOM     55  N   UNL     1     -15.649   5.618  -0.011  1.00  0.00    -0.248 NA
ATOM     56  C   UNL     1     -16.830   3.671  -0.535  1.00  0.00     0.031 C 
ATOM     57  C   UNL     1     -17.010   8.661   2.915  1.00  0.00     0.029 A 
ATOM     58  C   UNL     1     -16.606   7.691   2.013  1.00  0.00     0.049 A 
ATOM     59  H   UNL     1     -14.827   7.584   0.882  1.00  0.00     0.167 HD
ATOM     60  C   UNL     1     -16.834   5.594   0.713  1.00  0.00     0.074 A 
ATOM     61  C   UNL     1     -17.540   4.391   0.324  1.00  0.00     0.031 C 
ATOM     62  C   UNL     1     -17.298   6.491   1.617  1.00  0.00     0.031 A 
BRANCH  49  63
ATOM     63  C   UNL     1     -13.476  11.240   2.630  1.00  0.00    -0.014 A 
ATOM     64  C   UNL     1     -13.445  12.485   1.981  1.00  0.00     0.009 A 
ATOM     65  C   UNL     1     -13.280  11.195   4.019  1.00  0.00     0.009 A 
ATOM     66  C   UNL     1     -13.186  13.653   2.701  1.00  0.00     0.001 A 
ATOM     67  C   UNL     1     -13.054  12.368   4.742  1.00  0.00     0.001 A 
ATOM     68  C   UNL     1     -12.997  13.594   4.081  1.00  0.00     0.000 A 
ENDBRANCH  49  63
BRANCH  50  69
ATOM     69  C   UNL     1     -14.857   2.790  -2.498  1.00  0.00    -0.014 A 
ATOM     70  C   UNL     1     -15.885   2.697  -3.449  1.00  0.00     0.009 A 
ATOM     71  C   UNL     1     -14.049   1.667  -2.262  1.00  0.00     0.009 A 
ATOM     72  C   UNL     1     -16.118   1.497  -4.125  1.00  0.00     0.001 A 
ATOM     73  C   UNL     1     -14.264   0.478  -2.963  1.00  0.00     0.001 A 
ATOM     74  C   UNL     1     -15.305   0.391  -3.885  1.00  0.00     0.000 A 
ENDBRANCH  50  69
BRANCH  62  75
ATOM     75  C   UNL     1     -18.650   6.229   2.220  1.00  0.00    -0.014 A 
ATOM     76  C   UNL     1     -18.855   5.189   3.140  1.00  0.00     0.009 A 
ATOM     77  C   UNL     1     -19.728   7.067   1.892  1.00  0.00     0.009 A 
ATOM     78  C   UNL     1     -20.119   4.974   3.693  1.00  0.00     0.001 A 
ATOM     79  C   UNL     1     -20.982   6.871   2.472  1.00  0.00     0.001 A 
ATOM     80  C   UNL     1     -21.179   5.819   3.364  1.00  0.00     0.000 A 
ENDBRANCH  62  75
ENDBRANCH  36  37
ENDBRANCH  28  31
ENDBRANCH  26  27
ENDBRANCH  25  26
ENDBRANCH   1  25
TORSDOF 14
