REMARK SMILES Cc1cc(CNS(=O)(=O)c2ccc(C(=O)NCCCCNC(=O)c3ccc(-c4c5nc(c(-c6ccccc6)c6ccc([nH]6)c(-c6ccccc6)c6nc(c(-c7ccccc7)c7ccc4[nH]7)C=C6)C=C5)cc3)cc2F)no1
REMARK SMILES IDX 17 1 16 2 14 3 15 4 13 6 10 7 11 8 73 9 12 10 72 11 74 12
REMARK SMILES IDX 7 13 8 14 9 15 6 16 5 18 4 19 1 20 2 21 3 22 76 23 75 24
REMARK SMILES IDX 18 25 19 26 20 27 21 28 22 29 23 31 24 32 25 33 71 34 26 35
REMARK SMILES IDX 70 36 27 37 28 38 29 39 64 40 30 41 69 42 63 43 65 44 31 45
REMARK SMILES IDX 68 46 62 47 61 48 32 50 54 51 39 52 53 53 40 54 43 55 52 56
REMARK SMILES IDX 66 57 41 58 42 59 51 61 67 62 44 63 33 64 34 65 38 66 35 67
REMARK SMILES IDX 37 68 36 69 55 70 56 71 60 72 57 73 59 74 58 75 45 76 46 77
REMARK SMILES IDX 50 78 47 79 49 80 48 81
REMARK H PARENT 16 5 6 17 21 30 65 49 43 60
REMARK Flexibility Score: inf
ROOT
ATOM      1  C   UNL     1      -8.092   1.549  -3.363  1.00  0.00     0.116 C 
ENDROOT
BRANCH   1   2
ATOM      2  N   UNL     1      -8.268   0.229  -3.934  1.00  0.00    -0.352 N 
ATOM      3  C   UNL     1      -7.878  -1.021  -3.528  1.00  0.00     0.251 C 
ATOM      4  O   UNL     1      -8.211  -1.968  -4.242  1.00  0.00    -0.269 OA
ATOM      5  H   UNL     1      -8.766   0.230  -4.783  1.00  0.00     0.163 HD
BRANCH   3   6
ATOM      6  C   UNL     1      -7.106  -1.304  -2.281  1.00  0.00     0.042 A 
ATOM      7  C   UNL     1      -5.662  -2.057   0.013  1.00  0.00     0.118 A 
ATOM      8  C   UNL     1      -6.420  -3.010  -0.666  1.00  0.00     0.026 A 
ATOM      9  C   UNL     1      -5.627  -0.750  -0.443  1.00  0.00     0.144 A 
ATOM     10  C   UNL     1      -7.145  -2.627  -1.800  1.00  0.00     0.015 A 
ATOM     11  C   UNL     1      -6.313  -0.380  -1.598  1.00  0.00     0.054 A 
ATOM     12  F   UNL     1      -4.902   0.184   0.187  1.00  0.00    -0.205 F 
BRANCH   7  13
ATOM     13  S   UNL     1      -4.687  -2.521   1.404  1.00  0.00     0.243 S 
ATOM     14  O   UNL     1      -4.379  -3.930   1.256  1.00  0.00    -0.207 OA
ATOM     15  O   UNL     1      -5.348  -2.004   2.575  1.00  0.00    -0.207 OA
BRANCH  13  16
ATOM     16  N   UNL     1      -3.242  -1.694   1.223  1.00  0.00    -0.205 NA
ATOM     17  H   UNL     1      -3.463  -0.699   1.206  1.00  0.00     0.141 HD
BRANCH  16  18
ATOM     18  C   UNL     1      -2.431  -1.982   0.037  1.00  0.00     0.158 C 
BRANCH  18  19
ATOM     19  C   UNL     1      -1.236  -1.087   0.047  1.00  0.00     0.099 A 
ATOM     20  C   UNL     1       2.220   0.135   0.069  1.00  0.00     0.091 C 
ATOM     21  C   UNL     1       0.798  -0.249   0.060  1.00  0.00     0.133 A 
ATOM     22  C   UNL     1       0.129  -1.448   0.079  1.00  0.00     0.073 A 
ATOM     23  O   UNL     1      -0.104   0.768   0.024  1.00  0.00    -0.361 OA
ATOM     24  N   UNL     1      -1.387   0.246   0.010  1.00  0.00    -0.083 NA
ENDBRANCH  18  19
ENDBRANCH  16  18
ENDBRANCH  13  16
ENDBRANCH   7  13
ENDBRANCH   3   6
ENDBRANCH   1   2
BRANCH   1  25
ATOM     25  C   UNL     1      -6.848   2.231  -3.941  1.00  0.00     0.023 C 
BRANCH  25  26
ATOM     26  C   UNL     1      -7.054   2.849  -5.327  1.00  0.00     0.023 C 
BRANCH  26  27
ATOM     27  C   UNL     1      -8.057   3.998  -5.376  1.00  0.00     0.116 C 
BRANCH  27  28
ATOM     28  N   UNL     1      -7.716   5.101  -4.492  1.00  0.00    -0.352 N 
ATOM     29  C   UNL     1      -8.038   6.431  -4.625  1.00  0.00     0.251 C 
ATOM     30  H   UNL     1      -7.187   4.866  -3.696  1.00  0.00     0.163 HD
ATOM     31  O   UNL     1      -7.597   7.261  -3.838  1.00  0.00    -0.269 OA
BRANCH  29  32
ATOM     32  C   UNL     1      -8.881   6.857  -5.759  1.00  0.00     0.039 A 
ATOM     33  C   UNL     1      -8.428   7.896  -6.576  1.00  0.00     0.014 A 
ATOM     34  C   UNL     1     -10.087   6.209  -6.037  1.00  0.00     0.014 A 
ATOM     35  C   UNL     1      -9.150   8.237  -7.719  1.00  0.00     0.010 A 
ATOM     36  C   UNL     1     -10.775   6.511  -7.207  1.00  0.00     0.010 A 
ATOM     37  C   UNL     1     -10.308   7.521  -8.062  1.00  0.00    -0.014 A 
BRANCH  37  38
ATOM     38  C   UNL     1     -11.035   7.796  -9.324  1.00  0.00     0.031 A 
ATOM     39  C   UNL     1     -12.425   8.361  -9.287  1.00  0.00     0.074 A 
ATOM     40  C   UNL     1     -10.469   7.464 -10.500  1.00  0.00     0.049 A 
ATOM     41  N   UNL     1     -13.246   8.595 -10.280  1.00  0.00    -0.248 NA
ATOM     42  C   UNL     1     -12.974   8.681  -7.960  1.00  0.00     0.031 C 
ATOM     43  C   UNL     1      -9.140   6.873 -10.667  1.00  0.00     0.029 A 
ATOM     44  N   UNL     1     -10.950   7.568 -11.781  1.00  0.00    -0.354 N 
ATOM     45  C   UNL     1     -14.412   9.071  -9.697  1.00  0.00     0.074 A 
ATOM     46  C   UNL     1     -14.208   9.055  -8.264  1.00  0.00     0.031 C 
ATOM     47  C   UNL     1      -8.903   6.689 -11.976  1.00  0.00     0.029 A 
ATOM     48  C   UNL     1     -10.074   7.114 -12.735  1.00  0.00     0.049 A 
ATOM     49  H   UNL     1     -11.838   7.934 -11.995  1.00  0.00     0.167 HD
ATOM     50  C   UNL     1     -15.547   9.499 -10.300  1.00  0.00     0.031 A 
ATOM     51  C   UNL     1     -10.201   7.042 -14.073  1.00  0.00     0.031 A 
ATOM     52  C   UNL     1     -15.746   9.529 -11.723  1.00  0.00     0.049 A 
ATOM     53  C   UNL     1     -11.472   7.516 -14.718  1.00  0.00     0.074 A 
ATOM     54  C   UNL     1     -16.839   9.998 -12.432  1.00  0.00     0.029 A 
ATOM     55  N   UNL     1     -14.831   9.068 -12.656  1.00  0.00    -0.354 N 
ATOM     56  N   UNL     1     -12.544   8.018 -14.156  1.00  0.00    -0.248 NA
ATOM     57  C   UNL     1     -11.545   7.419 -16.183  1.00  0.00     0.031 C 
ATOM     58  C   UNL     1     -16.599   9.787 -13.794  1.00  0.00     0.029 A 
ATOM     59  C   UNL     1     -15.341   9.224 -13.934  1.00  0.00     0.049 A 
ATOM     60  H   UNL     1     -13.949   8.686 -12.442  1.00  0.00     0.167 HD
ATOM     61  C   UNL     1     -13.411   8.319 -15.199  1.00  0.00     0.074 A 
ATOM     62  C   UNL     1     -12.734   7.953 -16.427  1.00  0.00     0.031 C 
ATOM     63  C   UNL     1     -14.655   8.852 -15.143  1.00  0.00     0.031 A 
BRANCH  50  64
ATOM     64  C   UNL     1     -16.663   9.963  -9.409  1.00  0.00    -0.014 A 
ATOM     65  C   UNL     1     -16.576  11.178  -8.710  1.00  0.00     0.009 A 
ATOM     66  C   UNL     1     -17.824   9.186  -9.280  1.00  0.00     0.009 A 
ATOM     67  C   UNL     1     -17.613  11.586  -7.869  1.00  0.00     0.001 A 
ATOM     68  C   UNL     1     -18.870   9.609  -8.458  1.00  0.00     0.001 A 
ATOM     69  C   UNL     1     -18.760  10.802  -7.746  1.00  0.00     0.000 A 
ENDBRANCH  50  64
BRANCH  51  70
ATOM     70  C   UNL     1      -9.083   6.519 -14.897  1.00  0.00    -0.014 A 
ATOM     71  C   UNL     1      -8.302   7.395 -15.666  1.00  0.00     0.009 A 
ATOM     72  C   UNL     1      -8.788   5.147 -14.917  1.00  0.00     0.009 A 
ATOM     73  C   UNL     1      -7.259   6.905 -16.455  1.00  0.00     0.001 A 
ATOM     74  C   UNL     1      -7.730   4.663 -15.689  1.00  0.00     0.001 A 
ATOM     75  C   UNL     1      -6.971   5.541 -16.462  1.00  0.00     0.000 A 
ENDBRANCH  51  70
BRANCH  63  76
ATOM     76  C   UNL     1     -15.352   9.097 -16.450  1.00  0.00    -0.014 A 
ATOM     77  C   UNL     1     -15.907   8.039 -17.185  1.00  0.00     0.009 A 
ATOM     78  C   UNL     1     -15.489  10.409 -16.929  1.00  0.00     0.009 A 
ATOM     79  C   UNL     1     -16.564   8.289 -18.391  1.00  0.00     0.001 A 
ATOM     80  C   UNL     1     -16.166  10.658 -18.123  1.00  0.00     0.001 A 
ATOM     81  C   UNL     1     -16.697   9.598 -18.856  1.00  0.00     0.000 A 
ENDBRANCH  63  76
ENDBRANCH  37  38
ENDBRANCH  29  32
ENDBRANCH  27  28
ENDBRANCH  26  27
ENDBRANCH  25  26
ENDBRANCH   1  25
TORSDOF 15
