REMARK SMILES Nc1cc(C(=O)NCCCCNC(=O)c2ccc(-c3c4nc(c(-c5ccccc5)c5ccc([nH]5)c(-c5ccccc5)c5nc(c(-c6ccccc6)c6ccc3[nH]6)C=C5)C=C4)cc2)ccc1N1CC2(CCOCC2)C1
REMARK SMILES IDX 10 1 9 2 8 3 7 4 5 5 6 6 4 8 2 9 3 10 65 11 64 12 63 13 1 14
REMARK SMILES IDX 66 17 67 18 74 19 68 20 69 21 73 22 70 23 72 24 71 25 11 26
REMARK SMILES IDX 12 27 13 28 14 30 15 31 16 32 62 33 17 34 61 35 18 36 19 37
REMARK SMILES IDX 20 38 55 39 21 40 60 41 54 42 56 43 22 44 59 45 53 46 52 47
REMARK SMILES IDX 23 49 45 50 30 51 44 52 31 53 34 54 43 55 57 56 32 57 33 58
REMARK SMILES IDX 42 60 58 61 35 62 24 63 25 64 29 65 26 66 28 67 27 68 46 69
REMARK SMILES IDX 47 70 51 71 48 72 50 73 49 74 36 75 37 76 41 77 38 78 40 79
REMARK SMILES IDX 39 80
REMARK H PARENT 7 7 1 15 1 16 12 29 56 48 34 59
REMARK Flexibility Score: inf
ROOT
ATOM      1  C   UNL     1      -5.908  -2.102  -1.502  1.00  0.00     0.023 C 
ENDROOT
BRANCH   1   2
ATOM      2  C   UNL     1      -4.901  -1.067  -0.987  1.00  0.00     0.023 C 
BRANCH   2   3
ATOM      3  C   UNL     1      -4.236  -1.451   0.336  1.00  0.00     0.116 C 
BRANCH   3   4
ATOM      4  N   UNL     1      -3.188  -2.419   0.107  1.00  0.00    -0.352 N 
ATOM      5  C   UNL     1      -1.853  -2.300  -0.174  1.00  0.00     0.251 C 
ATOM      6  O   UNL     1      -1.247  -3.357  -0.371  1.00  0.00    -0.269 OA
ATOM      7  H   UNL     1      -3.496  -3.353   0.164  1.00  0.00     0.163 HD
BRANCH   5   8
ATOM      8  C   UNL     1      -1.095  -1.011  -0.211  1.00  0.00     0.041 A 
ATOM      9  C   UNL     1       1.143  -0.010  -0.130  1.00  0.00     0.056 A 
ATOM     10  C   UNL     1       0.303  -1.129  -0.142  1.00  0.00     0.041 A 
ATOM     11  C   UNL     1       0.576   1.282  -0.121  1.00  0.00     0.060 A 
ATOM     12  C   UNL     1      -0.812   1.407  -0.214  1.00  0.00     0.029 A 
ATOM     13  C   UNL     1      -1.635   0.273  -0.299  1.00  0.00     0.016 A 
BRANCH   9  14
ATOM     14  N   UNL     1       2.510  -0.205   0.060  1.00  0.00    -0.397 N 
ATOM     15  H   UNL     1       2.884  -1.116   0.050  1.00  0.00     0.156 HD
ATOM     16  H   UNL     1       3.102   0.568   0.205  1.00  0.00     0.156 HD
ENDBRANCH   9  14
BRANCH  11  17
ATOM     17  N   UNL     1       1.391   2.412   0.017  1.00  0.00    -0.369 N 
ATOM     18  C   UNL     1       2.340   2.987  -0.878  1.00  0.00     0.125 C 
ATOM     19  C   UNL     1       1.270   3.590   0.810  1.00  0.00     0.125 C 
ATOM     20  C   UNL     1       2.686   3.958   0.285  1.00  0.00     0.010 C 
ATOM     21  C   UNL     1       2.915   5.420  -0.082  1.00  0.00     0.039 C 
ATOM     22  C   UNL     1       3.826   3.461   1.193  1.00  0.00     0.039 C 
ATOM     23  C   UNL     1       4.298   5.555  -0.713  1.00  0.00     0.161 C 
ATOM     24  C   UNL     1       5.153   3.695   0.483  1.00  0.00     0.161 C 
ATOM     25  O   UNL     1       5.310   5.083   0.181  1.00  0.00    -0.381 OA
ENDBRANCH  11  17
ENDBRANCH   5   8
ENDBRANCH   3   4
ENDBRANCH   2   3
ENDBRANCH   1   2
BRANCH   1  26
ATOM     26  C   UNL     1      -7.098  -2.355  -0.581  1.00  0.00     0.116 C 
BRANCH  26  27
ATOM     27  N   UNL     1      -7.829  -1.146  -0.237  1.00  0.00    -0.352 N 
ATOM     28  C   UNL     1      -9.159  -1.012   0.085  1.00  0.00     0.251 C 
ATOM     29  H   UNL     1      -7.303  -0.314  -0.235  1.00  0.00     0.163 HD
ATOM     30  O   UNL     1      -9.651   0.092   0.257  1.00  0.00    -0.269 OA
BRANCH  28  31
ATOM     31  C   UNL     1      -9.996  -2.225   0.173  1.00  0.00     0.039 A 
ATOM     32  C   UNL     1     -11.188  -2.268  -0.553  1.00  0.00     0.014 A 
ATOM     33  C   UNL     1      -9.586  -3.322   0.933  1.00  0.00     0.014 A 
ATOM     34  C   UNL     1     -11.939  -3.443  -0.571  1.00  0.00     0.010 A 
ATOM     35  C   UNL     1     -10.301  -4.512   0.863  1.00  0.00     0.010 A 
ATOM     36  C   UNL     1     -11.482  -4.584   0.108  1.00  0.00    -0.014 A 
BRANCH  36  37
ATOM     37  C   UNL     1     -12.219  -5.868   0.030  1.00  0.00     0.031 A 
ATOM     38  C   UNL     1     -12.853  -6.450   1.260  1.00  0.00     0.074 A 
ATOM     39  C   UNL     1     -12.256  -6.542  -1.136  1.00  0.00     0.049 A 
ATOM     40  N   UNL     1     -13.490  -7.585   1.401  1.00  0.00    -0.248 NA
ATOM     41  C   UNL     1     -12.736  -5.666   2.500  1.00  0.00     0.031 C 
ATOM     42  C   UNL     1     -11.639  -6.104  -2.390  1.00  0.00     0.029 A 
ATOM     43  N   UNL     1     -12.833  -7.746  -1.452  1.00  0.00    -0.354 N 
ATOM     44  C   UNL     1     -13.830  -7.660   2.745  1.00  0.00     0.074 A 
ATOM     45  C   UNL     1     -13.291  -6.480   3.386  1.00  0.00     0.031 C 
ATOM     46  C   UNL     1     -11.894  -7.013  -3.345  1.00  0.00     0.029 A 
ATOM     47  C   UNL     1     -12.659  -8.112  -2.764  1.00  0.00     0.049 A 
ATOM     48  H   UNL     1     -13.325  -8.295  -0.799  1.00  0.00     0.167 HD
ATOM     49  C   UNL     1     -14.544  -8.615   3.386  1.00  0.00     0.031 A 
ATOM     50  C   UNL     1     -13.067  -9.211  -3.424  1.00  0.00     0.031 A 
ATOM     51  C   UNL     1     -15.091  -9.781   2.747  1.00  0.00     0.049 A 
ATOM     52  C   UNL     1     -13.855 -10.258  -2.690  1.00  0.00     0.074 A 
ATOM     53  C   UNL     1     -15.880 -10.776   3.297  1.00  0.00     0.029 A 
ATOM     54  N   UNL     1     -14.902 -10.110   1.414  1.00  0.00    -0.354 N 
ATOM     55  N   UNL     1     -14.231 -10.280  -1.434  1.00  0.00    -0.248 NA
ATOM     56  C   UNL     1     -14.286 -11.428  -3.469  1.00  0.00     0.031 C 
ATOM     57  C   UNL     1     -16.134 -11.730   2.306  1.00  0.00     0.029 A 
ATOM     58  C   UNL     1     -15.543 -11.303   1.127  1.00  0.00     0.049 A 
ATOM     59  H   UNL     1     -14.390  -9.574   0.767  1.00  0.00     0.167 HD
ATOM     60  C   UNL     1     -14.961 -11.450  -1.278  1.00  0.00     0.074 A 
ATOM     61  C   UNL     1     -14.989 -12.103  -2.571  1.00  0.00     0.031 C 
ATOM     62  C   UNL     1     -15.557 -11.940  -0.164  1.00  0.00     0.031 A 
BRANCH  49  63
ATOM     63  C   UNL     1     -14.766  -8.434   4.862  1.00  0.00    -0.014 A 
ATOM     64  C   UNL     1     -15.625  -7.437   5.350  1.00  0.00     0.009 A 
ATOM     65  C   UNL     1     -14.126  -9.286   5.774  1.00  0.00     0.009 A 
ATOM     66  C   UNL     1     -15.807  -7.270   6.724  1.00  0.00     0.001 A 
ATOM     67  C   UNL     1     -14.331  -9.136   7.147  1.00  0.00     0.001 A 
ATOM     68  C   UNL     1     -15.163  -8.122   7.621  1.00  0.00     0.000 A 
ENDBRANCH  49  63
BRANCH  50  69
ATOM     69  C   UNL     1     -12.757  -9.369  -4.868  1.00  0.00    -0.014 A 
ATOM     70  C   UNL     1     -13.771  -9.241  -5.829  1.00  0.00     0.009 A 
ATOM     71  C   UNL     1     -11.449  -9.649  -5.293  1.00  0.00     0.009 A 
ATOM     72  C   UNL     1     -13.487  -9.414  -7.185  1.00  0.00     0.001 A 
ATOM     73  C   UNL     1     -11.163  -9.797  -6.652  1.00  0.00     0.001 A 
ATOM     74  C   UNL     1     -12.183  -9.688  -7.596  1.00  0.00     0.000 A 
ENDBRANCH  50  69
BRANCH  62  75
ATOM     75  C   UNL     1     -16.313 -13.230  -0.303  1.00  0.00    -0.014 A 
ATOM     76  C   UNL     1     -15.643 -14.454  -0.441  1.00  0.00     0.009 A 
ATOM     77  C   UNL     1     -17.716 -13.221  -0.255  1.00  0.00     0.009 A 
ATOM     78  C   UNL     1     -16.365 -15.643  -0.559  1.00  0.00     0.001 A 
ATOM     79  C   UNL     1     -18.434 -14.414  -0.346  1.00  0.00     0.001 A 
ATOM     80  C   UNL     1     -17.759 -15.623  -0.507  1.00  0.00     0.000 A 
ENDBRANCH  62  75
ENDBRANCH  36  37
ENDBRANCH  28  31
ENDBRANCH  26  27
ENDBRANCH   1  26
TORSDOF 13
