REMARK SMILES NC(=O)COc1ccc(/C=C2\SC(=S)N(CCC(=O)NCCCCNC(=O)c3ccc(-c4c5nc(c(-c6ccccc6)c6ccc([nH]6)c(-c6ccccc6)c6nc(c(-c7ccccc7)c7ccc4[nH]7)C=C6)C=C5)cc3)C2=O)cc1
REMARK SMILES IDX 18 1 19 2 20 3 17 5 16 6 15 7 10 8 11 9 12 10 76 11 13 12
REMARK SMILES IDX 77 13 14 14 9 15 6 16 7 17 79 18 8 19 78 20 5 21 4 22 2 23
REMARK SMILES IDX 1 24 3 27 21 28 22 29 23 30 24 31 25 32 26 33 27 35 28 36
REMARK SMILES IDX 29 37 75 38 30 39 74 40 31 41 32 42 33 43 68 44 34 45 73 46
REMARK SMILES IDX 67 47 69 48 35 49 72 50 66 51 65 52 36 54 58 55 43 56 57 57
REMARK SMILES IDX 44 58 47 59 56 60 70 61 45 62 46 63 55 65 71 66 48 67 37 68
REMARK SMILES IDX 38 69 42 70 39 71 41 72 40 73 59 74 60 75 64 76 61 77 63 78
REMARK SMILES IDX 62 79 49 80 50 81 54 82 51 83 53 84 52 85
REMARK H PARENT 20 4 1 25 1 26 25 34 69 53 47 64
REMARK Flexibility Score: inf
ROOT
ATOM      1  C   UNL     1      -0.578   9.033   6.774  1.00  0.00     0.221 C 
ATOM      2  O   UNL     1      -1.549   9.742   7.039  1.00  0.00    -0.275 OA
ATOM      3  N   UNL     1       0.157   9.325   5.663  1.00  0.00    -0.356 N 
ATOM      4  H   UNL     1      -0.038  10.194   5.244  1.00  0.00     0.163 HD
ENDROOT
BRANCH   1   5
ATOM      5  C   UNL     1      -0.172   7.896   7.685  1.00  0.00     0.122 C 
BRANCH   5   6
ATOM      6  C   UNL     1      -1.122   6.695   7.626  1.00  0.00     0.137 C 
BRANCH   6   7
ATOM      7  N   UNL     1      -0.788   5.707   6.587  1.00  0.00    -0.292 N 
ATOM      8  C   UNL     1      -1.366   4.683   3.189  1.00  0.00     0.029 C 
ATOM      9  C   UNL     1      -0.987   4.678   4.475  1.00  0.00     0.081 C 
ATOM     10  S   UNL     1       0.343   3.857   5.181  1.00  0.00    -0.054 SA
ATOM     11  C   UNL     1      -1.608   5.598   5.471  1.00  0.00     0.266 C 
ATOM     12  C   UNL     1       0.271   4.821   6.653  1.00  0.00     0.148 C 
ATOM     13  O   UNL     1      -2.643   6.204   5.270  1.00  0.00    -0.268 OA
ATOM     14  S   UNL     1       1.384   4.629   7.881  1.00  0.00    -0.052 S 
BRANCH   8  15
ATOM     15  C   UNL     1      -0.683   3.956   2.117  1.00  0.00    -0.024 A 
ATOM     16  C   UNL     1       0.708   2.542   0.135  1.00  0.00     0.120 A 
ATOM     17  C   UNL     1       1.050   3.855   0.426  1.00  0.00     0.047 A 
ATOM     18  C   UNL     1      -0.317   1.925   0.850  1.00  0.00     0.047 A 
ATOM     19  C   UNL     1       0.342   4.570   1.392  1.00  0.00     0.012 A 
ATOM     20  C   UNL     1      -1.007   2.628   1.843  1.00  0.00     0.012 A 
BRANCH  16  21
ATOM     21  O   UNL     1       1.493   1.904  -0.786  1.00  0.00    -0.484 OA
BRANCH  21  22
ATOM     22  C   UNL     1       0.764   1.258  -1.827  1.00  0.00     0.329 C 
BRANCH  22  23
ATOM     23  C   UNL     1       0.319  -0.161  -1.486  1.00  0.00     0.255 C 
ATOM     24  N   UNL     1       1.126  -0.825  -0.606  1.00  0.00    -0.367 N 
ATOM     25  H   UNL     1       0.907  -1.746  -0.336  1.00  0.00     0.159 HD
ATOM     26  H   UNL     1       1.928  -0.383  -0.243  1.00  0.00     0.159 HD
ATOM     27  O   UNL     1      -0.677  -0.692  -1.964  1.00  0.00    -0.271 OA
ENDBRANCH  22  23
ENDBRANCH  21  22
ENDBRANCH  16  21
ENDBRANCH   8  15
ENDBRANCH   6   7
ENDBRANCH   5   6
ENDBRANCH   1   5
BRANCH   3  28
ATOM     28  C   UNL     1       1.185   8.537   5.011  1.00  0.00     0.116 C 
BRANCH  28  29
ATOM     29  C   UNL     1       0.559   7.664   3.935  1.00  0.00     0.023 C 
BRANCH  29  30
ATOM     30  C   UNL     1       0.305   8.355   2.607  1.00  0.00     0.023 C 
BRANCH  30  31
ATOM     31  C   UNL     1       1.566   8.755   1.864  1.00  0.00     0.116 C 
BRANCH  31  32
ATOM     32  N   UNL     1       2.497   7.655   1.624  1.00  0.00    -0.352 N 
ATOM     33  C   UNL     1       2.951   7.105   0.447  1.00  0.00     0.251 C 
ATOM     34  H   UNL     1       2.861   7.240   2.439  1.00  0.00     0.163 HD
ATOM     35  O   UNL     1       3.707   6.139   0.466  1.00  0.00    -0.269 OA
BRANCH  33  36
ATOM     36  C   UNL     1       2.476   7.643  -0.841  1.00  0.00     0.039 A 
ATOM     37  C   UNL     1       2.058   6.768  -1.850  1.00  0.00     0.014 A 
ATOM     38  C   UNL     1       2.406   9.020  -1.031  1.00  0.00     0.014 A 
ATOM     39  C   UNL     1       1.466   7.275  -3.005  1.00  0.00     0.010 A 
ATOM     40  C   UNL     1       1.717   9.521  -2.118  1.00  0.00     0.010 A 
ATOM     41  C   UNL     1       1.268   8.654  -3.126  1.00  0.00    -0.014 A 
BRANCH  41  42
ATOM     42  C   UNL     1       0.769   9.270  -4.369  1.00  0.00     0.031 A 
ATOM     43  C   UNL     1       1.725  10.145  -5.127  1.00  0.00     0.074 A 
ATOM     44  C   UNL     1      -0.513   9.136  -4.746  1.00  0.00     0.049 A 
ATOM     45  N   UNL     1       1.488  11.009  -6.074  1.00  0.00    -0.248 NA
ATOM     46  C   UNL     1       3.139  10.077  -4.708  1.00  0.00     0.031 C 
ATOM     47  C   UNL     1      -1.518   8.300  -4.087  1.00  0.00     0.029 A 
ATOM     48  N   UNL     1      -1.193   9.729  -5.777  1.00  0.00    -0.354 N 
ATOM     49  C   UNL     1       2.707  11.626  -6.320  1.00  0.00     0.074 A 
ATOM     50  C   UNL     1       3.666  11.080  -5.389  1.00  0.00     0.031 C 
ATOM     51  C   UNL     1      -2.687   8.426  -4.740  1.00  0.00     0.029 A 
ATOM     52  C   UNL     1      -2.523   9.391  -5.823  1.00  0.00     0.049 A 
ATOM     53  H   UNL     1      -0.769  10.340  -6.422  1.00  0.00     0.167 HD
ATOM     54  C   UNL     1       3.004  12.556  -7.254  1.00  0.00     0.031 A 
ATOM     55  C   UNL     1      -3.495   9.838  -6.640  1.00  0.00     0.031 A 
ATOM     56  C   UNL     1       2.045  13.052  -8.199  1.00  0.00     0.049 A 
ATOM     57  C   UNL     1      -3.143  10.875  -7.675  1.00  0.00     0.074 A 
ATOM     58  C   UNL     1       2.229  13.958  -9.225  1.00  0.00     0.029 A 
ATOM     59  N   UNL     1       0.714  12.658  -8.237  1.00  0.00    -0.354 N 
ATOM     60  N   UNL     1      -1.986  11.447  -7.913  1.00  0.00    -0.248 NA
ATOM     61  C   UNL     1      -4.230  11.325  -8.555  1.00  0.00     0.031 C 
ATOM     62  C   UNL     1       0.998  14.144  -9.860  1.00  0.00     0.029 A 
ATOM     63  C   UNL     1       0.061  13.312  -9.264  1.00  0.00     0.049 A 
ATOM     64  H   UNL     1       0.298  12.010  -7.624  1.00  0.00     0.167 HD
ATOM     65  C   UNL     1      -2.198  12.302  -8.987  1.00  0.00     0.074 A 
ATOM     66  C   UNL     1      -3.591  12.160  -9.362  1.00  0.00     0.031 C 
ATOM     67  C   UNL     1      -1.325  13.132  -9.611  1.00  0.00     0.031 A 
BRANCH  54  68
ATOM     68  C   UNL     1       4.408  13.089  -7.271  1.00  0.00    -0.014 A 
ATOM     69  C   UNL     1       5.496  12.278  -7.633  1.00  0.00     0.009 A 
ATOM     70  C   UNL     1       4.650  14.418  -6.894  1.00  0.00     0.009 A 
ATOM     71  C   UNL     1       6.801  12.771  -7.567  1.00  0.00     0.001 A 
ATOM     72  C   UNL     1       5.953  14.920  -6.863  1.00  0.00     0.001 A 
ATOM     73  C   UNL     1       7.027  14.092  -7.186  1.00  0.00     0.000 A 
ENDBRANCH  54  68
BRANCH  55  74
ATOM     74  C   UNL     1      -4.883   9.316  -6.520  1.00  0.00    -0.014 A 
ATOM     75  C   UNL     1      -5.424   8.501  -7.527  1.00  0.00     0.009 A 
ATOM     76  C   UNL     1      -5.679   9.633  -5.409  1.00  0.00     0.009 A 
ATOM     77  C   UNL     1      -6.740   8.041  -7.439  1.00  0.00     0.001 A 
ATOM     78  C   UNL     1      -6.986   9.147  -5.308  1.00  0.00     0.001 A 
ATOM     79  C   UNL     1      -7.519   8.361  -6.328  1.00  0.00     0.000 A 
ENDBRANCH  55  74
BRANCH  67  80
ATOM     80  C   UNL     1      -1.842  13.909 -10.787  1.00  0.00    -0.014 A 
ATOM     81  C   UNL     1      -2.704  15.003 -10.616  1.00  0.00     0.009 A 
ATOM     82  C   UNL     1      -1.403  13.578 -12.078  1.00  0.00     0.009 A 
ATOM     83  C   UNL     1      -3.139  15.732 -11.723  1.00  0.00     0.001 A 
ATOM     84  C   UNL     1      -1.816  14.328 -13.178  1.00  0.00     0.001 A 
ATOM     85  C   UNL     1      -2.690  15.399 -13.001  1.00  0.00     0.000 A 
ENDBRANCH  67  80
ENDBRANCH  41  42
ENDBRANCH  33  36
ENDBRANCH  31  32
ENDBRANCH  30  31
ENDBRANCH  29  30
ENDBRANCH  28  29
ENDBRANCH   3  28
TORSDOF 17
