REMARK SMILES CCOc1cccc(C(=O)Nc2ccc(Cl)c(C(=O)NCCCCNC(=O)c3ccc(-c4c5nc(c(-c6ccccc6)c6ccc([nH]6)c(-c6ccccc6)c6nc(c(-c7ccccc7)c7ccc4[nH]7)C=C6)C=C5)cc3)c2)c1
REMARK SMILES IDX 21 1 20 2 18 3 19 4 17 6 12 7 13 8 76 9 14 10 15 11 16 12
REMARK SMILES IDX 11 13 9 14 10 15 8 17 4 18 5 19 77 20 6 21 7 22 3 23 2 24
REMARK SMILES IDX 1 25 22 26 23 27 24 28 25 29 26 30 27 32 28 33 29 34 75 35
REMARK SMILES IDX 30 36 74 37 31 38 32 39 33 40 68 41 34 42 73 43 67 44 69 45
REMARK SMILES IDX 35 46 72 47 66 48 65 49 36 51 58 52 43 53 57 54 44 55 47 56
REMARK SMILES IDX 56 57 70 58 45 59 46 60 55 62 71 63 48 64 37 65 38 66 42 67
REMARK SMILES IDX 39 68 41 69 40 70 59 71 60 72 64 73 61 74 63 75 62 76 49 77
REMARK SMILES IDX 50 78 54 79 51 80 53 81 52 82
REMARK H PARENT 20 5 11 16 25 31 69 50 47 61
REMARK Flexibility Score: inf
ROOT
ATOM      1  C   UNL     1       1.436   2.311   3.021  1.00  0.00     0.116 C 
ENDROOT
BRANCH   1   2
ATOM      2  N   UNL     1       0.306   2.623   2.175  1.00  0.00    -0.352 N 
ATOM      3  C   UNL     1       0.147   2.761   0.818  1.00  0.00     0.252 C 
ATOM      4  O   UNL     1      -0.926   3.250   0.467  1.00  0.00    -0.269 OA
ATOM      5  H   UNL     1      -0.528   2.766   2.679  1.00  0.00     0.163 HD
BRANCH   3   6
ATOM      6  C   UNL     1       1.163   2.337  -0.204  1.00  0.00     0.060 A 
ATOM      7  C   UNL     1       3.449   1.704  -0.819  1.00  0.00     0.042 A 
ATOM      8  C   UNL     1       3.050   1.450  -2.125  1.00  0.00     0.028 A 
ATOM      9  C   UNL     1       2.535   2.249   0.090  1.00  0.00     0.041 A 
ATOM     10  C   UNL     1       1.707   1.583  -2.466  1.00  0.00     0.023 A 
ATOM     11  C   UNL     1       0.760   1.984  -1.510  1.00  0.00     0.053 A 
ATOM     12  Cl  UNL     1      -0.884   1.924  -2.053  1.00  0.00    -0.083 Cl
BRANCH   7  13
ATOM     13  N   UNL     1       4.761   1.367  -0.463  1.00  0.00    -0.322 N 
ATOM     14  C   UNL     1       5.284   0.828   0.698  1.00  0.00     0.255 C 
ATOM     15  O   UNL     1       6.504   0.879   0.861  1.00  0.00    -0.269 OA
ATOM     16  H   UNL     1       5.430   1.545  -1.164  1.00  0.00     0.170 HD
BRANCH  14  17
ATOM     17  C   UNL     1       4.462   0.093   1.713  1.00  0.00     0.043 A 
ATOM     18  C   UNL     1       2.454  -1.055   2.456  1.00  0.00     0.120 A 
ATOM     19  C   UNL     1       2.978  -1.149   3.745  1.00  0.00     0.046 A 
ATOM     20  C   UNL     1       3.220  -0.496   1.431  1.00  0.00     0.060 A 
ATOM     21  C   UNL     1       4.262  -0.681   4.013  1.00  0.00     0.005 A 
ATOM     22  C   UNL     1       4.992  -0.044   3.006  1.00  0.00     0.014 A 
BRANCH  18  23
ATOM     23  O   UNL     1       1.119  -1.327   2.338  1.00  0.00    -0.494 OA
BRANCH  23  24
ATOM     24  C   UNL     1       0.712  -2.159   1.253  1.00  0.00     0.226 C 
ATOM     25  C   UNL     1       0.245  -1.356   0.050  1.00  0.00     0.049 C 
ENDBRANCH  23  24
ENDBRANCH  18  23
ENDBRANCH  14  17
ENDBRANCH   7  13
ENDBRANCH   3   6
ENDBRANCH   1   2
BRANCH   1  26
ATOM     26  C   UNL     1       2.168   3.594   3.416  1.00  0.00     0.023 C 
BRANCH  26  27
ATOM     27  C   UNL     1       1.569   4.264   4.650  1.00  0.00     0.023 C 
BRANCH  27  28
ATOM     28  C   UNL     1       1.725   3.456   5.933  1.00  0.00     0.116 C 
BRANCH  28  29
ATOM     29  N   UNL     1       3.115   3.192   6.279  1.00  0.00    -0.352 N 
ATOM     30  C   UNL     1       3.692   3.185   7.524  1.00  0.00     0.251 C 
ATOM     31  H   UNL     1       3.716   2.993   5.525  1.00  0.00     0.163 HD
ATOM     32  O   UNL     1       4.903   3.052   7.658  1.00  0.00    -0.269 OA
BRANCH  30  33
ATOM     33  C   UNL     1       2.828   3.376   8.704  1.00  0.00     0.039 A 
ATOM     34  C   UNL     1       3.152   4.372   9.626  1.00  0.00     0.014 A 
ATOM     35  C   UNL     1       1.666   2.614   8.854  1.00  0.00     0.014 A 
ATOM     36  C   UNL     1       2.271   4.648  10.672  1.00  0.00     0.010 A 
ATOM     37  C   UNL     1       0.754   2.944   9.848  1.00  0.00     0.010 A 
ATOM     38  C   UNL     1       1.050   3.961  10.769  1.00  0.00    -0.014 A 
BRANCH  38  39
ATOM     39  C   UNL     1       0.067   4.290  11.828  1.00  0.00     0.031 A 
ATOM     40  C   UNL     1      -0.284   3.267  12.872  1.00  0.00     0.074 A 
ATOM     41  C   UNL     1      -0.557   5.484  11.813  1.00  0.00     0.049 A 
ATOM     42  N   UNL     1      -1.140   3.355  13.858  1.00  0.00    -0.248 NA
ATOM     43  C   UNL     1       0.395   1.965  12.779  1.00  0.00     0.031 C 
ATOM     44  C   UNL     1      -0.337   6.545  10.827  1.00  0.00     0.029 A 
ATOM     45  N   UNL     1      -1.505   6.005  12.656  1.00  0.00    -0.354 N 
ATOM     46  C   UNL     1      -1.118   2.116  14.486  1.00  0.00     0.074 A 
ATOM     47  C   UNL     1      -0.205   1.278  13.739  1.00  0.00     0.031 C 
ATOM     48  C   UNL     1      -1.096   7.605  11.148  1.00  0.00     0.029 A 
ATOM     49  C   UNL     1      -1.883   7.285  12.334  1.00  0.00     0.049 A 
ATOM     50  H   UNL     1      -1.879   5.508  13.419  1.00  0.00     0.167 HD
ATOM     51  C   UNL     1      -1.781   1.716  15.596  1.00  0.00     0.031 A 
ATOM     52  C   UNL     1      -2.763   8.110  12.931  1.00  0.00     0.031 A 
ATOM     53  C   UNL     1      -2.677   2.554  16.346  1.00  0.00     0.049 A 
ATOM     54  C   UNL     1      -3.496   7.638  14.155  1.00  0.00     0.074 A 
ATOM     55  C   UNL     1      -3.341   2.268  17.526  1.00  0.00     0.029 A 
ATOM     56  N   UNL     1      -3.039   3.842  15.983  1.00  0.00    -0.354 N 
ATOM     57  N   UNL     1      -3.401   6.493  14.786  1.00  0.00    -0.248 NA
ATOM     58  C   UNL     1      -4.451   8.581  14.754  1.00  0.00     0.031 C 
ATOM     59  C   UNL     1      -4.148   3.365  17.848  1.00  0.00     0.029 A 
ATOM     60  C   UNL     1      -3.942   4.354  16.900  1.00  0.00     0.049 A 
ATOM     61  H   UNL     1      -2.704   4.321  15.191  1.00  0.00     0.167 HD
ATOM     62  C   UNL     1      -4.260   6.588  15.873  1.00  0.00     0.074 A 
ATOM     63  C   UNL     1      -4.856   7.908  15.822  1.00  0.00     0.031 C 
ATOM     64  C   UNL     1      -4.528   5.667  16.831  1.00  0.00     0.031 A 
BRANCH  51  65
ATOM     65  C   UNL     1      -1.567   0.298  16.051  1.00  0.00    -0.014 A 
ATOM     66  C   UNL     1      -0.335  -0.122  16.578  1.00  0.00     0.009 A 
ATOM     67  C   UNL     1      -2.617  -0.628  15.960  1.00  0.00     0.009 A 
ATOM     68  C   UNL     1      -0.144  -1.452  16.959  1.00  0.00     0.001 A 
ATOM     69  C   UNL     1      -2.434  -1.950  16.372  1.00  0.00     0.001 A 
ATOM     70  C   UNL     1      -1.195  -2.364  16.859  1.00  0.00     0.000 A 
ENDBRANCH  51  65
BRANCH  52  71
ATOM     71  C   UNL     1      -2.972   9.484  12.406  1.00  0.00    -0.014 A 
ATOM     72  C   UNL     1      -2.495  10.593  13.123  1.00  0.00     0.009 A 
ATOM     73  C   UNL     1      -3.647   9.698  11.195  1.00  0.00     0.009 A 
ATOM     74  C   UNL     1      -2.712  11.889  12.649  1.00  0.00     0.001 A 
ATOM     75  C   UNL     1      -3.838  10.994  10.710  1.00  0.00     0.001 A 
ATOM     76  C   UNL     1      -3.379  12.088  11.442  1.00  0.00     0.000 A 
ENDBRANCH  52  71
BRANCH  64  77
ATOM     77  C   UNL     1      -5.482   6.070  17.921  1.00  0.00    -0.014 A 
ATOM     78  C   UNL     1      -6.858   6.201  17.675  1.00  0.00     0.009 A 
ATOM     79  C   UNL     1      -4.998   6.290  19.220  1.00  0.00     0.009 A 
ATOM     80  C   UNL     1      -7.724   6.578  18.703  1.00  0.00     0.001 A 
ATOM     81  C   UNL     1      -5.870   6.637  20.252  1.00  0.00     0.001 A 
ATOM     82  C   UNL     1      -7.231   6.791  19.991  1.00  0.00     0.000 A 
ENDBRANCH  64  77
ENDBRANCH  38  39
ENDBRANCH  30  33
ENDBRANCH  28  29
ENDBRANCH  27  28
ENDBRANCH  26  27
ENDBRANCH   1  26
TORSDOF 15
