REMARK SMILES Cc1cccc2c1[C@H]1c3c(C)cccc3[C@H](CC(=O)NCCCCNC(=O)c3ccc(-c4c5nc(c(-c6ccccc6)c6ccc([nH]6)c(-c6ccccc6)c6nc(c(-c7ccccc7)c7ccc4[nH]7)C=C6)C=C5)cc3)C[C@H]1CC2
REMARK SMILES IDX 23 1 22 2 21 3 20 4 18 5 19 6 17 8 16 9 1 10 2 11 3 12 7 13
REMARK SMILES IDX 4 14 6 15 8 16 5 17 79 18 9 19 77 20 78 21 10 22 15 23 76 24
REMARK SMILES IDX 12 25 11 26 14 27 13 28 24 29 25 30 26 31 27 33 28 34 29 35
REMARK SMILES IDX 75 36 30 37 74 38 31 39 32 40 33 41 68 42 34 43 73 44 67 45
REMARK SMILES IDX 69 46 35 47 72 48 66 49 65 50 36 52 58 53 43 54 57 55 44 56
REMARK SMILES IDX 47 57 56 58 70 59 45 60 46 61 55 63 71 64 48 65 37 66 38 67
REMARK SMILES IDX 42 68 39 69 41 70 40 71 59 72 60 73 64 74 61 75 63 76 62 77
REMARK SMILES IDX 49 78 50 79 54 80 51 81 53 82 52 83
REMARK H PARENT 20 7 25 32 69 51 47 62
REMARK Flexibility Score: inf
ROOT
ATOM      1  C   UNL     1      -5.149   0.964  -2.326  1.00  0.00     0.023 C 
ENDROOT
BRANCH   1   2
ATOM      2  C   UNL     1      -4.144   0.470  -1.009  1.00  0.00     0.023 C 
BRANCH   2   3
ATOM      3  C   UNL     1      -3.765   1.125   1.045  1.00  0.00     0.116 C 
BRANCH   3   4
ATOM      4  N   UNL     1      -4.735   1.202   2.332  1.00  0.00    -0.356 N 
ATOM      5  C   UNL     1      -5.146   0.216   3.189  1.00  0.00     0.220 C 
ATOM      6  O   UNL     1      -6.012   0.465   4.027  1.00  0.00    -0.275 OA
ATOM      7  H   UNL     1      -5.087   2.100   2.533  1.00  0.00     0.163 HD
BRANCH   5   8
ATOM      8  C   UNL     1      -4.472  -1.140   3.122  1.00  0.00     0.108 C 
BRANCH   8   9
ATOM      9  C   UNL     1      -4.418  -1.869   1.758  1.00  0.00     0.029 C 
ATOM     10  C   UNL     1       1.403  -0.770   0.311  1.00  0.00     0.044 C 
ATOM     11  C   UNL     1       0.694  -1.317  -0.905  1.00  0.00    -0.047 A 
ATOM     12  C   UNL     1       1.432  -1.369  -2.104  1.00  0.00     0.004 A 
ATOM     13  C   UNL     1      -0.631  -1.818  -0.880  1.00  0.00    -0.034 A 
ATOM     14  C   UNL     1       0.935  -2.017  -3.228  1.00  0.00     0.001 A 
ATOM     15  C   UNL     1      -1.052  -2.614  -1.976  1.00  0.00    -0.044 A 
ATOM     16  C   UNL     1      -1.581  -1.591   0.296  1.00  0.00     0.053 C 
ATOM     17  C   UNL     1      -0.280  -2.679  -3.147  1.00  0.00     0.004 A 
ATOM     18  C   UNL     1      -2.196  -3.597  -1.875  1.00  0.00     0.036 C 
ATOM     19  C   UNL     1      -2.591  -0.444   0.130  1.00  0.00    -0.034 A 
ATOM     20  C   UNL     1      -2.332  -2.937   0.568  1.00  0.00     0.002 C 
ATOM     21  C   UNL     1      -3.098  -3.440  -0.664  1.00  0.00     0.009 C 
ATOM     22  C   UNL     1      -2.241   1.243  -0.430  1.00  0.00    -0.047 A 
ATOM     23  C   UNL     1      -4.272  -0.845   0.665  1.00  0.00    -0.040 A 
ATOM     24  C   UNL     1      -3.245  -2.873   1.802  1.00  0.00     0.013 C 
ATOM     25  C   UNL     1      -3.579   2.448  -0.583  1.00  0.00     0.004 A 
ATOM     26  C   UNL     1      -0.947   1.697  -1.025  1.00  0.00     0.044 C 
ATOM     27  C   UNL     1      -5.633   0.330   0.425  1.00  0.00     0.004 A 
ATOM     28  C   UNL     1      -5.260   2.008  -0.113  1.00  0.00     0.001 A 
ENDBRANCH   8   9
ENDBRANCH   5   8
ENDBRANCH   3   4
ENDBRANCH   2   3
ENDBRANCH   1   2
BRANCH   1  29
ATOM     29  C   UNL     1      -4.902   2.259  -3.107  1.00  0.00     0.116 C 
BRANCH  29  30
ATOM     30  N   UNL     1      -3.517   2.506  -3.477  1.00  0.00    -0.352 N 
ATOM     31  C   UNL     1      -3.012   3.645  -4.056  1.00  0.00     0.251 C 
ATOM     32  H   UNL     1      -2.876   1.782  -3.293  1.00  0.00     0.163 HD
ATOM     33  O   UNL     1      -1.813   3.828  -4.217  1.00  0.00    -0.269 OA
BRANCH  31  34
ATOM     34  C   UNL     1      -3.992   4.617  -4.566  1.00  0.00     0.039 A 
ATOM     35  C   UNL     1      -4.232   4.615  -5.940  1.00  0.00     0.014 A 
ATOM     36  C   UNL     1      -4.773   5.374  -3.688  1.00  0.00     0.014 A 
ATOM     37  C   UNL     1      -5.317   5.326  -6.437  1.00  0.00     0.010 A 
ATOM     38  C   UNL     1      -5.888   6.044  -4.184  1.00  0.00     0.010 A 
ATOM     39  C   UNL     1      -6.171   6.011  -5.559  1.00  0.00    -0.014 A 
BRANCH  39  40
ATOM     40  C   UNL     1      -7.357   6.710  -6.095  1.00  0.00     0.031 A 
ATOM     41  C   UNL     1      -7.354   8.205  -6.177  1.00  0.00     0.074 A 
ATOM     42  C   UNL     1      -8.410   5.996  -6.534  1.00  0.00     0.049 A 
ATOM     43  N   UNL     1      -8.264   8.999  -6.677  1.00  0.00    -0.248 NA
ATOM     44  C   UNL     1      -6.179   8.900  -5.625  1.00  0.00     0.031 C 
ATOM     45  C   UNL     1      -8.517   4.535  -6.496  1.00  0.00     0.029 A 
ATOM     46  N   UNL     1      -9.583   6.401  -7.119  1.00  0.00    -0.354 N 
ATOM     47  C   UNL     1      -7.765  10.282  -6.513  1.00  0.00     0.074 A 
ATOM     48  C   UNL     1      -6.501  10.170  -5.821  1.00  0.00     0.031 C 
ATOM     49  C   UNL     1      -9.675   4.166  -7.068  1.00  0.00     0.029 A 
ATOM     50  C   UNL     1     -10.400   5.361  -7.491  1.00  0.00     0.049 A 
ATOM     51  H   UNL     1      -9.818   7.346  -7.258  1.00  0.00     0.167 HD
ATOM     52  C   UNL     1      -8.303  11.449  -6.930  1.00  0.00     0.031 A 
ATOM     53  C   UNL     1     -11.593   5.370  -8.117  1.00  0.00     0.031 A 
ATOM     54  C   UNL     1      -9.556  11.555  -7.621  1.00  0.00     0.049 A 
ATOM     55  C   UNL     1     -12.192   6.685  -8.529  1.00  0.00     0.074 A 
ATOM     56  C   UNL     1     -10.177  12.694  -8.098  1.00  0.00     0.029 A 
ATOM     57  N   UNL     1     -10.375  10.483  -7.935  1.00  0.00    -0.354 N 
ATOM     58  N   UNL     1     -11.695   7.891  -8.393  1.00  0.00    -0.248 NA
ATOM     59  C   UNL     1     -13.507   6.646  -9.185  1.00  0.00     0.031 C 
ATOM     60  C   UNL     1     -11.394  12.315  -8.668  1.00  0.00     0.029 A 
ATOM     61  C   UNL     1     -11.507  10.936  -8.586  1.00  0.00     0.049 A 
ATOM     62  H   UNL     1     -10.180   9.540  -7.726  1.00  0.00     0.167 HD
ATOM     63  C   UNL     1     -12.625   8.751  -8.960  1.00  0.00     0.074 A 
ATOM     64  C   UNL     1     -13.713   7.930  -9.449  1.00  0.00     0.031 C 
ATOM     65  C   UNL     1     -12.577  10.101  -9.065  1.00  0.00     0.031 A 
BRANCH  52  66
ATOM     66  C   UNL     1      -7.531  12.705  -6.664  1.00  0.00    -0.014 A 
ATOM     67  C   UNL     1      -6.399  13.024  -7.431  1.00  0.00     0.009 A 
ATOM     68  C   UNL     1      -7.976  13.611  -5.691  1.00  0.00     0.009 A 
ATOM     69  C   UNL     1      -5.722  14.225  -7.221  1.00  0.00     0.001 A 
ATOM     70  C   UNL     1      -7.309  14.821  -5.497  1.00  0.00     0.001 A 
ATOM     71  C   UNL     1      -6.182  15.126  -6.260  1.00  0.00     0.000 A 
ENDBRANCH  52  66
BRANCH  53  72
ATOM     72  C   UNL     1     -12.274   4.085  -8.416  1.00  0.00    -0.014 A 
ATOM     73  C   UNL     1     -12.296   3.579  -9.724  1.00  0.00     0.009 A 
ATOM     74  C   UNL     1     -12.865   3.334  -7.387  1.00  0.00     0.009 A 
ATOM     75  C   UNL     1     -12.897   2.347  -9.996  1.00  0.00     0.001 A 
ATOM     76  C   UNL     1     -13.448   2.094  -7.659  1.00  0.00     0.001 A 
ATOM     77  C   UNL     1     -13.466   1.603  -8.963  1.00  0.00     0.000 A 
ENDBRANCH  53  72
BRANCH  65  78
ATOM     78  C   UNL     1     -13.722  10.796  -9.740  1.00  0.00    -0.014 A 
ATOM     79  C   UNL     1     -14.923  11.025  -9.054  1.00  0.00     0.009 A 
ATOM     80  C   UNL     1     -13.542  11.352 -11.016  1.00  0.00     0.009 A 
ATOM     81  C   UNL     1     -15.925  11.803  -9.636  1.00  0.00     0.001 A 
ATOM     82  C   UNL     1     -14.537  12.146 -11.585  1.00  0.00     0.001 A 
ATOM     83  C   UNL     1     -15.727  12.371 -10.895  1.00  0.00     0.000 A 
ENDBRANCH  65  78
ENDBRANCH  39  40
ENDBRANCH  31  34
ENDBRANCH  29  30
ENDBRANCH   1  29
TORSDOF 12
