REMARK SMILES COc1cccc(-c2nn(-c3cc4c(cc3C(N)=O)OCO4)cc2C(=O)NCCCCNC(=O)c2ccc(-c3c4nc(c(-c5ccccc5)c5ccc([nH]5)c(-c5ccccc5)c5nc(c(-c6ccccc6)c6ccc3[nH]6)C=C5)C=C4)cc2)c1
REMARK SMILES IDX 29 1 28 2 27 3 25 4 26 5 24 7 8 8 9 9 10 10 23 11 7 12 3 13
REMARK SMILES IDX 4 14 83 15 5 16 6 17 2 18 1 19 11 20 12 21 16 22 13 23 15 24
REMARK SMILES IDX 14 25 22 26 20 27 21 28 17 29 18 30 19 31 30 34 31 35 32 36
REMARK SMILES IDX 33 37 34 39 35 40 36 41 82 42 37 43 81 44 38 45 39 46 40 47
REMARK SMILES IDX 75 48 41 49 80 50 74 51 76 52 42 53 79 54 73 55 72 56 43 58
REMARK SMILES IDX 65 59 50 60 64 61 51 62 54 63 63 64 77 65 52 66 53 67 62 69
REMARK SMILES IDX 78 70 55 71 44 72 45 73 49 74 46 75 48 76 47 77 66 78 67 79
REMARK SMILES IDX 71 80 68 81 70 82 69 83 56 84 57 85 61 86 58 87 60 88 59 89
REMARK H PARENT 27 6 18 32 18 33 32 38 76 57 54 68
REMARK Flexibility Score: inf
ROOT
ATOM      1  C   UNL     1       6.109  -8.045  -2.888  1.00  0.00     0.023 C 
ENDROOT
BRANCH   1   2
ATOM      2  C   UNL     1       5.732  -6.606  -3.247  1.00  0.00     0.116 C 
BRANCH   2   3
ATOM      3  N   UNL     1       4.355  -6.312  -2.910  1.00  0.00    -0.352 N 
ATOM      4  C   UNL     1       3.760  -5.699  -1.835  1.00  0.00     0.255 C 
ATOM      5  O   UNL     1       2.537  -5.582  -1.915  1.00  0.00    -0.269 OA
ATOM      6  H   UNL     1       3.712  -6.615  -3.592  1.00  0.00     0.163 HD
BRANCH   4   7
ATOM      7  C   UNL     1       4.520  -5.181  -0.703  1.00  0.00     0.086 A 
ATOM      8  C   UNL     1       4.055  -4.337   0.370  1.00  0.00     0.106 A 
ATOM      9  N   UNL     1       5.074  -3.938   1.165  1.00  0.00    -0.167 NA
ATOM     10  N   UNL     1       6.170  -4.385   0.517  1.00  0.00    -0.239 N 
ATOM     11  C   UNL     1       5.844  -5.376  -0.376  1.00  0.00     0.129 A 
BRANCH   8  12
ATOM     12  C   UNL     1       2.675  -3.928   0.644  1.00  0.00     0.007 A 
ATOM     13  C   UNL     1       0.979  -2.208   0.876  1.00  0.00     0.119 A 
ATOM     14  C   UNL     1       0.006  -3.194   1.057  1.00  0.00     0.046 A 
ATOM     15  C   UNL     1       2.317  -2.572   0.686  1.00  0.00     0.056 A 
ATOM     16  C   UNL     1       0.356  -4.541   1.032  1.00  0.00     0.005 A 
ATOM     17  C   UNL     1       1.687  -4.906   0.835  1.00  0.00     0.011 A 
BRANCH  13  18
ATOM     18  O   UNL     1       0.525  -0.920   0.963  1.00  0.00    -0.497 OA
ATOM     19  C   UNL     1       1.123  -0.010   0.046  1.00  0.00     0.278 C 
ENDBRANCH  13  18
ENDBRANCH   8  12
BRANCH  10  20
ATOM     20  C   UNL     1       7.493  -4.005   0.851  1.00  0.00     0.081 A 
ATOM     21  C   UNL     1       7.863  -4.013   2.208  1.00  0.00     0.079 A 
ATOM     22  C   UNL     1       8.453  -3.723  -0.169  1.00  0.00     0.069 A 
ATOM     23  C   UNL     1       9.199  -3.828   2.501  1.00  0.00     0.167 A 
ATOM     24  C   UNL     1       9.811  -3.634   0.179  1.00  0.00     0.066 A 
ATOM     25  C   UNL     1      10.143  -3.674   1.512  1.00  0.00     0.166 A 
ATOM     26  O   UNL     1       9.759  -3.790   3.741  1.00  0.00    -0.454 OA
ATOM     27  O   UNL     1      11.401  -3.521   2.006  1.00  0.00    -0.454 OA
ATOM     28  C   UNL     1      11.113  -3.408   3.413  1.00  0.00     0.468 C 
BRANCH  22  29
ATOM     29  C   UNL     1       8.054  -3.325  -1.564  1.00  0.00     0.251 C 
ATOM     30  N   UNL     1       8.949  -2.602  -2.306  1.00  0.00    -0.366 N 
ATOM     31  O   UNL     1       6.956  -3.544  -2.054  1.00  0.00    -0.269 OA
ATOM     32  H   UNL     1       9.843  -2.406  -1.944  1.00  0.00     0.159 HD
ATOM     33  H   UNL     1       8.698  -2.279  -3.201  1.00  0.00     0.159 HD
ENDBRANCH  22  29
ENDBRANCH  10  20
ENDBRANCH   4   7
ENDBRANCH   2   3
ENDBRANCH   1   2
BRANCH   1  34
ATOM     34  C   UNL     1       5.492  -9.118  -3.799  1.00  0.00     0.023 C 
BRANCH  34  35
ATOM     35  C   UNL     1       5.938  -9.056  -5.256  1.00  0.00     0.116 C 
BRANCH  35  36
ATOM     36  N   UNL     1       7.379  -9.243  -5.425  1.00  0.00    -0.352 N 
ATOM     37  C   UNL     1       8.138  -9.040  -6.566  1.00  0.00     0.251 C 
ATOM     38  H   UNL     1       7.871  -9.552  -4.629  1.00  0.00     0.163 HD
ATOM     39  O   UNL     1       9.219  -9.579  -6.717  1.00  0.00    -0.269 OA
BRANCH  37  40
ATOM     40  C   UNL     1       7.610  -8.126  -7.593  1.00  0.00     0.039 A 
ATOM     41  C   UNL     1       7.647  -8.443  -8.952  1.00  0.00     0.014 A 
ATOM     42  C   UNL     1       7.026  -6.944  -7.147  1.00  0.00     0.014 A 
ATOM     43  C   UNL     1       7.008  -7.592  -9.851  1.00  0.00     0.010 A 
ATOM     44  C   UNL     1       6.265  -6.196  -8.006  1.00  0.00     0.010 A 
ATOM     45  C   UNL     1       6.297  -6.481  -9.365  1.00  0.00    -0.014 A 
BRANCH  45  46
ATOM     46  C   UNL     1       5.473  -5.671 -10.253  1.00  0.00     0.031 A 
ATOM     47  C   UNL     1       4.440  -6.445 -10.987  1.00  0.00     0.074 A 
ATOM     48  C   UNL     1       5.479  -4.320 -10.245  1.00  0.00     0.049 A 
ATOM     49  N   UNL     1       4.446  -6.769 -12.236  1.00  0.00    -0.248 NA
ATOM     50  C   UNL     1       3.349  -7.067 -10.216  1.00  0.00     0.031 C 
ATOM     51  C   UNL     1       6.185  -3.431  -9.310  1.00  0.00     0.029 A 
ATOM     52  N   UNL     1       4.761  -3.443 -11.001  1.00  0.00    -0.354 N 
ATOM     53  C   UNL     1       3.235  -7.417 -12.463  1.00  0.00     0.074 A 
ATOM     54  C   UNL     1       2.714  -7.761 -11.165  1.00  0.00     0.031 C 
ATOM     55  C   UNL     1       5.672  -2.183  -9.392  1.00  0.00     0.029 A 
ATOM     56  C   UNL     1       4.758  -2.140 -10.516  1.00  0.00     0.049 A 
ATOM     57  H   UNL     1       4.285  -3.710 -11.820  1.00  0.00     0.167 HD
ATOM     58  C   UNL     1       2.613  -7.312 -13.671  1.00  0.00     0.031 A 
ATOM     59  C   UNL     1       4.055  -1.092 -11.007  1.00  0.00     0.031 A 
ATOM     60  C   UNL     1       3.486  -6.703 -14.643  1.00  0.00     0.049 A 
ATOM     61  C   UNL     1       3.723  -1.405 -12.411  1.00  0.00     0.074 A 
ATOM     62  C   UNL     1       4.589  -7.066 -15.381  1.00  0.00     0.029 A 
ATOM     63  N   UNL     1       3.438  -5.333 -14.619  1.00  0.00    -0.354 N 
ATOM     64  N   UNL     1       4.624  -1.531 -13.343  1.00  0.00    -0.248 NA
ATOM     65  C   UNL     1       2.406  -1.937 -12.736  1.00  0.00     0.031 C 
ATOM     66  C   UNL     1       5.309  -5.857 -15.629  1.00  0.00     0.029 A 
ATOM     67  C   UNL     1       4.600  -4.786 -15.087  1.00  0.00     0.049 A 
ATOM     68  H   UNL     1       2.666  -4.811 -14.304  1.00  0.00     0.167 HD
ATOM     69  C   UNL     1       4.130  -2.531 -14.158  1.00  0.00     0.074 A 
ATOM     70  C   UNL     1       2.706  -2.604 -13.853  1.00  0.00     0.031 C 
ATOM     71  C   UNL     1       4.968  -3.425 -14.758  1.00  0.00     0.031 A 
BRANCH  58  72
ATOM     72  C   UNL     1       1.110  -7.219 -13.852  1.00  0.00    -0.014 A 
ATOM     73  C   UNL     1       0.606  -7.065 -15.159  1.00  0.00     0.009 A 
ATOM     74  C   UNL     1       0.209  -6.965 -12.801  1.00  0.00     0.009 A 
ATOM     75  C   UNL     1      -0.700  -6.616 -15.395  1.00  0.00     0.001 A 
ATOM     76  C   UNL     1      -1.107  -6.548 -13.034  1.00  0.00     0.001 A 
ATOM     77  C   UNL     1      -1.554  -6.349 -14.331  1.00  0.00     0.000 A 
ENDBRANCH  58  72
BRANCH  59  78
ATOM     78  C   UNL     1       3.458   0.058 -10.298  1.00  0.00    -0.014 A 
ATOM     79  C   UNL     1       3.109   1.227 -10.993  1.00  0.00     0.009 A 
ATOM     80  C   UNL     1       2.950  -0.111  -8.998  1.00  0.00     0.009 A 
ATOM     81  C   UNL     1       2.233   2.164 -10.429  1.00  0.00     0.001 A 
ATOM     82  C   UNL     1       2.075   0.825  -8.435  1.00  0.00     0.001 A 
ATOM     83  C   UNL     1       1.701   1.953  -9.159  1.00  0.00     0.000 A 
ENDBRANCH  59  78
BRANCH  71  84
ATOM     84  C   UNL     1       6.406  -3.027 -14.932  1.00  0.00    -0.014 A 
ATOM     85  C   UNL     1       7.300  -2.820 -13.869  1.00  0.00     0.009 A 
ATOM     86  C   UNL     1       6.894  -2.939 -16.244  1.00  0.00     0.009 A 
ATOM     87  C   UNL     1       8.642  -2.512 -14.120  1.00  0.00     0.001 A 
ATOM     88  C   UNL     1       8.235  -2.653 -16.494  1.00  0.00     0.001 A 
ATOM     89  C   UNL     1       9.109  -2.434 -15.432  1.00  0.00     0.000 A 
ENDBRANCH  71  84
ENDBRANCH  45  46
ENDBRANCH  37  40
ENDBRANCH  35  36
ENDBRANCH  34  35
ENDBRANCH   1  34
TORSDOF 15
