REMARK SMILES CCN(C(=O)Cc1c(C(=O)NCCCCNC(=O)c2ccc(-c3c4nc(c(-c5ccccc5)c5ccc([nH]5)c(-c5ccccc5)c5nc(c(-c6ccccc6)c6ccc3[nH]6)C=C5)C=C4)cc2)[nH]c2ccc(Cl)cc12)c1ccc(C)c(C)c1
REMARK SMILES IDX 12 1 11 2 9 3 10 4 8 6 7 7 74 8 67 9 68 10 73 11 69 13 71 14
REMARK SMILES IDX 70 15 72 16 6 17 4 18 5 19 3 20 2 21 1 22 75 23 76 24 82 25
REMARK SMILES IDX 77 26 80 27 78 28 81 29 79 30 13 31 14 32 15 33 16 34 17 35
REMARK SMILES IDX 18 37 19 38 20 39 66 40 21 41 65 42 22 43 23 44 24 45 59 46
REMARK SMILES IDX 25 47 64 48 58 49 60 50 26 51 63 52 57 53 56 54 27 56 49 57
REMARK SMILES IDX 34 58 48 59 35 60 38 61 47 62 61 63 36 64 37 65 46 67 62 68
REMARK SMILES IDX 39 69 28 70 29 71 33 72 30 73 32 74 31 75 50 76 51 77 55 78
REMARK SMILES IDX 52 79 54 80 53 81 40 82 41 83 45 84 42 85 44 86 43 87
REMARK H PARENT 11 5 67 12 16 36 60 55 38 66
REMARK Flexibility Score: inf
ROOT
ATOM      1  C   UNL     1       0.066  -3.703   3.359  1.00  0.00     0.116 C 
ENDROOT
BRANCH   1   2
ATOM      2  N   UNL     1       0.646  -2.366   3.196  1.00  0.00    -0.351 N 
ATOM      3  C   UNL     1       0.179  -1.070   3.261  1.00  0.00     0.268 C 
ATOM      4  O   UNL     1       0.928  -0.262   3.817  1.00  0.00    -0.268 OA
ATOM      5  H   UNL     1       1.608  -2.403   2.989  1.00  0.00     0.163 HD
BRANCH   3   6
ATOM      6  C   UNL     1      -1.089  -0.615   2.735  1.00  0.00     0.109 A 
ATOM      7  C   UNL     1      -1.798  -0.830   1.560  1.00  0.00    -0.000 A 
ATOM      8  C   UNL     1      -3.101  -0.238   1.764  1.00  0.00     0.005 A 
ATOM      9  N   UNL     1      -1.682   0.535   3.259  1.00  0.00    -0.350 N 
ATOM     10  C   UNL     1      -2.909   0.778   2.692  1.00  0.00     0.046 A 
ATOM     11  C   UNL     1      -4.366  -0.350   1.146  1.00  0.00     0.031 A 
ATOM     12  H   UNL     1      -1.271   1.102   3.951  1.00  0.00     0.167 HD
ATOM     13  C   UNL     1      -3.845   1.804   2.900  1.00  0.00     0.028 A 
ATOM     14  C   UNL     1      -5.361   0.587   1.453  1.00  0.00     0.041 A 
ATOM     15  C   UNL     1      -5.087   1.684   2.264  1.00  0.00     0.022 A 
ATOM     16  Cl  UNL     1      -6.946   0.389   0.804  1.00  0.00    -0.084 Cl
BRANCH   7  17
ATOM     17  C   UNL     1      -1.353  -1.353   0.230  1.00  0.00     0.139 C 
BRANCH  17  18
ATOM     18  C   UNL     1       0.088  -1.831   0.070  1.00  0.00     0.231 C 
ATOM     19  O   UNL     1       0.257  -3.014  -0.223  1.00  0.00    -0.274 OA
BRANCH  18  20
ATOM     20  N   UNL     1       1.120  -0.886  -0.065  1.00  0.00    -0.312 N 
BRANCH  20  21
ATOM     21  C   UNL     1       1.029  -0.114  -1.303  1.00  0.00     0.122 C 
ATOM     22  C   UNL     1       0.714   1.351  -1.096  1.00  0.00     0.028 C 
ENDBRANCH  20  21
BRANCH  20  23
ATOM     23  C   UNL     1       2.453  -1.052   0.504  1.00  0.00     0.044 A 
ATOM     24  C   UNL     1       2.823  -2.166   1.251  1.00  0.00     0.026 A 
ATOM     25  C   UNL     1       3.451  -0.080   0.371  1.00  0.00     0.030 A 
ATOM     26  C   UNL     1       4.110  -2.375   1.764  1.00  0.00     0.006 A 
ATOM     27  C   UNL     1       4.758  -0.240   0.905  1.00  0.00    -0.046 A 
ATOM     28  C   UNL     1       5.109  -1.430   1.563  1.00  0.00    -0.048 A 
ATOM     29  C   UNL     1       5.744   0.884   0.753  1.00  0.00     0.044 C 
ATOM     30  C   UNL     1       6.494  -1.751   2.053  1.00  0.00     0.044 C 
ENDBRANCH  20  23
ENDBRANCH  18  20
ENDBRANCH  17  18
ENDBRANCH   7  17
ENDBRANCH   3   6
ENDBRANCH   1   2
BRANCH   1  31
ATOM     31  C   UNL     1      -0.126  -4.710   2.190  1.00  0.00     0.023 C 
BRANCH  31  32
ATOM     32  C   UNL     1       0.961  -5.216   1.206  1.00  0.00     0.023 C 
BRANCH  32  33
ATOM     33  C   UNL     1       2.097  -6.072   1.710  1.00  0.00     0.116 C 
BRANCH  33  34
ATOM     34  N   UNL     1       1.659  -7.391   2.100  1.00  0.00    -0.352 N 
ATOM     35  C   UNL     1       2.440  -8.506   2.308  1.00  0.00     0.251 C 
ATOM     36  H   UNL     1       0.690  -7.507   2.231  1.00  0.00     0.163 HD
ATOM     37  O   UNL     1       1.938  -9.595   2.499  1.00  0.00    -0.269 OA
BRANCH  35  38
ATOM     38  C   UNL     1       3.910  -8.362   2.218  1.00  0.00     0.039 A 
ATOM     39  C   UNL     1       4.606  -9.250   1.396  1.00  0.00     0.014 A 
ATOM     40  C   UNL     1       4.587  -7.352   2.907  1.00  0.00     0.014 A 
ATOM     41  C   UNL     1       5.984  -9.113   1.250  1.00  0.00     0.010 A 
ATOM     42  C   UNL     1       5.947  -7.162   2.693  1.00  0.00     0.010 A 
ATOM     43  C   UNL     1       6.661  -8.062   1.890  1.00  0.00    -0.014 A 
BRANCH  43  44
ATOM     44  C   UNL     1       8.134  -7.967   1.795  1.00  0.00     0.031 A 
ATOM     45  C   UNL     1       8.968  -8.229   3.018  1.00  0.00     0.074 A 
ATOM     46  C   UNL     1       8.712  -7.671   0.617  1.00  0.00     0.049 A 
ATOM     47  N   UNL     1      10.270  -8.275   3.133  1.00  0.00    -0.248 NA
ATOM     48  C   UNL     1       8.246  -8.445   4.283  1.00  0.00     0.031 C 
ATOM     49  C   UNL     1       7.998  -7.362  -0.624  1.00  0.00     0.029 A 
ATOM     50  N   UNL     1      10.035  -7.605   0.266  1.00  0.00    -0.354 N 
ATOM     51  C   UNL     1      10.517  -8.513   4.479  1.00  0.00     0.074 A 
ATOM     52  C   UNL     1       9.240  -8.534   5.152  1.00  0.00     0.031 C 
ATOM     53  C   UNL     1       8.892  -7.192  -1.613  1.00  0.00     0.029 A 
ATOM     54  C   UNL     1      10.236  -7.355  -1.070  1.00  0.00     0.049 A 
ATOM     55  H   UNL     1      10.771  -7.725   0.909  1.00  0.00     0.167 HD
ATOM     56  C   UNL     1      11.701  -8.729   5.096  1.00  0.00     0.031 A 
ATOM     57  C   UNL     1      11.380  -7.288  -1.776  1.00  0.00     0.031 A 
ATOM     58  C   UNL     1      12.966  -8.733   4.417  1.00  0.00     0.049 A 
ATOM     59  C   UNL     1      12.684  -7.535  -1.069  1.00  0.00     0.074 A 
ATOM     60  C   UNL     1      14.222  -8.996   4.931  1.00  0.00     0.029 A 
ATOM     61  N   UNL     1      13.128  -8.461   3.067  1.00  0.00    -0.354 N 
ATOM     62  N   UNL     1      12.898  -7.835   0.190  1.00  0.00    -0.248 NA
ATOM     63  C   UNL     1      13.903  -7.450  -1.885  1.00  0.00     0.031 C 
ATOM     64  C   UNL     1      15.152  -8.837   3.898  1.00  0.00     0.029 A 
ATOM     65  C   UNL     1      14.469  -8.525   2.733  1.00  0.00     0.049 A 
ATOM     66  H   UNL     1      12.399  -8.253   2.440  1.00  0.00     0.167 HD
ATOM     67  C   UNL     1      14.271  -7.998   0.313  1.00  0.00     0.074 A 
ATOM     68  C   UNL     1      14.837  -7.780  -1.004  1.00  0.00     0.031 C 
ATOM     69  C   UNL     1      15.001  -8.302   1.414  1.00  0.00     0.031 A 
BRANCH  56  70
ATOM     70  C   UNL     1      11.667  -8.971   6.579  1.00  0.00    -0.014 A 
ATOM     71  C   UNL     1      11.130 -10.154   7.112  1.00  0.00     0.009 A 
ATOM     72  C   UNL     1      12.171  -7.998   7.455  1.00  0.00     0.009 A 
ATOM     73  C   UNL     1      11.056 -10.338   8.495  1.00  0.00     0.001 A 
ATOM     74  C   UNL     1      12.123  -8.198   8.836  1.00  0.00     0.001 A 
ATOM     75  C   UNL     1      11.555  -9.361   9.355  1.00  0.00     0.000 A 
ENDBRANCH  56  70
BRANCH  57  76
ATOM     76  C   UNL     1      11.341  -7.018  -3.236  1.00  0.00    -0.014 A 
ATOM     77  C   UNL     1      11.648  -8.032  -4.157  1.00  0.00     0.009 A 
ATOM     78  C   UNL     1      10.998  -5.746  -3.718  1.00  0.00     0.009 A 
ATOM     79  C   UNL     1      11.637  -7.770  -5.529  1.00  0.00     0.001 A 
ATOM     80  C   UNL     1      10.963  -5.494  -5.092  1.00  0.00     0.001 A 
ATOM     81  C   UNL     1      11.291  -6.503  -5.995  1.00  0.00     0.000 A 
ENDBRANCH  57  76
BRANCH  69  82
ATOM     82  C   UNL     1      16.485  -8.438   1.234  1.00  0.00    -0.014 A 
ATOM     83  C   UNL     1      17.299  -7.311   1.042  1.00  0.00     0.009 A 
ATOM     84  C   UNL     1      17.080  -9.707   1.313  1.00  0.00     0.009 A 
ATOM     85  C   UNL     1      18.680  -7.457   0.902  1.00  0.00     0.001 A 
ATOM     86  C   UNL     1      18.463  -9.846   1.201  1.00  0.00     0.001 A 
ATOM     87  C   UNL     1      19.261  -8.723   0.987  1.00  0.00     0.000 A 
ENDBRANCH  69  82
ENDBRANCH  43  44
ENDBRANCH  35  38
ENDBRANCH  33  34
ENDBRANCH  32  33
ENDBRANCH  31  32
ENDBRANCH   1  31
TORSDOF 16
