REMARK SMILES CN(C)Nc1ncnc(Nc2ccc(C(=O)NCCCCNC(=O)c3ccc(-c4c5nc(c(-c6ccccc6)c6ccc([nH]6)c(-c6ccccc6)c6nc(c(-c7ccccc7)c7ccc4[nH]7)C=C6)C=C5)cc3)cc2)c1[N+](=O)[O-]
REMARK SMILES IDX 18 1 17 2 15 3 16 4 14 6 11 7 12 8 74 9 13 10 73 11 10 12
REMARK SMILES IDX 9 14 5 15 6 16 75 17 7 18 8 19 4 20 2 22 1 23 3 24 76 25
REMARK SMILES IDX 77 26 78 27 19 28 20 29 21 30 22 31 23 32 24 34 25 35 26 36
REMARK SMILES IDX 72 37 27 38 71 39 28 40 29 41 30 42 65 43 31 44 70 45 64 46
REMARK SMILES IDX 66 47 32 48 69 49 63 50 62 51 33 53 55 54 40 55 54 56 41 57
REMARK SMILES IDX 44 58 53 59 67 60 42 61 43 62 52 64 68 65 45 66 34 67 35 68
REMARK SMILES IDX 39 69 36 70 38 71 37 72 56 73 57 74 61 75 58 76 60 77 59 78
REMARK SMILES IDX 46 79 47 80 51 81 48 82 50 83 49 84
REMARK H PARENT 17 5 10 13 4 21 22 33 66 52 44 63
REMARK Flexibility Score: inf
ROOT
ATOM      1  C   UNL     1       5.577   5.379  -6.345  1.00  0.00     0.116 C 
ENDROOT
BRANCH   1   2
ATOM      2  N   UNL     1       6.981   5.290  -5.987  1.00  0.00    -0.352 N 
ATOM      3  C   UNL     1       7.643   4.545  -5.044  1.00  0.00     0.251 C 
ATOM      4  O   UNL     1       8.868   4.651  -4.986  1.00  0.00    -0.269 OA
ATOM      5  H   UNL     1       7.567   5.872  -6.522  1.00  0.00     0.163 HD
BRANCH   3   6
ATOM      6  C   UNL     1       6.957   3.578  -4.143  1.00  0.00     0.039 A 
ATOM      7  C   UNL     1       5.738   1.555  -2.604  1.00  0.00     0.040 A 
ATOM      8  C   UNL     1       7.075   1.439  -2.978  1.00  0.00     0.027 A 
ATOM      9  C   UNL     1       5.059   2.746  -2.890  1.00  0.00     0.027 A 
ATOM     10  C   UNL     1       7.674   2.433  -3.761  1.00  0.00     0.016 A 
ATOM     11  C   UNL     1       5.669   3.756  -3.640  1.00  0.00     0.016 A 
BRANCH   7  12
ATOM     12  N   UNL     1       5.109   0.528  -1.873  1.00  0.00    -0.334 N 
ATOM     13  H   UNL     1       5.519   0.239  -1.026  1.00  0.00     0.168 HD
BRANCH  12  14
ATOM     14  C   UNL     1       3.921  -0.108  -2.292  1.00  0.00     0.215 A 
ATOM     15  C   UNL     1       1.905  -1.311  -1.939  1.00  0.00     0.225 A 
ATOM     16  N   UNL     1       1.615  -1.237  -3.255  1.00  0.00    -0.212 NA
ATOM     17  C   UNL     1       3.105  -0.839  -1.445  1.00  0.00     0.354 A 
ATOM     18  C   UNL     1       2.490  -0.597  -4.031  1.00  0.00     0.227 A 
ATOM     19  N   UNL     1       3.603   0.000  -3.603  1.00  0.00    -0.212 NA
BRANCH  15  20
ATOM     20  N   UNL     1       0.817  -1.765  -1.186  1.00  0.00    -0.298 N 
ATOM     21  H   UNL     1       0.295  -2.520  -1.541  1.00  0.00     0.184 HD
BRANCH  20  22
ATOM     22  N   UNL     1       0.416  -1.210   0.058  1.00  0.00    -0.228 NA
ATOM     23  C   UNL     1       0.278   0.256  -0.025  1.00  0.00     0.130 C 
ATOM     24  C   UNL     1      -0.911  -1.773   0.373  1.00  0.00     0.130 C 
ENDBRANCH  20  22
ENDBRANCH  15  20
BRANCH  17  25
ATOM     25  N   UNL     1       3.509  -1.105  -0.098  1.00  0.00     0.070 N 
ATOM     26  O   UNL     1       3.861  -0.129   0.586  1.00  0.00    -0.258 OA
ATOM     27  O   UNL     1       3.592  -2.288   0.255  1.00  0.00    -0.258 OA
ENDBRANCH  17  25
ENDBRANCH  12  14
ENDBRANCH   7  12
ENDBRANCH   3   6
ENDBRANCH   1   2
BRANCH   1  28
ATOM     28  C   UNL     1       4.940   6.626  -5.726  1.00  0.00     0.023 C 
BRANCH  28  29
ATOM     29  C   UNL     1       5.344   7.939  -6.402  1.00  0.00     0.023 C 
BRANCH  29  30
ATOM     30  C   UNL     1       4.851   8.096  -7.836  1.00  0.00     0.116 C 
BRANCH  30  31
ATOM     31  N   UNL     1       3.400   8.102  -7.946  1.00  0.00    -0.352 N 
ATOM     32  C   UNL     1       2.623   8.760  -8.873  1.00  0.00     0.251 C 
ATOM     33  H   UNL     1       2.914   7.570  -7.275  1.00  0.00     0.163 HD
ATOM     34  O   UNL     1       1.406   8.757  -8.791  1.00  0.00    -0.269 OA
BRANCH  32  35
ATOM     35  C   UNL     1       3.300   9.511  -9.952  1.00  0.00     0.039 A 
ATOM     36  C   UNL     1       2.998  10.864 -10.124  1.00  0.00     0.014 A 
ATOM     37  C   UNL     1       4.269   8.890 -10.742  1.00  0.00     0.014 A 
ATOM     38  C   UNL     1       3.726  11.618 -11.047  1.00  0.00     0.010 A 
ATOM     39  C   UNL     1       5.031   9.655 -11.617  1.00  0.00     0.010 A 
ATOM     40  C   UNL     1       4.772  11.027 -11.772  1.00  0.00    -0.014 A 
BRANCH  40  41
ATOM     41  C   UNL     1       5.621  11.812 -12.701  1.00  0.00     0.031 A 
ATOM     42  C   UNL     1       5.605  11.496 -14.170  1.00  0.00     0.074 A 
ATOM     43  C   UNL     1       6.480  12.729 -12.213  1.00  0.00     0.049 A 
ATOM     44  N   UNL     1       6.381  11.949 -15.120  1.00  0.00    -0.248 NA
ATOM     45  C   UNL     1       4.604  10.516 -14.625  1.00  0.00     0.031 C 
ATOM     46  C   UNL     1       6.619  13.102 -10.804  1.00  0.00     0.029 A 
ATOM     47  N   UNL     1       7.421  13.496 -12.853  1.00  0.00    -0.354 N 
ATOM     48  C   UNL     1       5.990  11.283 -16.274  1.00  0.00     0.074 A 
ATOM     49  C   UNL     1       4.924  10.378 -15.903  1.00  0.00     0.031 C 
ATOM     50  C   UNL     1       7.585  14.027 -10.687  1.00  0.00     0.029 A 
ATOM     51  C   UNL     1       8.161  14.283 -12.003  1.00  0.00     0.049 A 
ATOM     52  H   UNL     1       7.553  13.485 -13.829  1.00  0.00     0.167 HD
ATOM     53  C   UNL     1       6.470  11.420 -17.532  1.00  0.00     0.031 A 
ATOM     54  C   UNL     1       9.201  15.101 -12.254  1.00  0.00     0.031 A 
ATOM     55  C   UNL     1       7.501  12.348 -17.908  1.00  0.00     0.049 A 
ATOM     56  C   UNL     1       9.699  15.248 -13.665  1.00  0.00     0.074 A 
ATOM     57  C   UNL     1       7.999  12.613 -19.172  1.00  0.00     0.029 A 
ATOM     58  N   UNL     1       8.187  13.164 -17.024  1.00  0.00    -0.354 N 
ATOM     59  N   UNL     1       9.272  14.661 -14.756  1.00  0.00    -0.248 NA
ATOM     60  C   UNL     1      10.819  16.178 -13.880  1.00  0.00     0.031 C 
ATOM     61  C   UNL     1       9.014  13.566 -19.048  1.00  0.00     0.029 A 
ATOM     62  C   UNL     1       9.116  13.923 -17.713  1.00  0.00     0.049 A 
ATOM     63  H   UNL     1       8.035  13.199 -16.052  1.00  0.00     0.167 HD
ATOM     64  C   UNL     1      10.047  15.174 -15.789  1.00  0.00     0.074 A 
ATOM     65  C   UNL     1      10.963  16.125 -15.197  1.00  0.00     0.031 C 
ATOM     66  C   UNL     1      10.003  14.882 -17.110  1.00  0.00     0.031 A 
BRANCH  53  67
ATOM     67  C   UNL     1       5.887  10.542 -18.601  1.00  0.00    -0.014 A 
ATOM     68  C   UNL     1       4.598  10.771 -19.106  1.00  0.00     0.009 A 
ATOM     69  C   UNL     1       6.662   9.510 -19.151  1.00  0.00     0.009 A 
ATOM     70  C   UNL     1       4.087   9.965 -20.126  1.00  0.00     0.001 A 
ATOM     71  C   UNL     1       6.158   8.722 -20.187  1.00  0.00     0.001 A 
ATOM     72  C   UNL     1       4.870   8.946 -20.669  1.00  0.00     0.000 A 
ENDBRANCH  53  67
BRANCH  54  73
ATOM     73  C   UNL     1       9.853  15.848 -11.147  1.00  0.00    -0.014 A 
ATOM     74  C   UNL     1       9.700  17.239 -11.039  1.00  0.00     0.009 A 
ATOM     75  C   UNL     1      10.659  15.179 -10.212  1.00  0.00     0.009 A 
ATOM     76  C   UNL     1      10.369  17.949 -10.040  1.00  0.00     0.001 A 
ATOM     77  C   UNL     1      11.304  15.889  -9.197  1.00  0.00     0.001 A 
ATOM     78  C   UNL     1      11.169  17.274  -9.119  1.00  0.00     0.000 A 
ENDBRANCH  54  73
BRANCH  66  79
ATOM     79  C   UNL     1      10.932  15.634 -18.017  1.00  0.00    -0.014 A 
ATOM     80  C   UNL     1      12.299  15.329 -18.073  1.00  0.00     0.009 A 
ATOM     81  C   UNL     1      10.414  16.619 -18.872  1.00  0.00     0.009 A 
ATOM     82  C   UNL     1      13.136  16.013 -18.957  1.00  0.00     0.001 A 
ATOM     83  C   UNL     1      11.249  17.284 -19.771  1.00  0.00     0.001 A 
ATOM     84  C   UNL     1      12.610  16.984 -19.809  1.00  0.00     0.000 A 
ENDBRANCH  66  79
ENDBRANCH  40  41
ENDBRANCH  32  35
ENDBRANCH  30  31
ENDBRANCH  29  30
ENDBRANCH  28  29
ENDBRANCH   1  28
TORSDOF 16
