REMARK SMILES Cc1ccnc(C(=O)c2[nH]c3cc(Cl)c(F)cc3c2CC(=O)NCCCCNC(=O)c2ccc(-c3c4nc(c(-c5ccccc5)c5ccc([nH]5)c(-c5ccccc5)c5nc(c(-c6ccccc6)c6ccc3[nH]6)C=C5)C=C4)cc2)c1
REMARK SMILES IDX 25 1 24 2 23 3 21 4 22 5 20 7 19 8 9 9 10 10 11 11 18 13
REMARK SMILES IDX 12 14 17 15 13 16 15 17 14 18 16 19 7 20 8 21 6 22 1 23 2 24
REMARK SMILES IDX 3 25 79 26 4 27 5 28 26 29 27 30 28 31 29 32 30 34 31 35
REMARK SMILES IDX 32 36 78 37 33 38 77 39 34 40 35 41 36 42 71 43 37 44 76 45
REMARK SMILES IDX 70 46 72 47 38 48 75 49 69 50 68 51 39 53 61 54 46 55 60 56
REMARK SMILES IDX 47 57 50 58 59 59 73 60 48 61 49 62 58 64 74 65 51 66 40 67
REMARK SMILES IDX 41 68 45 69 42 70 44 71 43 72 62 73 63 74 67 75 64 76 66 77
REMARK SMILES IDX 65 78 52 79 53 80 57 81 54 82 56 83 55 84
REMARK H PARENT 23 6 10 12 28 33 72 52 50 63
REMARK Flexibility Score: inf
ROOT
ATOM      1  C   UNL     1      -3.007  -3.771   0.684  1.00  0.00     0.023 C 
ENDROOT
BRANCH   1   2
ATOM      2  C   UNL     1      -3.091  -3.689  -0.843  1.00  0.00     0.116 C 
BRANCH   2   3
ATOM      3  N   UNL     1      -2.461  -2.518  -1.416  1.00  0.00    -0.356 N 
ATOM      4  C   UNL     1      -1.271  -2.375  -2.064  1.00  0.00     0.224 C 
ATOM      5  O   UNL     1      -1.082  -1.297  -2.638  1.00  0.00    -0.275 OA
ATOM      6  H   UNL     1      -2.979  -1.687  -1.323  1.00  0.00     0.163 HD
BRANCH   4   7
ATOM      7  C   UNL     1      -0.239  -3.483  -2.155  1.00  0.00     0.138 C 
BRANCH   7   8
ATOM      8  C   UNL     1       0.191  -4.118  -0.861  1.00  0.00    -0.002 A 
ATOM      9  C   UNL     1       1.040  -3.623   0.134  1.00  0.00     0.093 A 
ATOM     10  N   UNL     1       1.217  -4.643   1.048  1.00  0.00    -0.351 N 
ATOM     11  C   UNL     1       0.465  -5.742   0.736  1.00  0.00     0.048 A 
ATOM     12  H   UNL     1       1.812  -4.586   1.830  1.00  0.00     0.167 HD
ATOM     13  C   UNL     1      -0.131  -5.480  -0.493  1.00  0.00     0.007 A 
ATOM     14  C   UNL     1       0.296  -6.948   1.431  1.00  0.00     0.050 A 
ATOM     15  C   UNL     1      -0.889  -6.511  -1.093  1.00  0.00     0.051 A 
ATOM     16  C   UNL     1      -0.513  -7.924   0.843  1.00  0.00     0.078 A 
ATOM     17  C   UNL     1      -1.085  -7.710  -0.405  1.00  0.00     0.142 A 
ATOM     18  Cl  UNL     1      -0.792  -9.399   1.688  1.00  0.00    -0.081 Cl
ATOM     19  F   UNL     1      -1.858  -8.647  -0.974  1.00  0.00    -0.205 F 
BRANCH   9  20
ATOM     20  C   UNL     1       1.803  -2.393   0.324  1.00  0.00     0.227 C 
ATOM     21  O   UNL     1       2.956  -2.467   0.766  1.00  0.00    -0.285 OA
BRANCH  20  22
ATOM     22  C   UNL     1       1.202  -1.033   0.146  1.00  0.00     0.113 A 
ATOM     23  C   UNL     1      -2.111   0.808   0.343  1.00  0.00     0.044 C 
ATOM     24  C   UNL     1      -0.651   0.502   0.207  1.00  0.00    -0.047 A 
ATOM     25  C   UNL     1       0.247   1.529  -0.077  1.00  0.00     0.023 A 
ATOM     26  C   UNL     1      -0.150  -0.795   0.374  1.00  0.00     0.036 A 
ATOM     27  C   UNL     1       1.587   1.216  -0.231  1.00  0.00     0.112 A 
ATOM     28  N   UNL     1       2.081  -0.035  -0.136  1.00  0.00    -0.253 NA
ENDBRANCH  20  22
ENDBRANCH   9  20
ENDBRANCH   7   8
ENDBRANCH   4   7
ENDBRANCH   2   3
ENDBRANCH   1   2
BRANCH   1  29
ATOM     29  C   UNL     1      -3.658  -2.634   1.484  1.00  0.00     0.023 C 
BRANCH  29  30
ATOM     30  C   UNL     1      -4.994  -2.130   0.949  1.00  0.00     0.116 C 
BRANCH  30  31
ATOM     31  N   UNL     1      -6.012  -3.156   0.912  1.00  0.00    -0.352 N 
ATOM     32  C   UNL     1      -6.833  -3.731   1.840  1.00  0.00     0.251 C 
ATOM     33  H   UNL     1      -6.145  -3.525   0.009  1.00  0.00     0.163 HD
ATOM     34  O   UNL     1      -7.588  -4.611   1.415  1.00  0.00    -0.269 OA
BRANCH  32  35
ATOM     35  C   UNL     1      -6.875  -3.397   3.293  1.00  0.00     0.039 A 
ATOM     36  C   UNL     1      -6.217  -2.331   3.908  1.00  0.00     0.014 A 
ATOM     37  C   UNL     1      -7.676  -4.229   4.098  1.00  0.00     0.014 A 
ATOM     38  C   UNL     1      -6.327  -2.122   5.283  1.00  0.00     0.010 A 
ATOM     39  C   UNL     1      -7.805  -4.014   5.471  1.00  0.00     0.010 A 
ATOM     40  C   UNL     1      -7.111  -2.968   6.073  1.00  0.00    -0.014 A 
BRANCH  40  41
ATOM     41  C   UNL     1      -7.201  -2.665   7.504  1.00  0.00     0.031 A 
ATOM     42  C   UNL     1      -7.805  -1.356   7.891  1.00  0.00     0.074 A 
ATOM     43  C   UNL     1      -6.880  -3.528   8.489  1.00  0.00     0.049 A 
ATOM     44  N   UNL     1      -7.289  -0.420   8.623  1.00  0.00    -0.248 NA
ATOM     45  C   UNL     1      -9.156  -1.057   7.395  1.00  0.00     0.031 C 
ATOM     46  C   UNL     1      -6.603  -4.959   8.364  1.00  0.00     0.029 A 
ATOM     47  N   UNL     1      -6.840  -3.309   9.841  1.00  0.00    -0.354 N 
ATOM     48  C   UNL     1      -8.291   0.535   8.795  1.00  0.00     0.074 A 
ATOM     49  C   UNL     1      -9.396   0.126   7.963  1.00  0.00     0.031 C 
ATOM     50  C   UNL     1      -6.643  -5.522   9.591  1.00  0.00     0.029 A 
ATOM     51  C   UNL     1      -6.793  -4.472  10.587  1.00  0.00     0.049 A 
ATOM     52  H   UNL     1      -6.845  -2.410  10.242  1.00  0.00     0.167 HD
ATOM     53  C   UNL     1      -8.213   1.523   9.727  1.00  0.00     0.031 A 
ATOM     54  C   UNL     1      -6.905  -4.593  11.928  1.00  0.00     0.031 A 
ATOM     55  C   UNL     1      -6.892   1.685  10.262  1.00  0.00     0.049 A 
ATOM     56  C   UNL     1      -6.569  -3.311  12.578  1.00  0.00     0.074 A 
ATOM     57  C   UNL     1      -5.707   2.247   9.847  1.00  0.00     0.029 A 
ATOM     58  N   UNL     1      -6.628   0.970  11.399  1.00  0.00    -0.354 N 
ATOM     59  N   UNL     1      -5.377  -2.788  12.577  1.00  0.00    -0.248 NA
ATOM     60  C   UNL     1      -7.624  -2.449  13.098  1.00  0.00     0.031 C 
ATOM     61  C   UNL     1      -4.685   1.625  10.622  1.00  0.00     0.029 A 
ATOM     62  C   UNL     1      -5.286   0.691  11.465  1.00  0.00     0.049 A 
ATOM     63  H   UNL     1      -7.298   0.698  12.067  1.00  0.00     0.167 HD
ATOM     64  C   UNL     1      -5.594  -1.430  12.698  1.00  0.00     0.074 A 
ATOM     65  C   UNL     1      -6.948  -1.303  13.211  1.00  0.00     0.031 C 
ATOM     66  C   UNL     1      -4.789  -0.533  12.061  1.00  0.00     0.031 A 
BRANCH  53  67
ATOM     67  C   UNL     1      -9.397   2.157  10.415  1.00  0.00    -0.014 A 
ATOM     68  C   UNL     1     -10.661   1.544  10.490  1.00  0.00     0.009 A 
ATOM     69  C   UNL     1      -9.185   3.270  11.253  1.00  0.00     0.009 A 
ATOM     70  C   UNL     1     -11.662   2.018  11.346  1.00  0.00     0.001 A 
ATOM     71  C   UNL     1     -10.171   3.723  12.139  1.00  0.00     0.001 A 
ATOM     72  C   UNL     1     -11.411   3.096  12.185  1.00  0.00     0.000 A 
ENDBRANCH  53  67
BRANCH  54  73
ATOM     73  C   UNL     1      -7.441  -5.736  12.690  1.00  0.00    -0.014 A 
ATOM     74  C   UNL     1      -8.498  -6.499  12.160  1.00  0.00     0.009 A 
ATOM     75  C   UNL     1      -7.091  -5.935  14.033  1.00  0.00     0.009 A 
ATOM     76  C   UNL     1      -9.199  -7.411  12.952  1.00  0.00     0.001 A 
ATOM     77  C   UNL     1      -7.799  -6.843  14.828  1.00  0.00     0.001 A 
ATOM     78  C   UNL     1      -8.859  -7.571  14.290  1.00  0.00     0.000 A 
ENDBRANCH  54  73
BRANCH  66  79
ATOM     79  C   UNL     1      -3.405  -0.981  11.677  1.00  0.00    -0.014 A 
ATOM     80  C   UNL     1      -2.305  -0.252  12.156  1.00  0.00     0.009 A 
ATOM     81  C   UNL     1      -3.168  -2.039  10.786  1.00  0.00     0.009 A 
ATOM     82  C   UNL     1      -1.006  -0.578  11.761  1.00  0.00     0.001 A 
ATOM     83  C   UNL     1      -1.866  -2.383  10.413  1.00  0.00     0.001 A 
ATOM     84  C   UNL     1      -0.786  -1.648  10.897  1.00  0.00     0.000 A 
ENDBRANCH  66  79
ENDBRANCH  40  41
ENDBRANCH  32  35
ENDBRANCH  30  31
ENDBRANCH  29  30
ENDBRANCH   1  29
TORSDOF 14
