REMARK SMILES CCc1ccc(C(=O)NCCCCNC(=O)c2ccc(-c3c4nc(c(-c5ccccc5)c5ccc([nH]5)c(-c5ccccc5)c5nc(c(-c6ccccc6)c6ccc3[nH]6)C=C5)C=C4)cc2)cc1S(=O)(=O)C(CC)CC
REMARK SMILES IDX 11 1 10 2 9 3 7 4 8 5 6 7 3 8 4 9 66 10 5 11 65 12 2 13 1 14
REMARK SMILES IDX 67 15 68 16 69 17 70 18 71 19 72 20 73 21 74 22 12 23 13 24
REMARK SMILES IDX 14 25 15 26 16 28 17 29 18 30 64 31 19 32 63 33 20 34 21 35
REMARK SMILES IDX 22 36 57 37 23 38 62 39 56 40 58 41 24 42 61 43 55 44 54 45
REMARK SMILES IDX 25 47 47 48 32 49 46 50 33 51 36 52 45 53 59 54 34 55 35 56
REMARK SMILES IDX 44 58 60 59 37 60 26 61 27 62 31 63 28 64 30 65 29 66 48 67
REMARK SMILES IDX 49 68 53 69 50 70 52 71 51 72 38 73 39 74 43 75 40 76 42 77
REMARK SMILES IDX 41 78
REMARK H PARENT 9 6 14 27 58 46 36 57
REMARK Flexibility Score: inf
ROOT
ATOM      1  C   UNL     1       4.891  -3.080  -5.779  1.00  0.00     0.023 C 
ENDROOT
BRANCH   1   2
ATOM      2  C   UNL     1       3.423  -3.282  -6.166  1.00  0.00     0.116 C 
BRANCH   2   3
ATOM      3  N   UNL     1       2.868  -4.434  -5.479  1.00  0.00    -0.352 N 
ATOM      4  C   UNL     1       2.179  -4.590  -4.304  1.00  0.00     0.251 C 
ATOM      5  O   UNL     1       1.865  -5.740  -3.991  1.00  0.00    -0.269 OA
ATOM      6  H   UNL     1       3.018  -5.282  -5.957  1.00  0.00     0.163 HD
BRANCH   4   7
ATOM      7  C   UNL     1       1.750  -3.466  -3.420  1.00  0.00     0.041 A 
ATOM      8  C   UNL     1       0.762  -1.384  -1.717  1.00  0.00    -0.030 A 
ATOM      9  C   UNL     1       0.262  -2.708  -1.667  1.00  0.00     0.006 A 
ATOM     10  C   UNL     1       1.758  -1.108  -2.661  1.00  0.00     0.071 A 
ATOM     11  C   UNL     1       0.725  -3.719  -2.513  1.00  0.00     0.014 A 
ATOM     12  C   UNL     1       2.284  -2.182  -3.431  1.00  0.00     0.034 A 
BRANCH   8  13
ATOM     13  C   UNL     1       0.175  -0.464  -0.688  1.00  0.00     0.033 C 
ATOM     14  C   UNL     1       0.742  -0.715   0.706  1.00  0.00     0.009 C 
ENDBRANCH   8  13
BRANCH  10  15
ATOM     15  S   UNL     1       2.474   0.439  -3.227  1.00  0.00     0.181 S 
ATOM     16  O   UNL     1       3.897   0.281  -2.966  1.00  0.00    -0.223 OA
ATOM     17  O   UNL     1       2.047   0.518  -4.618  1.00  0.00    -0.223 OA
BRANCH  15  18
ATOM     18  C   UNL     1       1.994   1.972  -2.497  1.00  0.00     0.113 C 
BRANCH  18  19
ATOM     19  C   UNL     1       0.664   2.583  -3.006  1.00  0.00     0.017 C 
ATOM     20  C   UNL     1      -0.612   1.759  -3.006  1.00  0.00     0.005 C 
ENDBRANCH  18  19
BRANCH  18  21
ATOM     21  C   UNL     1       2.328   2.174  -1.011  1.00  0.00     0.017 C 
ATOM     22  C   UNL     1       3.815   2.393  -0.732  1.00  0.00     0.005 C 
ENDBRANCH  18  21
ENDBRANCH  15  18
ENDBRANCH  10  15
ENDBRANCH   4   7
ENDBRANCH   2   3
ENDBRANCH   1   2
BRANCH   1  23
ATOM     23  C   UNL     1       5.846  -4.088  -6.428  1.00  0.00     0.023 C 
BRANCH  23  24
ATOM     24  C   UNL     1       5.906  -4.028  -7.952  1.00  0.00     0.116 C 
BRANCH  24  25
ATOM     25  N   UNL     1       6.321  -2.729  -8.461  1.00  0.00    -0.352 N 
ATOM     26  C   UNL     1       7.061  -2.451  -9.586  1.00  0.00     0.251 C 
ATOM     27  H   UNL     1       6.035  -1.950  -7.932  1.00  0.00     0.163 HD
ATOM     28  O   UNL     1       7.422  -1.310  -9.838  1.00  0.00    -0.269 OA
BRANCH  26  29
ATOM     29  C   UNL     1       7.460  -3.567 -10.467  1.00  0.00     0.039 A 
ATOM     30  C   UNL     1       8.815  -3.741 -10.758  1.00  0.00     0.014 A 
ATOM     31  C   UNL     1       6.506  -4.471 -10.943  1.00  0.00     0.014 A 
ATOM     32  C   UNL     1       9.227  -4.878 -11.452  1.00  0.00     0.010 A 
ATOM     33  C   UNL     1       6.924  -5.631 -11.588  1.00  0.00     0.010 A 
ATOM     34  C   UNL     1       8.290  -5.855 -11.826  1.00  0.00    -0.014 A 
BRANCH  34  35
ATOM     35  C   UNL     1       8.721  -7.150 -12.406  1.00  0.00     0.031 A 
ATOM     36  C   UNL     1       8.354  -7.513 -13.815  1.00  0.00     0.074 A 
ATOM     37  C   UNL     1       9.373  -8.034 -11.625  1.00  0.00     0.049 A 
ATOM     38  N   UNL     1       8.565  -8.635 -14.457  1.00  0.00    -0.248 NA
ATOM     39  C   UNL     1       7.643  -6.492 -14.600  1.00  0.00     0.031 C 
ATOM     40  C   UNL     1       9.755  -7.812 -10.228  1.00  0.00     0.029 A 
ATOM     41  N   UNL     1       9.815  -9.305 -11.892  1.00  0.00    -0.354 N 
ATOM     42  C   UNL     1       8.005  -8.459 -15.715  1.00  0.00     0.074 A 
ATOM     43  C   UNL     1       7.411  -7.139 -15.733  1.00  0.00     0.031 C 
ATOM     44  C   UNL     1      10.389  -8.903  -9.767  1.00  0.00     0.029 A 
ATOM     45  C   UNL     1      10.417  -9.915 -10.817  1.00  0.00     0.049 A 
ATOM     46  H   UNL     1       9.710  -9.740 -12.769  1.00  0.00     0.167 HD
ATOM     47  C   UNL     1       7.999  -9.314 -16.764  1.00  0.00     0.031 A 
ATOM     48  C   UNL     1      10.920 -11.156 -10.686  1.00  0.00     0.031 A 
ATOM     49  C   UNL     1       8.589 -10.626 -16.745  1.00  0.00     0.049 A 
ATOM     50  C   UNL     1      10.859 -12.100 -11.853  1.00  0.00     0.074 A 
ATOM     51  C   UNL     1       8.682 -11.544 -17.777  1.00  0.00     0.029 A 
ATOM     52  N   UNL     1       9.180 -11.210 -15.636  1.00  0.00    -0.354 N 
ATOM     53  N   UNL     1      10.386 -11.894 -13.057  1.00  0.00    -0.248 NA
ATOM     54  C   UNL     1      11.403 -13.449 -11.640  1.00  0.00     0.031 C 
ATOM     55  C   UNL     1       9.284 -12.704 -17.278  1.00  0.00     0.029 A 
ATOM     56  C   UNL     1       9.610 -12.489 -15.948  1.00  0.00     0.049 A 
ATOM     57  H   UNL     1       9.279 -10.780 -14.756  1.00  0.00     0.167 HD
ATOM     58  C   UNL     1      10.589 -13.080 -13.751  1.00  0.00     0.074 A 
ATOM     59  C   UNL     1      11.248 -13.992 -12.840  1.00  0.00     0.031 C 
ATOM     60  C   UNL     1      10.255 -13.386 -15.027  1.00  0.00     0.031 A 
BRANCH  47  61
ATOM     61  C   UNL     1       7.325  -8.858 -18.027  1.00  0.00    -0.014 A 
ATOM     62  C   UNL     1       7.907  -7.875 -18.843  1.00  0.00     0.009 A 
ATOM     63  C   UNL     1       6.120  -9.453 -18.431  1.00  0.00     0.009 A 
ATOM     64  C   UNL     1       7.281  -7.477 -20.026  1.00  0.00     0.001 A 
ATOM     65  C   UNL     1       5.510  -9.070 -19.627  1.00  0.00     0.001 A 
ATOM     66  C   UNL     1       6.086  -8.079 -20.419  1.00  0.00     0.000 A 
ENDBRANCH  47  61
BRANCH  48  67
ATOM     67  C   UNL     1      11.517 -11.589  -9.396  1.00  0.00    -0.014 A 
ATOM     68  C   UNL     1      12.901 -11.792  -9.286  1.00  0.00     0.009 A 
ATOM     69  C   UNL     1      10.705 -11.818  -8.274  1.00  0.00     0.009 A 
ATOM     70  C   UNL     1      13.456 -12.242  -8.086  1.00  0.00     0.001 A 
ATOM     71  C   UNL     1      11.267 -12.241  -7.067  1.00  0.00     0.001 A 
ATOM     72  C   UNL     1      12.640 -12.463  -6.977  1.00  0.00     0.000 A 
ENDBRANCH  48  67
BRANCH  60  73
ATOM     73  C   UNL     1      10.611 -14.761 -15.515  1.00  0.00    -0.014 A 
ATOM     74  C   UNL     1       9.892 -15.888 -15.090  1.00  0.00     0.009 A 
ATOM     75  C   UNL     1      11.655 -14.926 -16.439  1.00  0.00     0.009 A 
ATOM     76  C   UNL     1      10.230 -17.159 -15.559  1.00  0.00     0.001 A 
ATOM     77  C   UNL     1      11.973 -16.194 -16.926  1.00  0.00     0.001 A 
ATOM     78  C   UNL     1      11.266 -17.310 -16.480  1.00  0.00     0.000 A 
ENDBRANCH  60  73
ENDBRANCH  34  35
ENDBRANCH  26  29
ENDBRANCH  24  25
ENDBRANCH  23  24
ENDBRANCH   1  23
TORSDOF 16
