REMARK SMILES COC(=O)c1cccnc1N[C@](C)(C(=O)NCCCCNC(=O)c1ccc(-c2c3nc(c(-c4ccccc4)c4ccc([nH]4)c(-c4ccccc4)c4nc(c(-c5ccccc5)c5ccc2[nH]5)C=C4)C=C3)cc1)C(F)(F)F
REMARK SMILES IDX 17 1 16 2 14 3 15 4 12 6 13 7 11 8 10 10 5 11 6 12 7 13 9 14
REMARK SMILES IDX 8 15 3 16 4 17 2 18 1 19 72 20 73 21 74 22 75 23 18 24 19 25
REMARK SMILES IDX 20 26 21 27 22 28 23 30 24 31 25 32 71 33 26 34 70 35 27 36
REMARK SMILES IDX 28 37 29 38 64 39 30 40 69 41 63 42 65 43 31 44 68 45 62 46
REMARK SMILES IDX 61 47 32 49 54 50 39 51 53 52 40 53 43 54 52 55 66 56 41 57
REMARK SMILES IDX 42 58 51 60 67 61 44 62 33 63 34 64 38 65 35 66 37 67 36 68
REMARK SMILES IDX 55 69 56 70 60 71 57 72 59 73 58 74 45 75 46 76 50 77 47 78
REMARK SMILES IDX 49 79 48 80
REMARK H PARENT 16 5 11 9 21 29 65 48 43 59
REMARK Flexibility Score: inf
ROOT
ATOM      1  C   UNL     1       5.344   2.558   1.774  1.00  0.00     0.116 C 
ENDROOT
BRANCH   1   2
ATOM      2  N   UNL     1       5.325   3.990   1.619  1.00  0.00    -0.354 N 
ATOM      3  C   UNL     1       4.591   4.932   2.293  1.00  0.00     0.254 C 
ATOM      4  O   UNL     1       4.941   6.097   2.068  1.00  0.00    -0.272 OA
ATOM      5  H   UNL     1       5.929   4.345   0.928  1.00  0.00     0.163 HD
BRANCH   3   6
ATOM      6  C   UNL     1       3.413   4.584   3.258  1.00  0.00     0.211 C 
ATOM      7  C   UNL     1       2.302   3.801   2.549  1.00  0.00     0.055 C 
BRANCH   6   8
ATOM      8  N   UNL     1       3.924   3.955   4.520  1.00  0.00    -0.348 N 
ATOM      9  H   UNL     1       4.278   4.605   5.170  1.00  0.00     0.163 HD
BRANCH   8  10
ATOM     10  C   UNL     1       3.997   2.650   4.951  1.00  0.00     0.141 A 
ATOM     11  C   UNL     1       4.747   2.305   6.092  1.00  0.00     0.102 A 
ATOM     12  C   UNL     1       5.042   0.955   6.340  1.00  0.00     0.021 A 
ATOM     13  C   UNL     1       4.558  -0.024   5.486  1.00  0.00     0.021 A 
ATOM     14  N   UNL     1       3.455   1.678   4.185  1.00  0.00    -0.239 NA
ATOM     15  C   UNL     1       3.747   0.382   4.449  1.00  0.00     0.113 A 
BRANCH  11  16
ATOM     16  C   UNL     1       5.172   3.368   7.041  1.00  0.00     0.341 C 
ATOM     17  O   UNL     1       4.764   4.518   6.986  1.00  0.00    -0.246 OA
BRANCH  16  18
ATOM     18  O   UNL     1       6.022   2.877   7.978  1.00  0.00    -0.465 OA
ATOM     19  C   UNL     1       6.372   3.817   8.998  1.00  0.00     0.282 C 
ENDBRANCH  16  18
ENDBRANCH  11  16
ENDBRANCH   8  10
ENDBRANCH   6   8
BRANCH   6  20
ATOM     20  C   UNL     1       2.782   5.967   3.625  1.00  0.00     0.420 C 
ATOM     21  F   UNL     1       2.347   6.663   2.550  1.00  0.00    -0.168 F 
ATOM     22  F   UNL     1       1.695   5.793   4.428  1.00  0.00    -0.168 F 
ATOM     23  F   UNL     1       3.635   6.753   4.326  1.00  0.00    -0.168 F 
ENDBRANCH   6  20
ENDBRANCH   3   6
ENDBRANCH   1   2
BRANCH   1  24
ATOM     24  C   UNL     1       5.084   1.785   0.490  1.00  0.00     0.023 C 
BRANCH  24  25
ATOM     25  C   UNL     1       6.291   1.635  -0.425  1.00  0.00     0.023 C 
BRANCH  25  26
ATOM     26  C   UNL     1       7.543   1.064   0.231  1.00  0.00     0.116 C 
BRANCH  26  27
ATOM     27  N   UNL     1       7.338  -0.215   0.899  1.00  0.00    -0.352 N 
ATOM     28  C   UNL     1       8.122  -1.347   0.853  1.00  0.00     0.251 C 
ATOM     29  H   UNL     1       6.530  -0.279   1.459  1.00  0.00     0.163 HD
ATOM     30  O   UNL     1       7.777  -2.374   1.426  1.00  0.00    -0.269 OA
BRANCH  28  31
ATOM     31  C   UNL     1       9.367  -1.318   0.059  1.00  0.00     0.039 A 
ATOM     32  C   UNL     1       9.572  -2.295  -0.917  1.00  0.00     0.014 A 
ATOM     33  C   UNL     1      10.278  -0.271   0.219  1.00  0.00     0.014 A 
ATOM     34  C   UNL     1      10.643  -2.166  -1.803  1.00  0.00     0.010 A 
ATOM     35  C   UNL     1      11.292  -0.100  -0.716  1.00  0.00     0.010 A 
ATOM     36  C   UNL     1      11.479  -1.038  -1.743  1.00  0.00    -0.014 A 
BRANCH  36  37
ATOM     37  C   UNL     1      12.543  -0.803  -2.751  1.00  0.00     0.031 A 
ATOM     38  C   UNL     1      13.982  -0.737  -2.323  1.00  0.00     0.074 A 
ATOM     39  C   UNL     1      12.210  -0.555  -4.034  1.00  0.00     0.049 A 
ATOM     40  N   UNL     1      15.042  -0.440  -3.032  1.00  0.00    -0.248 NA
ATOM     41  C   UNL     1      14.264  -1.007  -0.904  1.00  0.00     0.031 C 
ATOM     42  C   UNL     1      10.848  -0.538  -4.573  1.00  0.00     0.029 A 
ATOM     43  N   UNL     1      12.998  -0.257  -5.118  1.00  0.00    -0.354 N 
ATOM     44  C   UNL     1      16.107  -0.461  -2.141  1.00  0.00     0.074 A 
ATOM     45  C   UNL     1      15.561  -0.752  -0.834  1.00  0.00     0.031 C 
ATOM     46  C   UNL     1      10.898  -0.272  -5.888  1.00  0.00     0.029 A 
ATOM     47  C   UNL     1      12.288  -0.061  -6.278  1.00  0.00     0.049 A 
ATOM     48  H   UNL     1      13.979  -0.191  -5.069  1.00  0.00     0.167 HD
ATOM     49  C   UNL     1      17.424  -0.274  -2.390  1.00  0.00     0.031 A 
ATOM     50  C   UNL     1      12.709   0.260  -7.516  1.00  0.00     0.031 A 
ATOM     51  C   UNL     1      17.974  -0.010  -3.691  1.00  0.00     0.049 A 
ATOM     52  C   UNL     1      14.177   0.453  -7.769  1.00  0.00     0.074 A 
ATOM     53  C   UNL     1      19.302   0.127  -4.055  1.00  0.00     0.029 A 
ATOM     54  N   UNL     1      17.223   0.155  -4.844  1.00  0.00    -0.354 N 
ATOM     55  N   UNL     1      15.178   0.363  -6.928  1.00  0.00    -0.248 NA
ATOM     56  C   UNL     1      14.574   0.781  -9.146  1.00  0.00     0.031 C 
ATOM     57  C   UNL     1      19.352   0.413  -5.423  1.00  0.00     0.029 A 
ATOM     58  C   UNL     1      18.058   0.409  -5.918  1.00  0.00     0.049 A 
ATOM     59  H   UNL     1      16.241   0.100  -4.892  1.00  0.00     0.167 HD
ATOM     60  C   UNL     1      16.324   0.598  -7.677  1.00  0.00     0.074 A 
ATOM     61  C   UNL     1      15.895   0.821  -9.043  1.00  0.00     0.031 C 
ATOM     62  C   UNL     1      17.616   0.625  -7.270  1.00  0.00     0.031 A 
BRANCH  49  63
ATOM     63  C   UNL     1      18.362  -0.351  -1.218  1.00  0.00    -0.014 A 
ATOM     64  C   UNL     1      18.636  -1.575  -0.587  1.00  0.00     0.009 A 
ATOM     65  C   UNL     1      18.996   0.811  -0.754  1.00  0.00     0.009 A 
ATOM     66  C   UNL     1      19.496  -1.626   0.511  1.00  0.00     0.001 A 
ATOM     67  C   UNL     1      19.878   0.752   0.327  1.00  0.00     0.001 A 
ATOM     68  C   UNL     1      20.119  -0.464   0.965  1.00  0.00     0.000 A 
ENDBRANCH  49  63
BRANCH  50  69
ATOM     69  C   UNL     1      11.728   0.399  -8.624  1.00  0.00    -0.014 A 
ATOM     70  C   UNL     1      11.654  -0.578  -9.630  1.00  0.00     0.009 A 
ATOM     71  C   UNL     1      10.869   1.506  -8.688  1.00  0.00     0.009 A 
ATOM     72  C   UNL     1      10.756  -0.435 -10.690  1.00  0.00     0.001 A 
ATOM     73  C   UNL     1       9.955   1.633  -9.736  1.00  0.00     0.001 A 
ATOM     74  C   UNL     1       9.905   0.668 -10.741  1.00  0.00     0.000 A 
ENDBRANCH  50  69
BRANCH  62  75
ATOM     75  C   UNL     1      18.662   0.869  -8.319  1.00  0.00    -0.014 A 
ATOM     76  C   UNL     1      18.858   2.146  -8.867  1.00  0.00     0.009 A 
ATOM     77  C   UNL     1      19.491  -0.186  -8.731  1.00  0.00     0.009 A 
ATOM     78  C   UNL     1      19.849   2.354  -9.828  1.00  0.00     0.001 A 
ATOM     79  C   UNL     1      20.497   0.031  -9.673  1.00  0.00     0.001 A 
ATOM     80  C   UNL     1      20.670   1.299 -10.226  1.00  0.00     0.000 A 
ENDBRANCH  62  75
ENDBRANCH  36  37
ENDBRANCH  28  31
ENDBRANCH  26  27
ENDBRANCH  25  26
ENDBRANCH  24  25
ENDBRANCH   1  24
TORSDOF 16
