REMARK SMILES COc1c(C(=O)NCCCCNC(=O)c2ccc(-c3c4nc(c(-c5ccccc5)c5ccc([nH]5)c(-c5ccccc5)c5nc(c(-c6ccccc6)c6ccc3[nH]6)C=C5)C=C4)cc2)cccc1-c1ccc2ccccc2c1
REMARK SMILES IDX 10 1 9 2 8 3 7 4 5 5 6 6 4 8 3 9 66 10 63 11 65 12 64 13
REMARK SMILES IDX 2 14 1 15 67 16 68 17 76 18 69 19 75 20 70 21 74 22 71 23
REMARK SMILES IDX 73 24 72 25 11 26 12 27 13 28 14 30 15 31 16 32 62 33 17 34
REMARK SMILES IDX 61 35 18 36 19 37 20 38 55 39 21 40 60 41 54 42 56 43 22 44
REMARK SMILES IDX 59 45 53 46 52 47 23 49 45 50 30 51 44 52 31 53 34 54 43 55
REMARK SMILES IDX 57 56 32 57 33 58 42 60 58 61 35 62 24 63 25 64 29 65 26 66
REMARK SMILES IDX 28 67 27 68 46 69 47 70 51 71 48 72 50 73 49 74 36 75 37 76
REMARK SMILES IDX 41 77 38 78 40 79 39 80
REMARK H PARENT 7 7 12 29 56 48 34 59
REMARK Flexibility Score: inf
ROOT
ATOM      1  C   UNL     1      -3.137   1.070   0.770  1.00  0.00     0.023 C 
ENDROOT
BRANCH   1   2
ATOM      2  C   UNL     1      -1.953   1.168  -0.182  1.00  0.00     0.023 C 
BRANCH   2   3
ATOM      3  C   UNL     1      -1.173  -0.107  -0.444  1.00  0.00     0.116 C 
BRANCH   3   4
ATOM      4  N   UNL     1      -1.836  -1.206  -1.087  1.00  0.00    -0.352 N 
ATOM      5  C   UNL     1      -1.243  -2.268  -1.746  1.00  0.00     0.255 C 
ATOM      6  O   UNL     1      -1.971  -3.209  -2.070  1.00  0.00    -0.269 OA
ATOM      7  H   UNL     1      -2.820  -1.203  -1.057  1.00  0.00     0.163 HD
BRANCH   5   8
ATOM      8  C   UNL     1       0.186  -2.265  -2.212  1.00  0.00     0.082 A 
ATOM      9  C   UNL     1       1.330  -1.832  -1.496  1.00  0.00     0.139 A 
ATOM     10  C   UNL     1       2.594  -1.780  -2.156  1.00  0.00     0.025 A 
ATOM     11  C   UNL     1       0.344  -2.740  -3.531  1.00  0.00     0.018 A 
ATOM     12  C   UNL     1       2.698  -2.276  -3.472  1.00  0.00     0.012 A 
ATOM     13  C   UNL     1       1.590  -2.768  -4.149  1.00  0.00     0.002 A 
BRANCH   9  14
ATOM     14  O   UNL     1       1.185  -1.607  -0.144  1.00  0.00    -0.495 OA
ATOM     15  C   UNL     1       1.763  -0.417   0.403  1.00  0.00     0.278 C 
ENDBRANCH   9  14
BRANCH  10  16
ATOM     16  C   UNL     1       3.771  -1.089  -1.607  1.00  0.00    -0.014 A 
ATOM     17  C   UNL     1       4.022   0.224  -2.045  1.00  0.00     0.009 A 
ATOM     18  C   UNL     1       4.574  -1.623  -0.590  1.00  0.00     0.017 A 
ATOM     19  C   UNL     1       4.966   1.025  -1.409  1.00  0.00     0.009 A 
ATOM     20  C   UNL     1       5.524  -0.819   0.074  1.00  0.00    -0.018 A 
ATOM     21  C   UNL     1       5.698   0.528  -0.328  1.00  0.00    -0.018 A 
ATOM     22  C   UNL     1       6.270  -1.298   1.163  1.00  0.00     0.009 A 
ATOM     23  C   UNL     1       6.579   1.359   0.377  1.00  0.00     0.009 A 
ATOM     24  C   UNL     1       7.150  -0.459   1.853  1.00  0.00     0.001 A 
ATOM     25  C   UNL     1       7.298   0.870   1.466  1.00  0.00     0.001 A 
ENDBRANCH  10  16
ENDBRANCH   5   8
ENDBRANCH   3   4
ENDBRANCH   2   3
ENDBRANCH   1   2
BRANCH   1  26
ATOM     26  C   UNL     1      -2.940   0.247   2.039  1.00  0.00     0.116 C 
BRANCH  26  27
ATOM     27  N   UNL     1      -1.915   0.754   2.945  1.00  0.00    -0.352 N 
ATOM     28  C   UNL     1      -2.017   1.260   4.222  1.00  0.00     0.251 C 
ATOM     29  H   UNL     1      -0.999   0.732   2.583  1.00  0.00     0.163 HD
ATOM     30  O   UNL     1      -1.018   1.685   4.798  1.00  0.00    -0.269 OA
BRANCH  28  31
ATOM     31  C   UNL     1      -3.336   1.348   4.885  1.00  0.00     0.039 A 
ATOM     32  C   UNL     1      -3.706   2.546   5.503  1.00  0.00     0.014 A 
ATOM     33  C   UNL     1      -4.228   0.277   4.854  1.00  0.00     0.014 A 
ATOM     34  C   UNL     1      -5.013   2.709   5.972  1.00  0.00     0.010 A 
ATOM     35  C   UNL     1      -5.555   0.477   5.217  1.00  0.00     0.010 A 
ATOM     36  C   UNL     1      -5.968   1.699   5.770  1.00  0.00    -0.014 A 
BRANCH  36  37
ATOM     37  C   UNL     1      -7.402   1.900   6.106  1.00  0.00     0.031 A 
ATOM     38  C   UNL     1      -8.084   0.993   7.094  1.00  0.00     0.074 A 
ATOM     39  C   UNL     1      -8.118   2.840   5.454  1.00  0.00     0.049 A 
ATOM     40  N   UNL     1      -9.343   0.958   7.453  1.00  0.00    -0.248 NA
ATOM     41  C   UNL     1      -7.249  -0.034   7.739  1.00  0.00     0.031 C 
ATOM     42  C   UNL     1      -7.598   3.754   4.434  1.00  0.00     0.029 A 
ATOM     43  N   UNL     1      -9.446   3.178   5.551  1.00  0.00    -0.354 N 
ATOM     44  C   UNL     1      -9.454  -0.110   8.335  1.00  0.00     0.074 A 
ATOM     45  C   UNL     1      -8.150  -0.728   8.417  1.00  0.00     0.031 C 
ATOM     46  C   UNL     1      -8.582   4.574   4.032  1.00  0.00     0.029 A 
ATOM     47  C   UNL     1      -9.813   4.216   4.727  1.00  0.00     0.049 A 
ATOM     48  H   UNL     1     -10.076   2.720   6.153  1.00  0.00     0.167 HD
ATOM     49  C   UNL     1     -10.537  -0.528   9.031  1.00  0.00     0.031 A 
ATOM     50  C   UNL     1     -11.008   4.812   4.549  1.00  0.00     0.031 A 
ATOM     51  C   UNL     1     -11.828   0.102   8.972  1.00  0.00     0.049 A 
ATOM     52  C   UNL     1     -12.196   4.328   5.333  1.00  0.00     0.074 A 
ATOM     53  C   UNL     1     -12.966  -0.196   9.702  1.00  0.00     0.029 A 
ATOM     54  N   UNL     1     -12.154   1.155   8.133  1.00  0.00    -0.354 N 
ATOM     55  N   UNL     1     -12.263   3.371   6.225  1.00  0.00    -0.248 NA
ATOM     56  C   UNL     1     -13.472   5.016   5.089  1.00  0.00     0.031 C 
ATOM     57  C   UNL     1     -13.996   0.642   9.265  1.00  0.00     0.029 A 
ATOM     58  C   UNL     1     -13.484   1.500   8.305  1.00  0.00     0.049 A 
ATOM     59  H   UNL     1     -11.533   1.592   7.507  1.00  0.00     0.167 HD
ATOM     60  C   UNL     1     -13.578   3.362   6.673  1.00  0.00     0.074 A 
ATOM     61  C   UNL     1     -14.270   4.418   5.963  1.00  0.00     0.031 C 
ATOM     62  C   UNL     1     -14.159   2.554   7.592  1.00  0.00     0.031 A 
BRANCH  49  63
ATOM     63  C   UNL     1     -10.368  -1.735   9.913  1.00  0.00    -0.014 A 
ATOM     64  C   UNL     1      -9.582  -1.687  11.076  1.00  0.00     0.009 A 
ATOM     65  C   UNL     1     -11.023  -2.933   9.587  1.00  0.00     0.009 A 
ATOM     66  C   UNL     1      -9.420  -2.825  11.868  1.00  0.00     0.001 A 
ATOM     67  C   UNL     1     -10.885  -4.060  10.398  1.00  0.00     0.001 A 
ATOM     68  C   UNL     1     -10.074  -4.009  11.531  1.00  0.00     0.000 A 
ENDBRANCH  49  63
BRANCH  50  69
ATOM     69  C   UNL     1     -11.140   5.957   3.609  1.00  0.00    -0.014 A 
ATOM     70  C   UNL     1     -11.357   7.253   4.102  1.00  0.00     0.009 A 
ATOM     71  C   UNL     1     -11.064   5.764   2.221  1.00  0.00     0.009 A 
ATOM     72  C   UNL     1     -11.521   8.328   3.225  1.00  0.00     0.001 A 
ATOM     73  C   UNL     1     -11.199   6.845   1.347  1.00  0.00     0.001 A 
ATOM     74  C   UNL     1     -11.437   8.124   1.849  1.00  0.00     0.000 A 
ENDBRANCH  50  69
BRANCH  62  75
ATOM     75  C   UNL     1     -15.605   2.805   7.914  1.00  0.00    -0.014 A 
ATOM     76  C   UNL     1     -16.623   2.480   7.005  1.00  0.00     0.009 A 
ATOM     77  C   UNL     1     -15.954   3.336   9.166  1.00  0.00     0.009 A 
ATOM     78  C   UNL     1     -17.961   2.713   7.332  1.00  0.00     0.001 A 
ATOM     79  C   UNL     1     -17.293   3.539   9.502  1.00  0.00     0.001 A 
ATOM     80  C   UNL     1     -18.294   3.237   8.581  1.00  0.00     0.000 A 
ENDBRANCH  62  75
ENDBRANCH  36  37
ENDBRANCH  28  31
ENDBRANCH  26  27
ENDBRANCH   1  26
TORSDOF 13
