REMARK SMILES CC(=O)Nc1cc(NC(C)=O)cc(C(=O)Nc2ccc(Br)cc2C(=O)NCCCCNC(=O)c2ccc(-c3c4nc(c(-c5ccccc5)c5ccc([nH]5)c(-c5ccccc5)c5nc(c(-c6ccccc6)c6ccc3[nH]6)C=C5)C=C4)cc2)c1
REMARK SMILES IDX 28 1 27 2 26 3 24 4 25 5 23 7 17 8 18 9 19 10 22 11 20 12
REMARK SMILES IDX 21 13 16 14 14 15 15 16 13 18 5 19 6 20 82 21 7 22 12 23
REMARK SMILES IDX 4 24 1 25 2 26 3 27 8 29 9 30 10 32 11 33 29 34 30 35 31 36
REMARK SMILES IDX 32 37 33 39 34 40 35 41 81 42 36 43 80 44 37 45 38 46 39 47
REMARK SMILES IDX 74 48 40 49 79 50 73 51 75 52 41 53 78 54 72 55 71 56 42 58
REMARK SMILES IDX 64 59 49 60 63 61 50 62 53 63 62 64 76 65 51 66 52 67 61 69
REMARK SMILES IDX 77 70 54 71 43 72 44 73 48 74 45 75 47 76 46 77 65 78 66 79
REMARK SMILES IDX 70 80 67 81 69 82 68 83 55 84 56 85 60 86 57 87 59 88 58 89
REMARK H PARENT 26 6 16 17 4 28 8 31 31 38 75 57 53 68
REMARK Flexibility Score: inf
ROOT
ATOM      1  C   UNL     1       7.961   1.218   2.405  1.00  0.00     0.023 C 
ENDROOT
BRANCH   1   2
ATOM      2  C   UNL     1       6.554   0.843   1.972  1.00  0.00     0.116 C 
BRANCH   2   3
ATOM      3  N   UNL     1       5.579   1.908   2.038  1.00  0.00    -0.352 N 
ATOM      4  C   UNL     1       4.409   2.055   1.332  1.00  0.00     0.253 C 
ATOM      5  O   UNL     1       3.703   3.034   1.576  1.00  0.00    -0.269 OA
ATOM      6  H   UNL     1       5.781   2.628   2.679  1.00  0.00     0.163 HD
BRANCH   4   7
ATOM      7  C   UNL     1       4.021   1.138   0.218  1.00  0.00     0.064 A 
ATOM      8  C   UNL     1       4.155  -0.267   0.178  1.00  0.00     0.054 A 
ATOM      9  C   UNL     1       3.979  -0.925  -1.054  1.00  0.00     0.028 A 
ATOM     10  C   UNL     1       3.503  -0.243  -2.176  1.00  0.00     0.018 A 
ATOM     11  C   UNL     1       3.498   1.806  -0.911  1.00  0.00     0.031 A 
ATOM     12  C   UNL     1       3.220   1.112  -2.085  1.00  0.00     0.018 A 
ATOM     13  Br  UNL     1       2.445   2.009  -3.556  1.00  0.00    -0.051 Br
BRANCH   8  14
ATOM     14  N   UNL     1       4.376  -1.147   1.267  1.00  0.00    -0.321 N 
ATOM     15  C   UNL     1       3.986  -1.095   2.594  1.00  0.00     0.255 C 
ATOM     16  O   UNL     1       4.516  -1.848   3.409  1.00  0.00    -0.269 OA
ATOM     17  H   UNL     1       4.906  -1.945   1.037  1.00  0.00     0.170 HD
BRANCH  15  18
ATOM     18  C   UNL     1       2.908  -0.188   3.050  1.00  0.00     0.044 A 
ATOM     19  C   UNL     1       0.986   1.152   2.496  1.00  0.00     0.044 A 
ATOM     20  C   UNL     1       1.075   1.748   3.762  1.00  0.00     0.052 A 
ATOM     21  C   UNL     1       1.849   0.114   2.193  1.00  0.00     0.040 A 
ATOM     22  C   UNL     1       2.011   1.319   4.712  1.00  0.00     0.044 A 
ATOM     23  C   UNL     1       2.963   0.369   4.332  1.00  0.00     0.040 A 
BRANCH  19  24
ATOM     24  N   UNL     1       0.114   1.739   1.562  1.00  0.00    -0.326 N 
ATOM     25  C   UNL     1      -0.121  -0.018  -0.200  1.00  0.00     0.114 C 
ATOM     26  C   UNL     1      -0.281   1.388   0.305  1.00  0.00     0.221 C 
ATOM     27  O   UNL     1      -0.817   2.240  -0.408  1.00  0.00    -0.275 OA
ATOM     28  H   UNL     1      -0.295   2.576   1.881  1.00  0.00     0.169 HD
ENDBRANCH  19  24
BRANCH  22  29
ATOM     29  N   UNL     1       2.058   1.806   6.038  1.00  0.00    -0.326 N 
ATOM     30  C   UNL     1       1.142   2.651   6.641  1.00  0.00     0.221 C 
ATOM     31  H   UNL     1       2.820   1.514   6.590  1.00  0.00     0.169 HD
ATOM     32  C   UNL     1       1.461   2.956   8.084  1.00  0.00     0.114 C 
ATOM     33  O   UNL     1       0.134   3.125   6.127  1.00  0.00    -0.275 OA
ENDBRANCH  22  29
ENDBRANCH  15  18
ENDBRANCH   8  14
ENDBRANCH   4   7
ENDBRANCH   2   3
ENDBRANCH   1   2
BRANCH   1  34
ATOM     34  C   UNL     1       8.133   1.582   3.879  1.00  0.00     0.023 C 
BRANCH  34  35
ATOM     35  C   UNL     1       7.478   0.658   4.903  1.00  0.00     0.116 C 
BRANCH  35  36
ATOM     36  N   UNL     1       7.916  -0.728   4.829  1.00  0.00    -0.352 N 
ATOM     37  C   UNL     1       8.545  -1.516   5.769  1.00  0.00     0.251 C 
ATOM     38  H   UNL     1       7.735  -1.173   3.970  1.00  0.00     0.163 HD
ATOM     39  O   UNL     1       8.933  -2.636   5.478  1.00  0.00    -0.269 OA
BRANCH  37  40
ATOM     40  C   UNL     1       8.780  -0.990   7.133  1.00  0.00     0.039 A 
ATOM     41  C   UNL     1      10.038  -1.163   7.716  1.00  0.00     0.014 A 
ATOM     42  C   UNL     1       7.773  -0.322   7.832  1.00  0.00     0.014 A 
ATOM     43  C   UNL     1      10.306  -0.592   8.963  1.00  0.00     0.010 A 
ATOM     44  C   UNL     1       8.071   0.330   9.025  1.00  0.00     0.010 A 
ATOM     45  C   UNL     1       9.339   0.197   9.609  1.00  0.00    -0.014 A 
BRANCH  45  46
ATOM     46  C   UNL     1       9.644   0.880  10.894  1.00  0.00     0.031 A 
ATOM     47  C   UNL     1       8.868   0.547  12.140  1.00  0.00     0.074 A 
ATOM     48  C   UNL     1      10.592   1.839  10.933  1.00  0.00     0.049 A 
ATOM     49  N   UNL     1       9.002   1.031  13.350  1.00  0.00    -0.248 NA
ATOM     50  C   UNL     1       7.779  -0.433  12.005  1.00  0.00     0.031 C 
ATOM     51  C   UNL     1      11.373   2.308   9.786  1.00  0.00     0.029 A 
ATOM     52  N   UNL     1      11.062   2.590  11.982  1.00  0.00    -0.354 N 
ATOM     53  C   UNL     1       8.007   0.427  14.110  1.00  0.00     0.074 A 
ATOM     54  C   UNL     1       7.238  -0.406  13.213  1.00  0.00     0.031 C 
ATOM     55  C   UNL     1      12.253   3.233  10.202  1.00  0.00     0.029 A 
ATOM     56  C   UNL     1      12.076   3.449  11.634  1.00  0.00     0.049 A 
ATOM     57  H   UNL     1      10.705   2.519  12.897  1.00  0.00     0.167 HD
ATOM     58  C   UNL     1       7.769   0.533  15.439  1.00  0.00     0.031 A 
ATOM     59  C   UNL     1      12.792   4.308  12.384  1.00  0.00     0.031 A 
ATOM     60  C   UNL     1       8.541   1.351  16.337  1.00  0.00     0.049 A 
ATOM     61  C   UNL     1      12.524   4.394  13.861  1.00  0.00     0.074 A 
ATOM     62  C   UNL     1       8.423   1.473  17.710  1.00  0.00     0.029 A 
ATOM     63  N   UNL     1       9.572   2.192  15.948  1.00  0.00    -0.354 N 
ATOM     64  N   UNL     1      11.639   3.747  14.580  1.00  0.00    -0.248 NA
ATOM     65  C   UNL     1      13.370   5.315  14.632  1.00  0.00     0.031 C 
ATOM     66  C   UNL     1       9.345   2.431  18.145  1.00  0.00     0.029 A 
ATOM     67  C   UNL     1      10.082   2.856  17.051  1.00  0.00     0.049 A 
ATOM     68  H   UNL     1       9.894   2.301  15.024  1.00  0.00     0.167 HD
ATOM     69  C   UNL     1      11.842   4.160  15.891  1.00  0.00     0.074 A 
ATOM     70  C   UNL     1      12.947   5.096  15.868  1.00  0.00     0.031 C 
ATOM     71  C   UNL     1      11.175   3.794  17.014  1.00  0.00     0.031 A 
BRANCH  58  72
ATOM     72  C   UNL     1       6.614  -0.255  15.998  1.00  0.00    -0.014 A 
ATOM     73  C   UNL     1       6.642  -1.659  16.049  1.00  0.00     0.009 A 
ATOM     74  C   UNL     1       5.488   0.416  16.498  1.00  0.00     0.009 A 
ATOM     75  C   UNL     1       5.549  -2.373  16.543  1.00  0.00     0.001 A 
ATOM     76  C   UNL     1       4.410  -0.299  17.024  1.00  0.00     0.001 A 
ATOM     77  C   UNL     1       4.436  -1.693  17.034  1.00  0.00     0.000 A 
ENDBRANCH  58  72
BRANCH  59  78
ATOM     78  C   UNL     1      13.858   5.133  11.756  1.00  0.00    -0.014 A 
ATOM     79  C   UNL     1      15.212   4.879  12.026  1.00  0.00     0.009 A 
ATOM     80  C   UNL     1      13.527   6.182  10.885  1.00  0.00     0.009 A 
ATOM     81  C   UNL     1      16.210   5.676  11.459  1.00  0.00     0.001 A 
ATOM     82  C   UNL     1      14.528   6.957  10.294  1.00  0.00     0.001 A 
ATOM     83  C   UNL     1      15.868   6.710  10.590  1.00  0.00     0.000 A 
ENDBRANCH  59  78
BRANCH  71  84
ATOM     84  C   UNL     1      11.648   4.384  18.315  1.00  0.00    -0.014 A 
ATOM     85  C   UNL     1      11.472   5.744  18.612  1.00  0.00     0.009 A 
ATOM     86  C   UNL     1      12.266   3.556  19.266  1.00  0.00     0.009 A 
ATOM     87  C   UNL     1      11.949   6.273  19.814  1.00  0.00     0.001 A 
ATOM     88  C   UNL     1      12.710   4.080  20.480  1.00  0.00     0.001 A 
ATOM     89  C   UNL     1      12.564   5.440  20.747  1.00  0.00     0.000 A 
ENDBRANCH  71  84
ENDBRANCH  45  46
ENDBRANCH  37  40
ENDBRANCH  35  36
ENDBRANCH  34  35
ENDBRANCH   1  34
TORSDOF 15
