REMARK SMILES C[C@@H](C(=O)N(C)C)[N@H+](CC(=O)NCCCCNC(=O)c1ccc(-c2c3nc(c(-c4ccccc4)c4ccc([nH]4)c(-c4ccccc4)c4nc(c(-c5ccccc5)c5ccc2[nH]5)C=C4)C=C3)cc1)CC(F)(F)F
REMARK SMILES IDX 14 1 13 2 12 3 10 4 11 5 9 7 8 8 2 10 1 11 3 12 4 13 5 14
REMARK SMILES IDX 6 15 7 16 68 17 69 18 70 19 71 20 72 21 15 22 16 23 17 24
REMARK SMILES IDX 18 25 19 27 20 28 21 29 67 30 22 31 66 32 23 33 24 34 25 35
REMARK SMILES IDX 60 36 26 37 65 38 59 39 61 40 27 41 64 42 58 43 57 44 28 46
REMARK SMILES IDX 50 47 35 48 49 49 36 50 39 51 48 52 62 53 37 54 38 55 47 57
REMARK SMILES IDX 63 58 40 59 29 60 30 61 34 62 31 63 33 64 32 65 51 66 52 67
REMARK SMILES IDX 56 68 53 69 55 70 54 71 41 72 42 73 46 74 43 75 45 76 44 77
REMARK H PARENT 12 6 8 9 17 26 61 45 39 56
REMARK Flexibility Score: inf
ROOT
ATOM      1  C   UNL     1       3.127   1.197  -1.353  1.00  0.00     0.023 C 
ENDROOT
BRANCH   1   2
ATOM      2  C   UNL     1       2.094   2.163  -2.080  1.00  0.00     0.116 C 
BRANCH   2   3
ATOM      3  N   UNL     1       1.099   1.878  -3.127  1.00  0.00    -0.351 N 
ATOM      4  C   UNL     1      -0.214   1.501  -3.242  1.00  0.00     0.275 C 
ATOM      5  O   UNL     1      -0.712   1.651  -4.367  1.00  0.00    -0.269 OA
ATOM      6  H   UNL     1       1.499   1.993  -4.018  1.00  0.00     0.163 HD
BRANCH   4   7
ATOM      7  C   UNL     1      -1.044   0.840  -2.128  1.00  0.00     0.364 C 
BRANCH   7   8
ATOM      8  N   UNL     1      -0.872  -0.634  -2.169  1.00  0.00    -0.310 N 
ATOM      9  H   UNL     1      -0.998  -0.966  -3.125  1.00  0.00     0.349 HD
BRANCH   8  10
ATOM     10  C   UNL     1       0.518  -0.999  -1.812  1.00  0.00     0.271 C 
ATOM     11  C   UNL     1       0.713  -1.381  -0.331  1.00  0.00     0.086 C 
BRANCH  10  12
ATOM     12  C   UNL     1       1.083  -2.026  -2.845  1.00  0.00     0.280 C 
ATOM     13  O   UNL     1       1.032  -3.228  -2.558  1.00  0.00    -0.268 OA
ATOM     14  N   UNL     1       1.637  -1.631  -4.075  1.00  0.00    -0.344 N 
ATOM     15  C   UNL     1       2.129  -0.340  -4.531  1.00  0.00     0.146 C 
ATOM     16  C   UNL     1       1.877  -2.670  -5.048  1.00  0.00     0.146 C 
ENDBRANCH  10  12
ENDBRANCH   8  10
BRANCH   8  17
ATOM     17  C   UNL     1      -1.954  -1.356  -1.427  1.00  0.00     0.380 C 
BRANCH  17  18
ATOM     18  C   UNL     1      -2.133  -2.894  -1.570  1.00  0.00     0.438 C 
ATOM     19  F   UNL     1      -1.156  -3.601  -0.973  1.00  0.00    -0.165 F 
ATOM     20  F   UNL     1      -3.293  -3.269  -0.967  1.00  0.00    -0.165 F 
ATOM     21  F   UNL     1      -2.216  -3.275  -2.861  1.00  0.00    -0.165 F 
ENDBRANCH  17  18
ENDBRANCH   8  17
ENDBRANCH   7   8
ENDBRANCH   4   7
ENDBRANCH   2   3
ENDBRANCH   1   2
BRANCH   1  22
ATOM     22  C   UNL     1       3.830  -0.174  -1.655  1.00  0.00     0.023 C 
BRANCH  22  23
ATOM     23  C   UNL     1       4.924  -0.506  -2.695  1.00  0.00     0.116 C 
BRANCH  23  24
ATOM     24  N   UNL     1       6.032   0.410  -2.784  1.00  0.00    -0.352 N 
ATOM     25  C   UNL     1       7.205   0.250  -3.490  1.00  0.00     0.251 C 
ATOM     26  H   UNL     1       5.941   1.251  -2.281  1.00  0.00     0.163 HD
ATOM     27  O   UNL     1       8.114   1.075  -3.340  1.00  0.00    -0.269 OA
BRANCH  25  28
ATOM     28  C   UNL     1       7.440  -0.898  -4.406  1.00  0.00     0.039 A 
ATOM     29  C   UNL     1       8.515  -1.758  -4.147  1.00  0.00     0.014 A 
ATOM     30  C   UNL     1       6.723  -1.049  -5.598  1.00  0.00     0.014 A 
ATOM     31  C   UNL     1       8.840  -2.788  -5.045  1.00  0.00     0.010 A 
ATOM     32  C   UNL     1       7.042  -2.091  -6.491  1.00  0.00     0.010 A 
ATOM     33  C   UNL     1       8.097  -2.981  -6.222  1.00  0.00    -0.014 A 
BRANCH  33  34
ATOM     34  C   UNL     1       8.375  -4.149  -7.115  1.00  0.00     0.031 A 
ATOM     35  C   UNL     1       8.995  -3.980  -8.480  1.00  0.00     0.074 A 
ATOM     36  C   UNL     1       8.036  -5.387  -6.698  1.00  0.00     0.049 A 
ATOM     37  N   UNL     1       9.292  -4.896  -9.372  1.00  0.00    -0.248 NA
ATOM     38  C   UNL     1       9.316  -2.610  -8.905  1.00  0.00     0.031 C 
ATOM     39  C   UNL     1       7.409  -5.697  -5.411  1.00  0.00     0.029 A 
ATOM     40  N   UNL     1       8.158  -6.614  -7.308  1.00  0.00    -0.354 N 
ATOM     41  C   UNL     1       9.824  -4.216 -10.463  1.00  0.00     0.074 A 
ATOM     42  C   UNL     1       9.787  -2.807 -10.131  1.00  0.00     0.031 C 
ATOM     43  C   UNL     1       7.209  -7.021  -5.324  1.00  0.00     0.029 A 
ATOM     44  C   UNL     1       7.657  -7.656  -6.560  1.00  0.00     0.049 A 
ATOM     45  H   UNL     1       8.566  -6.736  -8.195  1.00  0.00     0.167 HD
ATOM     46  C   UNL     1      10.301  -4.718 -11.630  1.00  0.00     0.031 A 
ATOM     47  C   UNL     1       7.550  -8.971  -6.838  1.00  0.00     0.031 A 
ATOM     48  C   UNL     1      10.342  -6.120 -11.963  1.00  0.00     0.049 A 
ATOM     49  C   UNL     1       8.058  -9.492  -8.155  1.00  0.00     0.074 A 
ATOM     50  C   UNL     1      10.876  -6.722 -13.092  1.00  0.00     0.029 A 
ATOM     51  N   UNL     1       9.816  -7.136 -11.183  1.00  0.00    -0.354 N 
ATOM     52  N   UNL     1       8.648  -8.841  -9.127  1.00  0.00    -0.248 NA
ATOM     53  C   UNL     1       7.889 -10.930  -8.412  1.00  0.00     0.031 C 
ATOM     54  C   UNL     1      10.612  -8.094 -13.025  1.00  0.00     0.029 A 
ATOM     55  C   UNL     1       9.969  -8.354 -11.827  1.00  0.00     0.049 A 
ATOM     56  H   UNL     1       9.397  -7.012 -10.301  1.00  0.00     0.167 HD
ATOM     57  C   UNL     1       8.934  -9.790 -10.100  1.00  0.00     0.074 A 
ATOM     58  C   UNL     1       8.482 -11.067  -9.589  1.00  0.00     0.031 C 
ATOM     59  C   UNL     1       9.512  -9.618 -11.313  1.00  0.00     0.031 A 
BRANCH  46  60
ATOM     60  C   UNL     1      10.812  -3.751 -12.666  1.00  0.00    -0.014 A 
ATOM     61  C   UNL     1      12.039  -3.089 -12.504  1.00  0.00     0.009 A 
ATOM     62  C   UNL     1      10.105  -3.580 -13.868  1.00  0.00     0.009 A 
ATOM     63  C   UNL     1      12.535  -2.259 -13.514  1.00  0.00     0.001 A 
ATOM     64  C   UNL     1      10.614  -2.769 -14.885  1.00  0.00     0.001 A 
ATOM     65  C   UNL     1      11.826  -2.105 -14.705  1.00  0.00     0.000 A 
ENDBRANCH  46  60
BRANCH  47  66
ATOM     66  C   UNL     1       6.904  -9.896  -5.865  1.00  0.00    -0.014 A 
ATOM     67  C   UNL     1       7.642 -10.904  -5.226  1.00  0.00     0.009 A 
ATOM     68  C   UNL     1       5.527  -9.799  -5.604  1.00  0.00     0.009 A 
ATOM     69  C   UNL     1       7.010 -11.815  -4.375  1.00  0.00     0.001 A 
ATOM     70  C   UNL     1       4.905 -10.689  -4.725  1.00  0.00     0.001 A 
ATOM     71  C   UNL     1       5.644 -11.704  -4.122  1.00  0.00     0.000 A 
ENDBRANCH  47  66
BRANCH  59  72
ATOM     72  C   UNL     1       9.699 -10.839 -12.168  1.00  0.00    -0.014 A 
ATOM     73  C   UNL     1       8.606 -11.463 -12.790  1.00  0.00     0.009 A 
ATOM     74  C   UNL     1      10.989 -11.345 -12.395  1.00  0.00     0.009 A 
ATOM     75  C   UNL     1       8.798 -12.585 -13.598  1.00  0.00     0.001 A 
ATOM     76  C   UNL     1      11.181 -12.449 -13.227  1.00  0.00     0.001 A 
ATOM     77  C   UNL     1      10.085 -13.073 -13.822  1.00  0.00     0.000 A 
ENDBRANCH  59  72
ENDBRANCH  33  34
ENDBRANCH  25  28
ENDBRANCH  23  24
ENDBRANCH  22  23
ENDBRANCH   1  22
TORSDOF 16
