REMARK SMILES O=C(NCCCCNC(=O)c1cc(-c2ccccc2)nc(Nc2nc3ccccc3s2)n1)c1ccc(-c2c3nc(c(-c4ccccc4)c4ccc([nH]4)c(-c4ccccc4)c4nc(c(-c5ccccc5)c5ccc2[nH]5)C=C4)C=C3)cc1
REMARK SMILES IDX 5 1 4 2 3 3 1 4 2 5 33 7 34 8 80 9 35 10 79 11 36 12 37 13
REMARK SMILES IDX 38 14 73 15 39 16 78 17 72 18 74 19 40 20 77 21 71 22 70 23
REMARK SMILES IDX 41 25 63 26 48 27 62 28 49 29 52 30 61 31 75 32 50 33 51 34
REMARK SMILES IDX 60 36 76 37 53 38 42 39 43 40 47 41 44 42 46 43 45 44 64 45
REMARK SMILES IDX 65 46 69 47 66 48 68 49 67 50 54 51 55 52 59 53 56 54 58 55
REMARK SMILES IDX 57 56 6 57 7 58 8 59 9 60 10 62 11 63 12 64 32 65 13 66
REMARK SMILES IDX 21 67 20 68 14 69 15 70 19 71 16 72 18 73 17 74 22 75 23 77
REMARK SMILES IDX 24 78 31 79 25 80 30 81 26 82 29 83 27 84 28 85
REMARK H PARENT 3 6 74 24 52 35 8 61 22 76
REMARK Flexibility Score: inf
ROOT
ATOM      1  C   UNL     1       4.904  -2.460  -1.279  1.00  0.00     0.023 C 
ENDROOT
BRANCH   1   2
ATOM      2  C   UNL     1       4.591  -0.993  -1.017  1.00  0.00     0.116 C 
BRANCH   2   3
ATOM      3  N   UNL     1       3.167  -0.698  -0.998  1.00  0.00    -0.352 N 
ATOM      4  O   UNL     1       1.202   0.005  -0.137  1.00  0.00    -0.269 OA
ATOM      5  C   UNL     1       2.419  -0.068  -0.029  1.00  0.00     0.251 C 
ATOM      6  H   UNL     1       2.666  -0.990  -1.794  1.00  0.00     0.163 HD
BRANCH   5   7
ATOM      7  C   UNL     1       3.090   0.484   1.169  1.00  0.00     0.039 A 
ATOM      8  C   UNL     1       4.255   1.244   1.049  1.00  0.00     0.014 A 
ATOM      9  C   UNL     1       2.558   0.211   2.432  1.00  0.00     0.014 A 
ATOM     10  C   UNL     1       4.979   1.577   2.187  1.00  0.00     0.010 A 
ATOM     11  C   UNL     1       3.240   0.628   3.579  1.00  0.00     0.010 A 
ATOM     12  C   UNL     1       4.481   1.274   3.466  1.00  0.00    -0.014 A 
BRANCH  12  13
ATOM     13  C   UNL     1       5.267   1.673   4.661  1.00  0.00     0.031 A 
ATOM     14  C   UNL     1       5.855   0.645   5.589  1.00  0.00     0.074 A 
ATOM     15  C   UNL     1       5.497   2.983   4.877  1.00  0.00     0.049 A 
ATOM     16  N   UNL     1       6.625   0.826   6.634  1.00  0.00    -0.248 NA
ATOM     17  C   UNL     1       5.537  -0.766   5.318  1.00  0.00     0.031 C 
ATOM     18  C   UNL     1       4.980   4.077   4.051  1.00  0.00     0.029 A 
ATOM     19  N   UNL     1       6.251   3.614   5.832  1.00  0.00    -0.354 N 
ATOM     20  C   UNL     1       6.859  -0.439   7.160  1.00  0.00     0.074 A 
ATOM     21  C   UNL     1       6.136  -1.379   6.330  1.00  0.00     0.031 C 
ATOM     22  C   UNL     1       5.488   5.236   4.491  1.00  0.00     0.029 A 
ATOM     23  C   UNL     1       6.315   4.976   5.663  1.00  0.00     0.049 A 
ATOM     24  H   UNL     1       6.702   3.139   6.566  1.00  0.00     0.167 HD
ATOM     25  C   UNL     1       7.610  -0.787   8.233  1.00  0.00     0.031 A 
ATOM     26  C   UNL     1       6.966   5.915   6.372  1.00  0.00     0.031 A 
ATOM     27  C   UNL     1       8.343   0.145   9.050  1.00  0.00     0.049 A 
ATOM     28  C   UNL     1       7.779   5.503   7.562  1.00  0.00     0.074 A 
ATOM     29  C   UNL     1       9.166  -0.118  10.133  1.00  0.00     0.029 A 
ATOM     30  N   UNL     1       8.340   1.520   8.877  1.00  0.00    -0.354 N 
ATOM     31  N   UNL     1       8.013   4.300   8.024  1.00  0.00    -0.248 NA
ATOM     32  C   UNL     1       8.413   6.583   8.330  1.00  0.00     0.031 C 
ATOM     33  C   UNL     1       9.624   1.102  10.642  1.00  0.00     0.029 A 
ATOM     34  C   UNL     1       9.125   2.121   9.847  1.00  0.00     0.049 A 
ATOM     35  H   UNL     1       7.851   1.999   8.169  1.00  0.00     0.167 HD
ATOM     36  C   UNL     1       8.835   4.474   9.129  1.00  0.00     0.074 A 
ATOM     37  C   UNL     1       9.073   5.898   9.254  1.00  0.00     0.031 C 
ATOM     38  C   UNL     1       9.344   3.538   9.965  1.00  0.00     0.031 A 
BRANCH  25  39
ATOM     39  C   UNL     1       7.655  -2.243   8.606  1.00  0.00    -0.014 A 
ATOM     40  C   UNL     1       8.383  -3.171   7.846  1.00  0.00     0.009 A 
ATOM     41  C   UNL     1       6.990  -2.683   9.762  1.00  0.00     0.009 A 
ATOM     42  C   UNL     1       8.417  -4.518   8.220  1.00  0.00     0.001 A 
ATOM     43  C   UNL     1       7.046  -4.024  10.146  1.00  0.00     0.001 A 
ATOM     44  C   UNL     1       7.752  -4.941   9.370  1.00  0.00     0.000 A 
ENDBRANCH  25  39
BRANCH  26  45
ATOM     45  C   UNL     1       6.875   7.339   5.964  1.00  0.00    -0.014 A 
ATOM     46  C   UNL     1       7.982   7.987   5.397  1.00  0.00     0.009 A 
ATOM     47  C   UNL     1       5.676   8.051   6.122  1.00  0.00     0.009 A 
ATOM     48  C   UNL     1       7.894   9.325   5.008  1.00  0.00     0.001 A 
ATOM     49  C   UNL     1       5.582   9.380   5.708  1.00  0.00     0.001 A 
ATOM     50  C   UNL     1       6.693  10.018   5.159  1.00  0.00     0.000 A 
ENDBRANCH  26  45
BRANCH  38  51
ATOM     51  C   UNL     1      10.226   4.032  11.075  1.00  0.00    -0.014 A 
ATOM     52  C   UNL     1       9.688   4.689  12.191  1.00  0.00     0.009 A 
ATOM     53  C   UNL     1      11.612   3.824  11.006  1.00  0.00     0.009 A 
ATOM     54  C   UNL     1      10.527   5.162  13.202  1.00  0.00     0.001 A 
ATOM     55  C   UNL     1      12.445   4.277  12.030  1.00  0.00     0.001 A 
ATOM     56  C   UNL     1      11.903   4.954  13.122  1.00  0.00     0.000 A 
ENDBRANCH  38  51
ENDBRANCH  12  13
ENDBRANCH   5   7
ENDBRANCH   2   3
ENDBRANCH   1   2
BRANCH   1  57
ATOM     57  C   UNL     1       4.439  -3.001  -2.627  1.00  0.00     0.023 C 
BRANCH  57  58
ATOM     58  C   UNL     1       4.805  -2.148  -3.837  1.00  0.00     0.116 C 
BRANCH  58  59
ATOM     59  N   UNL     1       6.231  -1.884  -3.950  1.00  0.00    -0.351 N 
ATOM     60  C   UNL     1       7.050  -2.066  -5.043  1.00  0.00     0.270 C 
ATOM     61  H   UNL     1       6.667  -1.530  -3.141  1.00  0.00     0.163 HD
ATOM     62  O   UNL     1       8.237  -1.760  -4.987  1.00  0.00    -0.268 OA
BRANCH  60  63
ATOM     63  C   UNL     1       6.460  -2.612  -6.286  1.00  0.00     0.134 A 
ATOM     64  C   UNL     1       5.510  -1.894  -6.955  1.00  0.00     0.063 A 
ATOM     65  N   UNL     1       6.808  -3.866  -6.591  1.00  0.00    -0.207 NA
ATOM     66  C   UNL     1       4.841  -2.592  -7.932  1.00  0.00     0.077 A 
ATOM     67  C   UNL     1       6.167  -4.459  -7.599  1.00  0.00     0.230 A 
ATOM     68  N   UNL     1       5.168  -3.863  -8.276  1.00  0.00    -0.213 NA
BRANCH  66  69
ATOM     69  C   UNL     1       3.629  -2.016  -8.532  1.00  0.00     0.000 A 
ATOM     70  C   UNL     1       2.409  -2.712  -8.482  1.00  0.00     0.010 A 
ATOM     71  C   UNL     1       3.623  -0.708  -9.049  1.00  0.00     0.010 A 
ATOM     72  C   UNL     1       1.219  -2.107  -8.896  1.00  0.00     0.001 A 
ATOM     73  C   UNL     1       2.435  -0.104  -9.467  1.00  0.00     0.001 A 
ATOM     74  C   UNL     1       1.232  -0.801  -9.380  1.00  0.00     0.000 A 
ENDBRANCH  66  69
BRANCH  67  75
ATOM     75  N   UNL     1       6.570  -5.722  -8.024  1.00  0.00    -0.300 N 
ATOM     76  H   UNL     1       6.118  -6.122  -8.801  1.00  0.00     0.172 HD
BRANCH  75  77
ATOM     77  C   UNL     1       7.551  -6.425  -7.420  1.00  0.00     0.190 A 
ATOM     78  N   UNL     1       7.806  -6.420  -6.131  1.00  0.00    -0.220 NA
ATOM     79  S   UNL     1       8.613  -7.428  -8.340  1.00  0.00    -0.097 S 
ATOM     80  C   UNL     1       9.008  -7.035  -5.862  1.00  0.00     0.084 A 
ATOM     81  C   UNL     1       9.627  -7.631  -6.958  1.00  0.00     0.056 A 
ATOM     82  C   UNL     1       9.642  -7.079  -4.605  1.00  0.00     0.030 A 
ATOM     83  C   UNL     1      10.877  -8.262  -6.844  1.00  0.00     0.021 A 
ATOM     84  C   UNL     1      10.893  -7.689  -4.482  1.00  0.00     0.002 A 
ATOM     85  C   UNL     1      11.502  -8.269  -5.590  1.00  0.00     0.002 A 
ENDBRANCH  75  77
ENDBRANCH  67  75
ENDBRANCH  60  63
ENDBRANCH  58  59
ENDBRANCH  57  58
ENDBRANCH   1  57
TORSDOF 14
