REMARK SMILES Cc1coc2cc3c(cc12)[C@@H](C)[C@H](CCC(=O)N[C@@H](Cc1c[nH]c2ccccc12)C(=O)NCCCCNC(=O)c1ccc(-c2c4nc(c(-c5ccccc5)c5ccc([nH]5)c(-c5ccccc5)c5nc(c(-c6ccccc6)c6ccc2[nH]6)C=C5)C=C4)cc1)C(=O)O3
REMARK SMILES IDX 33 1 32 2 30 3 31 4 19 6 18 7 16 8 17 9 15 11 14 12 13 13
REMARK SMILES IDX 1 14 2 15 3 16 10 17 4 18 5 19 9 20 6 21 8 22 7 23 11 24
REMARK SMILES IDX 90 25 12 26 88 27 89 28 20 29 21 30 22 31 29 32 23 33 24 34
REMARK SMILES IDX 28 35 25 37 27 38 26 39 34 40 35 41 36 42 37 43 38 44 39 46
REMARK SMILES IDX 40 47 41 48 87 49 42 50 86 51 43 52 44 53 45 54 80 55 46 56
REMARK SMILES IDX 85 57 79 58 81 59 47 60 84 61 78 62 77 63 48 65 70 66 55 67
REMARK SMILES IDX 69 68 56 69 59 70 68 71 82 72 57 73 58 74 67 76 83 77 60 78
REMARK SMILES IDX 49 79 50 80 54 81 51 82 53 83 52 84 71 85 72 86 76 87 73 88
REMARK SMILES IDX 75 89 74 90 61 91 62 92 66 93 63 94 65 95 64 96
REMARK H PARENT 32 5 18 10 23 36 37 45 81 64 59 75
REMARK Flexibility Score: inf
ROOT
ATOM      1  C   UNL     1       0.650   0.393   9.210  1.00  0.00     0.116 C 
ENDROOT
BRANCH   1   2
ATOM      2  N   UNL     1       0.021  -0.653   9.978  1.00  0.00    -0.354 N 
ATOM      3  C   UNL     1      -0.629  -1.758   9.524  1.00  0.00     0.242 C 
ATOM      4  O   UNL     1      -0.872  -2.647  10.347  1.00  0.00    -0.273 OA
ATOM      5  H   UNL     1       0.068  -0.554  10.956  1.00  0.00     0.163 HD
BRANCH   3   6
ATOM      6  C   UNL     1      -0.924  -1.964   8.026  1.00  0.00     0.175 C 
BRANCH   6   7
ATOM      7  N   UNL     1      -1.821  -0.918   7.440  1.00  0.00    -0.344 N 
ATOM      8  C   UNL     1      -3.033  -0.916   6.788  1.00  0.00     0.220 C 
ATOM      9  O   UNL     1      -3.494   0.203   6.525  1.00  0.00    -0.275 OA
ATOM     10  H   UNL     1      -1.454  -0.011   7.547  1.00  0.00     0.164 HD
BRANCH   8  11
ATOM     11  C   UNL     1      -3.840  -2.171   6.342  1.00  0.00     0.101 C 
BRANCH  11  12
ATOM     12  C   UNL     1      -3.839  -2.577   4.788  1.00  0.00     0.026 C 
BRANCH  12  13
ATOM     13  C   UNL     1      -2.735  -3.611   4.336  1.00  0.00     0.107 C 
ATOM     14  C   UNL     1       1.066   0.182  -0.476  1.00  0.00     0.048 C 
ATOM     15  C   UNL     1       0.431   0.564   0.804  1.00  0.00    -0.005 A 
ATOM     16  C   UNL     1       0.477   1.806   1.407  1.00  0.00     0.199 A 
ATOM     17  C   UNL     1      -0.297  -0.278   1.697  1.00  0.00     0.024 A 
ATOM     18  O   UNL     1      -0.090   1.770   2.638  1.00  0.00    -0.464 OA
ATOM     19  C   UNL     1      -0.511   0.493   2.836  1.00  0.00     0.137 A 
ATOM     20  C   UNL     1      -0.753  -1.617   1.686  1.00  0.00     0.020 A 
ATOM     21  C   UNL     1      -0.999  -0.007   4.030  1.00  0.00     0.095 A 
ATOM     22  C   UNL     1      -1.287  -2.145   2.863  1.00  0.00    -0.001 A 
ATOM     23  C   UNL     1      -1.213  -1.379   4.014  1.00  0.00     0.138 A 
ATOM     24  C   UNL     1      -1.849  -3.535   3.033  1.00  0.00     0.034 C 
ATOM     25  O   UNL     1      -1.188  -2.097   5.231  1.00  0.00    -0.426 OA
ATOM     26  C   UNL     1      -0.626  -4.500   3.131  1.00  0.00     0.014 C 
ATOM     27  C   UNL     1      -1.704  -3.406   5.352  1.00  0.00     0.314 C 
ATOM     28  O   UNL     1      -1.447  -4.220   6.212  1.00  0.00    -0.251 OA
ENDBRANCH  12  13
ENDBRANCH  11  12
ENDBRANCH   8  11
ENDBRANCH   6   7
BRANCH   6  29
ATOM     29  C   UNL     1       0.437  -2.396   7.346  1.00  0.00     0.072 C 
BRANCH  29  30
ATOM     30  C   UNL     1       1.586  -1.484   6.990  1.00  0.00    -0.020 A 
ATOM     31  C   UNL     1       1.645  -0.318   6.250  1.00  0.00     0.087 A 
ATOM     32  C   UNL     1       2.946  -1.783   7.348  1.00  0.00     0.003 A 
ATOM     33  N   UNL     1       2.946   0.131   6.221  1.00  0.00    -0.361 N 
ATOM     34  C   UNL     1       3.749  -0.722   6.938  1.00  0.00     0.046 A 
ATOM     35  C   UNL     1       3.544  -2.850   8.045  1.00  0.00     0.010 A 
ATOM     36  H   UNL     1       3.254   0.942   5.756  1.00  0.00     0.166 HD
ATOM     37  C   UNL     1       5.101  -0.624   7.289  1.00  0.00     0.026 A 
ATOM     38  C   UNL     1       4.882  -2.760   8.424  1.00  0.00     0.001 A 
ATOM     39  C   UNL     1       5.638  -1.643   8.081  1.00  0.00     0.002 A 
ENDBRANCH  29  30
ENDBRANCH   6  29
ENDBRANCH   3   6
ENDBRANCH   1   2
BRANCH   1  40
ATOM     40  C   UNL     1       0.866   1.669   9.984  1.00  0.00     0.023 C 
BRANCH  40  41
ATOM     41  C   UNL     1       1.866   1.510  11.128  1.00  0.00     0.023 C 
BRANCH  41  42
ATOM     42  C   UNL     1       3.191   0.822  10.761  1.00  0.00     0.116 C 
BRANCH  42  43
ATOM     43  N   UNL     1       3.900   1.413   9.642  1.00  0.00    -0.352 N 
ATOM     44  C   UNL     1       4.771   2.453   9.488  1.00  0.00     0.251 C 
ATOM     45  H   UNL     1       3.706   0.956   8.792  1.00  0.00     0.163 HD
ATOM     46  O   UNL     1       5.350   2.561   8.405  1.00  0.00    -0.269 OA
BRANCH  44  47
ATOM     47  C   UNL     1       4.951   3.516  10.502  1.00  0.00     0.039 A 
ATOM     48  C   UNL     1       4.423   3.458  11.786  1.00  0.00     0.014 A 
ATOM     49  C   UNL     1       5.583   4.697  10.077  1.00  0.00     0.014 A 
ATOM     50  C   UNL     1       4.306   4.606  12.539  1.00  0.00     0.010 A 
ATOM     51  C   UNL     1       5.546   5.838  10.866  1.00  0.00     0.010 A 
ATOM     52  C   UNL     1       4.835   5.803  12.059  1.00  0.00    -0.014 A 
BRANCH  52  53
ATOM     53  C   UNL     1       4.706   6.951  12.938  1.00  0.00     0.031 A 
ATOM     54  C   UNL     1       5.272   6.735  14.297  1.00  0.00     0.074 A 
ATOM     55  C   UNL     1       4.153   8.119  12.568  1.00  0.00     0.049 A 
ATOM     56  N   UNL     1       4.646   6.744  15.428  1.00  0.00    -0.248 NA
ATOM     57  C   UNL     1       6.677   6.305  14.385  1.00  0.00     0.031 C 
ATOM     58  C   UNL     1       3.772   8.564  11.228  1.00  0.00     0.029 A 
ATOM     59  N   UNL     1       3.913   9.213  13.339  1.00  0.00    -0.354 N 
ATOM     60  C   UNL     1       5.607   6.473  16.397  1.00  0.00     0.074 A 
ATOM     61  C   UNL     1       6.802   6.084  15.693  1.00  0.00     0.031 C 
ATOM     62  C   UNL     1       3.595   9.906  11.243  1.00  0.00     0.029 A 
ATOM     63  C   UNL     1       3.694  10.374  12.615  1.00  0.00     0.049 A 
ATOM     64  H   UNL     1       3.896   9.182  14.323  1.00  0.00     0.167 HD
ATOM     65  C   UNL     1       5.410   6.773  17.709  1.00  0.00     0.031 A 
ATOM     66  C   UNL     1       3.675  11.632  13.115  1.00  0.00     0.031 A 
ATOM     67  C   UNL     1       4.016   6.941  18.020  1.00  0.00     0.049 A 
ATOM     68  C   UNL     1       3.413  11.537  14.569  1.00  0.00     0.074 A 
ATOM     69  C   UNL     1       2.913   6.112  18.010  1.00  0.00     0.029 A 
ATOM     70  N   UNL     1       3.524   8.222  18.061  1.00  0.00    -0.354 N 
ATOM     71  N   UNL     1       2.281  11.140  15.071  1.00  0.00    -0.248 NA
ATOM     72  C   UNL     1       4.550  11.485  15.473  1.00  0.00     0.031 C 
ATOM     73  C   UNL     1       1.837   6.934  17.567  1.00  0.00     0.029 A 
ATOM     74  C   UNL     1       2.327   8.229  17.391  1.00  0.00     0.049 A 
ATOM     75  H   UNL     1       3.952   8.996  18.494  1.00  0.00     0.167 HD
ATOM     76  C   UNL     1       2.633  10.379  16.174  1.00  0.00     0.074 A 
ATOM     77  C   UNL     1       4.029  10.725  16.439  1.00  0.00     0.031 C 
ATOM     78  C   UNL     1       1.851   9.340  16.592  1.00  0.00     0.031 A 
BRANCH  65  79
ATOM     79  C   UNL     1       6.513   7.277  18.605  1.00  0.00    -0.014 A 
ATOM     80  C   UNL     1       7.761   7.714  18.120  1.00  0.00     0.009 A 
ATOM     81  C   UNL     1       6.218   7.584  19.945  1.00  0.00     0.009 A 
ATOM     82  C   UNL     1       8.659   8.432  18.913  1.00  0.00     0.001 A 
ATOM     83  C   UNL     1       7.098   8.339  20.731  1.00  0.00     0.001 A 
ATOM     84  C   UNL     1       8.316   8.768  20.212  1.00  0.00     0.000 A 
ENDBRANCH  65  79
BRANCH  66  85
ATOM     85  C   UNL     1       4.261  12.849  12.515  1.00  0.00    -0.014 A 
ATOM     86  C   UNL     1       5.367  12.748  11.652  1.00  0.00     0.009 A 
ATOM     87  C   UNL     1       3.945  14.114  13.035  1.00  0.00     0.009 A 
ATOM     88  C   UNL     1       6.164  13.860  11.364  1.00  0.00     0.001 A 
ATOM     89  C   UNL     1       4.746  15.227  12.749  1.00  0.00     0.001 A 
ATOM     90  C   UNL     1       5.865  15.095  11.930  1.00  0.00     0.000 A 
ENDBRANCH  66  85
BRANCH  78  91
ATOM     91  C   UNL     1       0.479   9.185  15.967  1.00  0.00    -0.014 A 
ATOM     92  C   UNL     1      -0.627   9.022  16.814  1.00  0.00     0.009 A 
ATOM     93  C   UNL     1       0.274   9.045  14.582  1.00  0.00     0.009 A 
ATOM     94  C   UNL     1      -1.893   8.730  16.300  1.00  0.00     0.001 A 
ATOM     95  C   UNL     1      -1.000   8.783  14.063  1.00  0.00     0.001 A 
ATOM     96  C   UNL     1      -2.081   8.617  14.925  1.00  0.00     0.000 A 
ENDBRANCH  78  91
ENDBRANCH  52  53
ENDBRANCH  44  47
ENDBRANCH  42  43
ENDBRANCH  41  42
ENDBRANCH  40  41
ENDBRANCH   1  40
TORSDOF 17
