REMARK SMILES COc1ccc(-c2noc(C[N@H+]3CCCC[C@@H]3C(=O)NCCCCNC(=O)c3ccc(-c4c5nc(c(-c6ccccc6)c6ccc([nH]6)c(-c6ccccc6)c6nc(c(-c7ccccc7)c7ccc4[nH]7)C=C6)C=C5)cc3)n2)cc1OC
REMARK SMILES IDX 21 1 20 2 18 3 19 4 17 6 12 7 13 8 14 10 16 11 15 12 11 13
REMARK SMILES IDX 10 14 7 15 8 16 76 17 9 18 6 19 3 20 4 21 78 22 5 23 77 24
REMARK SMILES IDX 2 25 1 26 79 27 80 28 22 29 23 30 24 31 25 32 26 33 27 35
REMARK SMILES IDX 28 36 29 37 75 38 30 39 74 40 31 41 32 42 33 43 68 44 34 45
REMARK SMILES IDX 73 46 67 47 69 48 35 49 72 50 66 51 65 52 36 54 58 55 43 56
REMARK SMILES IDX 57 57 44 58 47 59 56 60 70 61 45 62 46 63 55 65 71 66 48 67
REMARK SMILES IDX 37 68 38 69 42 70 39 71 41 72 40 73 59 74 60 75 64 76 61 77
REMARK SMILES IDX 63 78 62 79 49 80 50 81 54 82 51 83 53 84 52 85
REMARK H PARENT 20 5 12 9 25 34 69 53 47 64
REMARK Flexibility Score: inf
ROOT
ATOM      1  C   UNL     1       3.640 -13.268  -1.718  1.00  0.00     0.116 C 
ENDROOT
BRANCH   1   2
ATOM      2  N   UNL     1       3.334 -12.350  -2.799  1.00  0.00    -0.351 N 
ATOM      3  C   UNL     1       2.387 -11.369  -2.869  1.00  0.00     0.278 C 
ATOM      4  O   UNL     1       2.313 -10.722  -3.917  1.00  0.00    -0.268 OA
ATOM      5  H   UNL     1       3.894 -12.449  -3.603  1.00  0.00     0.163 HD
BRANCH   3   6
ATOM      6  C   UNL     1       1.478 -11.034  -1.663  1.00  0.00     0.274 C 
ATOM      7  N   UNL     1       2.307 -10.635  -0.494  1.00  0.00    -0.317 N 
ATOM      8  C   UNL     1       1.518 -10.453   0.731  1.00  0.00     0.263 C 
ATOM      9  H   UNL     1       2.931 -11.425  -0.333  1.00  0.00     0.349 HD
ATOM     10  C   UNL     1       0.678 -11.689   1.048  1.00  0.00     0.062 C 
ATOM     11  C   UNL     1       0.505 -12.193  -1.388  1.00  0.00     0.076 C 
ATOM     12  C   UNL     1      -0.276 -11.994  -0.098  1.00  0.00     0.012 C 
BRANCH   7  13
ATOM     13  C   UNL     1       3.169  -9.451  -0.763  1.00  0.00     0.364 C 
BRANCH  13  14
ATOM     14  C   UNL     1       2.480  -8.136  -0.944  1.00  0.00     0.282 A 
ATOM     15  C   UNL     1       1.651  -6.216  -0.838  1.00  0.00     0.202 A 
ATOM     16  N   UNL     1       1.110  -6.724  -1.954  1.00  0.00    -0.057 NA
ATOM     17  N   UNL     1       2.506  -7.068  -0.179  1.00  0.00    -0.186 NA
ATOM     18  O   UNL     1       1.694  -7.985  -2.049  1.00  0.00    -0.333 OA
BRANCH  15  19
ATOM     19  C   UNL     1       1.419  -4.861  -0.387  1.00  0.00     0.027 A 
ATOM     20  C   UNL     1       1.037  -2.213   0.434  1.00  0.00     0.160 A 
ATOM     21  C   UNL     1      -0.057  -3.084   0.323  1.00  0.00     0.051 A 
ATOM     22  C   UNL     1       2.332  -2.669   0.160  1.00  0.00     0.161 A 
ATOM     23  C   UNL     1       0.130  -4.401  -0.105  1.00  0.00     0.016 A 
ATOM     24  C   UNL     1       2.510  -3.998  -0.237  1.00  0.00     0.062 A 
BRANCH  20  25
ATOM     25  O   UNL     1       0.821  -0.948   0.912  1.00  0.00    -0.493 OA
ATOM     26  C   UNL     1       0.086  -0.149  -0.016  1.00  0.00     0.278 C 
ENDBRANCH  20  25
BRANCH  22  27
ATOM     27  O   UNL     1       3.510  -1.976   0.246  1.00  0.00    -0.493 OA
ATOM     28  C   UNL     1       3.448  -0.561   0.155  1.00  0.00     0.278 C 
ENDBRANCH  22  27
ENDBRANCH  15  19
ENDBRANCH  13  14
ENDBRANCH   7  13
ENDBRANCH   3   6
ENDBRANCH   1   2
BRANCH   1  29
ATOM     29  C   UNL     1       3.232 -14.697  -2.078  1.00  0.00     0.023 C 
BRANCH  29  30
ATOM     30  C   UNL     1       4.058 -15.325  -3.200  1.00  0.00     0.023 C 
BRANCH  30  31
ATOM     31  C   UNL     1       5.556 -15.387  -2.937  1.00  0.00     0.116 C 
BRANCH  31  32
ATOM     32  N   UNL     1       5.890 -16.133  -1.732  1.00  0.00    -0.352 N 
ATOM     33  C   UNL     1       6.870 -17.078  -1.550  1.00  0.00     0.251 C 
ATOM     34  H   UNL     1       5.339 -15.933  -0.941  1.00  0.00     0.163 HD
ATOM     35  O   UNL     1       6.935 -17.714  -0.502  1.00  0.00    -0.269 OA
BRANCH  33  36
ATOM     36  C   UNL     1       7.827 -17.347  -2.641  1.00  0.00     0.039 A 
ATOM     37  C   UNL     1       8.062 -18.670  -3.021  1.00  0.00     0.014 A 
ATOM     38  C   UNL     1       8.458 -16.295  -3.309  1.00  0.00     0.014 A 
ATOM     39  C   UNL     1       8.878 -18.935  -4.122  1.00  0.00     0.010 A 
ATOM     40  C   UNL     1       9.209 -16.556  -4.450  1.00  0.00     0.010 A 
ATOM     41  C   UNL     1       9.425 -17.878  -4.868  1.00  0.00    -0.014 A 
BRANCH  41  42
ATOM     42  C   UNL     1      10.217 -18.132  -6.096  1.00  0.00     0.031 A 
ATOM     43  C   UNL     1      11.666 -17.739  -6.155  1.00  0.00     0.074 A 
ATOM     44  C   UNL     1       9.613 -18.646  -7.185  1.00  0.00     0.049 A 
ATOM     45  N   UNL     1      12.503 -17.816  -7.159  1.00  0.00    -0.248 NA
ATOM     46  C   UNL     1      12.245 -17.156  -4.933  1.00  0.00     0.031 C 
ATOM     47  C   UNL     1       8.201 -19.027  -7.272  1.00  0.00     0.029 A 
ATOM     48  N   UNL     1      10.110 -18.928  -8.432  1.00  0.00    -0.354 N 
ATOM     49  C   UNL     1      13.695 -17.275  -6.698  1.00  0.00     0.074 A 
ATOM     50  C   UNL     1      13.462 -16.829  -5.341  1.00  0.00     0.031 C 
ATOM     51  C   UNL     1       7.953 -19.514  -8.498  1.00  0.00     0.029 A 
ATOM     52  C   UNL     1       9.173 -19.442  -9.295  1.00  0.00     0.049 A 
ATOM     53  H   UNL     1      11.049 -18.775  -8.685  1.00  0.00     0.167 HD
ATOM     54  C   UNL     1      14.884 -17.173  -7.338  1.00  0.00     0.031 A 
ATOM     55  C   UNL     1       9.281 -19.808 -10.586  1.00  0.00     0.031 A 
ATOM     56  C   UNL     1      15.119 -17.627  -8.683  1.00  0.00     0.049 A 
ATOM     57  C   UNL     1      10.609 -19.680 -11.278  1.00  0.00     0.074 A 
ATOM     58  C   UNL     1      16.305 -17.630  -9.396  1.00  0.00     0.029 A 
ATOM     59  N   UNL     1      14.147 -18.155  -9.518  1.00  0.00    -0.354 N 
ATOM     60  N   UNL     1      11.748 -19.237 -10.803  1.00  0.00    -0.248 NA
ATOM     61  C   UNL     1      10.668 -20.113 -12.681  1.00  0.00     0.031 C 
ATOM     62  C   UNL     1      16.039 -18.111 -10.682  1.00  0.00     0.029 A 
ATOM     63  C   UNL     1      14.700 -18.461 -10.750  1.00  0.00     0.049 A 
ATOM     64  H   UNL     1      13.204 -18.292  -9.272  1.00  0.00     0.167 HD
ATOM     65  C   UNL     1      12.664 -19.360 -11.840  1.00  0.00     0.074 A 
ATOM     66  C   UNL     1      11.951 -19.935 -12.963  1.00  0.00     0.031 C 
ATOM     67  C   UNL     1      13.978 -19.029 -11.859  1.00  0.00     0.031 A 
BRANCH  54  68
ATOM     68  C   UNL     1      16.020 -16.534  -6.589  1.00  0.00    -0.014 A 
ATOM     69  C   UNL     1      16.627 -17.177  -5.498  1.00  0.00     0.009 A 
ATOM     70  C   UNL     1      16.508 -15.283  -6.997  1.00  0.00     0.009 A 
ATOM     71  C   UNL     1      17.672 -16.561  -4.806  1.00  0.00     0.001 A 
ATOM     72  C   UNL     1      17.573 -14.684  -6.322  1.00  0.00     0.001 A 
ATOM     73  C   UNL     1      18.146 -15.318  -5.221  1.00  0.00     0.000 A 
ENDBRANCH  54  68
BRANCH  55  74
ATOM     74  C   UNL     1       8.098 -20.346 -11.306  1.00  0.00    -0.014 A 
ATOM     75  C   UNL     1       8.030 -21.706 -11.646  1.00  0.00     0.009 A 
ATOM     76  C   UNL     1       7.030 -19.505 -11.656  1.00  0.00     0.009 A 
ATOM     77  C   UNL     1       6.927 -22.207 -12.342  1.00  0.00     0.001 A 
ATOM     78  C   UNL     1       5.917 -20.015 -12.326  1.00  0.00     0.001 A 
ATOM     79  C   UNL     1       5.870 -21.363 -12.677  1.00  0.00     0.000 A 
ENDBRANCH  55  74
BRANCH  67  80
ATOM     80  C   UNL     1      14.739 -19.307 -13.124  1.00  0.00    -0.014 A 
ATOM     81  C   UNL     1      14.548 -18.529 -14.276  1.00  0.00     0.009 A 
ATOM     82  C   UNL     1      15.693 -20.336 -13.148  1.00  0.00     0.009 A 
ATOM     83  C   UNL     1      15.277 -18.796 -15.436  1.00  0.00     0.001 A 
ATOM     84  C   UNL     1      16.441 -20.582 -14.300  1.00  0.00     0.001 A 
ATOM     85  C   UNL     1      16.226 -19.818 -15.445  1.00  0.00     0.000 A 
ENDBRANCH  67  80
ENDBRANCH  41  42
ENDBRANCH  33  36
ENDBRANCH  31  32
ENDBRANCH  30  31
ENDBRANCH  29  30
ENDBRANCH   1  29
TORSDOF 16
