REMARK SMILES CCC[C@@]1(C(=O)NCCCCNC(=O)c2ccc(-c3c4nc(c(-c5ccccc5)c5ccc([nH]5)c(-c5ccccc5)c5nc(c(-c6ccccc6)c6ccc3[nH]6)C=C5)C=C4)cc2)CCCN(C(=O)CCn2cncn2)C1
REMARK SMILES IDX 8 1 7 2 5 3 6 4 4 6 63 7 76 8 64 9 66 10 65 11 3 12 2 13
REMARK SMILES IDX 1 14 67 15 68 16 69 17 70 18 71 19 72 20 75 21 73 22 74 23
REMARK SMILES IDX 9 24 10 25 11 26 12 27 13 28 14 30 15 31 16 32 62 33 17 34
REMARK SMILES IDX 61 35 18 36 19 37 20 38 55 39 21 40 60 41 54 42 56 43 22 44
REMARK SMILES IDX 59 45 53 46 52 47 23 49 45 50 30 51 44 52 31 53 34 54 43 55
REMARK SMILES IDX 57 56 32 57 33 58 42 60 58 61 35 62 24 63 25 64 29 65 26 66
REMARK SMILES IDX 28 67 27 68 46 69 47 70 51 71 48 72 50 73 49 74 36 75 37 76
REMARK SMILES IDX 41 77 38 78 40 79 39 80
REMARK H PARENT 7 5 12 29 56 48 34 59
REMARK Flexibility Score: inf
ROOT
ATOM      1  C   UNL     1       2.480  -1.946  -3.885  1.00  0.00     0.116 C 
ENDROOT
BRANCH   1   2
ATOM      2  N   UNL     1       2.297  -1.021  -2.795  1.00  0.00    -0.356 N 
ATOM      3  C   UNL     1       1.561  -1.071  -1.656  1.00  0.00     0.228 C 
ATOM      4  O   UNL     1       1.691  -0.070  -0.944  1.00  0.00    -0.274 OA
ATOM      5  H   UNL     1       2.808  -0.186  -2.898  1.00  0.00     0.163 HD
BRANCH   3   6
ATOM      6  C   UNL     1       0.596  -2.234  -1.276  1.00  0.00     0.067 C 
ATOM      7  C   UNL     1       1.332  -3.622  -1.244  1.00  0.00     0.020 C 
ATOM      8  C   UNL     1      -0.634  -2.179  -2.222  1.00  0.00     0.136 C 
ATOM      9  C   UNL     1       0.856  -4.740  -2.174  1.00  0.00     0.023 C 
ATOM     10  N   UNL     1      -0.743  -3.256  -3.220  1.00  0.00    -0.342 N 
ATOM     11  C   UNL     1      -0.566  -4.588  -2.671  1.00  0.00     0.119 C 
BRANCH   6  12
ATOM     12  C   UNL     1       0.140  -2.036   0.236  1.00  0.00     0.018 C 
BRANCH  12  13
ATOM     13  C   UNL     1      -0.444  -0.732   0.803  1.00  0.00    -0.002 C 
ATOM     14  C   UNL     1      -1.679  -0.182   0.126  1.00  0.00     0.004 C 
ENDBRANCH  12  13
ENDBRANCH   6  12
BRANCH  10  15
ATOM     15  C   UNL     1      -1.179  -2.954  -4.502  1.00  0.00     0.224 C 
ATOM     16  O   UNL     1      -1.259  -1.788  -4.899  1.00  0.00    -0.275 OA
BRANCH  15  17
ATOM     17  C   UNL     1      -1.580  -4.057  -5.467  1.00  0.00     0.124 C 
BRANCH  17  18
ATOM     18  C   UNL     1      -0.466  -4.478  -6.420  1.00  0.00     0.156 C 
BRANCH  18  19
ATOM     19  N   UNL     1       0.324  -5.588  -5.937  1.00  0.00    -0.252 N 
ATOM     20  C   UNL     1       1.618  -5.601  -5.526  1.00  0.00     0.219 A 
ATOM     21  N   UNL     1      -0.214  -6.818  -5.859  1.00  0.00    -0.160 NA
ATOM     22  N   UNL     1       1.951  -6.814  -5.151  1.00  0.00    -0.224 NA
ATOM     23  C   UNL     1       0.820  -7.532  -5.406  1.00  0.00     0.246 A 
ENDBRANCH  18  19
ENDBRANCH  17  18
ENDBRANCH  15  17
ENDBRANCH  10  15
ENDBRANCH   3   6
ENDBRANCH   1   2
BRANCH   1  24
ATOM     24  C   UNL     1       1.837  -1.449  -5.173  1.00  0.00     0.023 C 
BRANCH  24  25
ATOM     25  C   UNL     1       2.768  -0.812  -6.197  1.00  0.00     0.023 C 
BRANCH  25  26
ATOM     26  C   UNL     1       3.912  -1.686  -6.698  1.00  0.00     0.116 C 
BRANCH  26  27
ATOM     27  N   UNL     1       3.510  -2.954  -7.292  1.00  0.00    -0.352 N 
ATOM     28  C   UNL     1       4.162  -3.721  -8.233  1.00  0.00     0.251 C 
ATOM     29  H   UNL     1       2.650  -3.313  -6.976  1.00  0.00     0.163 HD
ATOM     30  O   UNL     1       3.676  -4.789  -8.597  1.00  0.00    -0.269 OA
BRANCH  28  31
ATOM     31  C   UNL     1       5.364  -3.176  -8.897  1.00  0.00     0.039 A 
ATOM     32  C   UNL     1       5.382  -3.147 -10.294  1.00  0.00     0.014 A 
ATOM     33  C   UNL     1       6.354  -2.525  -8.164  1.00  0.00     0.014 A 
ATOM     34  C   UNL     1       6.296  -2.324 -10.950  1.00  0.00     0.010 A 
ATOM     35  C   UNL     1       7.182  -1.617  -8.810  1.00  0.00     0.010 A 
ATOM     36  C   UNL     1       7.139  -1.483 -10.207  1.00  0.00    -0.014 A 
BRANCH  36  37
ATOM     37  C   UNL     1       7.944  -0.421 -10.861  1.00  0.00     0.031 A 
ATOM     38  C   UNL     1       9.436  -0.398 -10.691  1.00  0.00     0.074 A 
ATOM     39  C   UNL     1       7.322   0.581 -11.516  1.00  0.00     0.049 A 
ATOM     40  N   UNL     1      10.298   0.505 -11.084  1.00  0.00    -0.248 NA
ATOM     41  C   UNL     1      10.034  -1.511  -9.935  1.00  0.00     0.031 C 
ATOM     42  C   UNL     1       5.872   0.723 -11.684  1.00  0.00     0.029 A 
ATOM     43  N   UNL     1       7.834   1.678 -12.164  1.00  0.00    -0.354 N 
ATOM     44  C   UNL     1      11.525   0.092 -10.584  1.00  0.00     0.074 A 
ATOM     45  C   UNL     1      11.290  -1.111  -9.818  1.00  0.00     0.031 C 
ATOM     46  C   UNL     1       5.616   1.812 -12.427  1.00  0.00     0.029 A 
ATOM     47  C   UNL     1       6.876   2.467 -12.756  1.00  0.00     0.049 A 
ATOM     48  H   UNL     1       8.796   1.880 -12.201  1.00  0.00     0.167 HD
ATOM     49  C   UNL     1      12.745   0.649 -10.766  1.00  0.00     0.031 A 
ATOM     50  C   UNL     1       7.001   3.589 -13.488  1.00  0.00     0.031 A 
ATOM     51  C   UNL     1      12.986   1.812 -11.574  1.00  0.00     0.049 A 
ATOM     52  C   UNL     1       8.374   4.143 -13.745  1.00  0.00     0.074 A 
ATOM     53  C   UNL     1      14.193   2.410 -11.889  1.00  0.00     0.029 A 
ATOM     54  N   UNL     1      11.995   2.542 -12.211  1.00  0.00    -0.354 N 
ATOM     55  N   UNL     1       9.533   3.703 -13.319  1.00  0.00    -0.248 NA
ATOM     56  C   UNL     1       8.456   5.339 -14.595  1.00  0.00     0.031 C 
ATOM     57  C   UNL     1      13.930   3.517 -12.703  1.00  0.00     0.029 A 
ATOM     58  C   UNL     1      12.563   3.586 -12.919  1.00  0.00     0.049 A 
ATOM     59  H   UNL     1      11.032   2.347 -12.165  1.00  0.00     0.167 HD
ATOM     60  C   UNL     1      10.483   4.553 -13.866  1.00  0.00     0.074 A 
ATOM     61  C   UNL     1       9.767   5.525 -14.667  1.00  0.00     0.031 C 
ATOM     62  C   UNL     1      11.829   4.534 -13.716  1.00  0.00     0.031 A 
BRANCH  49  63
ATOM     63  C   UNL     1      13.906  -0.013 -10.080  1.00  0.00    -0.014 A 
ATOM     64  C   UNL     1      14.379  -1.267 -10.501  1.00  0.00     0.009 A 
ATOM     65  C   UNL     1      14.530   0.620  -8.994  1.00  0.00     0.009 A 
ATOM     66  C   UNL     1      15.420  -1.896  -9.817  1.00  0.00     0.001 A 
ATOM     67  C   UNL     1      15.591   0.001  -8.331  1.00  0.00     0.001 A 
ATOM     68  C   UNL     1      16.027  -1.261  -8.734  1.00  0.00     0.000 A 
ENDBRANCH  49  63
BRANCH  50  69
ATOM     69  C   UNL     1       5.800   4.239 -14.073  1.00  0.00    -0.014 A 
ATOM     70  C   UNL     1       5.541   4.133 -15.449  1.00  0.00     0.009 A 
ATOM     71  C   UNL     1       4.911   4.968 -13.269  1.00  0.00     0.009 A 
ATOM     72  C   UNL     1       4.429   4.764 -16.012  1.00  0.00     0.001 A 
ATOM     73  C   UNL     1       3.787   5.579 -13.832  1.00  0.00     0.001 A 
ATOM     74  C   UNL     1       3.552   5.484 -15.203  1.00  0.00     0.000 A 
ENDBRANCH  50  69
BRANCH  62  75
ATOM     75  C   UNL     1      12.613   5.573 -14.461  1.00  0.00    -0.014 A 
ATOM     76  C   UNL     1      12.653   6.904 -14.020  1.00  0.00     0.009 A 
ATOM     77  C   UNL     1      13.355   5.202 -15.592  1.00  0.00     0.009 A 
ATOM     78  C   UNL     1      13.404   7.852 -14.716  1.00  0.00     0.001 A 
ATOM     79  C   UNL     1      14.122   6.148 -16.273  1.00  0.00     0.001 A 
ATOM     80  C   UNL     1      14.140   7.473 -15.839  1.00  0.00     0.000 A 
ENDBRANCH  62  75
ENDBRANCH  36  37
ENDBRANCH  28  31
ENDBRANCH  26  27
ENDBRANCH  25  26
ENDBRANCH  24  25
ENDBRANCH   1  24
TORSDOF 17
