REMARK SMILES O=C(NCCCCNC(=O)[C@@H]1CCCN(c2ccc3cc(S(=O)(=O)N4CCCCC4)ccc3n2)C1)c1ccc(-c2c3nc(c(-c4ccccc4)c4ccc([nH]4)c(-c4ccccc4)c4nc(c(-c5ccccc5)c5ccc2[nH]5)C=C4)C=C3)cc1
REMARK SMILES IDX 6 1 5 2 4 3 3 4 1 5 2 6 36 8 37 9 83 10 38 11 82 12 39 13
REMARK SMILES IDX 40 14 41 15 76 16 42 17 81 18 75 19 77 20 43 21 80 22 74 23
REMARK SMILES IDX 73 24 44 26 66 27 51 28 65 29 52 30 55 31 64 32 78 33 53 34
REMARK SMILES IDX 54 35 63 37 79 38 56 39 45 40 46 41 50 42 47 43 49 44 48 45
REMARK SMILES IDX 67 46 68 47 72 48 69 49 71 50 70 51 57 52 58 53 62 54 59 55
REMARK SMILES IDX 61 56 60 57 7 58 8 59 9 60 10 62 11 63 12 64 35 65 13 66
REMARK SMILES IDX 15 67 14 68 16 69 17 70 34 71 18 72 33 73 19 74 32 75 20 76
REMARK SMILES IDX 31 77 21 78 22 79 23 80 24 81 25 82 26 83 30 84 27 85 29 86
REMARK SMILES IDX 28 87
REMARK H PARENT 3 7 77 25 55 36 8 61
REMARK Flexibility Score: inf
ROOT
ATOM      1  C   UNL     1       4.140   3.637   1.472  1.00  0.00     0.023 C 
ENDROOT
BRANCH   1   2
ATOM      2  C   UNL     1       4.690   2.712   0.384  1.00  0.00     0.023 C 
BRANCH   2   3
ATOM      3  C   UNL     1       4.407   1.232   0.600  1.00  0.00     0.116 C 
BRANCH   3   4
ATOM      4  N   UNL     1       2.984   0.944   0.664  1.00  0.00    -0.352 N 
ATOM      5  O   UNL     1       1.048  -0.016   0.013  1.00  0.00    -0.269 OA
ATOM      6  C   UNL     1       2.273  -0.004  -0.027  1.00  0.00     0.251 C 
ATOM      7  H   UNL     1       2.462   1.503   1.284  1.00  0.00     0.163 HD
BRANCH   6   8
ATOM      8  C   UNL     1       3.001  -1.004  -0.833  1.00  0.00     0.039 A 
ATOM      9  C   UNL     1       4.093  -1.687  -0.291  1.00  0.00     0.014 A 
ATOM     10  C   UNL     1       2.576  -1.266  -2.137  1.00  0.00     0.014 A 
ATOM     11  C   UNL     1       4.819  -2.566  -1.085  1.00  0.00     0.010 A 
ATOM     12  C   UNL     1       3.260  -2.207  -2.909  1.00  0.00     0.010 A 
ATOM     13  C   UNL     1       4.389  -2.859  -2.389  1.00  0.00    -0.014 A 
BRANCH  13  14
ATOM     14  C   UNL     1       5.047  -3.955  -3.137  1.00  0.00     0.031 A 
ATOM     15  C   UNL     1       5.829  -3.694  -4.390  1.00  0.00     0.074 A 
ATOM     16  C   UNL     1       4.909  -5.210  -2.664  1.00  0.00     0.049 A 
ATOM     17  N   UNL     1       6.442  -4.553  -5.164  1.00  0.00    -0.248 NA
ATOM     18  C   UNL     1       5.937  -2.297  -4.839  1.00  0.00     0.031 C 
ATOM     19  C   UNL     1       4.153  -5.579  -1.462  1.00  0.00     0.029 A 
ATOM     20  N   UNL     1       5.396  -6.403  -3.127  1.00  0.00    -0.354 N 
ATOM     21  C   UNL     1       6.990  -3.809  -6.200  1.00  0.00     0.074 A 
ATOM     22  C   UNL     1       6.629  -2.427  -5.964  1.00  0.00     0.031 C 
ATOM     23  C   UNL     1       4.251  -6.901  -1.268  1.00  0.00     0.029 A 
ATOM     24  C   UNL     1       5.015  -7.481  -2.365  1.00  0.00     0.049 A 
ATOM     25  H   UNL     1       5.963  -6.481  -3.928  1.00  0.00     0.167 HD
ATOM     26  C   UNL     1       7.724  -4.247  -7.251  1.00  0.00     0.031 A 
ATOM     27  C   UNL     1       5.226  -8.797  -2.544  1.00  0.00     0.031 A 
ATOM     28  C   UNL     1       8.082  -5.624  -7.472  1.00  0.00     0.049 A 
ATOM     29  C   UNL     1       6.006  -9.248  -3.742  1.00  0.00     0.074 A 
ATOM     30  C   UNL     1       8.882  -6.155  -8.470  1.00  0.00     0.029 A 
ATOM     31  N   UNL     1       7.652  -6.689  -6.695  1.00  0.00    -0.354 N 
ATOM     32  N   UNL     1       6.579  -8.523  -4.672  1.00  0.00    -0.248 NA
ATOM     33  C   UNL     1       6.161 -10.697  -3.921  1.00  0.00     0.031 C 
ATOM     34  C   UNL     1       8.884  -7.546  -8.335  1.00  0.00     0.029 A 
ATOM     35  C   UNL     1       8.130  -7.878  -7.221  1.00  0.00     0.049 A 
ATOM     36  H   UNL     1       7.091  -6.611  -5.890  1.00  0.00     0.167 HD
ATOM     37  C   UNL     1       7.168  -9.427  -5.543  1.00  0.00     0.074 A 
ATOM     38  C   UNL     1       6.911 -10.751  -5.013  1.00  0.00     0.031 C 
ATOM     39  C   UNL     1       7.852  -9.184  -6.686  1.00  0.00     0.031 A 
BRANCH  26  40
ATOM     40  C   UNL     1       8.175  -3.240  -8.271  1.00  0.00    -0.014 A 
ATOM     41  C   UNL     1       9.232  -2.356  -8.008  1.00  0.00     0.009 A 
ATOM     42  C   UNL     1       7.601  -3.251  -9.553  1.00  0.00     0.009 A 
ATOM     43  C   UNL     1       9.696  -1.494  -9.005  1.00  0.00     0.001 A 
ATOM     44  C   UNL     1       8.081  -2.404 -10.553  1.00  0.00     0.001 A 
ATOM     45  C   UNL     1       9.126  -1.525 -10.278  1.00  0.00     0.000 A 
ENDBRANCH  26  40
BRANCH  27  46
ATOM     46  C   UNL     1       4.639  -9.780  -1.598  1.00  0.00    -0.014 A 
ATOM     47  C   UNL     1       5.458 -10.552  -0.762  1.00  0.00     0.009 A 
ATOM     48  C   UNL     1       3.247  -9.956  -1.536  1.00  0.00     0.009 A 
ATOM     49  C   UNL     1       4.896 -11.501   0.095  1.00  0.00     0.001 A 
ATOM     50  C   UNL     1       2.686 -10.881  -0.654  1.00  0.00     0.001 A 
ATOM     51  C   UNL     1       3.512 -11.661   0.151  1.00  0.00     0.000 A 
ENDBRANCH  27  46
BRANCH  39  52
ATOM     52  C   UNL     1       8.369 -10.379  -7.433  1.00  0.00    -0.014 A 
ATOM     53  C   UNL     1       7.497 -11.213  -8.150  1.00  0.00     0.009 A 
ATOM     54  C   UNL     1       9.744 -10.658  -7.441  1.00  0.00     0.009 A 
ATOM     55  C   UNL     1       7.990 -12.322  -8.838  1.00  0.00     0.001 A 
ATOM     56  C   UNL     1      10.237 -11.752  -8.153  1.00  0.00     0.001 A 
ATOM     57  C   UNL     1       9.360 -12.587  -8.843  1.00  0.00     0.000 A 
ENDBRANCH  39  52
ENDBRANCH  13  14
ENDBRANCH   6   8
ENDBRANCH   3   4
ENDBRANCH   2   3
ENDBRANCH   1   2
BRANCH   1  58
ATOM     58  C   UNL     1       4.524   3.236   2.894  1.00  0.00     0.116 C 
BRANCH  58  59
ATOM     59  N   UNL     1       5.963   3.192   3.036  1.00  0.00    -0.356 N 
ATOM     60  C   UNL     1       6.808   4.056   3.658  1.00  0.00     0.224 C 
ATOM     61  H   UNL     1       6.398   2.415   2.616  1.00  0.00     0.163 HD
ATOM     62  O   UNL     1       8.000   3.952   3.376  1.00  0.00    -0.275 OA
BRANCH  60  63
ATOM     63  C   UNL     1       6.254   5.067   4.652  1.00  0.00     0.098 C 
ATOM     64  C   UNL     1       6.174   6.474   4.044  1.00  0.00     0.017 C 
ATOM     65  C   UNL     1       7.061   5.010   5.949  1.00  0.00     0.131 C 
ATOM     66  C   UNL     1       7.504   7.234   4.080  1.00  0.00     0.022 C 
ATOM     67  N   UNL     1       8.274   5.796   5.843  1.00  0.00    -0.356 N 
ATOM     68  C   UNL     1       8.152   7.190   5.467  1.00  0.00     0.118 C 
BRANCH  67  69
ATOM     69  C   UNL     1       9.457   5.320   6.356  1.00  0.00     0.129 A 
ATOM     70  C   UNL     1       9.937   4.072   5.967  1.00  0.00     0.047 A 
ATOM     71  N   UNL     1      10.147   6.094   7.218  1.00  0.00    -0.231 NA
ATOM     72  C   UNL     1      11.154   3.609   6.444  1.00  0.00     0.014 A 
ATOM     73  C   UNL     1      11.302   5.631   7.718  1.00  0.00     0.073 A 
ATOM     74  C   UNL     1      11.861   4.392   7.346  1.00  0.00     0.002 A 
ATOM     75  C   UNL     1      11.979   6.392   8.655  1.00  0.00     0.030 A 
ATOM     76  C   UNL     1      13.085   3.963   7.877  1.00  0.00     0.032 A 
ATOM     77  C   UNL     1      13.189   5.965   9.213  1.00  0.00     0.024 A 
ATOM     78  C   UNL     1      13.753   4.756   8.812  1.00  0.00     0.083 A 
BRANCH  78  79
ATOM     79  S   UNL     1      15.293   4.110   9.438  1.00  0.00     0.243 S 
ATOM     80  O   UNL     1      14.979   2.812   9.997  1.00  0.00    -0.207 OA
ATOM     81  O   UNL     1      16.253   4.254   8.364  1.00  0.00    -0.207 OA
BRANCH  79  82
ATOM     82  N   UNL     1      15.787   5.114  10.725  1.00  0.00    -0.198 NA
ATOM     83  C   UNL     1      16.368   6.426  10.348  1.00  0.00     0.102 C 
ATOM     84  C   UNL     1      14.967   5.039  11.957  1.00  0.00     0.102 C 
ATOM     85  C   UNL     1      16.962   7.154  11.546  1.00  0.00     0.017 C 
ATOM     86  C   UNL     1      15.614   5.788  13.114  1.00  0.00     0.017 C 
ATOM     87  C   UNL     1      15.983   7.206  12.709  1.00  0.00     0.003 C 
ENDBRANCH  79  82
ENDBRANCH  78  79
ENDBRANCH  67  69
ENDBRANCH  60  63
ENDBRANCH  58  59
ENDBRANCH   1  58
TORSDOF 14
