REMARK SMILES CCC[C@@H]1SC[C@@H](C(=O)NCCCCNC(=O)c2ccc(-c3c4nc(c(-c5ccccc5)c5ccc([nH]5)c(-c5ccccc5)c5nc(c(-c6ccccc6)c6ccc3[nH]6)C=C5)C=C4)cc2)N1C(=O)C1C(C)(C)C1(C)C
REMARK SMILES IDX 12 1 11 2 10 3 8 4 9 5 7 7 4 8 5 9 66 10 6 11 3 12 2 13 1 14
REMARK SMILES IDX 67 15 68 16 69 17 70 18 73 19 71 20 72 21 74 22 75 23 13 24
REMARK SMILES IDX 14 25 15 26 16 27 17 29 18 30 19 31 65 32 20 33 64 34 21 35
REMARK SMILES IDX 22 36 23 37 58 38 24 39 63 40 57 41 59 42 25 43 62 44 56 45
REMARK SMILES IDX 55 46 26 48 48 49 33 50 47 51 34 52 37 53 46 54 60 55 35 56
REMARK SMILES IDX 36 57 45 59 61 60 38 61 27 62 28 63 32 64 29 65 31 66 30 67
REMARK SMILES IDX 49 68 50 69 54 70 51 71 53 72 52 73 39 74 40 75 44 76 41 77
REMARK SMILES IDX 43 78 42 79
REMARK H PARENT 10 6 15 28 59 47 37 58
REMARK Flexibility Score: inf
ROOT
ATOM      1  C   UNL     1       1.222   1.096   1.647  1.00  0.00     0.023 C 
ENDROOT
BRANCH   1   2
ATOM      2  C   UNL     1       2.342   1.058   0.616  1.00  0.00     0.116 C 
BRANCH   2   3
ATOM      3  N   UNL     1       2.231  -0.084  -0.260  1.00  0.00    -0.354 N 
ATOM      4  C   UNL     1       1.885  -0.164  -1.578  1.00  0.00     0.243 C 
ATOM      5  O   UNL     1       2.167  -1.231  -2.139  1.00  0.00    -0.273 OA
ATOM      6  H   UNL     1       2.438  -0.948   0.164  1.00  0.00     0.163 HD
BRANCH   4   7
ATOM      7  C   UNL     1       1.401   1.059  -2.414  1.00  0.00     0.185 C 
ATOM      8  C   UNL     1       0.652   3.287  -1.581  1.00  0.00     0.144 C 
ATOM      9  S   UNL     1       2.213   3.620  -2.476  1.00  0.00    -0.134 SA
ATOM     10  N   UNL     1       0.266   1.871  -1.880  1.00  0.00    -0.318 N 
ATOM     11  C   UNL     1       2.643   1.897  -2.708  1.00  0.00     0.107 C 
BRANCH   8  12
ATOM     12  C   UNL     1      -0.253   4.480  -1.923  1.00  0.00     0.036 C 
BRANCH  12  13
ATOM     13  C   UNL     1      -0.094   5.732  -1.040  1.00  0.00    -0.000 C 
ATOM     14  C   UNL     1       0.239   6.989  -1.815  1.00  0.00     0.004 C 
ENDBRANCH  12  13
ENDBRANCH   8  12
BRANCH  10  15
ATOM     15  C   UNL     1      -0.940   1.097  -1.771  1.00  0.00     0.228 C 
ATOM     16  O   UNL     1      -0.897  -0.080  -2.145  1.00  0.00    -0.274 OA
BRANCH  15  17
ATOM     17  C   UNL     1      -2.341   1.480  -1.261  1.00  0.00     0.091 C 
ATOM     18  C   UNL     1      -2.731   2.614  -0.340  1.00  0.00    -0.017 C 
ATOM     19  C   UNL     1      -3.145   2.579  -1.927  1.00  0.00    -0.017 C 
ATOM     20  C   UNL     1      -3.923   2.522   0.626  1.00  0.00     0.012 C 
ATOM     21  C   UNL     1      -1.574   3.066   0.517  1.00  0.00     0.012 C 
ATOM     22  C   UNL     1      -2.551   3.128  -3.217  1.00  0.00     0.012 C 
ATOM     23  C   UNL     1      -4.653   2.436  -2.165  1.00  0.00     0.012 C 
ENDBRANCH  15  17
ENDBRANCH  10  15
ENDBRANCH   4   7
ENDBRANCH   2   3
ENDBRANCH   1   2
BRANCH   1  24
ATOM     24  C   UNL     1       1.512   0.313   2.925  1.00  0.00     0.023 C 
BRANCH  24  25
ATOM     25  C   UNL     1       2.717   0.799   3.723  1.00  0.00     0.116 C 
BRANCH  25  26
ATOM     26  N   UNL     1       2.645   2.201   4.106  1.00  0.00    -0.352 N 
ATOM     27  C   UNL     1       3.052   2.801   5.279  1.00  0.00     0.251 C 
ATOM     28  H   UNL     1       2.251   2.805   3.436  1.00  0.00     0.163 HD
ATOM     29  O   UNL     1       2.826   3.982   5.476  1.00  0.00    -0.269 OA
BRANCH  27  30
ATOM     30  C   UNL     1       3.724   1.983   6.315  1.00  0.00     0.039 A 
ATOM     31  C   UNL     1       3.318   2.122   7.643  1.00  0.00     0.014 A 
ATOM     32  C   UNL     1       4.714   1.058   5.975  1.00  0.00     0.014 A 
ATOM     33  C   UNL     1       3.854   1.279   8.616  1.00  0.00     0.010 A 
ATOM     34  C   UNL     1       5.170   0.153   6.926  1.00  0.00     0.010 A 
ATOM     35  C   UNL     1       4.752   0.257   8.259  1.00  0.00    -0.014 A 
BRANCH  35  36
ATOM     36  C   UNL     1       5.242  -0.707   9.276  1.00  0.00     0.031 A 
ATOM     37  C   UNL     1       6.706  -0.791   9.611  1.00  0.00     0.074 A 
ATOM     38  C   UNL     1       4.362  -1.529   9.883  1.00  0.00     0.049 A 
ATOM     39  N   UNL     1       7.302  -1.525  10.518  1.00  0.00    -0.248 NA
ATOM     40  C   UNL     1       7.626   0.032   8.810  1.00  0.00     0.031 C 
ATOM     41  C   UNL     1       2.927  -1.597   9.595  1.00  0.00     0.029 A 
ATOM     42  N   UNL     1       4.543  -2.453  10.880  1.00  0.00    -0.354 N 
ATOM     43  C   UNL     1       8.658  -1.255  10.391  1.00  0.00     0.074 A 
ATOM     44  C   UNL     1       8.806  -0.345   9.277  1.00  0.00     0.031 C 
ATOM     45  C   UNL     1       2.350  -2.469  10.437  1.00  0.00     0.029 A 
ATOM     46  C   UNL     1       3.376  -3.047  11.298  1.00  0.00     0.049 A 
ATOM     47  H   UNL     1       5.425  -2.670  11.261  1.00  0.00     0.167 HD
ATOM     48  C   UNL     1       9.688  -1.700  11.149  1.00  0.00     0.031 A 
ATOM     49  C   UNL     1       3.154  -3.944  12.276  1.00  0.00     0.031 A 
ATOM     50  C   UNL     1       9.541  -2.605  12.258  1.00  0.00     0.049 A 
ATOM     51  C   UNL     1       4.312  -4.412  13.112  1.00  0.00     0.074 A 
ATOM     52  C   UNL     1      10.513  -3.073  13.125  1.00  0.00     0.029 A 
ATOM     53  N   UNL     1       8.343  -3.183  12.649  1.00  0.00    -0.354 N 
ATOM     54  N   UNL     1       5.577  -4.075  13.038  1.00  0.00    -0.248 NA
ATOM     55  C   UNL     1       4.003  -5.369  14.183  1.00  0.00     0.031 C 
ATOM     56  C   UNL     1       9.912  -3.979  14.006  1.00  0.00     0.029 A 
ATOM     57  C   UNL     1       8.555  -4.023  13.730  1.00  0.00     0.049 A 
ATOM     58  H   UNL     1       7.471  -3.021  12.222  1.00  0.00     0.167 HD
ATOM     59  C   UNL     1       6.211  -4.759  14.068  1.00  0.00     0.074 A 
ATOM     60  C   UNL     1       5.184  -5.504  14.768  1.00  0.00     0.031 C 
ATOM     61  C   UNL     1       7.525  -4.771  14.405  1.00  0.00     0.031 A 
BRANCH  48  62
ATOM     62  C   UNL     1      11.068  -1.211  10.797  1.00  0.00    -0.014 A 
ATOM     63  C   UNL     1      11.435   0.132  10.983  1.00  0.00     0.009 A 
ATOM     64  C   UNL     1      12.023  -2.110  10.299  1.00  0.00     0.009 A 
ATOM     65  C   UNL     1      12.715   0.572  10.640  1.00  0.00     0.001 A 
ATOM     66  C   UNL     1      13.313  -1.674   9.987  1.00  0.00     0.001 A 
ATOM     67  C   UNL     1      13.655  -0.332  10.148  1.00  0.00     0.000 A 
ENDBRANCH  48  62
BRANCH  49  68
ATOM     68  C   UNL     1       1.775  -4.429  12.547  1.00  0.00    -0.014 A 
ATOM     69  C   UNL     1       1.108  -4.068  13.728  1.00  0.00     0.009 A 
ATOM     70  C   UNL     1       1.120  -5.266  11.630  1.00  0.00     0.009 A 
ATOM     71  C   UNL     1      -0.170  -4.560  14.000  1.00  0.00     0.001 A 
ATOM     72  C   UNL     1      -0.171  -5.731  11.889  1.00  0.00     0.001 A 
ATOM     73  C   UNL     1      -0.810  -5.387  13.079  1.00  0.00     0.000 A 
ENDBRANCH  49  68
BRANCH  61  74
ATOM     74  C   UNL     1       7.911  -5.597  15.601  1.00  0.00    -0.014 A 
ATOM     75  C   UNL     1       7.851  -6.999  15.573  1.00  0.00     0.009 A 
ATOM     76  C   UNL     1       8.341  -4.959  16.775  1.00  0.00     0.009 A 
ATOM     77  C   UNL     1       8.159  -7.742  16.715  1.00  0.00     0.001 A 
ATOM     78  C   UNL     1       8.683  -5.705  17.902  1.00  0.00     0.001 A 
ATOM     79  C   UNL     1       8.576  -7.095  17.877  1.00  0.00     0.000 A 
ENDBRANCH  61  74
ENDBRANCH  35  36
ENDBRANCH  27  30
ENDBRANCH  25  26
ENDBRANCH  24  25
ENDBRANCH   1  24
TORSDOF 15
