REMARK SMILES Cc1ccc(-c2cc(Cl)cc3c2O[C@@H](C(F)(F)F)C(C(=O)NCCCCNC(=O)c2ccc(-c4c5nc(c(-c6ccccc6)c6ccc([nH]6)c(-c6ccccc6)c6nc(c(-c7ccccc7)c7ccc4[nH]7)C=C6)C=C5)cc2)=C3)cc1
REMARK SMILES IDX 25 1 24 2 23 3 22 4 20 5 21 6 19 8 6 9 7 10 12 11 8 12 11 13
REMARK SMILES IDX 13 14 9 15 10 16 78 17 14 18 5 19 1 20 2 21 3 22 80 23 4 24
REMARK SMILES IDX 79 25 15 26 16 27 17 28 18 29 26 30 27 31 28 32 29 34 30 35
REMARK SMILES IDX 31 36 77 37 32 38 76 39 33 40 34 41 35 42 70 43 36 44 75 45
REMARK SMILES IDX 69 46 71 47 37 48 74 49 68 50 67 51 38 53 60 54 45 55 59 56
REMARK SMILES IDX 46 57 49 58 58 59 72 60 47 61 48 62 57 64 73 65 50 66 39 67
REMARK SMILES IDX 40 68 44 69 41 70 43 71 42 72 61 73 62 74 66 75 63 76 65 77
REMARK SMILES IDX 64 78 51 79 52 80 56 81 53 82 55 83 54 84
REMARK H PARENT 22 7 27 33 71 52 49 63
REMARK Flexibility Score: inf
ROOT
ATOM      1  C   UNL     1      -2.159  -4.879   4.924  1.00  0.00     0.023 C 
ENDROOT
BRANCH   1   2
ATOM      2  C   UNL     1      -3.575  -4.295   4.865  1.00  0.00     0.023 C 
BRANCH   2   3
ATOM      3  C   UNL     1      -3.812  -2.884   5.433  1.00  0.00     0.116 C 
BRANCH   3   4
ATOM      4  N   UNL     1      -3.349  -1.773   4.614  1.00  0.00    -0.352 N 
ATOM      5  C   UNL     1      -3.945  -0.603   4.218  1.00  0.00     0.251 C 
ATOM      6  O   UNL     1      -3.199   0.376   4.108  1.00  0.00    -0.270 OA
ATOM      7  H   UNL     1      -2.430  -1.883   4.280  1.00  0.00     0.163 HD
BRANCH   5   8
ATOM      8  C   UNL     1      -5.413  -0.480   3.787  1.00  0.00     0.067 C 
ATOM      9  C   UNL     1      -3.878  -1.229   0.184  1.00  0.00     0.026 A 
ATOM     10  C   UNL     1      -4.367  -0.592  -0.974  1.00  0.00     0.033 A 
ATOM     11  C   UNL     1      -4.673  -1.067   1.316  1.00  0.00     0.135 A 
ATOM     12  C   UNL     1      -5.312   0.435  -0.864  1.00  0.00     0.042 A 
ATOM     13  C   UNL     1      -5.332   0.170   1.519  1.00  0.00     0.019 A 
ATOM     14  O   UNL     1      -4.963  -2.157   2.172  1.00  0.00    -0.475 OA
ATOM     15  Cl  UNL     1      -5.841   1.251  -2.284  1.00  0.00    -0.084 Cl
ATOM     16  C   UNL     1      -5.717   0.891   0.394  1.00  0.00     0.032 A 
ATOM     17  C   UNL     1      -5.629   0.568   2.943  1.00  0.00     0.025 C 
ATOM     18  C   UNL     1      -5.987  -1.717   3.123  1.00  0.00     0.314 C 
BRANCH   9  19
ATOM     19  C   UNL     1      -2.393  -1.110   0.334  1.00  0.00    -0.015 A 
ATOM     20  C   UNL     1       1.883  -0.357   0.154  1.00  0.00     0.044 C 
ATOM     21  C   UNL     1       0.410  -0.624   0.275  1.00  0.00    -0.051 A 
ATOM     22  C   UNL     1      -0.107  -1.926   0.177  1.00  0.00     0.004 A 
ATOM     23  C   UNL     1      -0.474   0.431   0.472  1.00  0.00     0.004 A 
ATOM     24  C   UNL     1      -1.496  -2.170   0.202  1.00  0.00     0.009 A 
ATOM     25  C   UNL     1      -1.847   0.187   0.509  1.00  0.00     0.009 A 
ENDBRANCH   9  19
BRANCH  18  26
ATOM     26  C   UNL     1      -6.766  -2.661   4.049  1.00  0.00     0.429 C 
ATOM     27  F   UNL     1      -8.076  -2.707   3.677  1.00  0.00    -0.167 F 
ATOM     28  F   UNL     1      -6.315  -3.927   4.045  1.00  0.00    -0.167 F 
ATOM     29  F   UNL     1      -6.790  -2.221   5.333  1.00  0.00    -0.167 F 
ENDBRANCH  18  26
ENDBRANCH   5   8
ENDBRANCH   3   4
ENDBRANCH   2   3
ENDBRANCH   1   2
BRANCH   1  30
ATOM     30  C   UNL     1      -1.423  -4.777   6.253  1.00  0.00     0.116 C 
BRANCH  30  31
ATOM     31  N   UNL     1      -1.716  -5.773   7.273  1.00  0.00    -0.352 N 
ATOM     32  C   UNL     1      -1.268  -5.828   8.596  1.00  0.00     0.251 C 
ATOM     33  H   UNL     1      -2.309  -6.507   6.994  1.00  0.00     0.163 HD
ATOM     34  O   UNL     1      -1.515  -6.800   9.281  1.00  0.00    -0.269 OA
BRANCH  32  35
ATOM     35  C   UNL     1      -0.618  -4.631   9.213  1.00  0.00     0.039 A 
ATOM     36  C   UNL     1      -0.986  -4.287  10.521  1.00  0.00     0.014 A 
ATOM     37  C   UNL     1       0.123  -3.733   8.457  1.00  0.00     0.014 A 
ATOM     38  C   UNL     1      -0.891  -2.958  10.931  1.00  0.00     0.010 A 
ATOM     39  C   UNL     1       0.088  -2.398   8.795  1.00  0.00     0.010 A 
ATOM     40  C   UNL     1      -0.483  -2.003  10.004  1.00  0.00    -0.014 A 
BRANCH  40  41
ATOM     41  C   UNL     1      -0.720  -0.575  10.153  1.00  0.00     0.031 A 
ATOM     42  C   UNL     1       0.393   0.337  10.464  1.00  0.00     0.074 A 
ATOM     43  C   UNL     1      -1.953  -0.074   9.922  1.00  0.00     0.049 A 
ATOM     44  N   UNL     1       0.257   1.446  11.107  1.00  0.00    -0.248 NA
ATOM     45  C   UNL     1       1.773   0.041  10.100  1.00  0.00     0.031 C 
ATOM     46  C   UNL     1      -2.334   1.327   9.772  1.00  0.00     0.029 A 
ATOM     47  N   UNL     1      -3.164  -0.755   9.974  1.00  0.00    -0.354 N 
ATOM     48  C   UNL     1       1.437   2.140  10.971  1.00  0.00     0.074 A 
ATOM     49  C   UNL     1       2.376   1.188  10.422  1.00  0.00     0.031 C 
ATOM     50  C   UNL     1      -3.655   1.442   9.986  1.00  0.00     0.029 A 
ATOM     51  C   UNL     1      -4.147   0.143  10.416  1.00  0.00     0.049 A 
ATOM     52  H   UNL     1      -3.307  -1.701   9.742  1.00  0.00     0.167 HD
ATOM     53  C   UNL     1       1.456   3.486  11.182  1.00  0.00     0.031 A 
ATOM     54  C   UNL     1      -4.813  -0.086  11.586  1.00  0.00     0.031 A 
ATOM     55  C   UNL     1       0.143   3.992  11.578  1.00  0.00     0.049 A 
ATOM     56  C   UNL     1      -4.527   0.942  12.660  1.00  0.00     0.074 A 
ATOM     57  C   UNL     1      -0.857   4.649  10.878  1.00  0.00     0.029 A 
ATOM     58  N   UNL     1      -0.428   3.566  12.771  1.00  0.00    -0.354 N 
ATOM     59  N   UNL     1      -3.549   1.804  12.608  1.00  0.00    -0.248 NA
ATOM     60  C   UNL     1      -5.300   1.060  13.894  1.00  0.00     0.031 C 
ATOM     61  C   UNL     1      -2.055   4.559  11.634  1.00  0.00     0.029 A 
ATOM     62  C   UNL     1      -1.775   3.874  12.803  1.00  0.00     0.049 A 
ATOM     63  H   UNL     1       0.059   3.107  13.493  1.00  0.00     0.167 HD
ATOM     64  C   UNL     1      -3.535   2.562  13.749  1.00  0.00     0.074 A 
ATOM     65  C   UNL     1      -4.665   2.070  14.516  1.00  0.00     0.031 C 
ATOM     66  C   UNL     1      -2.586   3.522  13.963  1.00  0.00     0.031 A 
BRANCH  53  67
ATOM     67  C   UNL     1       2.589   4.371  10.718  1.00  0.00    -0.014 A 
ATOM     68  C   UNL     1       2.329   5.707  10.362  1.00  0.00     0.009 A 
ATOM     69  C   UNL     1       3.918   3.942  10.562  1.00  0.00     0.009 A 
ATOM     70  C   UNL     1       3.307   6.527   9.783  1.00  0.00     0.001 A 
ATOM     71  C   UNL     1       4.891   4.739   9.942  1.00  0.00     0.001 A 
ATOM     72  C   UNL     1       4.581   6.030   9.541  1.00  0.00     0.000 A 
ENDBRANCH  53  67
BRANCH  54  73
ATOM     73  C   UNL     1      -5.089  -1.531  11.825  1.00  0.00    -0.014 A 
ATOM     74  C   UNL     1      -6.044  -2.163  11.003  1.00  0.00     0.009 A 
ATOM     75  C   UNL     1      -4.173  -2.332  12.522  1.00  0.00     0.009 A 
ATOM     76  C   UNL     1      -6.002  -3.544  10.785  1.00  0.00     0.001 A 
ATOM     77  C   UNL     1      -4.140  -3.717  12.305  1.00  0.00     0.001 A 
ATOM     78  C   UNL     1      -5.026  -4.315  11.409  1.00  0.00     0.000 A 
ENDBRANCH  54  73
BRANCH  66  79
ATOM     79  C   UNL     1      -2.345   4.286  15.247  1.00  0.00    -0.014 A 
ATOM     80  C   UNL     1      -2.791   3.886  16.512  1.00  0.00     0.009 A 
ATOM     81  C   UNL     1      -1.510   5.429  15.209  1.00  0.00     0.009 A 
ATOM     82  C   UNL     1      -2.458   4.609  17.667  1.00  0.00     0.001 A 
ATOM     83  C   UNL     1      -1.135   6.123  16.361  1.00  0.00     0.001 A 
ATOM     84  C   UNL     1      -1.621   5.719  17.593  1.00  0.00     0.000 A 
ENDBRANCH  66  79
ENDBRANCH  40  41
ENDBRANCH  32  35
ENDBRANCH  30  31
ENDBRANCH   1  30
TORSDOF 13
