REMARK SMILES CCNC(=O)NC(=O)[C@@H](C)[NH2+][C@](C)(CC)C(=O)NCCCCNC(=O)c1ccc(-c2c3nc(c(-c4ccccc4)c4ccc([nH]4)c(-c4ccccc4)c4nc(c(-c5ccccc5)c5ccc2[nH]5)C=C4)C=C3)cc1
REMARK SMILES IDX 19 1 18 2 16 3 17 4 12 6 13 7 11 8 9 11 10 12 7 13 3 14 4 15
REMARK SMILES IDX 5 17 6 18 8 20 2 21 1 22 14 23 15 24 20 25 21 26 22 27 23 28
REMARK SMILES IDX 24 29 25 31 26 32 27 33 73 34 28 35 72 36 29 37 30 38 31 39
REMARK SMILES IDX 66 40 32 41 71 42 65 43 67 44 33 45 70 46 64 47 63 48 34 50
REMARK SMILES IDX 56 51 41 52 55 53 42 54 45 55 54 56 68 57 43 58 44 59 53 61
REMARK SMILES IDX 69 62 46 63 35 64 36 65 40 66 37 67 39 68 38 69 57 70 58 71
REMARK SMILES IDX 62 72 59 73 61 74 60 75 47 76 48 77 52 78 49 79 51 80 50 81
REMARK H PARENT 18 5 11 9 11 10 3 16 6 19 23 30 67 49 45 60
REMARK Flexibility Score: inf
ROOT
ATOM      1  C   UNL     1       2.446   4.338  -0.421  1.00  0.00     0.116 C 
ENDROOT
BRANCH   1   2
ATOM      2  N   UNL     1       1.024   4.276  -0.718  1.00  0.00    -0.351 N 
ATOM      3  C   UNL     1       0.239   3.251  -1.174  1.00  0.00     0.281 C 
ATOM      4  O   UNL     1      -0.982   3.434  -1.089  1.00  0.00    -0.268 OA
ATOM      5  H   UNL     1       0.540   5.120  -0.563  1.00  0.00     0.163 HD
BRANCH   3   6
ATOM      6  C   UNL     1       0.831   1.913  -1.754  1.00  0.00     0.173 C 
ATOM      7  C   UNL     1      -0.331   1.082  -2.354  1.00  0.00     0.090 C 
BRANCH   6   8
ATOM      8  N   UNL     1       1.598   1.240  -0.654  1.00  0.00    -0.324 N 
ATOM      9  H   UNL     1       2.536   1.069  -1.017  1.00  0.00     0.347 HD
ATOM     10  H   UNL     1       1.494   1.892   0.124  1.00  0.00     0.347 HD
BRANCH   8  11
ATOM     11  C   UNL     1       1.132  -0.037  -0.074  1.00  0.00     0.270 C 
ATOM     12  C   UNL     1      -0.275  -0.207   0.512  1.00  0.00     0.086 C 
BRANCH  11  13
ATOM     13  C   UNL     1       2.153  -0.560   0.960  1.00  0.00     0.285 C 
ATOM     14  N   UNL     1       1.872   2.281   2.782  1.00  0.00    -0.338 N 
ATOM     15  C   UNL     1       2.830   1.350   2.703  1.00  0.00     0.321 C 
ATOM     16  H   UNL     1       2.103   3.073   3.320  1.00  0.00     0.165 HD
ATOM     17  O   UNL     1       3.857   1.536   3.363  1.00  0.00    -0.248 OA
ATOM     18  N   UNL     1       2.743   0.183   1.982  1.00  0.00    -0.273 N 
ATOM     19  H   UNL     1       3.421  -0.413   2.374  1.00  0.00     0.175 HD
ATOM     20  O   UNL     1       2.495  -1.752   0.904  1.00  0.00    -0.268 OA
BRANCH  14  21
ATOM     21  C   UNL     1       0.564   2.304   2.205  1.00  0.00     0.114 C 
ATOM     22  C   UNL     1      -0.362   3.382   2.718  1.00  0.00     0.027 C 
ENDBRANCH  14  21
ENDBRANCH  11  13
ENDBRANCH   8  11
ENDBRANCH   6   8
BRANCH   6  23
ATOM     23  C   UNL     1       1.794   2.214  -2.950  1.00  0.00     0.075 C 
ATOM     24  C   UNL     1       1.267   3.223  -3.971  1.00  0.00     0.011 C 
ENDBRANCH   6  23
ENDBRANCH   3   6
ENDBRANCH   1   2
BRANCH   1  25
ATOM     25  C   UNL     1       3.008   5.753  -0.560  1.00  0.00     0.023 C 
BRANCH  25  26
ATOM     26  C   UNL     1       2.518   6.756   0.488  1.00  0.00     0.023 C 
BRANCH  26  27
ATOM     27  C   UNL     1       2.799   6.379   1.942  1.00  0.00     0.116 C 
BRANCH  27  28
ATOM     28  N   UNL     1       4.218   6.235   2.224  1.00  0.00    -0.352 N 
ATOM     29  C   UNL     1       5.027   6.921   3.093  1.00  0.00     0.251 C 
ATOM     30  H   UNL     1       4.672   5.531   1.707  1.00  0.00     0.163 HD
ATOM     31  O   UNL     1       6.250   6.765   3.032  1.00  0.00    -0.269 OA
BRANCH  29  32
ATOM     32  C   UNL     1       4.466   7.866   4.084  1.00  0.00     0.039 A 
ATOM     33  C   UNL     1       5.141   9.068   4.315  1.00  0.00     0.014 A 
ATOM     34  C   UNL     1       3.311   7.570   4.814  1.00  0.00     0.014 A 
ATOM     35  C   UNL     1       4.624   9.995   5.222  1.00  0.00     0.010 A 
ATOM     36  C   UNL     1       2.752   8.530   5.661  1.00  0.00     0.010 A 
ATOM     37  C   UNL     1       3.401   9.754   5.874  1.00  0.00    -0.014 A 
BRANCH  37  38
ATOM     38  C   UNL     1       2.794  10.803   6.736  1.00  0.00     0.031 A 
ATOM     39  C   UNL     1       2.602  10.589   8.213  1.00  0.00     0.074 A 
ATOM     40  C   UNL     1       2.394  11.961   6.174  1.00  0.00     0.049 A 
ATOM     41  N   UNL     1       2.168  11.432   9.117  1.00  0.00    -0.248 NA
ATOM     42  C   UNL     1       2.915   9.253   8.741  1.00  0.00     0.031 C 
ATOM     43  C   UNL     1       2.470  12.277   4.746  1.00  0.00     0.029 A 
ATOM     44  N   UNL     1       1.862  13.094   6.736  1.00  0.00    -0.354 N 
ATOM     45  C   UNL     1       2.148  10.729  10.316  1.00  0.00     0.074 A 
ATOM     46  C   UNL     1       2.563   9.376  10.013  1.00  0.00     0.031 C 
ATOM     47  C   UNL     1       2.062  13.541   4.553  1.00  0.00     0.029 A 
ATOM     48  C   UNL     1       1.659  14.111   5.834  1.00  0.00     0.049 A 
ATOM     49  H   UNL     1       1.646  13.171   7.694  1.00  0.00     0.167 HD
ATOM     50  C   UNL     1       1.831  11.171  11.558  1.00  0.00     0.031 A 
ATOM     51  C   UNL     1       1.213  15.368   6.016  1.00  0.00     0.031 A 
ATOM     52  C   UNL     1       1.412  12.516  11.860  1.00  0.00     0.049 A 
ATOM     53  C   UNL     1       0.866  15.832   7.402  1.00  0.00     0.074 A 
ATOM     54  C   UNL     1       1.134  13.076  13.095  1.00  0.00     0.029 A 
ATOM     55  N   UNL     1       1.196  13.508  10.916  1.00  0.00    -0.354 N 
ATOM     56  N   UNL     1       0.946  15.182   8.538  1.00  0.00    -0.248 NA
ATOM     57  C   UNL     1       0.384  17.214   7.528  1.00  0.00     0.031 C 
ATOM     58  C   UNL     1       0.687  14.387  12.893  1.00  0.00     0.029 A 
ATOM     59  C   UNL     1       0.755  14.666  11.537  1.00  0.00     0.049 A 
ATOM     60  H   UNL     1       1.336  13.406   9.947  1.00  0.00     0.167 HD
ATOM     61  C   UNL     1       0.552  16.085   9.517  1.00  0.00     0.074 A 
ATOM     62  C   UNL     1       0.259  17.333   8.842  1.00  0.00     0.031 C 
ATOM     63  C   UNL     1       0.444  15.898  10.856  1.00  0.00     0.031 A 
BRANCH  50  64
ATOM     64  C   UNL     1       1.906  10.176  12.687  1.00  0.00    -0.014 A 
ATOM     65  C   UNL     1       3.134   9.653  13.124  1.00  0.00     0.009 A 
ATOM     66  C   UNL     1       0.731   9.777  13.344  1.00  0.00     0.009 A 
ATOM     67  C   UNL     1       3.178   8.719  14.163  1.00  0.00     0.001 A 
ATOM     68  C   UNL     1       0.781   8.870  14.404  1.00  0.00     0.001 A 
ATOM     69  C   UNL     1       2.003   8.332  14.805  1.00  0.00     0.000 A 
ENDBRANCH  50  64
BRANCH  51  70
ATOM     70  C   UNL     1       1.111  16.296   4.859  1.00  0.00    -0.014 A 
ATOM     71  C   UNL     1       1.984  17.390   4.747  1.00  0.00     0.009 A 
ATOM     72  C   UNL     1       0.141  16.098   3.865  1.00  0.00     0.009 A 
ATOM     73  C   UNL     1       1.868  18.282   3.679  1.00  0.00     0.001 A 
ATOM     74  C   UNL     1       0.049  16.973   2.780  1.00  0.00     0.001 A 
ATOM     75  C   UNL     1       0.905  18.070   2.694  1.00  0.00     0.000 A 
ENDBRANCH  51  70
BRANCH  63  76
ATOM     76  C   UNL     1       0.017  17.086  11.676  1.00  0.00    -0.014 A 
ATOM     77  C   UNL     1      -1.281  17.614  11.583  1.00  0.00     0.009 A 
ATOM     78  C   UNL     1       0.932  17.692  12.550  1.00  0.00     0.009 A 
ATOM     79  C   UNL     1      -1.633  18.759  12.303  1.00  0.00     0.001 A 
ATOM     80  C   UNL     1       0.567  18.813  13.297  1.00  0.00     0.001 A 
ATOM     81  C   UNL     1      -0.710  19.355  13.160  1.00  0.00     0.000 A 
ENDBRANCH  63  76
ENDBRANCH  37  38
ENDBRANCH  29  32
ENDBRANCH  27  28
ENDBRANCH  26  27
ENDBRANCH  25  26
ENDBRANCH   1  25
TORSDOF 16
