REMARK SMILES O=C(NCCCCNC(=O)[C@@H]1[C@H](C(=O)Nc2ccccc2Cc2ccccc2)[C@H]2C=C[C@@H]1O2)c1ccc(-c2c3nc(c(-c4ccccc4)c4ccc([nH]4)c(-c4ccccc4)c4nc(c(-c5ccccc5)c5ccc2[nH]5)C=C4)C=C3)cc1
REMARK SMILES IDX 6 1 5 2 4 3 3 4 1 5 2 6 34 8 35 9 81 10 36 11 80 12 37 13
REMARK SMILES IDX 38 14 39 15 74 16 40 17 79 18 73 19 75 20 41 21 78 22 72 23
REMARK SMILES IDX 71 24 42 26 64 27 49 28 63 29 50 30 53 31 62 32 76 33 51 34
REMARK SMILES IDX 52 35 61 37 77 38 54 39 43 40 44 41 48 42 45 43 47 44 46 45
REMARK SMILES IDX 65 46 66 47 70 48 67 49 69 50 68 51 55 52 56 53 60 54 57 55
REMARK SMILES IDX 59 56 58 57 7 58 8 59 9 60 10 62 11 63 12 64 32 65 29 66
REMARK SMILES IDX 31 67 33 68 30 69 13 70 14 71 15 72 16 74 17 75 21 76 18 77
REMARK SMILES IDX 20 78 19 79 22 80 23 81 24 82 28 83 25 84 27 85 26 86
REMARK H PARENT 3 7 75 25 53 36 8 61 15 73
REMARK Flexibility Score: inf
ROOT
ATOM      1  C   UNL     1       3.545   3.975  -0.651  1.00  0.00     0.023 C 
ENDROOT
BRANCH   1   2
ATOM      2  C   UNL     1       4.324   2.700  -1.004  1.00  0.00     0.023 C 
BRANCH   2   3
ATOM      3  C   UNL     1       4.145   1.524  -0.051  1.00  0.00     0.116 C 
BRANCH   3   4
ATOM      4  N   UNL     1       2.760   1.105   0.072  1.00  0.00    -0.352 N 
ATOM      5  O   UNL     1       0.960  -0.230  -0.113  1.00  0.00    -0.269 OA
ATOM      6  C   UNL     1       2.180  -0.118  -0.157  1.00  0.00     0.251 C 
ATOM      7  H   UNL     1       2.139   1.809   0.367  1.00  0.00     0.163 HD
BRANCH   6   8
ATOM      8  C   UNL     1       3.011  -1.302  -0.472  1.00  0.00     0.039 A 
ATOM      9  C   UNL     1       4.162  -1.597   0.261  1.00  0.00     0.014 A 
ATOM     10  C   UNL     1       2.590  -2.167  -1.488  1.00  0.00     0.014 A 
ATOM     11  C   UNL     1       4.947  -2.694  -0.089  1.00  0.00     0.010 A 
ATOM     12  C   UNL     1       3.339  -3.309  -1.789  1.00  0.00     0.010 A 
ATOM     13  C   UNL     1       4.532  -3.576  -1.101  1.00  0.00    -0.014 A 
BRANCH  13  14
ATOM     14  C   UNL     1       5.299  -4.824  -1.358  1.00  0.00     0.031 A 
ATOM     15  C   UNL     1       5.980  -5.069  -2.676  1.00  0.00     0.074 A 
ATOM     16  C   UNL     1       5.365  -5.753  -0.384  1.00  0.00     0.049 A 
ATOM     17  N   UNL     1       6.673  -6.113  -3.061  1.00  0.00    -0.248 NA
ATOM     18  C   UNL     1       5.868  -4.016  -3.697  1.00  0.00     0.031 C 
ATOM     19  C   UNL     1       4.733  -5.641   0.934  1.00  0.00     0.029 A 
ATOM     20  N   UNL     1       5.994  -6.972  -0.345  1.00  0.00    -0.354 N 
ATOM     21  C   UNL     1       7.065  -5.852  -4.368  1.00  0.00     0.074 A 
ATOM     22  C   UNL     1       6.514  -4.561  -4.721  1.00  0.00     0.031 C 
ATOM     23  C   UNL     1       5.035  -6.727   1.661  1.00  0.00     0.029 A 
ATOM     24  C   UNL     1       5.822  -7.641   0.843  1.00  0.00     0.049 A 
ATOM     25  H   UNL     1       6.518  -7.332  -1.096  1.00  0.00     0.167 HD
ATOM     26  C   UNL     1       7.817  -6.618  -5.195  1.00  0.00     0.031 A 
ATOM     27  C   UNL     1       6.227  -8.865   1.227  1.00  0.00     0.031 A 
ATOM     28  C   UNL     1       8.361  -7.906  -4.843  1.00  0.00     0.049 A 
ATOM     29  C   UNL     1       7.017  -9.708   0.268  1.00  0.00     0.074 A 
ATOM     30  C   UNL     1       9.172  -8.733  -5.602  1.00  0.00     0.029 A 
ATOM     31  N   UNL     1       8.141  -8.558  -3.640  1.00  0.00    -0.354 N 
ATOM     32  N   UNL     1       7.429  -9.418  -0.941  1.00  0.00    -0.248 NA
ATOM     33  C   UNL     1       7.401 -11.049   0.731  1.00  0.00     0.031 C 
ATOM     34  C   UNL     1       9.388  -9.914  -4.885  1.00  0.00     0.029 A 
ATOM     35  C   UNL     1       8.771  -9.793  -3.651  1.00  0.00     0.049 A 
ATOM     36  H   UNL     1       7.615  -8.198  -2.890  1.00  0.00     0.167 HD
ATOM     37  C   UNL     1       8.142 -10.528  -1.373  1.00  0.00     0.074 A 
ATOM     38  C   UNL     1       8.128 -11.485  -0.286  1.00  0.00     0.031 C 
ATOM     39  C   UNL     1       8.752 -10.737  -2.565  1.00  0.00     0.031 A 
BRANCH  26  40
ATOM     40  C   UNL     1       8.089  -6.104  -6.583  1.00  0.00    -0.014 A 
ATOM     41  C   UNL     1       8.971  -5.036  -6.809  1.00  0.00     0.009 A 
ATOM     42  C   UNL     1       7.523  -6.760  -7.689  1.00  0.00     0.009 A 
ATOM     43  C   UNL     1       9.264  -4.624  -8.111  1.00  0.00     0.001 A 
ATOM     44  C   UNL     1       7.840  -6.364  -8.990  1.00  0.00     0.001 A 
ATOM     45  C   UNL     1       8.706  -5.292  -9.200  1.00  0.00     0.000 A 
ENDBRANCH  26  40
BRANCH  27  46
ATOM     46  C   UNL     1       5.865  -9.385   2.573  1.00  0.00    -0.014 A 
ATOM     47  C   UNL     1       6.854  -9.628   3.538  1.00  0.00     0.009 A 
ATOM     48  C   UNL     1       4.527  -9.671   2.888  1.00  0.00     0.009 A 
ATOM     49  C   UNL     1       6.514 -10.181   4.775  1.00  0.00     0.001 A 
ATOM     50  C   UNL     1       4.186 -10.188   4.138  1.00  0.00     0.001 A 
ATOM     51  C   UNL     1       5.181 -10.457   5.075  1.00  0.00     0.000 A 
ENDBRANCH  27  46
BRANCH  39  52
ATOM     52  C   UNL     1       9.490 -12.035  -2.739  1.00  0.00    -0.014 A 
ATOM     53  C   UNL     1       8.808 -13.257  -2.850  1.00  0.00     0.009 A 
ATOM     54  C   UNL     1      10.892 -12.031  -2.816  1.00  0.00     0.009 A 
ATOM     55  C   UNL     1       9.517 -14.451  -2.994  1.00  0.00     0.001 A 
ATOM     56  C   UNL     1      11.596 -13.222  -2.996  1.00  0.00     0.001 A 
ATOM     57  C   UNL     1      10.909 -14.432  -3.073  1.00  0.00     0.000 A 
ENDBRANCH  39  52
ENDBRANCH  13  14
ENDBRANCH   6   8
ENDBRANCH   3   4
ENDBRANCH   2   3
ENDBRANCH   1   2
BRANCH   1  58
ATOM     58  C   UNL     1       3.763   4.524   0.766  1.00  0.00     0.116 C 
BRANCH  58  59
ATOM     59  N   UNL     1       5.163   4.763   1.049  1.00  0.00    -0.356 N 
ATOM     60  C   UNL     1       5.845   5.779   0.433  1.00  0.00     0.227 C 
ATOM     61  H   UNL     1       5.632   4.186   1.694  1.00  0.00     0.163 HD
ATOM     62  O   UNL     1       6.456   5.529  -0.603  1.00  0.00    -0.275 OA
BRANCH  60  63
ATOM     63  C   UNL     1       5.741   7.165   1.023  1.00  0.00     0.127 C 
ATOM     64  C   UNL     1       6.928   8.129   0.717  1.00  0.00     0.127 C 
ATOM     65  C   UNL     1       5.673   7.283   2.564  1.00  0.00     0.155 C 
ATOM     66  C   UNL     1       7.185   8.776   2.075  1.00  0.00     0.155 C 
ATOM     67  C   UNL     1       5.063   8.611   2.908  1.00  0.00     0.004 C 
ATOM     68  O   UNL     1       7.043   7.611   2.919  1.00  0.00    -0.365 OA
ATOM     69  C   UNL     1       5.974   9.534   2.561  1.00  0.00     0.004 C 
BRANCH  64  70
ATOM     70  C   UNL     1       8.204   7.661   0.002  1.00  0.00     0.231 C 
ATOM     71  O   UNL     1       8.254   7.855  -1.227  1.00  0.00    -0.274 OA
ATOM     72  N   UNL     1       9.369   7.197   0.536  1.00  0.00    -0.325 N 
ATOM     73  H   UNL     1      10.076   7.149  -0.148  1.00  0.00     0.169 HD
BRANCH  72  74
ATOM     74  C   UNL     1       9.852   6.764   1.792  1.00  0.00     0.044 A 
ATOM     75  C   UNL     1      11.059   7.352   2.200  1.00  0.00     0.026 A 
ATOM     76  C   UNL     1       9.335   5.694   2.555  1.00  0.00    -0.020 A 
ATOM     77  C   UNL     1      11.645   7.023   3.424  1.00  0.00     0.002 A 
ATOM     78  C   UNL     1       9.905   5.410   3.809  1.00  0.00     0.006 A 
ATOM     79  C   UNL     1      11.044   6.080   4.247  1.00  0.00     0.000 A 
BRANCH  76  80
ATOM     80  C   UNL     1       8.170   4.893   2.073  1.00  0.00     0.073 C 
BRANCH  80  81
ATOM     81  C   UNL     1       8.063   3.387   2.156  1.00  0.00    -0.044 A 
ATOM     82  C   UNL     1       8.203   2.622   0.985  1.00  0.00     0.004 A 
ATOM     83  C   UNL     1       7.545   2.773   3.305  1.00  0.00     0.004 A 
ATOM     84  C   UNL     1       7.786   1.291   0.951  1.00  0.00     0.000 A 
ATOM     85  C   UNL     1       7.137   1.438   3.270  1.00  0.00     0.000 A 
ATOM     86  C   UNL     1       7.245   0.702   2.091  1.00  0.00     0.000 A 
ENDBRANCH  80  81
ENDBRANCH  76  80
ENDBRANCH  72  74
ENDBRANCH  64  70
ENDBRANCH  60  63
ENDBRANCH  58  59
ENDBRANCH   1  58
TORSDOF 15
