REMARK SMILES CC(C)C[C@H](CNC(=O)N[C@@H](C)C1CCCCC1)C(=O)NCCCCNC(=O)c1ccc(-c2c3nc(c(-c4ccccc4)c4ccc([nH]4)c(-c4ccccc4)c4nc(c(-c5ccccc5)c5ccc2[nH]5)C=C4)C=C3)cc1
REMARK SMILES IDX 22 1 21 2 19 3 20 4 5 6 4 7 2 8 1 9 3 10 6 11 7 12 8 13 9 15
REMARK SMILES IDX 10 16 11 18 12 19 13 20 14 21 18 22 15 23 17 24 16 25 23 26
REMARK SMILES IDX 24 27 25 28 26 29 27 30 28 32 29 33 30 34 76 35 31 36 75 37
REMARK SMILES IDX 32 38 33 39 34 40 69 41 35 42 74 43 68 44 70 45 36 46 73 47
REMARK SMILES IDX 67 48 66 49 37 51 59 52 44 53 58 54 45 55 48 56 57 57 71 58
REMARK SMILES IDX 46 59 47 60 56 62 72 63 49 64 38 65 39 66 43 67 40 68 42 69
REMARK SMILES IDX 41 70 60 71 61 72 65 73 62 74 64 75 63 76 50 77 51 78 55 79
REMARK SMILES IDX 52 80 54 81 53 82
REMARK H PARENT 21 5 7 14 10 17 26 31 70 50 48 61
REMARK Flexibility Score: inf
ROOT
ATOM      1  C   UNL     1      -3.425   2.231  -2.830  1.00  0.00     0.116 C 
ENDROOT
BRANCH   1   2
ATOM      2  N   UNL     1      -3.975   1.853  -1.547  1.00  0.00    -0.356 N 
ATOM      3  C   UNL     1      -3.363   1.547  -0.379  1.00  0.00     0.224 C 
ATOM      4  O   UNL     1      -4.094   1.195   0.554  1.00  0.00    -0.275 OA
ATOM      5  H   UNL     1      -4.958   1.813  -1.518  1.00  0.00     0.163 HD
BRANCH   3   6
ATOM      6  C   UNL     1      -1.853   1.580  -0.182  1.00  0.00     0.098 C 
BRANCH   6   7
ATOM      7  C   UNL     1      -1.066   2.854  -0.541  1.00  0.00     0.018 C 
BRANCH   7   8
ATOM      8  C   UNL     1      -1.764   4.228  -0.527  1.00  0.00    -0.017 C 
ATOM      9  C   UNL     1      -2.526   4.537   0.758  1.00  0.00     0.007 C 
ATOM     10  C   UNL     1      -0.707   5.316  -0.769  1.00  0.00     0.007 C 
ENDBRANCH   7   8
ENDBRANCH   6   7
BRANCH   6  11
ATOM     11  C   UNL     1      -1.184   0.270  -0.662  1.00  0.00     0.131 C 
BRANCH  11  12
ATOM     12  N   UNL     1      -1.160   0.044  -2.101  1.00  0.00    -0.337 N 
ATOM     13  C   UNL     1      -0.345   0.485  -3.074  1.00  0.00     0.315 C 
ATOM     14  H   UNL     1      -1.880  -0.546  -2.423  1.00  0.00     0.165 HD
ATOM     15  O   UNL     1      -0.782   0.598  -4.218  1.00  0.00    -0.249 OA
ATOM     16  N   UNL     1       0.920   0.856  -2.827  1.00  0.00    -0.335 N 
ATOM     17  H   UNL     1       1.208   1.709  -3.224  1.00  0.00     0.165 HD
BRANCH  16  18
ATOM     18  C   UNL     1       1.923   0.140  -2.036  1.00  0.00     0.083 C 
ATOM     19  C   UNL     1       2.550  -0.938  -2.927  1.00  0.00     0.031 C 
BRANCH  18  20
ATOM     20  C   UNL     1       2.914   1.174  -1.428  1.00  0.00     0.011 C 
ATOM     21  C   UNL     1       2.576   1.403   0.057  1.00  0.00     0.006 C 
ATOM     22  C   UNL     1       4.404   0.828  -1.579  1.00  0.00     0.006 C 
ATOM     23  C   UNL     1       3.475   2.449   0.705  1.00  0.00     0.000 C 
ATOM     24  C   UNL     1       5.302   1.877  -0.924  1.00  0.00     0.000 C 
ATOM     25  C   UNL     1       4.946   2.087   0.543  1.00  0.00     0.000 C 
ENDBRANCH  18  20
ENDBRANCH  16  18
ENDBRANCH  11  12
ENDBRANCH   6  11
ENDBRANCH   3   6
ENDBRANCH   1   2
BRANCH   1  26
ATOM     26  C   UNL     1      -3.836   1.248  -3.921  1.00  0.00     0.023 C 
BRANCH  26  27
ATOM     27  C   UNL     1      -5.313   1.290  -4.294  1.00  0.00     0.023 C 
BRANCH  27  28
ATOM     28  C   UNL     1      -5.839   2.671  -4.650  1.00  0.00     0.116 C 
BRANCH  28  29
ATOM     29  N   UNL     1      -5.051   3.353  -5.667  1.00  0.00    -0.352 N 
ATOM     30  C   UNL     1      -5.501   4.127  -6.713  1.00  0.00     0.251 C 
ATOM     31  H   UNL     1      -4.075   3.248  -5.598  1.00  0.00     0.163 HD
ATOM     32  O   UNL     1      -4.735   4.594  -7.539  1.00  0.00    -0.269 OA
BRANCH  30  33
ATOM     33  C   UNL     1      -6.956   4.333  -6.836  1.00  0.00     0.039 A 
ATOM     34  C   UNL     1      -7.592   3.935  -8.012  1.00  0.00     0.014 A 
ATOM     35  C   UNL     1      -7.687   4.793  -5.738  1.00  0.00     0.014 A 
ATOM     36  C   UNL     1      -8.985   3.923  -8.059  1.00  0.00     0.010 A 
ATOM     37  C   UNL     1      -9.071   4.696  -5.759  1.00  0.00     0.010 A 
ATOM     38  C   UNL     1      -9.732   4.260  -6.918  1.00  0.00    -0.014 A 
BRANCH  38  39
ATOM     39  C   UNL     1     -11.210   4.173  -6.912  1.00  0.00     0.031 A 
ATOM     40  C   UNL     1     -12.024   5.420  -6.707  1.00  0.00     0.074 A 
ATOM     41  C   UNL     1     -11.815   2.974  -7.008  1.00  0.00     0.049 A 
ATOM     42  N   UNL     1     -13.319   5.548  -6.579  1.00  0.00    -0.248 NA
ATOM     43  C   UNL     1     -11.278   6.685  -6.593  1.00  0.00     0.031 C 
ATOM     44  C   UNL     1     -11.134   1.684  -7.154  1.00  0.00     0.029 A 
ATOM     45  N   UNL     1     -13.147   2.645  -6.989  1.00  0.00    -0.354 N 
ATOM     46  C   UNL     1     -13.537   6.898  -6.335  1.00  0.00     0.074 A 
ATOM     47  C   UNL     1     -12.242   7.538  -6.285  1.00  0.00     0.031 C 
ATOM     48  C   UNL     1     -12.054   0.709  -7.245  1.00  0.00     0.029 A 
ATOM     49  C   UNL     1     -13.384   1.299  -7.129  1.00  0.00     0.049 A 
ATOM     50  H   UNL     1     -13.864   3.310  -6.885  1.00  0.00     0.167 HD
ATOM     51  C   UNL     1     -14.713   7.552  -6.189  1.00  0.00     0.031 A 
ATOM     52  C   UNL     1     -14.545   0.619  -7.161  1.00  0.00     0.031 A 
ATOM     53  C   UNL     1     -16.000   6.923  -6.279  1.00  0.00     0.049 A 
ATOM     54  C   UNL     1     -15.838   1.372  -7.033  1.00  0.00     0.074 A 
ATOM     55  C   UNL     1     -17.253   7.507  -6.219  1.00  0.00     0.029 A 
ATOM     56  N   UNL     1     -16.198   5.563  -6.459  1.00  0.00    -0.354 N 
ATOM     57  N   UNL     1     -16.032   2.659  -6.868  1.00  0.00    -0.248 NA
ATOM     58  C   UNL     1     -17.075   0.580  -7.107  1.00  0.00     0.031 C 
ATOM     59  C   UNL     1     -18.211   6.494  -6.332  1.00  0.00     0.029 A 
ATOM     60  C   UNL     1     -17.553   5.286  -6.502  1.00  0.00     0.049 A 
ATOM     61  H   UNL     1     -15.481   4.893  -6.544  1.00  0.00     0.167 HD
ATOM     62  C   UNL     1     -17.408   2.834  -6.843  1.00  0.00     0.074 A 
ATOM     63  C   UNL     1     -18.002   1.524  -7.023  1.00  0.00     0.031 C 
ATOM     64  C   UNL     1     -18.119   3.977  -6.686  1.00  0.00     0.031 A 
BRANCH  51  65
ATOM     65  C   UNL     1     -14.646   9.028  -5.920  1.00  0.00    -0.014 A 
ATOM     66  C   UNL     1     -14.248   9.930  -6.919  1.00  0.00     0.009 A 
ATOM     67  C   UNL     1     -14.991   9.523  -4.653  1.00  0.00     0.009 A 
ATOM     68  C   UNL     1     -14.156  11.296  -6.643  1.00  0.00     0.001 A 
ATOM     69  C   UNL     1     -14.925  10.891  -4.388  1.00  0.00     0.001 A 
ATOM     70  C   UNL     1     -14.498  11.775  -5.379  1.00  0.00     0.000 A 
ENDBRANCH  51  65
BRANCH  52  71
ATOM     71  C   UNL     1     -14.542  -0.853  -7.357  1.00  0.00    -0.014 A 
ATOM     72  C   UNL     1     -14.938  -1.402  -8.587  1.00  0.00     0.009 A 
ATOM     73  C   UNL     1     -14.151  -1.715  -6.322  1.00  0.00     0.009 A 
ATOM     74  C   UNL     1     -14.966  -2.787  -8.768  1.00  0.00     0.001 A 
ATOM     75  C   UNL     1     -14.159  -3.099  -6.513  1.00  0.00     0.001 A 
ATOM     76  C   UNL     1     -14.573  -3.634  -7.732  1.00  0.00     0.000 A 
ENDBRANCH  52  71
BRANCH  64  77
ATOM     77  C   UNL     1     -19.614   3.864  -6.736  1.00  0.00    -0.014 A 
ATOM     78  C   UNL     1     -20.338   3.341  -5.654  1.00  0.00     0.009 A 
ATOM     79  C   UNL     1     -20.308   4.331  -7.863  1.00  0.00     0.009 A 
ATOM     80  C   UNL     1     -21.730   3.263  -5.713  1.00  0.00     0.001 A 
ATOM     81  C   UNL     1     -21.701   4.274  -7.908  1.00  0.00     0.001 A 
ATOM     82  C   UNL     1     -22.410   3.733  -6.836  1.00  0.00     0.000 A 
ENDBRANCH  64  77
ENDBRANCH  38  39
ENDBRANCH  30  33
ENDBRANCH  28  29
ENDBRANCH  27  28
ENDBRANCH  26  27
ENDBRANCH   1  26
TORSDOF 17
