REMARK SMILES CC1(C)S[C@H]2[C@H](NC(=O)[C@H](NN3CCNC3=O)c3ccccc3)C(=O)N2[C@H]1C(=O)NCCCCNC(=O)c1ccc(-c2c3nc(c(-c4ccccc4)c4ccc([nH]4)c(-c4ccccc4)c4nc(c(-c5ccccc5)c5ccc2[nH]5)C=C4)C=C3)cc1
REMARK SMILES IDX 31 1 30 2 28 3 29 4 27 6 1 7 2 8 3 9 4 10 5 11 26 12 6 13
REMARK SMILES IDX 24 14 25 15 7 16 8 17 9 19 10 20 18 21 19 22 23 23 20 24
REMARK SMILES IDX 22 25 21 26 11 27 12 29 13 30 16 31 14 32 15 33 17 34 32 36
REMARK SMILES IDX 33 37 34 38 35 39 36 40 37 42 38 43 39 44 85 45 40 46 84 47
REMARK SMILES IDX 41 48 42 49 43 50 78 51 44 52 83 53 77 54 79 55 45 56 82 57
REMARK SMILES IDX 76 58 75 59 46 61 68 62 53 63 67 64 54 65 57 66 66 67 80 68
REMARK SMILES IDX 55 69 56 70 65 72 81 73 58 74 47 75 48 76 52 77 49 78 51 79
REMARK SMILES IDX 50 80 69 81 70 82 74 83 71 84 73 85 72 86 59 87 60 88 64 89
REMARK SMILES IDX 61 90 63 91 62 92
REMARK H PARENT 30 5 7 18 11 28 15 35 35 41 79 60 57 71
REMARK Flexibility Score: inf
ROOT
ATOM      1  C   UNL     1      -2.917  -5.801  -0.790  1.00  0.00     0.116 C 
ENDROOT
BRANCH   1   2
ATOM      2  N   UNL     1      -2.256  -5.675   0.494  1.00  0.00    -0.354 N 
ATOM      3  C   UNL     1      -1.361  -4.803   1.012  1.00  0.00     0.244 C 
ATOM      4  O   UNL     1      -1.142  -4.971   2.223  1.00  0.00    -0.273 OA
ATOM      5  H   UNL     1      -2.517  -6.380   1.130  1.00  0.00     0.163 HD
BRANCH   3   6
ATOM      6  C   UNL     1      -0.443  -3.829   0.229  1.00  0.00     0.191 C 
ATOM      7  C   UNL     1       1.772  -4.917   0.904  1.00  0.00     0.026 C 
ATOM      8  C   UNL     1       0.871  -4.481  -0.259  1.00  0.00     0.042 C 
ATOM      9  C   UNL     1       0.700  -5.656  -1.221  1.00  0.00     0.026 C 
ATOM     10  S   UNL     1       1.732  -3.131  -1.200  1.00  0.00    -0.125 SA
ATOM     11  C   UNL     1       0.192  -2.200  -1.573  1.00  0.00     0.176 C 
ATOM     12  N   UNL     1      -0.867  -2.845  -0.765  1.00  0.00    -0.313 N 
ATOM     13  C   UNL     1      -0.564  -2.669  -2.850  1.00  0.00     0.205 C 
ATOM     14  C   UNL     1      -1.715  -2.961  -1.808  1.00  0.00     0.249 C 
ATOM     15  O   UNL     1      -2.911  -3.138  -1.806  1.00  0.00    -0.272 OA
BRANCH  13  16
ATOM     16  N   UNL     1      -0.964  -1.675  -3.873  1.00  0.00    -0.340 N 
ATOM     17  C   UNL     1      -0.862  -1.748  -5.237  1.00  0.00     0.244 C 
ATOM     18  H   UNL     1      -1.360  -0.845  -3.523  1.00  0.00     0.164 HD
ATOM     19  O   UNL     1      -1.607  -0.986  -5.870  1.00  0.00    -0.273 OA
BRANCH  17  20
ATOM     20  C   UNL     1       0.113  -2.683  -6.012  1.00  0.00     0.194 C 
BRANCH  20  21
ATOM     21  C   UNL     1       1.563  -2.743  -5.542  1.00  0.00    -0.020 A 
ATOM     22  C   UNL     1       2.433  -3.729  -6.038  1.00  0.00     0.006 A 
ATOM     23  C   UNL     1       2.115  -1.772  -4.697  1.00  0.00     0.006 A 
ATOM     24  C   UNL     1       3.724  -3.884  -5.531  1.00  0.00     0.000 A 
ATOM     25  C   UNL     1       3.422  -1.896  -4.219  1.00  0.00     0.000 A 
ATOM     26  C   UNL     1       4.209  -2.978  -4.598  1.00  0.00     0.000 A 
ENDBRANCH  20  21
BRANCH  20  27
ATOM     27  N   UNL     1      -0.531  -3.974  -6.410  1.00  0.00    -0.213 NA
ATOM     28  H   UNL     1      -0.073  -4.295  -7.264  1.00  0.00     0.149 HD
BRANCH  27  29
ATOM     29  N   UNL     1      -0.483  -5.027  -5.484  1.00  0.00    -0.257 N 
ATOM     30  C   UNL     1       0.430  -6.148  -5.570  1.00  0.00     0.163 C 
ATOM     31  C   UNL     1      -1.504  -5.295  -4.580  1.00  0.00     0.331 C 
ATOM     32  C   UNL     1      -0.163  -7.193  -4.637  1.00  0.00     0.141 C 
ATOM     33  N   UNL     1      -1.228  -6.503  -3.977  1.00  0.00    -0.335 N 
ATOM     34  O   UNL     1      -2.480  -4.613  -4.322  1.00  0.00    -0.247 OA
ATOM     35  H   UNL     1      -1.706  -6.849  -3.189  1.00  0.00     0.165 HD
ENDBRANCH  27  29
ENDBRANCH  20  27
ENDBRANCH  17  20
ENDBRANCH  13  16
ENDBRANCH   3   6
ENDBRANCH   1   2
BRANCH   1  36
ATOM     36  C   UNL     1      -3.244  -7.264  -1.111  1.00  0.00     0.023 C 
BRANCH  36  37
ATOM     37  C   UNL     1      -4.596  -7.528  -1.782  1.00  0.00     0.023 C 
BRANCH  37  38
ATOM     38  C   UNL     1      -5.174  -6.473  -2.724  1.00  0.00     0.116 C 
BRANCH  38  39
ATOM     39  N   UNL     1      -4.643  -6.476  -4.082  1.00  0.00    -0.352 N 
ATOM     40  C   UNL     1      -5.145  -6.968  -5.270  1.00  0.00     0.251 C 
ATOM     41  H   UNL     1      -3.762  -6.045  -4.168  1.00  0.00     0.163 HD
ATOM     42  O   UNL     1      -4.480  -6.916  -6.301  1.00  0.00    -0.269 OA
BRANCH  40  43
ATOM     43  C   UNL     1      -6.473  -7.621  -5.298  1.00  0.00     0.039 A 
ATOM     44  C   UNL     1      -6.644  -8.825  -5.986  1.00  0.00     0.014 A 
ATOM     45  C   UNL     1      -7.535  -7.084  -4.581  1.00  0.00     0.014 A 
ATOM     46  C   UNL     1      -7.814  -9.568  -5.793  1.00  0.00     0.010 A 
ATOM     47  C   UNL     1      -8.610  -7.896  -4.252  1.00  0.00     0.010 A 
ATOM     48  C   UNL     1      -8.761  -9.159  -4.840  1.00  0.00    -0.014 A 
BRANCH  48  49
ATOM     49  C   UNL     1      -9.891 -10.030  -4.410  1.00  0.00     0.031 A 
ATOM     50  C   UNL     1     -11.303  -9.498  -4.407  1.00  0.00     0.074 A 
ATOM     51  C   UNL     1      -9.639 -11.253  -3.894  1.00  0.00     0.049 A 
ATOM     52  N   UNL     1     -12.390 -10.039  -3.917  1.00  0.00    -0.248 NA
ATOM     53  C   UNL     1     -11.510  -8.153  -4.971  1.00  0.00     0.031 C 
ATOM     54  C   UNL     1      -8.315 -11.865  -3.744  1.00  0.00     0.029 A 
ATOM     55  N   UNL     1     -10.493 -12.203  -3.386  1.00  0.00    -0.354 N 
ATOM     56  C   UNL     1     -13.385  -9.079  -4.060  1.00  0.00     0.074 A 
ATOM     57  C   UNL     1     -12.761  -7.901  -4.618  1.00  0.00     0.031 C 
ATOM     58  C   UNL     1      -8.450 -13.100  -3.236  1.00  0.00     0.029 A 
ATOM     59  C   UNL     1      -9.861 -13.352  -2.973  1.00  0.00     0.049 A 
ATOM     60  H   UNL     1     -11.467 -12.072  -3.324  1.00  0.00     0.167 HD
ATOM     61  C   UNL     1     -14.708  -9.174  -3.786  1.00  0.00     0.031 A 
ATOM     62  C   UNL     1     -10.359 -14.485  -2.441  1.00  0.00     0.031 A 
ATOM     63  C   UNL     1     -15.344 -10.368  -3.304  1.00  0.00     0.049 A 
ATOM     64  C   UNL     1     -11.841 -14.597  -2.218  1.00  0.00     0.074 A 
ATOM     65  C   UNL     1     -16.692 -10.605  -3.100  1.00  0.00     0.029 A 
ATOM     66  N   UNL     1     -14.674 -11.533  -2.967  1.00  0.00    -0.354 N 
ATOM     67  N   UNL     1     -12.779 -13.708  -2.442  1.00  0.00    -0.248 NA
ATOM     68  C   UNL     1     -12.335 -15.873  -1.682  1.00  0.00     0.031 C 
ATOM     69  C   UNL     1     -16.834 -11.905  -2.605  1.00  0.00     0.029 A 
ATOM     70  C   UNL     1     -15.579 -12.490  -2.545  1.00  0.00     0.049 A 
ATOM     71  H   UNL     1     -13.699 -11.660  -3.020  1.00  0.00     0.167 HD
ATOM     72  C   UNL     1     -13.974 -14.326  -2.099  1.00  0.00     0.074 A 
ATOM     73  C   UNL     1     -13.645 -15.670  -1.671  1.00  0.00     0.031 C 
ATOM     74  C   UNL     1     -15.232 -13.824  -2.132  1.00  0.00     0.031 A 
BRANCH  61  75
ATOM     75  C   UNL     1     -15.555  -7.953  -4.025  1.00  0.00    -0.014 A 
ATOM     76  C   UNL     1     -15.796  -7.475  -5.324  1.00  0.00     0.009 A 
ATOM     77  C   UNL     1     -16.134  -7.280  -2.938  1.00  0.00     0.009 A 
ATOM     78  C   UNL     1     -16.555  -6.321  -5.525  1.00  0.00     0.001 A 
ATOM     79  C   UNL     1     -16.922  -6.146  -3.145  1.00  0.00     0.001 A 
ATOM     80  C   UNL     1     -17.120  -5.660  -4.436  1.00  0.00     0.000 A 
ENDBRANCH  61  75
BRANCH  62  81
ATOM     81  C   UNL     1      -9.457 -15.622  -2.114  1.00  0.00    -0.014 A 
ATOM     82  C   UNL     1      -9.485 -16.791  -2.890  1.00  0.00     0.009 A 
ATOM     83  C   UNL     1      -8.576 -15.554  -1.024  1.00  0.00     0.009 A 
ATOM     84  C   UNL     1      -8.673 -17.880  -2.564  1.00  0.00     0.001 A 
ATOM     85  C   UNL     1      -7.744 -16.634  -0.717  1.00  0.00     0.001 A 
ATOM     86  C   UNL     1      -7.801 -17.800  -1.480  1.00  0.00     0.000 A 
ENDBRANCH  62  81
BRANCH  74  87
ATOM     87  C   UNL     1     -16.349 -14.744  -1.731  1.00  0.00    -0.014 A 
ATOM     88  C   UNL     1     -16.555 -15.094  -0.388  1.00  0.00     0.009 A 
ATOM     89  C   UNL     1     -17.234 -15.226  -2.707  1.00  0.00     0.009 A 
ATOM     90  C   UNL     1     -17.612 -15.934  -0.035  1.00  0.00     0.001 A 
ATOM     91  C   UNL     1     -18.306 -16.042  -2.347  1.00  0.00     0.001 A 
ATOM     92  C   UNL     1     -18.489 -16.403  -1.013  1.00  0.00     0.000 A 
ENDBRANCH  74  87
ENDBRANCH  48  49
ENDBRANCH  40  43
ENDBRANCH  38  39
ENDBRANCH  37  38
ENDBRANCH  36  37
ENDBRANCH   1  36
TORSDOF 16
