REMARK SMILES Cc1ccc([N+](=O)[O-])c(NCc2ccc(C(=O)NCCCCNC(=O)c3ccc(-c4c5nc(c(-c6ccccc6)c6ccc([nH]6)c(-c6ccccc6)c6nc(c(-c7ccccc7)c7ccc4[nH]7)C=C6)C=C5)cc3)cc2)c1
REMARK SMILES IDX 19 1 18 2 16 3 17 4 15 6 12 7 13 8 75 9 14 10 74 11 11 12
REMARK SMILES IDX 10 13 9 15 1 16 2 17 3 18 76 19 4 20 5 21 6 22 7 23 8 24
REMARK SMILES IDX 20 25 21 26 22 27 23 28 24 29 25 31 26 32 27 33 73 34 28 35
REMARK SMILES IDX 72 36 29 37 30 38 31 39 66 40 32 41 71 42 65 43 67 44 33 45
REMARK SMILES IDX 70 46 64 47 63 48 34 50 56 51 41 52 55 53 42 54 45 55 54 56
REMARK SMILES IDX 68 57 43 58 44 59 53 61 69 62 46 63 35 64 36 65 40 66 37 67
REMARK SMILES IDX 39 68 38 69 57 70 58 71 62 72 59 73 61 74 60 75 47 76 48 77
REMARK SMILES IDX 52 78 49 79 51 80 50 81
REMARK H PARENT 18 5 10 14 23 30 67 49 45 60
REMARK Flexibility Score: inf
ROOT
ATOM      1  C   UNL     1      -2.803   9.238   0.104  1.00  0.00     0.116 C 
ENDROOT
BRANCH   1   2
ATOM      2  N   UNL     1      -4.230   9.027  -0.051  1.00  0.00    -0.352 N 
ATOM      3  C   UNL     1      -5.024   7.908  -0.076  1.00  0.00     0.251 C 
ATOM      4  O   UNL     1      -6.241   8.105  -0.132  1.00  0.00    -0.269 OA
ATOM      5  H   UNL     1      -4.736   9.864  -0.162  1.00  0.00     0.163 HD
BRANCH   3   6
ATOM      6  C   UNL     1      -4.526   6.497  -0.038  1.00  0.00     0.039 A 
ATOM      7  C   UNL     1      -3.798   3.736  -0.028  1.00  0.00    -0.029 A 
ATOM      8  C   UNL     1      -5.120   4.135   0.210  1.00  0.00     0.006 A 
ATOM      9  C   UNL     1      -2.860   4.737  -0.306  1.00  0.00     0.006 A 
ATOM     10  C   UNL     1      -5.476   5.491   0.205  1.00  0.00     0.014 A 
ATOM     11  C   UNL     1      -3.217   6.093  -0.296  1.00  0.00     0.014 A 
BRANCH   7  12
ATOM     12  C   UNL     1      -3.467   2.253  -0.091  1.00  0.00     0.149 C 
BRANCH  12  13
ATOM     13  N   UNL     1      -2.067   1.986   0.199  1.00  0.00    -0.375 N 
ATOM     14  H   UNL     1      -1.544   2.760   0.511  1.00  0.00     0.161 HD
BRANCH  13  15
ATOM     15  C   UNL     1      -1.368   0.797   0.097  1.00  0.00     0.114 A 
ATOM     16  C   UNL     1       2.406   0.037  -0.016  1.00  0.00     0.044 C 
ATOM     17  C   UNL     1       0.919  -0.167  -0.016  1.00  0.00    -0.049 A 
ATOM     18  C   UNL     1       0.393  -1.455  -0.091  1.00  0.00     0.010 A 
ATOM     19  C   UNL     1       0.041   0.928   0.073  1.00  0.00     0.036 A 
ATOM     20  C   UNL     1      -0.987  -1.633  -0.105  1.00  0.00     0.088 A 
ATOM     21  C   UNL     1      -1.846  -0.517  -0.032  1.00  0.00     0.292 A 
BRANCH  21  22
ATOM     22  N   UNL     1      -3.257  -0.841  -0.010  1.00  0.00     0.064 N 
ATOM     23  O   UNL     1      -3.673  -1.482   0.967  1.00  0.00    -0.258 OA
ATOM     24  O   UNL     1      -3.936  -0.523  -0.996  1.00  0.00    -0.258 OA
ENDBRANCH  21  22
ENDBRANCH  13  15
ENDBRANCH  12  13
ENDBRANCH   7  12
ENDBRANCH   3   6
ENDBRANCH   1   2
BRANCH   1  25
ATOM     25  C   UNL     1      -2.065   9.294  -1.244  1.00  0.00     0.023 C 
BRANCH  25  26
ATOM     26  C   UNL     1      -2.360  10.534  -2.095  1.00  0.00     0.023 C 
BRANCH  26  27
ATOM     27  C   UNL     1      -1.762  11.816  -1.536  1.00  0.00     0.116 C 
BRANCH  27  28
ATOM     28  N   UNL     1      -0.374  12.062  -1.903  1.00  0.00    -0.352 N 
ATOM     29  C   UNL     1       0.539  12.965  -1.372  1.00  0.00     0.251 C 
ATOM     30  H   UNL     1      -0.030  11.504  -2.638  1.00  0.00     0.163 HD
ATOM     31  O   UNL     1       1.635  13.093  -1.883  1.00  0.00    -0.269 OA
BRANCH  29  32
ATOM     32  C   UNL     1       0.232  13.654  -0.087  1.00  0.00     0.039 A 
ATOM     33  C   UNL     1       1.245  13.684   0.879  1.00  0.00     0.014 A 
ATOM     34  C   UNL     1      -1.067  14.013   0.257  1.00  0.00     0.014 A 
ATOM     35  C   UNL     1       0.898  13.769   2.224  1.00  0.00     0.010 A 
ATOM     36  C   UNL     1      -1.428  13.979   1.590  1.00  0.00     0.010 A 
ATOM     37  C   UNL     1      -0.452  13.768   2.567  1.00  0.00    -0.014 A 
BRANCH  37  38
ATOM     38  C   UNL     1      -0.933  13.386   3.889  1.00  0.00     0.031 A 
ATOM     39  C   UNL     1      -1.526  14.390   4.792  1.00  0.00     0.074 A 
ATOM     40  C   UNL     1      -0.862  12.092   4.274  1.00  0.00     0.049 A 
ATOM     41  N   UNL     1      -1.604  14.251   6.072  1.00  0.00    -0.248 NA
ATOM     42  C   UNL     1      -1.998  15.691   4.326  1.00  0.00     0.031 C 
ATOM     43  C   UNL     1      -1.506  11.459   5.421  1.00  0.00     0.029 A 
ATOM     44  N   UNL     1       0.012  11.120   3.800  1.00  0.00    -0.354 N 
ATOM     45  C   UNL     1      -2.382  15.275   6.553  1.00  0.00     0.074 A 
ATOM     46  C   UNL     1      -2.490  16.206   5.457  1.00  0.00     0.031 C 
ATOM     47  C   UNL     1      -0.861  10.316   5.709  1.00  0.00     0.029 A 
ATOM     48  C   UNL     1       0.312  10.246   4.853  1.00  0.00     0.049 A 
ATOM     49  H   UNL     1       0.360  11.056   2.882  1.00  0.00     0.167 HD
ATOM     50  C   UNL     1      -2.960  15.145   7.779  1.00  0.00     0.031 A 
ATOM     51  C   UNL     1       1.594  10.119   5.308  1.00  0.00     0.031 A 
ATOM     52  C   UNL     1      -2.413  14.001   8.511  1.00  0.00     0.049 A 
ATOM     53  C   UNL     1       1.785  10.595   6.735  1.00  0.00     0.074 A 
ATOM     54  C   UNL     1      -2.892  12.734   8.797  1.00  0.00     0.029 A 
ATOM     55  N   UNL     1      -1.056  13.988   8.821  1.00  0.00    -0.354 N 
ATOM     56  N   UNL     1       0.917  11.318   7.389  1.00  0.00    -0.248 NA
ATOM     57  C   UNL     1       2.990  10.333   7.519  1.00  0.00     0.031 C 
ATOM     58  C   UNL     1      -1.785  11.927   9.180  1.00  0.00     0.029 A 
ATOM     59  C   UNL     1      -0.648  12.715   9.172  1.00  0.00     0.049 A 
ATOM     60  H   UNL     1      -0.468  14.777   8.794  1.00  0.00     0.167 HD
ATOM     61  C   UNL     1       1.425  11.646   8.618  1.00  0.00     0.074 A 
ATOM     62  C   UNL     1       2.716  10.985   8.663  1.00  0.00     0.031 C 
ATOM     63  C   UNL     1       0.753  12.456   9.487  1.00  0.00     0.031 A 
BRANCH  50  64
ATOM     64  C   UNL     1      -4.189  15.910   8.229  1.00  0.00    -0.014 A 
ATOM     65  C   UNL     1      -4.859  15.514   9.403  1.00  0.00     0.009 A 
ATOM     66  C   UNL     1      -4.807  16.945   7.503  1.00  0.00     0.009 A 
ATOM     67  C   UNL     1      -6.079  16.087   9.797  1.00  0.00     0.001 A 
ATOM     68  C   UNL     1      -6.018  17.532   7.895  1.00  0.00     0.001 A 
ATOM     69  C   UNL     1      -6.662  17.094   9.039  1.00  0.00     0.000 A 
ENDBRANCH  50  64
BRANCH  51  70
ATOM     70  C   UNL     1       2.621  10.227   4.234  1.00  0.00    -0.014 A 
ATOM     71  C   UNL     1       2.684   9.200   3.270  1.00  0.00     0.009 A 
ATOM     72  C   UNL     1       3.250  11.447   3.952  1.00  0.00     0.009 A 
ATOM     73  C   UNL     1       3.255   9.429   2.014  1.00  0.00     0.001 A 
ATOM     74  C   UNL     1       3.829  11.669   2.695  1.00  0.00     0.001 A 
ATOM     75  C   UNL     1       3.799  10.675   1.717  1.00  0.00     0.000 A 
ENDBRANCH  51  70
BRANCH  63  76
ATOM     76  C   UNL     1       1.329  13.055  10.747  1.00  0.00    -0.014 A 
ATOM     77  C   UNL     1       2.695  13.290  10.955  1.00  0.00     0.009 A 
ATOM     78  C   UNL     1       0.444  13.543  11.735  1.00  0.00     0.009 A 
ATOM     79  C   UNL     1       3.157  13.934  12.112  1.00  0.00     0.001 A 
ATOM     80  C   UNL     1       0.897  14.227  12.866  1.00  0.00     0.001 A 
ATOM     81  C   UNL     1       2.258  14.411  13.061  1.00  0.00     0.000 A 
ENDBRANCH  63  76
ENDBRANCH  37  38
ENDBRANCH  29  32
ENDBRANCH  27  28
ENDBRANCH  26  27
ENDBRANCH  25  26
ENDBRANCH   1  25
TORSDOF 15
