REMARK SMILES CC(C)(C)OC(=O)[C@H]1CC[C@]1([NH3+])C(=O)NCCCCNC(=O)c1ccc(-c2c3nc(c(-c4ccccc4)c4ccc([nH]4)c(-c4ccccc4)c4nc(c(-c5ccccc5)c5ccc2[nH]5)C=C4)C=C3)cc1
REMARK SMILES IDX 17 1 16 2 15 3 13 4 14 5 11 7 8 8 9 9 10 10 6 11 7 12 5 13
REMARK SMILES IDX 2 14 1 15 3 16 4 17 12 18 18 22 19 23 20 24 21 25 22 27
REMARK SMILES IDX 23 28 24 29 70 30 25 31 69 32 26 33 27 34 28 35 63 36 29 37
REMARK SMILES IDX 68 38 62 39 64 40 30 41 67 42 61 43 60 44 31 46 53 47 38 48
REMARK SMILES IDX 52 49 39 50 42 51 51 52 65 53 40 54 41 55 50 57 66 58 43 59
REMARK SMILES IDX 32 60 33 61 37 62 34 63 36 64 35 65 54 66 55 67 59 68 56 69
REMARK SMILES IDX 58 70 57 71 44 72 45 73 49 74 46 75 48 76 47 77
REMARK H PARENT 15 6 12 19 12 20 12 21 20 26 64 45 42 56
REMARK Flexibility Score: inf
ROOT
ATOM      1  C   UNL     1       2.406  -1.457   1.542  1.00  0.00     0.023 C 
ENDROOT
BRANCH   1   2
ATOM      2  C   UNL     1       3.319  -2.662   1.333  1.00  0.00     0.116 C 
BRANCH   2   3
ATOM      3  N   UNL     1       3.082  -3.703   2.315  1.00  0.00    -0.351 N 
ATOM      4  C   UNL     1       2.704  -5.011   2.103  1.00  0.00     0.282 C 
ATOM      5  O   UNL     1       2.587  -5.723   3.107  1.00  0.00    -0.268 OA
ATOM      6  H   UNL     1       3.207  -3.441   3.256  1.00  0.00     0.163 HD
BRANCH   4   7
ATOM      7  C   UNL     1       2.454  -5.499   0.620  1.00  0.00     0.187 C 
ATOM      8  C   UNL     1       1.182  -4.946  -0.097  1.00  0.00     0.170 C 
ATOM      9  C   UNL     1       0.475  -6.270   0.307  1.00  0.00     0.029 C 
ATOM     10  C   UNL     1       1.862  -6.925   0.421  1.00  0.00     0.081 C 
BRANCH   8  11
ATOM     11  C   UNL     1       1.221  -4.613  -1.606  1.00  0.00     0.316 C 
ATOM     12  O   UNL     1       1.433  -5.431  -2.499  1.00  0.00    -0.252 OA
BRANCH  11  13
ATOM     13  O   UNL     1       0.967  -3.288  -1.831  1.00  0.00    -0.460 OA
BRANCH  13  14
ATOM     14  C   UNL     1       0.891  -2.762  -3.182  1.00  0.00     0.104 C 
ATOM     15  C   UNL     1       0.629  -1.258  -3.010  1.00  0.00     0.056 C 
ATOM     16  C   UNL     1      -0.291  -3.378  -3.940  1.00  0.00     0.056 C 
ATOM     17  C   UNL     1       2.215  -2.937  -3.935  1.00  0.00     0.056 C 
ENDBRANCH  13  14
ENDBRANCH  11  13
ENDBRANCH   8  11
BRANCH   7  18
ATOM     18  N   UNL     1       3.655  -5.410  -0.242  1.00  0.00    -0.344 N 
ATOM     19  H   UNL     1       3.426  -5.739  -1.180  1.00  0.00     0.345 HD
ATOM     20  H   UNL     1       4.397  -5.990   0.149  1.00  0.00     0.345 HD
ATOM     21  H   UNL     1       3.970  -4.441  -0.288  1.00  0.00     0.345 HD
ENDBRANCH   7  18
ENDBRANCH   4   7
ENDBRANCH   2   3
ENDBRANCH   1   2
BRANCH   1  22
ATOM     22  C   UNL     1       2.563  -0.752   2.889  1.00  0.00     0.023 C 
BRANCH  22  23
ATOM     23  C   UNL     1       3.985  -0.335   3.245  1.00  0.00     0.116 C 
BRANCH  23  24
ATOM     24  N   UNL     1       4.563   0.588   2.282  1.00  0.00    -0.352 N 
ATOM     25  C   UNL     1       5.190   1.791   2.494  1.00  0.00     0.251 C 
ATOM     26  H   UNL     1       4.495   0.310   1.340  1.00  0.00     0.163 HD
ATOM     27  O   UNL     1       5.489   2.504   1.538  1.00  0.00    -0.269 OA
BRANCH  25  28
ATOM     28  C   UNL     1       5.480   2.248   3.870  1.00  0.00     0.039 A 
ATOM     29  C   UNL     1       5.226   3.581   4.203  1.00  0.00     0.014 A 
ATOM     30  C   UNL     1       6.001   1.376   4.830  1.00  0.00     0.014 A 
ATOM     31  C   UNL     1       5.437   4.022   5.511  1.00  0.00     0.010 A 
ATOM     32  C   UNL     1       6.131   1.794   6.152  1.00  0.00     0.010 A 
ATOM     33  C   UNL     1       5.859   3.124   6.505  1.00  0.00    -0.014 A 
BRANCH  33  34
ATOM     34  C   UNL     1       6.024   3.568   7.913  1.00  0.00     0.031 A 
ATOM     35  C   UNL     1       7.378   3.536   8.570  1.00  0.00     0.074 A 
ATOM     36  C   UNL     1       4.946   3.967   8.617  1.00  0.00     0.049 A 
ATOM     37  N   UNL     1       7.713   3.884   9.788  1.00  0.00    -0.248 NA
ATOM     38  C   UNL     1       8.498   3.024   7.764  1.00  0.00     0.031 C 
ATOM     39  C   UNL     1       3.570   4.002   8.116  1.00  0.00     0.029 A 
ATOM     40  N   UNL     1       4.840   4.423   9.908  1.00  0.00    -0.354 N 
ATOM     41  C   UNL     1       9.074   3.623   9.894  1.00  0.00     0.074 A 
ATOM     42  C   UNL     1       9.490   3.033   8.641  1.00  0.00     0.031 C 
ATOM     43  C   UNL     1       2.766   4.492   9.073  1.00  0.00     0.029 A 
ATOM     44  C   UNL     1       3.559   4.768  10.266  1.00  0.00     0.049 A 
ATOM     45  H   UNL     1       5.609   4.497  10.518  1.00  0.00     0.167 HD
ATOM     46  C   UNL     1       9.909   3.871  10.931  1.00  0.00     0.031 A 
ATOM     47  C   UNL     1       3.077   5.255  11.425  1.00  0.00     0.031 A 
ATOM     48  C   UNL     1       9.499   4.461  12.178  1.00  0.00     0.049 A 
ATOM     49  C   UNL     1       4.023   5.513  12.564  1.00  0.00     0.074 A 
ATOM     50  C   UNL     1      10.280   4.800  13.270  1.00  0.00     0.029 A 
ATOM     51  N   UNL     1       8.193   4.795  12.502  1.00  0.00    -0.354 N 
ATOM     52  N   UNL     1       5.320   5.330  12.621  1.00  0.00    -0.248 NA
ATOM     53  C   UNL     1       3.437   6.063  13.795  1.00  0.00     0.031 C 
ATOM     54  C   UNL     1       9.438   5.287  14.275  1.00  0.00     0.029 A 
ATOM     55  C   UNL     1       8.142   5.314  13.785  1.00  0.00     0.049 A 
ATOM     56  H   UNL     1       7.417   4.681  11.907  1.00  0.00     0.167 HD
ATOM     57  C   UNL     1       5.709   5.771  13.880  1.00  0.00     0.074 A 
ATOM     58  C   UNL     1       4.513   6.249  14.544  1.00  0.00     0.031 C 
ATOM     59  C   UNL     1       6.945   5.780  14.437  1.00  0.00     0.031 A 
BRANCH  46  60
ATOM     60  C   UNL     1      11.356   3.495  10.759  1.00  0.00    -0.014 A 
ATOM     61  C   UNL     1      12.187   4.185   9.860  1.00  0.00     0.009 A 
ATOM     62  C   UNL     1      11.905   2.456  11.527  1.00  0.00     0.009 A 
ATOM     63  C   UNL     1      13.525   3.815   9.705  1.00  0.00     0.001 A 
ATOM     64  C   UNL     1      13.252   2.111  11.393  1.00  0.00     0.001 A 
ATOM     65  C   UNL     1      14.057   2.783  10.475  1.00  0.00     0.000 A 
ENDBRANCH  46  60
BRANCH  47  66
ATOM     66  C   UNL     1       1.627   5.556  11.562  1.00  0.00    -0.014 A 
ATOM     67  C   UNL     1       1.180   6.883  11.665  1.00  0.00     0.009 A 
ATOM     68  C   UNL     1       0.683   4.519  11.608  1.00  0.00     0.009 A 
ATOM     69  C   UNL     1      -0.177   7.162  11.843  1.00  0.00     0.001 A 
ATOM     70  C   UNL     1      -0.676   4.802  11.754  1.00  0.00     0.001 A 
ATOM     71  C   UNL     1      -1.104   6.123  11.883  1.00  0.00     0.000 A 
ENDBRANCH  47  66
BRANCH  59  72
ATOM     72  C   UNL     1       7.069   6.362  15.818  1.00  0.00    -0.014 A 
ATOM     73  C   UNL     1       6.534   5.710  16.941  1.00  0.00     0.009 A 
ATOM     74  C   UNL     1       7.748   7.578  15.999  1.00  0.00     0.009 A 
ATOM     75  C   UNL     1       6.634   6.288  18.208  1.00  0.00     0.001 A 
ATOM     76  C   UNL     1       7.877   8.136  17.272  1.00  0.00     0.001 A 
ATOM     77  C   UNL     1       7.308   7.498  18.373  1.00  0.00     0.000 A 
ENDBRANCH  59  72
ENDBRANCH  33  34
ENDBRANCH  25  28
ENDBRANCH  23  24
ENDBRANCH  22  23
ENDBRANCH   1  22
TORSDOF 15
