REMARK SMILES Cc1noc2c1-c1c(c(C(=O)NCCCCNC(=O)c3ccc(-c4c5nc(c(-c6ccccc6)c6ccc([nH]6)c(-c6ccccc6)c6nc(c(-c7ccccc7)c7ccc4[nH]7)C=C6)C=C5)cc3)nn1C)CC2
REMARK SMILES IDX 15 1 14 2 13 3 12 4 10 5 11 6 9 8 1 9 2 10 3 11 6 12 4 13
REMARK SMILES IDX 5 14 7 15 72 16 8 17 69 18 71 19 68 20 70 21 16 22 17 23
REMARK SMILES IDX 18 24 19 26 20 27 21 28 67 29 22 30 66 31 23 32 24 33 25 34
REMARK SMILES IDX 60 35 26 36 65 37 59 38 61 39 27 40 64 41 58 42 57 43 28 45
REMARK SMILES IDX 50 46 35 47 49 48 36 49 39 50 48 51 62 52 37 53 38 54 47 56
REMARK SMILES IDX 63 57 40 58 29 59 30 60 34 61 31 62 33 63 32 64 51 65 52 66
REMARK SMILES IDX 56 67 53 68 55 69 54 70 41 71 42 72 46 73 43 74 45 75 44 76
REMARK H PARENT 12 7 17 25 61 44 39 55
REMARK Flexibility Score: inf
ROOT
ATOM      1  C   UNL     1      -8.017  -3.768  -0.645  1.00  0.00     0.023 C 
ENDROOT
BRANCH   1   2
ATOM      2  C   UNL     1      -6.691  -3.187  -0.161  1.00  0.00     0.023 C 
BRANCH   2   3
ATOM      3  C   UNL     1      -5.708  -2.610  -1.174  1.00  0.00     0.116 C 
BRANCH   3   4
ATOM      4  N   UNL     1      -6.035  -1.398  -1.870  1.00  0.00    -0.351 N 
ATOM      5  C   UNL     1      -5.168  -0.395  -2.288  1.00  0.00     0.272 C 
ATOM      6  O   UNL     1      -5.689   0.522  -2.932  1.00  0.00    -0.267 OA
ATOM      7  H   UNL     1      -6.988  -1.261  -2.076  1.00  0.00     0.163 HD
BRANCH   5   8
ATOM      8  C   UNL     1      -3.713  -0.380  -1.932  1.00  0.00     0.154 A 
ATOM      9  C   UNL     1       1.483  -0.100   0.275  1.00  0.00     0.071 C 
ATOM     10  C   UNL     1       0.862  -1.317  -0.287  1.00  0.00     0.090 A 
ATOM     11  N   UNL     1       1.527  -2.483  -0.174  1.00  0.00    -0.084 NA
ATOM     12  C   UNL     1      -0.376  -1.512  -0.931  1.00  0.00     0.066 A 
ATOM     13  O   UNL     1       0.737  -3.445  -0.784  1.00  0.00    -0.360 OA
ATOM     14  C   UNL     1      -0.382  -2.849  -1.239  1.00  0.00     0.146 A 
ATOM     15  C   UNL     1      -1.577  -0.743  -1.325  1.00  0.00     0.077 A 
ATOM     16  C   UNL     1      -1.385  -3.616  -2.004  1.00  0.00     0.084 C 
ATOM     17  C   UNL     1      -2.713  -1.411  -1.773  1.00  0.00     0.012 A 
ATOM     18  N   UNL     1      -1.870   0.580  -1.348  1.00  0.00    -0.267 N 
ATOM     19  C   UNL     1      -2.759  -2.918  -1.916  1.00  0.00     0.048 C 
ATOM     20  N   UNL     1      -3.141   0.826  -1.706  1.00  0.00    -0.167 NA
ATOM     21  C   UNL     1      -0.993   1.699  -1.109  1.00  0.00     0.174 C 
ENDBRANCH   5   8
ENDBRANCH   3   4
ENDBRANCH   2   3
ENDBRANCH   1   2
BRANCH   1  22
ATOM     22  C   UNL     1      -7.926  -4.793  -1.763  1.00  0.00     0.116 C 
BRANCH  22  23
ATOM     23  N   UNL     1      -7.258  -6.049  -1.415  1.00  0.00    -0.352 N 
ATOM     24  C   UNL     1      -7.180  -7.193  -2.210  1.00  0.00     0.251 C 
ATOM     25  H   UNL     1      -6.822  -6.090  -0.533  1.00  0.00     0.163 HD
ATOM     26  O   UNL     1      -6.891  -8.279  -1.754  1.00  0.00    -0.269 OA
BRANCH  24  27
ATOM     27  C   UNL     1      -7.457  -7.028  -3.653  1.00  0.00     0.039 A 
ATOM     28  C   UNL     1      -8.339  -7.861  -4.347  1.00  0.00     0.014 A 
ATOM     29  C   UNL     1      -6.889  -5.919  -4.266  1.00  0.00     0.014 A 
ATOM     30  C   UNL     1      -8.727  -7.493  -5.636  1.00  0.00     0.010 A 
ATOM     31  C   UNL     1      -7.417  -5.462  -5.444  1.00  0.00     0.010 A 
ATOM     32  C   UNL     1      -8.287  -6.269  -6.167  1.00  0.00    -0.014 A 
BRANCH  32  33
ATOM     33  C   UNL     1      -8.766  -5.773  -7.452  1.00  0.00     0.031 A 
ATOM     34  C   UNL     1     -10.240  -5.747  -7.643  1.00  0.00     0.074 A 
ATOM     35  C   UNL     1      -7.957  -5.196  -8.367  1.00  0.00     0.049 A 
ATOM     36  N   UNL     1     -10.931  -6.519  -8.412  1.00  0.00    -0.248 NA
ATOM     37  C   UNL     1     -11.053  -4.826  -6.836  1.00  0.00     0.031 C 
ATOM     38  C   UNL     1      -6.528  -4.865  -8.267  1.00  0.00     0.029 A 
ATOM     39  N   UNL     1      -8.295  -4.681  -9.578  1.00  0.00    -0.354 N 
ATOM     40  C   UNL     1     -12.248  -6.081  -8.332  1.00  0.00     0.074 A 
ATOM     41  C   UNL     1     -12.288  -5.132  -7.245  1.00  0.00     0.031 C 
ATOM     42  C   UNL     1      -6.189  -4.008  -9.255  1.00  0.00     0.029 A 
ATOM     43  C   UNL     1      -7.314  -3.895 -10.162  1.00  0.00     0.049 A 
ATOM     44  H   UNL     1      -9.165  -4.853 -10.005  1.00  0.00     0.167 HD
ATOM     45  C   UNL     1     -13.156  -6.384  -9.303  1.00  0.00     0.031 A 
ATOM     46  C   UNL     1      -7.415  -3.206 -11.322  1.00  0.00     0.031 A 
ATOM     47  C   UNL     1     -12.654  -7.388 -10.206  1.00  0.00     0.049 A 
ATOM     48  C   UNL     1      -8.490  -3.847 -12.113  1.00  0.00     0.074 A 
ATOM     49  C   UNL     1     -12.233  -8.697 -10.075  1.00  0.00     0.029 A 
ATOM     50  N   UNL     1     -12.143  -6.949 -11.406  1.00  0.00    -0.354 N 
ATOM     51  N   UNL     1      -8.388  -5.050 -12.601  1.00  0.00    -0.248 NA
ATOM     52  C   UNL     1      -9.845  -3.338 -11.985  1.00  0.00     0.031 C 
ATOM     53  C   UNL     1     -11.097  -8.800 -10.933  1.00  0.00     0.029 A 
ATOM     54  C   UNL     1     -10.937  -7.576 -11.586  1.00  0.00     0.049 A 
ATOM     55  H   UNL     1     -12.565  -6.305 -12.020  1.00  0.00     0.167 HD
ATOM     56  C   UNL     1      -9.642  -5.613 -12.411  1.00  0.00     0.074 A 
ATOM     57  C   UNL     1     -10.525  -4.479 -12.139  1.00  0.00     0.031 C 
ATOM     58  C   UNL     1      -9.789  -6.957 -12.212  1.00  0.00     0.031 A 
BRANCH  45  59
ATOM     59  C   UNL     1     -14.333  -5.521  -9.678  1.00  0.00    -0.014 A 
ATOM     60  C   UNL     1     -15.243  -6.002 -10.638  1.00  0.00     0.009 A 
ATOM     61  C   UNL     1     -14.424  -4.158  -9.344  1.00  0.00     0.009 A 
ATOM     62  C   UNL     1     -16.142  -5.146 -11.286  1.00  0.00     0.001 A 
ATOM     63  C   UNL     1     -15.348  -3.308  -9.960  1.00  0.00     0.001 A 
ATOM     64  C   UNL     1     -16.186  -3.796 -10.953  1.00  0.00     0.000 A 
ENDBRANCH  45  59
BRANCH  46  65
ATOM     65  C   UNL     1      -6.806  -1.916 -11.693  1.00  0.00    -0.014 A 
ATOM     66  C   UNL     1      -6.743  -1.514 -13.036  1.00  0.00     0.009 A 
ATOM     67  C   UNL     1      -6.550  -0.951 -10.703  1.00  0.00     0.009 A 
ATOM     68  C   UNL     1      -6.486  -0.179 -13.373  1.00  0.00     0.001 A 
ATOM     69  C   UNL     1      -6.292   0.382 -11.040  1.00  0.00     0.001 A 
ATOM     70  C   UNL     1      -6.280   0.771 -12.375  1.00  0.00     0.000 A 
ENDBRANCH  46  65
BRANCH  58  71
ATOM     71  C   UNL     1      -8.573  -7.834 -12.405  1.00  0.00    -0.014 A 
ATOM     72  C   UNL     1      -7.403  -7.701 -11.635  1.00  0.00     0.009 A 
ATOM     73  C   UNL     1      -8.664  -8.921 -13.286  1.00  0.00     0.009 A 
ATOM     74  C   UNL     1      -6.345  -8.607 -11.768  1.00  0.00     0.001 A 
ATOM     75  C   UNL     1      -7.616  -9.838 -13.404  1.00  0.00     0.001 A 
ATOM     76  C   UNL     1      -6.455  -9.678 -12.651  1.00  0.00     0.000 A 
ENDBRANCH  58  71
ENDBRANCH  32  33
ENDBRANCH  24  27
ENDBRANCH  22  23
ENDBRANCH   1  22
TORSDOF 11
