REMARK SMILES O=C(NCCCCNC(=O)c1[nH]nc2c1CCC2)c1ccc(-c2c3nc(c(-c4ccccc4)c4ccc([nH]4)c(-c4ccccc4)c4nc(c(-c5ccccc5)c5ccc2[nH]5)C=C4)C=C3)cc1
REMARK SMILES IDX 4 1 3 2 1 3 2 4 19 6 20 7 66 8 21 9 65 10 22 11 23 12 24 13
REMARK SMILES IDX 59 14 25 15 64 16 58 17 60 18 26 19 63 20 57 21 56 22 27 24
REMARK SMILES IDX 49 25 34 26 48 27 35 28 38 29 47 30 61 31 36 32 37 33 46 35
REMARK SMILES IDX 62 36 39 37 28 38 29 39 33 40 30 41 32 42 31 43 50 44 51 45
REMARK SMILES IDX 55 46 52 47 54 48 53 49 40 50 41 51 45 52 42 53 44 54 43 55
REMARK SMILES IDX 5 56 6 57 7 58 8 59 9 60 10 62 11 63 12 64 15 65 13 66 14 68
REMARK SMILES IDX 16 69 18 70 17 71
REMARK H PARENT 3 5 60 23 38 34 8 61 12 67
REMARK Flexibility Score: inf
ROOT
ATOM      1  C   UNL     1       4.750  -0.264  -1.237  1.00  0.00     0.116 C 
ENDROOT
BRANCH   1   2
ATOM      2  N   UNL     1       3.372   0.161  -1.372  1.00  0.00    -0.352 N 
ATOM      3  O   UNL     1       1.293   0.783  -0.937  1.00  0.00    -0.269 OA
ATOM      4  C   UNL     1       2.299   0.200  -0.525  1.00  0.00     0.251 C 
ATOM      5  H   UNL     1       3.160   0.496  -2.274  1.00  0.00     0.163 HD
BRANCH   4   6
ATOM      6  C   UNL     1       2.244  -0.473   0.799  1.00  0.00     0.039 A 
ATOM      7  C   UNL     1       3.337  -1.013   1.479  1.00  0.00     0.014 A 
ATOM      8  C   UNL     1       0.964  -0.614   1.365  1.00  0.00     0.014 A 
ATOM      9  C   UNL     1       3.151  -1.797   2.609  1.00  0.00     0.010 A 
ATOM     10  C   UNL     1       0.775  -1.362   2.519  1.00  0.00     0.010 A 
ATOM     11  C   UNL     1       1.867  -2.000   3.104  1.00  0.00    -0.014 A 
BRANCH  11  12
ATOM     12  C   UNL     1       1.719  -2.835   4.289  1.00  0.00     0.031 A 
ATOM     13  C   UNL     1       2.293  -2.292   5.554  1.00  0.00     0.074 A 
ATOM     14  C   UNL     1       0.967  -3.951   4.281  1.00  0.00     0.049 A 
ATOM     15  N   UNL     1       3.094  -2.866   6.394  1.00  0.00    -0.248 NA
ATOM     16  C   UNL     1       1.960  -0.899   5.899  1.00  0.00     0.031 C 
ATOM     17  C   UNL     1       0.105  -4.440   3.201  1.00  0.00     0.029 A 
ATOM     18  N   UNL     1       0.701  -4.808   5.306  1.00  0.00    -0.354 N 
ATOM     19  C   UNL     1       3.252  -1.969   7.450  1.00  0.00     0.074 A 
ATOM     20  C   UNL     1       2.614  -0.741   7.048  1.00  0.00     0.031 C 
ATOM     21  C   UNL     1      -0.768  -5.337   3.708  1.00  0.00     0.029 A 
ATOM     22  C   UNL     1      -0.439  -5.572   5.104  1.00  0.00     0.049 A 
ATOM     23  H   UNL     1       1.263  -4.878   6.111  1.00  0.00     0.167 HD
ATOM     24  C   UNL     1       3.732  -2.335   8.671  1.00  0.00     0.031 A 
ATOM     25  C   UNL     1      -1.123  -6.268   6.042  1.00  0.00     0.031 A 
ATOM     26  C   UNL     1       4.455  -3.573   8.638  1.00  0.00     0.049 A 
ATOM     27  C   UNL     1      -0.239  -6.459   7.212  1.00  0.00     0.074 A 
ATOM     28  C   UNL     1       5.600  -4.022   8.011  1.00  0.00     0.029 A 
ATOM     29  N   UNL     1       3.824  -4.699   9.106  1.00  0.00    -0.354 N 
ATOM     30  N   UNL     1       0.822  -7.212   7.202  1.00  0.00    -0.248 NA
ATOM     31  C   UNL     1      -0.303  -5.489   8.295  1.00  0.00     0.031 C 
ATOM     32  C   UNL     1       5.340  -5.390   7.706  1.00  0.00     0.029 A 
ATOM     33  C   UNL     1       4.066  -5.690   8.191  1.00  0.00     0.049 A 
ATOM     34  H   UNL     1       3.301  -4.778   9.936  1.00  0.00     0.167 HD
ATOM     35  C   UNL     1       1.740  -6.546   8.000  1.00  0.00     0.074 A 
ATOM     36  C   UNL     1       0.956  -5.560   8.736  1.00  0.00     0.031 C 
ATOM     37  C   UNL     1       3.084  -6.667   7.782  1.00  0.00     0.031 A 
BRANCH  24  38
ATOM     38  C   UNL     1       3.234  -1.736   9.960  1.00  0.00    -0.014 A 
ATOM     39  C   UNL     1       3.875  -2.065  11.168  1.00  0.00     0.009 A 
ATOM     40  C   UNL     1       1.987  -1.087  10.059  1.00  0.00     0.009 A 
ATOM     41  C   UNL     1       3.272  -1.806  12.405  1.00  0.00     0.001 A 
ATOM     42  C   UNL     1       1.403  -0.789  11.293  1.00  0.00     0.001 A 
ATOM     43  C   UNL     1       2.034  -1.172  12.466  1.00  0.00     0.000 A 
ENDBRANCH  24  38
BRANCH  25  44
ATOM     44  C   UNL     1      -2.581  -6.496   6.096  1.00  0.00    -0.014 A 
ATOM     45  C   UNL     1      -3.126  -7.522   6.880  1.00  0.00     0.009 A 
ATOM     46  C   UNL     1      -3.465  -5.543   5.554  1.00  0.00     0.009 A 
ATOM     47  C   UNL     1      -4.504  -7.578   7.128  1.00  0.00     0.001 A 
ATOM     48  C   UNL     1      -4.840  -5.603   5.795  1.00  0.00     0.001 A 
ATOM     49  C   UNL     1      -5.358  -6.615   6.594  1.00  0.00     0.000 A 
ENDBRANCH  25  44
BRANCH  37  50
ATOM     50  C   UNL     1       3.542  -7.700   6.782  1.00  0.00    -0.014 A 
ATOM     51  C   UNL     1       3.179  -7.644   5.424  1.00  0.00     0.009 A 
ATOM     52  C   UNL     1       4.486  -8.657   7.179  1.00  0.00     0.009 A 
ATOM     53  C   UNL     1       3.718  -8.541   4.498  1.00  0.00     0.001 A 
ATOM     54  C   UNL     1       5.041  -9.541   6.249  1.00  0.00     0.001 A 
ATOM     55  C   UNL     1       4.652  -9.487   4.911  1.00  0.00     0.000 A 
ENDBRANCH  37  50
ENDBRANCH  11  12
ENDBRANCH   4   6
ENDBRANCH   1   2
BRANCH   1  56
ATOM     56  C   UNL     1       4.976  -1.774  -1.357  1.00  0.00     0.023 C 
BRANCH  56  57
ATOM     57  C   UNL     1       4.474  -2.409  -2.653  1.00  0.00     0.023 C 
BRANCH  57  58
ATOM     58  C   UNL     1       4.874  -1.679  -3.927  1.00  0.00     0.116 C 
BRANCH  58  59
ATOM     59  N   UNL     1       6.312  -1.617  -4.113  1.00  0.00    -0.351 N 
ATOM     60  C   UNL     1       7.033  -1.881  -5.253  1.00  0.00     0.269 C 
ATOM     61  H   UNL     1       6.837  -1.352  -3.323  1.00  0.00     0.163 HD
ATOM     62  O   UNL     1       8.245  -1.992  -5.173  1.00  0.00    -0.268 OA
BRANCH  60  63
ATOM     63  C   UNL     1       6.307  -2.087  -6.473  1.00  0.00     0.126 A 
ATOM     64  N   UNL     1       6.554  -3.160  -7.306  1.00  0.00    -0.272 N 
ATOM     65  C   UNL     1       5.306  -1.397  -7.106  1.00  0.00     0.006 A 
ATOM     66  N   UNL     1       5.652  -3.296  -8.316  1.00  0.00    -0.180 NA
ATOM     67  H   UNL     1       7.314  -3.773  -7.181  1.00  0.00     0.190 HD
ATOM     68  C   UNL     1       4.917  -2.204  -8.174  1.00  0.00     0.066 A 
ATOM     69  C   UNL     1       4.469  -0.187  -7.010  1.00  0.00     0.040 C 
ATOM     70  C   UNL     1       3.726  -1.694  -8.878  1.00  0.00     0.059 C 
ATOM     71  C   UNL     1       3.231  -0.597  -7.875  1.00  0.00     0.011 C 
ENDBRANCH  60  63
ENDBRANCH  58  59
ENDBRANCH  57  58
ENDBRANCH  56  57
ENDBRANCH   1  56
TORSDOF 11
