REMARK SMILES COc1ccc(-c2cc(C[C@H]3CCCC3=O)ccc2[C@@H](C)C(=O)NCCCCNC(=O)c2ccc(-c3c4nc(c(-c5ccccc5)c5ccc([nH]5)c(-c5ccccc5)c5nc(c(-c6ccccc6)c6ccc3[nH]6)C=C5)C=C4)cc2)cc1
REMARK SMILES IDX 26 1 25 2 24 3 22 4 23 5 20 7 21 8 19 9 7 10 8 11 9 12 18 13
REMARK SMILES IDX 17 14 6 15 3 16 4 17 81 18 5 19 80 20 2 21 1 22 10 23 11 24
REMARK SMILES IDX 12 25 15 26 13 27 14 28 16 29 27 30 28 31 29 32 30 33 31 35
REMARK SMILES IDX 32 36 33 37 79 38 34 39 78 40 35 41 36 42 37 43 72 44 38 45
REMARK SMILES IDX 77 46 71 47 73 48 39 49 76 50 70 51 69 52 40 54 62 55 47 56
REMARK SMILES IDX 61 57 48 58 51 59 60 60 74 61 49 62 50 63 59 65 75 66 52 67
REMARK SMILES IDX 41 68 42 69 46 70 43 71 45 72 44 73 63 74 64 75 68 76 65 77
REMARK SMILES IDX 67 78 66 79 53 80 54 81 58 82 55 83 57 84 56 85
REMARK H PARENT 24 6 29 34 73 53 51 64
REMARK Flexibility Score: inf
ROOT
ATOM      1  C   UNL     1       5.562   8.742  -3.388  1.00  0.00     0.023 C 
ENDROOT
BRANCH   1   2
ATOM      2  C   UNL     1       5.843   7.538  -4.292  1.00  0.00     0.116 C 
BRANCH   2   3
ATOM      3  N   UNL     1       5.966   6.311  -3.536  1.00  0.00    -0.356 N 
ATOM      4  C   UNL     1       5.064   5.343  -3.210  1.00  0.00     0.227 C 
ATOM      5  O   UNL     1       5.484   4.456  -2.456  1.00  0.00    -0.274 OA
ATOM      6  H   UNL     1       6.873   6.143  -3.193  1.00  0.00     0.163 HD
BRANCH   4   7
ATOM      7  C   UNL     1       3.608   5.301  -3.715  1.00  0.00     0.106 C 
ATOM      8  C   UNL     1       3.459   5.263  -5.236  1.00  0.00     0.023 C 
BRANCH   7   9
ATOM      9  C   UNL     1       2.694   6.286  -2.988  1.00  0.00    -0.028 A 
ATOM     10  C   UNL     1       1.922   5.909  -1.862  1.00  0.00    -0.014 A 
ATOM     11  C   UNL     1       1.211   6.899  -1.150  1.00  0.00     0.012 A 
ATOM     12  C   UNL     1       1.184   8.233  -1.574  1.00  0.00    -0.047 A 
ATOM     13  C   UNL     1       2.606   7.617  -3.425  1.00  0.00     0.005 A 
ATOM     14  C   UNL     1       1.897   8.583  -2.715  1.00  0.00     0.004 A 
BRANCH  10  15
ATOM     15  C   UNL     1       1.636   4.502  -1.539  1.00  0.00    -0.018 A 
ATOM     16  C   UNL     1       0.986   1.804  -1.042  1.00  0.00     0.118 A 
ATOM     17  C   UNL     1       0.114   2.612  -1.765  1.00  0.00     0.047 A 
ATOM     18  C   UNL     1       2.190   2.337  -0.577  1.00  0.00     0.047 A 
ATOM     19  C   UNL     1       0.433   3.946  -2.006  1.00  0.00     0.012 A 
ATOM     20  C   UNL     1       2.511   3.682  -0.819  1.00  0.00     0.012 A 
BRANCH  16  21
ATOM     21  O   UNL     1       0.568   0.511  -0.891  1.00  0.00    -0.497 OA
ATOM     22  C   UNL     1       1.111  -0.191   0.219  1.00  0.00     0.278 C 
ENDBRANCH  16  21
ENDBRANCH  10  15
BRANCH  12  23
ATOM     23  C   UNL     1       0.277   9.242  -0.916  1.00  0.00     0.047 C 
BRANCH  23  24
ATOM     24  C   UNL     1      -1.165   9.248  -1.444  1.00  0.00     0.060 C 
ATOM     25  C   UNL     1      -1.356   9.274  -2.968  1.00  0.00     0.012 C 
ATOM     26  C   UNL     1      -1.905   7.984  -1.065  1.00  0.00     0.136 C 
ATOM     27  C   UNL     1      -1.559   7.823  -3.396  1.00  0.00     0.009 C 
ATOM     28  C   UNL     1      -2.350   7.188  -2.263  1.00  0.00     0.076 C 
ATOM     29  O   UNL     1      -2.141   7.656   0.092  1.00  0.00    -0.299 OA
ENDBRANCH  23  24
ENDBRANCH  12  23
ENDBRANCH   7   9
ENDBRANCH   4   7
ENDBRANCH   2   3
ENDBRANCH   1   2
BRANCH   1  30
ATOM     30  C   UNL     1       6.793   9.482  -2.878  1.00  0.00     0.023 C 
BRANCH  30  31
ATOM     31  C   UNL     1       7.675  10.087  -3.961  1.00  0.00     0.116 C 
BRANCH  31  32
ATOM     32  N   UNL     1       6.984  10.999  -4.861  1.00  0.00    -0.352 N 
ATOM     33  C   UNL     1       7.516  12.066  -5.551  1.00  0.00     0.251 C 
ATOM     34  H   UNL     1       6.022  10.834  -4.991  1.00  0.00     0.163 HD
ATOM     35  O   UNL     1       6.807  12.797  -6.227  1.00  0.00    -0.269 OA
BRANCH  33  36
ATOM     36  C   UNL     1       8.961  12.343  -5.410  1.00  0.00     0.039 A 
ATOM     37  C   UNL     1       9.367  13.616  -5.005  1.00  0.00     0.014 A 
ATOM     38  C   UNL     1       9.895  11.319  -5.585  1.00  0.00     0.014 A 
ATOM     39  C   UNL     1      10.708  13.839  -4.690  1.00  0.00     0.010 A 
ATOM     40  C   UNL     1      11.212  11.521  -5.194  1.00  0.00     0.010 A 
ATOM     41  C   UNL     1      11.630  12.781  -4.738  1.00  0.00    -0.014 A 
BRANCH  41  42
ATOM     42  C   UNL     1      13.040  12.964  -4.314  1.00  0.00     0.031 A 
ATOM     43  C   UNL     1      14.150  12.788  -5.312  1.00  0.00     0.074 A 
ATOM     44  C   UNL     1      13.324  13.207  -3.019  1.00  0.00     0.049 A 
ATOM     45  N   UNL     1      15.444  12.822  -5.121  1.00  0.00    -0.248 NA
ATOM     46  C   UNL     1      13.753  12.505  -6.701  1.00  0.00     0.031 C 
ATOM     47  C   UNL     1      12.340  13.348  -1.943  1.00  0.00     0.029 A 
ATOM     48  N   UNL     1      14.531  13.370  -2.388  1.00  0.00    -0.354 N 
ATOM     49  C   UNL     1      16.012  12.543  -6.357  1.00  0.00     0.074 A 
ATOM     50  C   UNL     1      14.926  12.294  -7.279  1.00  0.00     0.031 C 
ATOM     51  C   UNL     1      12.982  13.605  -0.791  1.00  0.00     0.029 A 
ATOM     52  C   UNL     1      14.420  13.610  -1.039  1.00  0.00     0.049 A 
ATOM     53  H   UNL     1      15.395  13.320  -2.856  1.00  0.00     0.167 HD
ATOM     54  C   UNL     1      17.321  12.518  -6.701  1.00  0.00     0.031 A 
ATOM     55  C   UNL     1      15.371  13.810  -0.108  1.00  0.00     0.031 A 
ATOM     56  C   UNL     1      18.401  12.792  -5.793  1.00  0.00     0.049 A 
ATOM     57  C   UNL     1      16.817  13.791  -0.519  1.00  0.00     0.074 A 
ATOM     58  C   UNL     1      19.757  12.850  -6.059  1.00  0.00     0.029 A 
ATOM     59  N   UNL     1      18.244  13.060  -4.443  1.00  0.00    -0.354 N 
ATOM     60  N   UNL     1      17.335  13.590  -1.706  1.00  0.00    -0.248 NA
ATOM     61  C   UNL     1      17.808  14.040   0.538  1.00  0.00     0.031 C 
ATOM     62  C   UNL     1      20.425  13.120  -4.860  1.00  0.00     0.029 A 
ATOM     63  C   UNL     1      19.480  13.272  -3.858  1.00  0.00     0.049 A 
ATOM     64  H   UNL     1      17.381  13.094  -3.969  1.00  0.00     0.167 HD
ATOM     65  C   UNL     1      18.708  13.715  -1.545  1.00  0.00     0.074 A 
ATOM     66  C   UNL     1      18.942  14.023  -0.149  1.00  0.00     0.031 C 
ATOM     67  C   UNL     1      19.690  13.585  -2.470  1.00  0.00     0.031 A 
BRANCH  54  68
ATOM     68  C   UNL     1      17.651  12.188  -8.128  1.00  0.00    -0.014 A 
ATOM     69  C   UNL     1      17.387  13.100  -9.162  1.00  0.00     0.009 A 
ATOM     70  C   UNL     1      18.259  10.962  -8.441  1.00  0.00     0.009 A 
ATOM     71  C   UNL     1      17.692  12.777 -10.486  1.00  0.00     0.001 A 
ATOM     72  C   UNL     1      18.587  10.653  -9.762  1.00  0.00     0.001 A 
ATOM     73  C   UNL     1      18.296  11.556 -10.783  1.00  0.00     0.000 A 
ENDBRANCH  54  68
BRANCH  55  74
ATOM     74  C   UNL     1      14.993  14.070   1.305  1.00  0.00    -0.014 A 
ATOM     75  C   UNL     1      15.150  15.351   1.856  1.00  0.00     0.009 A 
ATOM     76  C   UNL     1      14.492  13.039   2.115  1.00  0.00     0.009 A 
ATOM     77  C   UNL     1      14.841  15.588   3.198  1.00  0.00     0.001 A 
ATOM     78  C   UNL     1      14.159  13.285   3.449  1.00  0.00     0.001 A 
ATOM     79  C   UNL     1      14.344  14.556   3.992  1.00  0.00     0.000 A 
ENDBRANCH  55  74
BRANCH  67  80
ATOM     80  C   UNL     1      21.099  13.816  -2.010  1.00  0.00    -0.014 A 
ATOM     81  C   UNL     1      21.774  12.864  -1.231  1.00  0.00     0.009 A 
ATOM     82  C   UNL     1      21.773  14.984  -2.399  1.00  0.00     0.009 A 
ATOM     83  C   UNL     1      23.090  13.093  -0.825  1.00  0.00     0.001 A 
ATOM     84  C   UNL     1      23.097  15.197  -2.013  1.00  0.00     0.001 A 
ATOM     85  C   UNL     1      23.751  14.256  -1.220  1.00  0.00     0.000 A 
ENDBRANCH  67  80
ENDBRANCH  41  42
ENDBRANCH  33  36
ENDBRANCH  31  32
ENDBRANCH  30  31
ENDBRANCH   1  30
TORSDOF 16
