REMARK SMILES O=C(NCCCCNC(=O)[C@H]1CC1(c1ccccc1)c1ccccc1)c1ccc(-c2c3nc(c(-c4ccccc4)c4ccc([nH]4)c(-c4ccccc4)c4nc(c(-c5ccccc5)c5ccc2[nH]5)C=C4)C=C3)cc1
REMARK SMILES IDX 5 1 4 2 3 3 1 4 2 5 26 7 27 8 73 9 28 10 72 11 29 12 30 13
REMARK SMILES IDX 31 14 66 15 32 16 71 17 65 18 67 19 33 20 70 21 64 22 63 23
REMARK SMILES IDX 34 25 56 26 41 27 55 28 42 29 45 30 54 31 68 32 43 33 44 34
REMARK SMILES IDX 53 36 69 37 46 38 35 39 36 40 40 41 37 42 39 43 38 44 57 45
REMARK SMILES IDX 58 46 62 47 59 48 61 49 60 50 47 51 48 52 52 53 49 54 51 55
REMARK SMILES IDX 50 56 6 57 7 58 8 59 9 60 10 62 11 63 12 64 13 65 14 66
REMARK SMILES IDX 15 67 19 68 16 69 18 70 17 71 20 72 21 73 25 74 22 75 24 76
REMARK SMILES IDX 23 77
REMARK H PARENT 3 6 67 24 45 35 8 61
REMARK Flexibility Score: inf
ROOT
ATOM      1  C   UNL     1       6.188   8.445   5.872  1.00  0.00     0.023 C 
ENDROOT
BRANCH   1   2
ATOM      2  C   UNL     1       7.577   8.741   6.415  1.00  0.00     0.116 C 
BRANCH   2   3
ATOM      3  N   UNL     1       8.089  10.064   6.060  1.00  0.00    -0.352 N 
ATOM      4  O   UNL     1       9.001  12.106   6.444  1.00  0.00    -0.269 OA
ATOM      5  C   UNL     1       8.692  10.998   6.870  1.00  0.00     0.251 C 
ATOM      6  H   UNL     1       7.990  10.320   5.114  1.00  0.00     0.163 HD
BRANCH   5   7
ATOM      7  C   UNL     1       8.917  10.645   8.281  1.00  0.00     0.039 A 
ATOM      8  C   UNL     1       9.496   9.413   8.586  1.00  0.00     0.014 A 
ATOM      9  C   UNL     1       8.416  11.472   9.288  1.00  0.00     0.014 A 
ATOM     10  C   UNL     1       9.370   8.913   9.869  1.00  0.00     0.010 A 
ATOM     11  C   UNL     1       8.407  11.013  10.606  1.00  0.00     0.010 A 
ATOM     12  C   UNL     1       8.832   9.708  10.896  1.00  0.00    -0.014 A 
BRANCH  12  13
ATOM     13  C   UNL     1       8.766   9.144  12.266  1.00  0.00     0.031 A 
ATOM     14  C   UNL     1       7.453   8.937  12.969  1.00  0.00     0.074 A 
ATOM     15  C   UNL     1       9.917   8.745  12.840  1.00  0.00     0.049 A 
ATOM     16  N   UNL     1       7.233   8.432  14.157  1.00  0.00    -0.248 NA
ATOM     17  C   UNL     1       6.231   9.353  12.262  1.00  0.00     0.031 C 
ATOM     18  C   UNL     1      11.250   8.888  12.243  1.00  0.00     0.029 A 
ATOM     19  N   UNL     1      10.153   8.100  14.024  1.00  0.00    -0.354 N 
ATOM     20  C   UNL     1       5.860   8.509  14.357  1.00  0.00     0.074 A 
ATOM     21  C   UNL     1       5.293   9.110  13.169  1.00  0.00     0.031 C 
ATOM     22  C   UNL     1      12.148   8.271  13.021  1.00  0.00     0.029 A 
ATOM     23  C   UNL     1      11.473   7.771  14.210  1.00  0.00     0.049 A 
ATOM     24  H   UNL     1       9.446   7.893  14.678  1.00  0.00     0.167 HD
ATOM     25  C   UNL     1       5.143   8.119  15.438  1.00  0.00     0.031 A 
ATOM     26  C   UNL     1      12.084   7.153  15.236  1.00  0.00     0.031 A 
ATOM     27  C   UNL     1       5.711   7.497  16.606  1.00  0.00     0.049 A 
ATOM     28  C   UNL     1      11.264   6.732  16.414  1.00  0.00     0.074 A 
ATOM     29  C   UNL     1       5.065   7.050  17.746  1.00  0.00     0.029 A 
ATOM     30  N   UNL     1       7.060   7.227  16.778  1.00  0.00    -0.354 N 
ATOM     31  N   UNL     1       9.969   6.830  16.591  1.00  0.00    -0.248 NA
ATOM     32  C   UNL     1      11.990   6.132  17.539  1.00  0.00     0.031 C 
ATOM     33  C   UNL     1       6.029   6.542  18.624  1.00  0.00     0.029 A 
ATOM     34  C   UNL     1       7.269   6.634  18.012  1.00  0.00     0.049 A 
ATOM     35  H   UNL     1       7.765   7.427  16.121  1.00  0.00     0.167 HD
ATOM     36  C   UNL     1       9.723   6.309  17.852  1.00  0.00     0.074 A 
ATOM     37  C   UNL     1      10.999   5.866  18.379  1.00  0.00     0.031 C 
ATOM     38  C   UNL     1       8.548   6.215  18.519  1.00  0.00     0.031 A 
BRANCH  25  39
ATOM     39  C   UNL     1       3.663   8.383  15.431  1.00  0.00    -0.014 A 
ATOM     40  C   UNL     1       2.781   7.594  14.677  1.00  0.00     0.009 A 
ATOM     41  C   UNL     1       3.138   9.399  16.246  1.00  0.00     0.009 A 
ATOM     42  C   UNL     1       1.405   7.831  14.726  1.00  0.00     0.001 A 
ATOM     43  C   UNL     1       1.761   9.619  16.309  1.00  0.00     0.001 A 
ATOM     44  C   UNL     1       0.896   8.838  15.545  1.00  0.00     0.000 A 
ENDBRANCH  25  39
BRANCH  26  45
ATOM     45  C   UNL     1      13.550   6.936  15.191  1.00  0.00    -0.014 A 
ATOM     46  C   UNL     1      14.078   5.648  15.025  1.00  0.00     0.009 A 
ATOM     47  C   UNL     1      14.430   8.028  15.272  1.00  0.00     0.009 A 
ATOM     48  C   UNL     1      15.460   5.458  14.951  1.00  0.00     0.001 A 
ATOM     49  C   UNL     1      15.807   7.838  15.167  1.00  0.00     0.001 A 
ATOM     50  C   UNL     1      16.322   6.553  15.014  1.00  0.00     0.000 A 
ENDBRANCH  26  45
BRANCH  38  51
ATOM     51  C   UNL     1       8.602   5.602  19.885  1.00  0.00    -0.014 A 
ATOM     52  C   UNL     1       9.103   6.325  20.979  1.00  0.00     0.009 A 
ATOM     53  C   UNL     1       8.139   4.293  20.081  1.00  0.00     0.009 A 
ATOM     54  C   UNL     1       9.169   5.734  22.240  1.00  0.00     0.001 A 
ATOM     55  C   UNL     1       8.186   3.712  21.349  1.00  0.00     0.001 A 
ATOM     56  C   UNL     1       8.710   4.429  22.424  1.00  0.00     0.000 A 
ENDBRANCH  38  51
ENDBRANCH  12  13
ENDBRANCH   5   7
ENDBRANCH   2   3
ENDBRANCH   1   2
BRANCH   1  57
ATOM     57  C   UNL     1       6.078   8.620   4.369  1.00  0.00     0.023 C 
BRANCH  57  58
ATOM     58  C   UNL     1       6.939   7.644   3.564  1.00  0.00     0.116 C 
BRANCH  58  59
ATOM     59  N   UNL     1       6.064   6.719   2.894  1.00  0.00    -0.356 N 
ATOM     60  C   UNL     1       5.694   6.718   1.582  1.00  0.00     0.224 C 
ATOM     61  H   UNL     1       5.686   6.001   3.451  1.00  0.00     0.163 HD
ATOM     62  O   UNL     1       4.739   6.027   1.236  1.00  0.00    -0.275 OA
BRANCH  60  63
ATOM     63  C   UNL     1       6.563   7.371   0.571  1.00  0.00     0.095 C 
ATOM     64  C   UNL     1       5.846   7.699  -0.716  1.00  0.00     0.032 C 
ATOM     65  C   UNL     1       6.606   8.806   0.009  1.00  0.00     0.033 C 
BRANCH  65  66
ATOM     66  C   UNL     1       5.737   9.962   0.559  1.00  0.00    -0.037 A 
ATOM     67  C   UNL     1       4.636  10.476  -0.150  1.00  0.00     0.004 A 
ATOM     68  C   UNL     1       6.067  10.649   1.740  1.00  0.00     0.004 A 
ATOM     69  C   UNL     1       3.907  11.585   0.305  1.00  0.00     0.000 A 
ATOM     70  C   UNL     1       5.353  11.758   2.207  1.00  0.00     0.000 A 
ATOM     71  C   UNL     1       4.267  12.226   1.485  1.00  0.00     0.000 A 
ENDBRANCH  65  66
BRANCH  65  72
ATOM     72  C   UNL     1       7.997   9.239  -0.589  1.00  0.00    -0.037 A 
ATOM     73  C   UNL     1       8.877  10.101   0.099  1.00  0.00     0.004 A 
ATOM     74  C   UNL     1       8.462   8.781  -1.839  1.00  0.00     0.004 A 
ATOM     75  C   UNL     1      10.112  10.499  -0.426  1.00  0.00     0.000 A 
ATOM     76  C   UNL     1       9.708   9.151  -2.361  1.00  0.00     0.000 A 
ATOM     77  C   UNL     1      10.530  10.019  -1.658  1.00  0.00     0.000 A 
ENDBRANCH  65  72
ENDBRANCH  60  63
ENDBRANCH  58  59
ENDBRANCH  57  58
ENDBRANCH   1  57
TORSDOF 13
