REMARK SMILES O=C(CNC(=O)[C@@H](CC1=c2ccccc2=NC1)N1C(=O)N=C2C=CC=C[C@H]2C1=O)NCCCCNC(=O)c1ccc(-c2c3nc(c(-c4ccccc4)c4ccc([nH]4)c(-c4ccccc4)c4nc(c(-c5ccccc5)c5ccc2[nH]5)C=C4)C=C3)cc1
REMARK SMILES IDX 31 1 30 2 1 3 2 4 3 6 4 7 5 8 6 10 7 11 8 12 9 13 10 14
REMARK SMILES IDX 17 15 11 16 15 17 16 18 12 19 14 20 13 21 18 22 19 23 28 24
REMARK SMILES IDX 21 25 20 26 27 27 29 28 22 29 26 30 23 31 25 32 24 33 32 34
REMARK SMILES IDX 33 35 34 36 35 37 36 38 37 40 38 41 39 42 85 43 40 44 84 45
REMARK SMILES IDX 41 46 42 47 43 48 78 49 44 50 83 51 77 52 79 53 45 54 82 55
REMARK SMILES IDX 76 56 75 57 46 59 68 60 53 61 67 62 54 63 57 64 66 65 80 66
REMARK SMILES IDX 55 67 56 68 65 70 81 71 58 72 47 73 48 74 52 75 49 76 51 77
REMARK SMILES IDX 50 78 69 79 70 80 74 81 71 82 73 83 72 84 59 85 60 86 64 87
REMARK SMILES IDX 61 88 63 89 62 90
REMARK H PARENT 30 5 4 9 35 39 79 58 57 69
REMARK Flexibility Score: inf
ROOT
ATOM      1  C   UNL     1       2.226   2.568  -0.749  1.00  0.00     0.116 C 
ENDROOT
BRANCH   1   2
ATOM      2  N   UNL     1       2.892   1.274  -0.826  1.00  0.00    -0.355 N 
ATOM      3  O   UNL     1       0.990   0.113  -1.362  1.00  0.00    -0.273 OA
ATOM      4  C   UNL     1       2.208   0.131  -1.188  1.00  0.00     0.239 C 
ATOM      5  H   UNL     1       3.852   1.214  -0.615  1.00  0.00     0.163 HD
BRANCH   4   6
ATOM      6  C   UNL     1       3.046  -1.137  -1.432  1.00  0.00     0.216 C 
BRANCH   6   7
ATOM      7  N   UNL     1       4.491  -1.075  -1.209  1.00  0.00    -0.345 N 
ATOM      8  C   UNL     1       5.109  -2.128  -0.539  1.00  0.00     0.244 C 
ATOM      9  H   UNL     1       5.015  -0.305  -1.526  1.00  0.00     0.164 HD
ATOM     10  O   UNL     1       5.377  -3.156  -1.155  1.00  0.00    -0.273 OA
BRANCH   8  11
ATOM     11  C   UNL     1       5.723  -1.760   0.827  1.00  0.00     0.188 C 
BRANCH  11  12
ATOM     12  C   UNL     1       4.976  -0.666   1.626  1.00  0.00     0.069 C 
BRANCH  12  13
ATOM     13  C   UNL     1       3.602  -0.791   2.229  1.00  0.00    -0.037 C 
ATOM     14  C   UNL     1       2.576  -1.640   2.146  1.00  0.00     0.001 A 
ATOM     15  C   UNL     1       3.234   0.350   3.148  1.00  0.00     0.174 C 
ATOM     16  C   UNL     1       2.274  -2.873   1.494  1.00  0.00     0.010 A 
ATOM     17  C   UNL     1       1.521  -0.953   2.928  1.00  0.00     0.065 A 
ATOM     18  N   UNL     1       1.826   0.161   3.517  1.00  0.00    -0.280 NA
ATOM     19  C   UNL     1       1.047  -3.408   1.595  1.00  0.00     0.001 A 
ATOM     20  C   UNL     1       0.180  -1.573   2.955  1.00  0.00     0.028 A 
ATOM     21  C   UNL     1      -0.012  -2.739   2.319  1.00  0.00     0.002 A 
ENDBRANCH  12  13
ENDBRANCH  11  12
BRANCH  11  22
ATOM     22  N   UNL     1       6.264  -2.769   1.747  1.00  0.00    -0.249 N 
ATOM     23  C   UNL     1       7.479  -2.471   2.346  1.00  0.00     0.351 C 
ATOM     24  C   UNL     1       5.584  -3.894   2.135  1.00  0.00     0.244 C 
ATOM     25  N   UNL     1       7.481  -2.521   3.717  1.00  0.00    -0.197 NA
ATOM     26  O   UNL     1       8.433  -2.061   1.712  1.00  0.00    -0.246 OA
ATOM     27  C   UNL     1       5.970  -4.446   3.499  1.00  0.00     0.151 C 
ATOM     28  O   UNL     1       4.790  -4.491   1.411  1.00  0.00    -0.273 OA
ATOM     29  C   UNL     1       6.703  -3.377   4.293  1.00  0.00     0.062 C 
ATOM     30  C   UNL     1       4.746  -4.938   4.234  1.00  0.00    -0.007 C 
ATOM     31  C   UNL     1       6.509  -3.285   5.760  1.00  0.00     0.025 C 
ATOM     32  C   UNL     1       4.508  -4.656   5.522  1.00  0.00    -0.003 C 
ATOM     33  C   UNL     1       5.444  -3.887   6.302  1.00  0.00     0.002 C 
ENDBRANCH  11  22
ENDBRANCH   8  11
ENDBRANCH   6   7
ENDBRANCH   4   6
ENDBRANCH   1   2
BRANCH   1  34
ATOM     34  C   UNL     1       2.299   3.251   0.619  1.00  0.00     0.023 C 
BRANCH  34  35
ATOM     35  C   UNL     1       3.699   3.628   1.101  1.00  0.00     0.023 C 
BRANCH  35  36
ATOM     36  C   UNL     1       4.489   4.560   0.195  1.00  0.00     0.116 C 
BRANCH  36  37
ATOM     37  N   UNL     1       3.967   5.914   0.120  1.00  0.00    -0.352 N 
ATOM     38  C   UNL     1       4.662   7.106   0.105  1.00  0.00     0.251 C 
ATOM     39  H   UNL     1       2.986   5.991   0.074  1.00  0.00     0.163 HD
ATOM     40  O   UNL     1       4.058   8.174   0.111  1.00  0.00    -0.269 OA
BRANCH  38  41
ATOM     41  C   UNL     1       6.145   7.098   0.138  1.00  0.00     0.039 A 
ATOM     42  C   UNL     1       6.878   6.211  -0.652  1.00  0.00     0.014 A 
ATOM     43  C   UNL     1       6.811   7.966   1.010  1.00  0.00     0.014 A 
ATOM     44  C   UNL     1       8.243   6.056  -0.431  1.00  0.00     0.010 A 
ATOM     45  C   UNL     1       8.200   7.874   1.160  1.00  0.00     0.010 A 
ATOM     46  C   UNL     1       8.921   6.880   0.483  1.00  0.00    -0.014 A 
BRANCH  46  47
ATOM     47  C   UNL     1      10.377   6.676   0.707  1.00  0.00     0.031 A 
ATOM     48  C   UNL     1      10.903   6.229   2.045  1.00  0.00     0.074 A 
ATOM     49  C   UNL     1      11.228   6.829  -0.327  1.00  0.00     0.049 A 
ATOM     50  N   UNL     1      12.137   5.959   2.394  1.00  0.00    -0.248 NA
ATOM     51  C   UNL     1       9.926   6.065   3.133  1.00  0.00     0.031 C 
ATOM     52  C   UNL     1      10.845   7.241  -1.678  1.00  0.00     0.029 A 
ATOM     53  N   UNL     1      12.582   6.621  -0.413  1.00  0.00    -0.354 N 
ATOM     54  C   UNL     1      12.087   5.618   3.740  1.00  0.00     0.074 A 
ATOM     55  C   UNL     1      10.706   5.735   4.154  1.00  0.00     0.031 C 
ATOM     56  C   UNL     1      11.921   7.185  -2.475  1.00  0.00     0.029 A 
ATOM     57  C   UNL     1      13.083   6.802  -1.679  1.00  0.00     0.049 A 
ATOM     58  H   UNL     1      13.139   6.367   0.357  1.00  0.00     0.167 HD
ATOM     59  C   UNL     1      13.098   5.235   4.556  1.00  0.00     0.031 A 
ATOM     60  C   UNL     1      14.336   6.681  -2.155  1.00  0.00     0.031 A 
ATOM     61  C   UNL     1      14.470   5.099   4.144  1.00  0.00     0.049 A 
ATOM     62  C   UNL     1      15.445   6.292  -1.224  1.00  0.00     0.074 A 
ATOM     63  C   UNL     1      15.556   4.689   4.899  1.00  0.00     0.029 A 
ATOM     64  N   UNL     1      14.945   5.367   2.871  1.00  0.00    -0.354 N 
ATOM     65  N   UNL     1      15.377   5.975   0.046  1.00  0.00    -0.248 NA
ATOM     66  C   UNL     1      16.802   6.254  -1.785  1.00  0.00     0.031 C 
ATOM     67  C   UNL     1      16.698   4.759   4.096  1.00  0.00     0.029 A 
ATOM     68  C   UNL     1      16.313   5.157   2.826  1.00  0.00     0.049 A 
ATOM     69  H   UNL     1      14.393   5.661   2.111  1.00  0.00     0.167 HD
ATOM     70  C   UNL     1      16.680   5.696   0.436  1.00  0.00     0.074 A 
ATOM     71  C   UNL     1      17.515   5.861  -0.737  1.00  0.00     0.031 C 
ATOM     72  C   UNL     1      17.138   5.340   1.659  1.00  0.00     0.031 A 
BRANCH  59  73
ATOM     73  C   UNL     1      12.770   4.947   5.995  1.00  0.00    -0.014 A 
ATOM     74  C   UNL     1      13.214   5.826   6.997  1.00  0.00     0.009 A 
ATOM     75  C   UNL     1      12.097   3.775   6.369  1.00  0.00     0.009 A 
ATOM     76  C   UNL     1      12.995   5.534   8.345  1.00  0.00     0.001 A 
ATOM     77  C   UNL     1      11.857   3.498   7.718  1.00  0.00     0.001 A 
ATOM     78  C   UNL     1      12.312   4.373   8.704  1.00  0.00     0.000 A 
ENDBRANCH  59  73
BRANCH  60  79
ATOM     79  C   UNL     1      14.589   6.931  -3.597  1.00  0.00    -0.014 A 
ATOM     80  C   UNL     1      14.491   8.229  -4.123  1.00  0.00     0.009 A 
ATOM     81  C   UNL     1      14.856   5.863  -4.466  1.00  0.00     0.009 A 
ATOM     82  C   UNL     1      14.624   8.450  -5.495  1.00  0.00     0.001 A 
ATOM     83  C   UNL     1      15.014   6.091  -5.835  1.00  0.00     0.001 A 
ATOM     84  C   UNL     1      14.887   7.381  -6.349  1.00  0.00     0.000 A 
ENDBRANCH  60  79
BRANCH  72  85
ATOM     85  C   UNL     1      18.613   5.102   1.809  1.00  0.00    -0.014 A 
ATOM     86  C   UNL     1      19.096   3.797   1.990  1.00  0.00     0.009 A 
ATOM     87  C   UNL     1      19.512   6.177   1.865  1.00  0.00     0.009 A 
ATOM     88  C   UNL     1      20.451   3.572   2.236  1.00  0.00     0.001 A 
ATOM     89  C   UNL     1      20.872   5.947   2.087  1.00  0.00     0.001 A 
ATOM     90  C   UNL     1      21.338   4.647   2.280  1.00  0.00     0.000 A 
ENDBRANCH  72  85
ENDBRANCH  46  47
ENDBRANCH  38  41
ENDBRANCH  36  37
ENDBRANCH  35  36
ENDBRANCH  34  35
ENDBRANCH   1  34
TORSDOF 16
