REMARK SMILES O=C(NCCCCNC(=O)c1ccc(-c2c3nc(c(-c4ccccc4)c4ccc([nH]4)c(-c4ccccc4)c4nc(c(-c5ccccc5)c5ccc2[nH]5)C=C4)C=C3)cc1)C1=Cc2c(ccc(Cl)c2-c2ccccc2)O[C@H]1C(F)(F)F
REMARK SMILES IDX 6 1 5 2 4 3 3 4 1 5 2 6 59 8 60 9 75 10 61 11 74 12 62 13
REMARK SMILES IDX 67 14 63 15 65 16 64 17 66 18 76 19 77 20 78 21 79 22 68 23
REMARK SMILES IDX 69 24 73 25 70 26 72 27 71 28 7 29 8 30 9 31 10 33 11 34
REMARK SMILES IDX 12 35 58 36 13 37 57 38 14 39 15 40 16 41 51 42 17 43 56 44
REMARK SMILES IDX 50 45 52 46 18 47 55 48 49 49 48 50 19 52 41 53 26 54 40 55
REMARK SMILES IDX 27 56 30 57 39 58 53 59 28 60 29 61 38 63 54 64 31 65 20 66
REMARK SMILES IDX 21 67 25 68 22 69 24 70 23 71 42 72 43 73 47 74 44 75 46 76
REMARK SMILES IDX 45 77 32 78 33 79 37 80 34 81 36 82 35 83
REMARK H PARENT 3 7 8 32 52 51 30 62
REMARK Flexibility Score: inf
ROOT
ATOM      1  C   UNL     1       4.079   3.389   2.705  1.00  0.00     0.023 C 
ENDROOT
BRANCH   1   2
ATOM      2  C   UNL     1       4.503   3.155   1.255  1.00  0.00     0.023 C 
BRANCH   2   3
ATOM      3  C   UNL     1       4.204   1.773   0.685  1.00  0.00     0.116 C 
BRANCH   3   4
ATOM      4  N   UNL     1       2.837   1.580   0.240  1.00  0.00    -0.352 N 
ATOM      5  O   UNL     1       1.142   0.654  -0.911  1.00  0.00    -0.270 OA
ATOM      6  C   UNL     1       2.333   0.637  -0.614  1.00  0.00     0.251 C 
ATOM      7  H   UNL     1       2.180   2.217   0.603  1.00  0.00     0.163 HD
BRANCH   6   8
ATOM      8  C   UNL     1       3.201  -0.424  -1.171  1.00  0.00     0.067 C 
ATOM      9  C   UNL     1       3.399  -1.499  -0.395  1.00  0.00     0.026 C 
ATOM     10  C   UNL     1       4.202  -0.111  -2.243  1.00  0.00     0.314 C 
ATOM     11  C   UNL     1       4.761  -1.434   0.203  1.00  0.00     0.027 A 
ATOM     12  O   UNL     1       5.587  -0.344  -1.813  1.00  0.00    -0.475 OA
ATOM     13  C   UNL     1       5.782  -0.826  -0.542  1.00  0.00     0.128 A 
ATOM     14  C   UNL     1       4.949  -1.827   1.552  1.00  0.00     0.011 A 
ATOM     15  C   UNL     1       7.016  -0.591   0.051  1.00  0.00     0.049 A 
ATOM     16  C   UNL     1       6.188  -1.538   2.142  1.00  0.00     0.049 A 
ATOM     17  C   UNL     1       7.210  -0.925   1.396  1.00  0.00     0.025 A 
ATOM     18  Cl  UNL     1       6.488  -1.851   3.814  1.00  0.00    -0.084 Cl
BRANCH  10  19
ATOM     19  C   UNL     1       3.898  -0.885  -3.545  1.00  0.00     0.429 C 
ATOM     20  F   UNL     1       3.079  -1.948  -3.355  1.00  0.00    -0.167 F 
ATOM     21  F   UNL     1       3.304  -0.081  -4.459  1.00  0.00    -0.167 F 
ATOM     22  F   UNL     1       5.027  -1.368  -4.120  1.00  0.00    -0.167 F 
ENDBRANCH  10  19
BRANCH  14  23
ATOM     23  C   UNL     1       3.786  -2.405   2.252  1.00  0.00    -0.016 A 
ATOM     24  C   UNL     1       2.920  -1.572   2.978  1.00  0.00     0.009 A 
ATOM     25  C   UNL     1       3.357  -3.705   1.932  1.00  0.00     0.009 A 
ATOM     26  C   UNL     1       1.624  -1.989   3.285  1.00  0.00     0.001 A 
ATOM     27  C   UNL     1       2.058  -4.117   2.232  1.00  0.00     0.001 A 
ATOM     28  C   UNL     1       1.186  -3.250   2.887  1.00  0.00     0.000 A 
ENDBRANCH  14  23
ENDBRANCH   6   8
ENDBRANCH   3   4
ENDBRANCH   2   3
ENDBRANCH   1   2
BRANCH   1  29
ATOM     29  C   UNL     1       4.635   2.430   3.759  1.00  0.00     0.116 C 
BRANCH  29  30
ATOM     30  N   UNL     1       6.082   2.292   3.762  1.00  0.00    -0.352 N 
ATOM     31  C   UNL     1       6.979   2.322   4.810  1.00  0.00     0.251 C 
ATOM     32  H   UNL     1       6.487   2.157   2.875  1.00  0.00     0.163 HD
ATOM     33  O   UNL     1       8.176   2.203   4.584  1.00  0.00    -0.269 OA
BRANCH  31  34
ATOM     34  C   UNL     1       6.512   2.567   6.197  1.00  0.00     0.039 A 
ATOM     35  C   UNL     1       7.192   3.518   6.967  1.00  0.00     0.014 A 
ATOM     36  C   UNL     1       5.406   1.905   6.734  1.00  0.00     0.014 A 
ATOM     37  C   UNL     1       6.694   3.886   8.220  1.00  0.00     0.010 A 
ATOM     38  C   UNL     1       4.869   2.325   7.953  1.00  0.00     0.010 A 
ATOM     39  C   UNL     1       5.492   3.338   8.697  1.00  0.00    -0.014 A 
BRANCH  39  40
ATOM     40  C   UNL     1       4.847   3.873   9.927  1.00  0.00     0.031 A 
ATOM     41  C   UNL     1       4.666   3.017  11.149  1.00  0.00     0.074 A 
ATOM     42  C   UNL     1       4.359   5.131   9.921  1.00  0.00     0.049 A 
ATOM     43  N   UNL     1       4.129   3.331  12.302  1.00  0.00    -0.248 NA
ATOM     44  C   UNL     1       5.126   1.624  11.058  1.00  0.00     0.031 C 
ATOM     45  C   UNL     1       4.414   6.057   8.787  1.00  0.00     0.029 A 
ATOM     46  N   UNL     1       3.724   5.850  10.903  1.00  0.00    -0.354 N 
ATOM     47  C   UNL     1       4.171   2.173  13.067  1.00  0.00     0.074 A 
ATOM     48  C   UNL     1       4.747   1.139  12.232  1.00  0.00     0.031 C 
ATOM     49  C   UNL     1       3.878   7.232   9.152  1.00  0.00     0.029 A 
ATOM     50  C   UNL     1       3.412   7.135  10.530  1.00  0.00     0.049 A 
ATOM     51  H   UNL     1       3.512   5.480  11.790  1.00  0.00     0.167 HD
ATOM     52  C   UNL     1       3.782   1.986  14.352  1.00  0.00     0.031 A 
ATOM     53  C   UNL     1       2.825   8.131  11.221  1.00  0.00     0.031 A 
ATOM     54  C   UNL     1       3.217   3.009  15.193  1.00  0.00     0.049 A 
ATOM     55  C   UNL     1       2.405   7.900  12.644  1.00  0.00     0.074 A 
ATOM     56  C   UNL     1       2.862   2.930  16.529  1.00  0.00     0.029 A 
ATOM     57  N   UNL     1       2.915   4.295  14.776  1.00  0.00    -0.354 N 
ATOM     58  N   UNL     1       2.534   6.823  13.379  1.00  0.00    -0.248 NA
ATOM     59  C   UNL     1       1.768   9.031  13.334  1.00  0.00     0.031 C 
ATOM     60  C   UNL     1       2.304   4.156  16.909  1.00  0.00     0.029 A 
ATOM     61  C   UNL     1       2.354   5.012  15.821  1.00  0.00     0.049 A 
ATOM     62  H   UNL     1       3.075   4.648  13.871  1.00  0.00     0.167 HD
ATOM     63  C   UNL     1       2.022   7.154  14.626  1.00  0.00     0.074 A 
ATOM     64  C   UNL     1       1.591   8.536  14.551  1.00  0.00     0.031 C 
ATOM     65  C   UNL     1       1.921   6.383  15.735  1.00  0.00     0.031 A 
BRANCH  52  66
ATOM     66  C   UNL     1       3.948   0.605  14.924  1.00  0.00    -0.014 A 
ATOM     67  C   UNL     1       5.220   0.089  15.219  1.00  0.00     0.009 A 
ATOM     68  C   UNL     1       2.817  -0.182  15.188  1.00  0.00     0.009 A 
ATOM     69  C   UNL     1       5.358  -1.206  15.725  1.00  0.00     0.001 A 
ATOM     70  C   UNL     1       2.957  -1.466  15.719  1.00  0.00     0.001 A 
ATOM     71  C   UNL     1       4.226  -1.981  15.976  1.00  0.00     0.000 A 
ENDBRANCH  52  66
BRANCH  53  72
ATOM     72  C   UNL     1       2.640   9.463  10.591  1.00  0.00    -0.014 A 
ATOM     73  C   UNL     1       3.446  10.544  10.981  1.00  0.00     0.009 A 
ATOM     74  C   UNL     1       1.660   9.665   9.607  1.00  0.00     0.009 A 
ATOM     75  C   UNL     1       3.259  11.806  10.415  1.00  0.00     0.001 A 
ATOM     76  C   UNL     1       1.492  10.923   9.025  1.00  0.00     0.001 A 
ATOM     77  C   UNL     1       2.286  11.994   9.435  1.00  0.00     0.000 A 
ENDBRANCH  53  72
BRANCH  65  78
ATOM     78  C   UNL     1       1.349   7.029  16.965  1.00  0.00    -0.014 A 
ATOM     79  C   UNL     1      -0.021   7.317  17.067  1.00  0.00     0.009 A 
ATOM     80  C   UNL     1       2.192   7.341  18.043  1.00  0.00     0.009 A 
ATOM     81  C   UNL     1      -0.528   7.939  18.209  1.00  0.00     0.001 A 
ATOM     82  C   UNL     1       1.678   7.940  19.194  1.00  0.00     0.001 A 
ATOM     83  C   UNL     1       0.321   8.248  19.272  1.00  0.00     0.000 A 
ENDBRANCH  65  78
ENDBRANCH  39  40
ENDBRANCH  31  34
ENDBRANCH  29  30
ENDBRANCH   1  29
TORSDOF 13
