REMARK SMILES Cc1cccc(C(=O)Nc2ccc(C(=O)NNC(=O)c3ccccc3C(=O)NCCCCNC(=O)c3ccc(-c4c5nc(c(-c6ccccc6)c6ccc([nH]6)c(-c6ccccc6)c6nc(c(-c7ccccc7)c7ccc4[nH]7)C=C6)C=C5)cc3)cc2)c1
REMARK SMILES IDX 29 1 28 2 26 3 27 4 25 6 20 7 21 8 22 9 24 10 23 11 18 12
REMARK SMILES IDX 17 13 19 15 16 16 14 17 15 18 13 20 10 21 11 22 85 23 12 24
REMARK SMILES IDX 84 25 9 26 7 27 8 28 6 30 1 31 2 32 3 33 86 34 4 35 5 36
REMARK SMILES IDX 30 37 31 38 32 39 33 40 34 41 35 43 36 44 37 45 83 46 38 47
REMARK SMILES IDX 82 48 39 49 40 50 41 51 76 52 42 53 81 54 75 55 77 56 43 57
REMARK SMILES IDX 80 58 74 59 73 60 44 62 66 63 51 64 65 65 52 66 55 67 64 68
REMARK SMILES IDX 78 69 53 70 54 71 63 73 79 74 56 75 45 76 46 77 50 78 47 79
REMARK SMILES IDX 49 80 48 81 67 82 68 83 72 84 69 85 71 86 70 87 57 88 58 89
REMARK SMILES IDX 62 90 59 91 61 92 60 93
REMARK H PARENT 28 5 17 14 16 19 9 29 33 42 77 61 55 72
REMARK Flexibility Score: inf
ROOT
ATOM      1  C   UNL     1       4.175   0.858  -2.536  1.00  0.00     0.116 C 
ENDROOT
BRANCH   1   2
ATOM      2  N   UNL     1       4.170   0.719  -1.083  1.00  0.00    -0.352 N 
ATOM      3  C   UNL     1       5.232   0.537  -0.213  1.00  0.00     0.252 C 
ATOM      4  O   UNL     1       5.054   0.575   1.000  1.00  0.00    -0.269 OA
ATOM      5  H   UNL     1       3.282   0.761  -0.659  1.00  0.00     0.163 HD
BRANCH   3   6
ATOM      6  C   UNL     1       6.578   0.197  -0.722  1.00  0.00     0.052 A 
ATOM      7  C   UNL     1       7.265   0.985  -1.653  1.00  0.00     0.054 A 
ATOM      8  C   UNL     1       8.323   0.420  -2.373  1.00  0.00     0.015 A 
ATOM      9  C   UNL     1       8.790  -0.858  -2.038  1.00  0.00     0.001 A 
ATOM     10  C   UNL     1       7.114  -1.032  -0.311  1.00  0.00     0.014 A 
ATOM     11  C   UNL     1       8.228  -1.553  -0.965  1.00  0.00     0.001 A 
BRANCH   7  12
ATOM     12  C   UNL     1       6.828   2.374  -1.928  1.00  0.00     0.270 C 
ATOM     13  N   UNL     1       6.629   3.163  -0.807  1.00  0.00    -0.263 N 
ATOM     14  H   UNL     1       7.195   3.060  -0.009  1.00  0.00     0.191 HD
ATOM     15  O   UNL     1       6.573   2.723  -3.076  1.00  0.00    -0.267 OA
BRANCH  13  16
ATOM     16  N   UNL     1       5.591   4.121  -0.841  1.00  0.00    -0.263 N 
ATOM     17  C   UNL     1       5.039   4.468   0.385  1.00  0.00     0.269 C 
ATOM     18  O   UNL     1       5.704   4.573   1.412  1.00  0.00    -0.267 OA
ATOM     19  H   UNL     1       5.276   4.518  -1.685  1.00  0.00     0.191 HD
BRANCH  17  20
ATOM     20  C   UNL     1       3.552   4.532   0.467  1.00  0.00     0.041 A 
ATOM     21  C   UNL     1       0.799   4.135   0.990  1.00  0.00     0.041 A 
ATOM     22  C   UNL     1       1.435   3.447  -0.031  1.00  0.00     0.027 A 
ATOM     23  C   UNL     1       1.525   5.114   1.679  1.00  0.00     0.027 A 
ATOM     24  C   UNL     1       2.794   3.647  -0.292  1.00  0.00     0.016 A 
ATOM     25  C   UNL     1       2.904   5.289   1.444  1.00  0.00     0.016 A 
BRANCH  21  26
ATOM     26  N   UNL     1      -0.543   3.905   1.335  1.00  0.00    -0.322 N 
ATOM     27  C   UNL     1      -1.411   2.853   1.096  1.00  0.00     0.255 C 
ATOM     28  O   UNL     1      -2.620   3.063   1.224  1.00  0.00    -0.269 OA
ATOM     29  H   UNL     1      -0.948   4.640   1.851  1.00  0.00     0.170 HD
BRANCH  27  30
ATOM     30  C   UNL     1      -0.973   1.460   0.772  1.00  0.00     0.040 A 
ATOM     31  C   UNL     1       2.004  -0.894   1.163  1.00  0.00     0.044 C 
ATOM     32  C   UNL     1       0.642  -0.370   0.816  1.00  0.00    -0.050 A 
ATOM     33  C   UNL     1      -0.253  -1.176   0.105  1.00  0.00     0.003 A 
ATOM     34  C   UNL     1       0.250   0.924   1.197  1.00  0.00     0.017 A 
ATOM     35  C   UNL     1      -1.511  -0.688  -0.242  1.00  0.00     0.001 A 
ATOM     36  C   UNL     1      -1.864   0.627   0.078  1.00  0.00     0.014 A 
ENDBRANCH  27  30
ENDBRANCH  21  26
ENDBRANCH  17  20
ENDBRANCH  13  16
ENDBRANCH   7  12
ENDBRANCH   3   6
ENDBRANCH   1   2
BRANCH   1  37
ATOM     37  C   UNL     1       2.931   0.353  -3.268  1.00  0.00     0.023 C 
BRANCH  37  38
ATOM     38  C   UNL     1       1.634   1.172  -3.173  1.00  0.00     0.023 C 
BRANCH  38  39
ATOM     39  C   UNL     1       1.722   2.649  -3.588  1.00  0.00     0.116 C 
BRANCH  39  40
ATOM     40  N   UNL     1       0.637   3.094  -4.459  1.00  0.00    -0.352 N 
ATOM     41  C   UNL     1       0.225   4.367  -4.814  1.00  0.00     0.251 C 
ATOM     42  H   UNL     1       0.110   2.366  -4.861  1.00  0.00     0.163 HD
ATOM     43  O   UNL     1      -0.661   4.495  -5.661  1.00  0.00    -0.269 OA
BRANCH  41  44
ATOM     44  C   UNL     1       0.920   5.577  -4.304  1.00  0.00     0.039 A 
ATOM     45  C   UNL     1       1.208   6.606  -5.209  1.00  0.00     0.014 A 
ATOM     46  C   UNL     1       1.410   5.660  -3.007  1.00  0.00     0.014 A 
ATOM     47  C   UNL     1       2.213   7.526  -4.911  1.00  0.00     0.010 A 
ATOM     48  C   UNL     1       2.460   6.518  -2.730  1.00  0.00     0.010 A 
ATOM     49  C   UNL     1       2.922   7.384  -3.720  1.00  0.00    -0.014 A 
BRANCH  49  50
ATOM     50  C   UNL     1       4.233   7.983  -3.506  1.00  0.00     0.031 A 
ATOM     51  C   UNL     1       4.387   9.251  -2.774  1.00  0.00     0.074 A 
ATOM     52  C   UNL     1       5.326   7.359  -4.000  1.00  0.00     0.049 A 
ATOM     53  N   UNL     1       5.349  10.087  -2.980  1.00  0.00    -0.248 NA
ATOM     54  C   UNL     1       3.426   9.706  -1.779  1.00  0.00     0.031 C 
ATOM     55  C   UNL     1       6.728   7.662  -3.733  1.00  0.00     0.029 A 
ATOM     56  N   UNL     1       5.362   6.452  -5.060  1.00  0.00    -0.354 N 
ATOM     57  C   UNL     1       5.303  11.023  -1.976  1.00  0.00     0.074 A 
ATOM     58  C   UNL     1       4.038  10.801  -1.312  1.00  0.00     0.031 C 
ATOM     59  C   UNL     1       7.474   7.180  -4.740  1.00  0.00     0.029 A 
ATOM     60  C   UNL     1       6.563   6.676  -5.754  1.00  0.00     0.049 A 
ATOM     61  H   UNL     1       4.676   5.782  -5.280  1.00  0.00     0.167 HD
ATOM     62  C   UNL     1       6.403  11.788  -1.721  1.00  0.00     0.031 A 
ATOM     63  C   UNL     1       6.567   7.048  -7.067  1.00  0.00     0.031 A 
ATOM     64  C   UNL     1       7.487  11.513  -2.660  1.00  0.00     0.049 A 
ATOM     65  C   UNL     1       7.247   8.373  -7.319  1.00  0.00     0.074 A 
ATOM     66  C   UNL     1       8.630  10.734  -2.571  1.00  0.00     0.029 A 
ATOM     67  N   UNL     1       7.334  11.840  -4.000  1.00  0.00    -0.354 N 
ATOM     68  N   UNL     1       7.456   9.271  -6.397  1.00  0.00    -0.248 NA
ATOM     69  C   UNL     1       7.713   8.807  -8.633  1.00  0.00     0.031 C 
ATOM     70  C   UNL     1       9.142  10.556  -3.880  1.00  0.00     0.029 A 
ATOM     71  C   UNL     1       8.327  11.249  -4.757  1.00  0.00     0.049 A 
ATOM     72  H   UNL     1       6.618  12.412  -4.361  1.00  0.00     0.167 HD
ATOM     73  C   UNL     1       8.065  10.369  -6.952  1.00  0.00     0.074 A 
ATOM     74  C   UNL     1       8.210  10.026  -8.354  1.00  0.00     0.031 C 
ATOM     75  C   UNL     1       8.384  11.462  -6.197  1.00  0.00     0.031 A 
BRANCH  62  76
ATOM     76  C   UNL     1       6.603  12.571  -0.446  1.00  0.00    -0.014 A 
ATOM     77  C   UNL     1       7.909  12.798   0.031  1.00  0.00     0.009 A 
ATOM     78  C   UNL     1       5.563  13.070   0.354  1.00  0.00     0.009 A 
ATOM     79  C   UNL     1       8.157  13.393   1.274  1.00  0.00     0.001 A 
ATOM     80  C   UNL     1       5.800  13.635   1.616  1.00  0.00     0.001 A 
ATOM     81  C   UNL     1       7.099  13.785   2.082  1.00  0.00     0.000 A 
ENDBRANCH  62  76
BRANCH  63  82
ATOM     82  C   UNL     1       5.397   6.538  -7.834  1.00  0.00    -0.014 A 
ATOM     83  C   UNL     1       5.288   5.147  -8.039  1.00  0.00     0.009 A 
ATOM     84  C   UNL     1       4.255   7.332  -8.007  1.00  0.00     0.009 A 
ATOM     85  C   UNL     1       4.046   4.554  -8.282  1.00  0.00     0.001 A 
ATOM     86  C   UNL     1       3.016   6.734  -8.270  1.00  0.00     0.001 A 
ATOM     87  C   UNL     1       2.905   5.347  -8.365  1.00  0.00     0.000 A 
ENDBRANCH  63  82
BRANCH  75  88
ATOM     88  C   UNL     1       8.845  12.816  -6.693  1.00  0.00    -0.014 A 
ATOM     89  C   UNL     1       8.754  13.261  -8.017  1.00  0.00     0.009 A 
ATOM     90  C   UNL     1       9.301  13.765  -5.746  1.00  0.00     0.009 A 
ATOM     91  C   UNL     1       9.127  14.566  -8.379  1.00  0.00     0.001 A 
ATOM     92  C   UNL     1       9.629  15.078  -6.092  1.00  0.00     0.001 A 
ATOM     93  C   UNL     1       9.551  15.476  -7.416  1.00  0.00     0.000 A 
ENDBRANCH  75  88
ENDBRANCH  49  50
ENDBRANCH  41  44
ENDBRANCH  39  40
ENDBRANCH  38  39
ENDBRANCH  37  38
ENDBRANCH   1  37
TORSDOF 16
