REMARK SMILES C[C@H]1[C@@H](C(=O)NCCCCNC(=O)c2ccc(-c3c4nc(c(-c5ccccc5)c5ccc([nH]5)c(-c5ccccc5)c5nc(c(-c6ccccc6)c6ccc3[nH]6)C=C5)C=C4)cc2)CCN1C(=O)c1cc2cc(F)ccc2s1
REMARK SMILES IDX 8 1 7 2 6 3 4 4 5 5 3 7 1 8 2 9 64 10 62 11 63 12 65 13
REMARK SMILES IDX 66 14 67 15 68 16 76 17 69 18 75 19 70 20 74 21 71 22 73 23
REMARK SMILES IDX 72 24 9 25 10 26 11 27 12 28 13 30 14 31 15 32 61 33 16 34
REMARK SMILES IDX 60 35 17 36 18 37 19 38 54 39 20 40 59 41 53 42 55 43 21 44
REMARK SMILES IDX 58 45 52 46 51 47 22 49 44 50 29 51 43 52 30 53 33 54 42 55
REMARK SMILES IDX 56 56 31 57 32 58 41 60 57 61 34 62 23 63 24 64 28 65 25 66
REMARK SMILES IDX 27 67 26 68 45 69 46 70 50 71 47 72 49 73 48 74 35 75 36 76
REMARK SMILES IDX 40 77 37 78 39 79 38 80
REMARK H PARENT 6 6 11 29 55 48 33 59
REMARK Flexibility Score: inf
ROOT
ATOM      1  C   UNL     1       3.413   0.492  -1.823  1.00  0.00     0.023 C 
ENDROOT
BRANCH   1   2
ATOM      2  C   UNL     1       2.727   1.763  -1.319  1.00  0.00     0.116 C 
BRANCH   2   3
ATOM      3  N   UNL     1       1.398   1.819  -1.877  1.00  0.00    -0.356 N 
ATOM      4  C   UNL     1       0.228   1.339  -1.379  1.00  0.00     0.225 C 
ATOM      5  O   UNL     1      -0.696   1.241  -2.191  1.00  0.00    -0.275 OA
ATOM      6  H   UNL     1       1.328   2.273  -2.748  1.00  0.00     0.163 HD
BRANCH   4   7
ATOM      7  C   UNL     1       0.039   1.086   0.124  1.00  0.00     0.102 C 
ATOM      8  C   UNL     1       1.761  -0.893   0.506  1.00  0.00     0.032 C 
ATOM      9  C   UNL     1       0.409  -0.270   0.767  1.00  0.00     0.094 C 
ATOM     10  N   UNL     1      -0.723  -1.161   0.503  1.00  0.00    -0.334 N 
ATOM     11  C   UNL     1      -1.479   1.075   0.406  1.00  0.00     0.037 C 
ATOM     12  C   UNL     1      -1.863  -0.364   0.070  1.00  0.00     0.121 C 
BRANCH  10  13
ATOM     13  C   UNL     1      -0.973  -2.192   1.405  1.00  0.00     0.264 C 
ATOM     14  O   UNL     1      -1.806  -2.052   2.300  1.00  0.00    -0.268 OA
BRANCH  13  15
ATOM     15  C   UNL     1      -0.230  -3.428   1.255  1.00  0.00     0.093 A 
ATOM     16  C   UNL     1       0.247  -4.215   2.281  1.00  0.00     0.034 A 
ATOM     17  S   UNL     1      -0.067  -4.213  -0.251  1.00  0.00    -0.130 S 
ATOM     18  C   UNL     1       0.380  -5.586   1.892  1.00  0.00    -0.004 A 
ATOM     19  C   UNL     1       0.179  -5.743   0.516  1.00  0.00     0.035 A 
ATOM     20  C   UNL     1       0.564  -6.739   2.687  1.00  0.00     0.048 A 
ATOM     21  C   UNL     1       0.148  -7.019  -0.082  1.00  0.00     0.022 A 
ATOM     22  C   UNL     1       0.455  -7.997   2.103  1.00  0.00     0.123 A 
ATOM     23  C   UNL     1       0.246  -8.145   0.742  1.00  0.00     0.041 A 
ATOM     24  F   UNL     1       0.512  -9.085   2.883  1.00  0.00    -0.207 F 
ENDBRANCH  13  15
ENDBRANCH  10  13
ENDBRANCH   4   7
ENDBRANCH   2   3
ENDBRANCH   1   2
BRANCH   1  25
ATOM     25  C   UNL     1       4.206   0.664  -3.109  1.00  0.00     0.023 C 
BRANCH  25  26
ATOM     26  C   UNL     1       5.496   1.442  -2.927  1.00  0.00     0.116 C 
BRANCH  26  27
ATOM     27  N   UNL     1       6.426   0.818  -1.993  1.00  0.00    -0.352 N 
ATOM     28  C   UNL     1       7.800   0.769  -2.063  1.00  0.00     0.251 C 
ATOM     29  H   UNL     1       6.019   0.376  -1.214  1.00  0.00     0.163 HD
ATOM     30  O   UNL     1       8.452   0.147  -1.241  1.00  0.00    -0.269 OA
BRANCH  28  31
ATOM     31  C   UNL     1       8.461   1.443  -3.197  1.00  0.00     0.039 A 
ATOM     32  C   UNL     1       9.333   0.708  -4.000  1.00  0.00     0.014 A 
ATOM     33  C   UNL     1       8.115   2.756  -3.526  1.00  0.00     0.014 A 
ATOM     34  C   UNL     1       9.792   1.264  -5.193  1.00  0.00     0.010 A 
ATOM     35  C   UNL     1       8.494   3.268  -4.757  1.00  0.00     0.010 A 
ATOM     36  C   UNL     1       9.334   2.527  -5.603  1.00  0.00    -0.014 A 
BRANCH  36  37
ATOM     37  C   UNL     1       9.720   3.105  -6.911  1.00  0.00     0.031 A 
ATOM     38  C   UNL     1      10.486   4.397  -6.954  1.00  0.00     0.074 A 
ATOM     39  C   UNL     1       9.301   2.525  -8.052  1.00  0.00     0.049 A 
ATOM     40  N   UNL     1      10.816   5.127  -7.988  1.00  0.00    -0.248 NA
ATOM     41  C   UNL     1      10.896   4.966  -5.659  1.00  0.00     0.031 C 
ATOM     42  C   UNL     1       8.496   1.303  -8.145  1.00  0.00     0.029 A 
ATOM     43  N   UNL     1       9.491   2.895  -9.359  1.00  0.00    -0.354 N 
ATOM     44  C   UNL     1      11.429   6.257  -7.465  1.00  0.00     0.074 A 
ATOM     45  C   UNL     1      11.389   6.139  -6.025  1.00  0.00     0.031 C 
ATOM     46  C   UNL     1       8.293   1.008  -9.439  1.00  0.00     0.029 A 
ATOM     47  C   UNL     1       8.922   2.034 -10.264  1.00  0.00     0.049 A 
ATOM     48  H   UNL     1       9.989   3.703  -9.623  1.00  0.00     0.167 HD
ATOM     49  C   UNL     1      11.997   7.294  -8.124  1.00  0.00     0.031 A 
ATOM     50  C   UNL     1       8.912   2.067 -11.609  1.00  0.00     0.031 A 
ATOM     51  C   UNL     1      12.087   7.386  -9.554  1.00  0.00     0.049 A 
ATOM     52  C   UNL     1       9.609   3.192 -12.320  1.00  0.00     0.074 A 
ATOM     53  C   UNL     1      12.712   8.354 -10.319  1.00  0.00     0.029 A 
ATOM     54  N   UNL     1      11.548   6.461 -10.435  1.00  0.00    -0.354 N 
ATOM     55  N   UNL     1      10.235   4.225 -11.812  1.00  0.00    -0.248 NA
ATOM     56  C   UNL     1       9.606   3.148 -13.789  1.00  0.00     0.031 C 
ATOM     57  C   UNL     1      12.534   8.025 -11.668  1.00  0.00     0.029 A 
ATOM     58  C   UNL     1      11.824   6.837 -11.737  1.00  0.00     0.049 A 
ATOM     59  H   UNL     1      11.044   5.657 -10.172  1.00  0.00     0.167 HD
ATOM     60  C   UNL     1      10.720   4.943 -12.897  1.00  0.00     0.074 A 
ATOM     61  C   UNL     1      10.325   4.221 -14.089  1.00  0.00     0.031 C 
ATOM     62  C   UNL     1      11.427   6.098 -12.906  1.00  0.00     0.031 A 
BRANCH  49  63
ATOM     63  C   UNL     1      12.567   8.403  -7.290  1.00  0.00    -0.014 A 
ATOM     64  C   UNL     1      13.748   8.222  -6.552  1.00  0.00     0.009 A 
ATOM     65  C   UNL     1      11.916   9.645  -7.239  1.00  0.00     0.009 A 
ATOM     66  C   UNL     1      14.242   9.249  -5.746  1.00  0.00     0.001 A 
ATOM     67  C   UNL     1      12.427  10.678  -6.453  1.00  0.00     0.001 A 
ATOM     68  C   UNL     1      13.582  10.476  -5.699  1.00  0.00     0.000 A 
ENDBRANCH  49  63
BRANCH  50  69
ATOM     69  C   UNL     1       8.255   0.979 -12.376  1.00  0.00    -0.014 A 
ATOM     70  C   UNL     1       9.032   0.001 -13.015  1.00  0.00     0.009 A 
ATOM     71  C   UNL     1       6.858   0.911 -12.474  1.00  0.00     0.009 A 
ATOM     72  C   UNL     1       8.423  -1.012 -13.759  1.00  0.00     0.001 A 
ATOM     73  C   UNL     1       6.251  -0.115 -13.202  1.00  0.00     0.001 A 
ATOM     74  C   UNL     1       7.033  -1.071 -13.849  1.00  0.00     0.000 A 
ENDBRANCH  50  69
BRANCH  62  75
ATOM     75  C   UNL     1      11.845   6.631 -14.243  1.00  0.00    -0.014 A 
ATOM     76  C   UNL     1      10.929   7.292 -15.075  1.00  0.00     0.009 A 
ATOM     77  C   UNL     1      13.181   6.509 -14.653  1.00  0.00     0.009 A 
ATOM     78  C   UNL     1      11.341   7.801 -16.307  1.00  0.00     0.001 A 
ATOM     79  C   UNL     1      13.594   7.037 -15.876  1.00  0.00     0.001 A 
ATOM     80  C   UNL     1      12.673   7.676 -16.705  1.00  0.00     0.000 A 
ENDBRANCH  62  75
ENDBRANCH  36  37
ENDBRANCH  28  31
ENDBRANCH  26  27
ENDBRANCH  25  26
ENDBRANCH   1  25
TORSDOF 13
