REMARK SMILES CC1(C)Cc2c(-c3ccccc3)c(-c3ccc(Cl)cc3)c(CC(=O)NCCCCNC(=O)c3ccc(-c4c5nc(c(-c6ccccc6)c6ccc([nH]6)c(-c6ccccc6)c6nc(c(-c7ccccc7)c7ccc4[nH]7)C=C6)C=C5)cc3)n2C1
REMARK SMILES IDX 27 1 26 2 25 3 23 4 24 5 22 7 21 8 1 9 2 10 3 11 4 12 82 13
REMARK SMILES IDX 5 14 81 15 6 16 13 17 7 18 8 19 12 20 9 21 11 22 10 23 14 24
REMARK SMILES IDX 15 25 20 26 16 27 19 28 17 29 18 30 28 31 29 32 30 33 31 34
REMARK SMILES IDX 32 36 33 37 34 38 80 39 35 40 79 41 36 42 37 43 38 44 73 45
REMARK SMILES IDX 39 46 78 47 72 48 74 49 40 50 77 51 71 52 70 53 41 55 63 56
REMARK SMILES IDX 48 57 62 58 49 59 52 60 61 61 75 62 50 63 51 64 60 66 76 67
REMARK SMILES IDX 53 68 42 69 43 70 47 71 44 72 46 73 45 74 64 75 65 76 69 77
REMARK SMILES IDX 66 78 68 79 67 80 54 81 55 82 59 83 56 84 58 85 57 86
REMARK H PARENT 25 6 30 35 74 54 52 65
REMARK Flexibility Score: inf
ROOT
ATOM      1  C   UNL     1      -0.073   0.240  -5.779  1.00  0.00     0.023 C 
ENDROOT
BRANCH   1   2
ATOM      2  C   UNL     1      -0.903   1.440  -5.322  1.00  0.00     0.116 C 
BRANCH   2   3
ATOM      3  N   UNL     1      -2.254   1.441  -5.837  1.00  0.00    -0.356 N 
ATOM      4  C   UNL     1      -3.428   1.171  -5.189  1.00  0.00     0.225 C 
ATOM      5  O   UNL     1      -4.473   1.365  -5.819  1.00  0.00    -0.275 OA
ATOM      6  H   UNL     1      -2.342   1.669  -6.790  1.00  0.00     0.163 HD
BRANCH   4   7
ATOM      7  C   UNL     1      -3.457   0.730  -3.731  1.00  0.00     0.154 C 
BRANCH   7   8
ATOM      8  C   UNL     1      -2.700  -0.537  -3.460  1.00  0.00     0.036 A 
ATOM      9  C   UNL     1       0.678  -0.102   0.187  1.00  0.00     0.013 C 
ATOM     10  C   UNL     1       0.270  -0.375  -1.261  1.00  0.00    -0.012 C 
ATOM     11  C   UNL     1       1.397   0.112  -2.187  1.00  0.00     0.013 C 
ATOM     12  C   UNL     1      -0.011  -1.892  -1.518  1.00  0.00     0.063 C 
ATOM     13  C   UNL     1      -1.076   0.327  -1.607  1.00  0.00     0.129 C 
ATOM     14  C   UNL     1      -1.147  -1.849  -2.472  1.00  0.00     0.027 A 
ATOM     15  N   UNL     1      -1.706  -0.608  -2.530  1.00  0.00    -0.346 N 
ATOM     16  C   UNL     1      -1.831  -2.666  -3.335  1.00  0.00     0.011 A 
ATOM     17  C   UNL     1      -2.834  -1.839  -3.960  1.00  0.00     0.011 A 
BRANCH  16  18
ATOM     18  C   UNL     1      -1.519  -4.066  -3.542  1.00  0.00    -0.016 A 
ATOM     19  C   UNL     1      -1.516  -4.962  -2.468  1.00  0.00     0.009 A 
ATOM     20  C   UNL     1      -1.245  -4.535  -4.832  1.00  0.00     0.009 A 
ATOM     21  C   UNL     1      -1.240  -6.313  -2.683  1.00  0.00     0.001 A 
ATOM     22  C   UNL     1      -0.969  -5.886  -5.045  1.00  0.00     0.001 A 
ATOM     23  C   UNL     1      -0.966  -6.774  -3.971  1.00  0.00     0.000 A 
ENDBRANCH  16  18
BRANCH  17  24
ATOM     24  C   UNL     1      -3.839  -2.270  -4.924  1.00  0.00    -0.016 A 
ATOM     25  C   UNL     1      -4.807  -3.210  -4.543  1.00  0.00     0.010 A 
ATOM     26  C   UNL     1      -3.795  -1.841  -6.255  1.00  0.00     0.010 A 
ATOM     27  C   UNL     1      -5.727  -3.698  -5.476  1.00  0.00     0.021 A 
ATOM     28  C   UNL     1      -4.728  -2.311  -7.184  1.00  0.00     0.021 A 
ATOM     29  C   UNL     1      -5.687  -3.240  -6.791  1.00  0.00     0.041 A 
ATOM     30  Cl  UNL     1      -6.813  -3.844  -7.944  1.00  0.00    -0.084 Cl
ENDBRANCH  17  24
ENDBRANCH   7   8
ENDBRANCH   4   7
ENDBRANCH   2   3
ENDBRANCH   1   2
BRANCH   1  31
ATOM     31  C   UNL     1       0.318   0.200  -7.258  1.00  0.00     0.023 C 
BRANCH  31  32
ATOM     32  C   UNL     1       1.137   1.395  -7.732  1.00  0.00     0.116 C 
BRANCH  32  33
ATOM     33  N   UNL     1       2.390   1.560  -7.000  1.00  0.00    -0.352 N 
ATOM     34  C   UNL     1       3.280   2.615  -7.063  1.00  0.00     0.251 C 
ATOM     35  H   UNL     1       2.631   0.828  -6.387  1.00  0.00     0.163 HD
ATOM     36  O   UNL     1       4.441   2.482  -6.712  1.00  0.00    -0.269 OA
BRANCH  34  37
ATOM     37  C   UNL     1       2.802   3.918  -7.563  1.00  0.00     0.039 A 
ATOM     38  C   UNL     1       3.556   4.642  -8.488  1.00  0.00     0.014 A 
ATOM     39  C   UNL     1       1.574   4.400  -7.110  1.00  0.00     0.014 A 
ATOM     40  C   UNL     1       3.017   5.806  -9.030  1.00  0.00     0.010 A 
ATOM     41  C   UNL     1       1.000   5.499  -7.712  1.00  0.00     0.010 A 
ATOM     42  C   UNL     1       1.723   6.214  -8.663  1.00  0.00    -0.014 A 
BRANCH  42  43
ATOM     43  C   UNL     1       1.060   7.281  -9.411  1.00  0.00     0.031 A 
ATOM     44  C   UNL     1       0.971   7.035 -10.878  1.00  0.00     0.074 A 
ATOM     45  C   UNL     1       0.379   8.300  -8.846  1.00  0.00     0.049 A 
ATOM     46  N   UNL     1       1.570   7.680 -11.822  1.00  0.00    -0.248 NA
ATOM     47  C   UNL     1       0.227   5.851 -11.343  1.00  0.00     0.031 C 
ATOM     48  C   UNL     1       0.085   8.511  -7.425  1.00  0.00     0.029 A 
ATOM     49  N   UNL     1      -0.300   9.318  -9.448  1.00  0.00    -0.354 N 
ATOM     50  C   UNL     1       1.126   7.118 -13.017  1.00  0.00     0.074 A 
ATOM     51  C   UNL     1       0.450   5.897 -12.658  1.00  0.00     0.031 C 
ATOM     52  C   UNL     1      -0.890   9.440  -7.299  1.00  0.00     0.029 A 
ATOM     53  C   UNL     1      -1.170  10.004  -8.608  1.00  0.00     0.049 A 
ATOM     54  H   UNL     1      -0.183   9.547 -10.399  1.00  0.00     0.167 HD
ATOM     55  C   UNL     1       1.129   7.834 -14.177  1.00  0.00     0.031 A 
ATOM     56  C   UNL     1      -2.072  10.951  -8.963  1.00  0.00     0.031 A 
ATOM     57  C   UNL     1       1.935   9.024 -14.056  1.00  0.00     0.049 A 
ATOM     58  C   UNL     1      -1.672  11.472 -10.287  1.00  0.00     0.074 A 
ATOM     59  C   UNL     1       3.258   9.290 -13.765  1.00  0.00     0.029 A 
ATOM     60  N   UNL     1       1.259  10.204 -13.863  1.00  0.00    -0.354 N 
ATOM     61  N   UNL     1      -0.610  12.198 -10.483  1.00  0.00    -0.248 NA
ATOM     62  C   UNL     1      -2.235  10.853 -11.475  1.00  0.00     0.031 C 
ATOM     63  C   UNL     1       3.229  10.475 -12.972  1.00  0.00     0.029 A 
ATOM     64  C   UNL     1       1.905  10.909 -12.886  1.00  0.00     0.049 A 
ATOM     65  H   UNL     1       0.450  10.492 -14.345  1.00  0.00     0.167 HD
ATOM     66  C   UNL     1      -0.110  11.758 -11.698  1.00  0.00     0.074 A 
ATOM     67  C   UNL     1      -1.216  11.031 -12.319  1.00  0.00     0.031 C 
ATOM     68  C   UNL     1       1.232  11.779 -11.947  1.00  0.00     0.031 A 
BRANCH  55  69
ATOM     69  C   UNL     1       0.056   7.721 -15.242  1.00  0.00    -0.014 A 
ATOM     70  C   UNL     1       0.116   8.599 -16.344  1.00  0.00     0.009 A 
ATOM     71  C   UNL     1      -1.151   7.022 -15.067  1.00  0.00     0.009 A 
ATOM     72  C   UNL     1      -1.006   8.852 -17.142  1.00  0.00     0.001 A 
ATOM     73  C   UNL     1      -2.261   7.238 -15.891  1.00  0.00     0.001 A 
ATOM     74  C   UNL     1      -2.200   8.181 -16.905  1.00  0.00     0.000 A 
ENDBRANCH  55  69
BRANCH  56  75
ATOM     75  C   UNL     1      -3.364  11.324  -8.350  1.00  0.00    -0.014 A 
ATOM     76  C   UNL     1      -3.977  12.548  -8.668  1.00  0.00     0.009 A 
ATOM     77  C   UNL     1      -4.137  10.360  -7.680  1.00  0.00     0.009 A 
ATOM     78  C   UNL     1      -5.329  12.777  -8.377  1.00  0.00     0.001 A 
ATOM     79  C   UNL     1      -5.486  10.590  -7.384  1.00  0.00     0.001 A 
ATOM     80  C   UNL     1      -6.087  11.791  -7.750  1.00  0.00     0.000 A 
ENDBRANCH  56  75
BRANCH  68  81
ATOM     81  C   UNL     1       2.117  12.574 -11.019  1.00  0.00    -0.014 A 
ATOM     82  C   UNL     1       2.223  12.325  -9.640  1.00  0.00     0.009 A 
ATOM     83  C   UNL     1       2.982  13.518 -11.593  1.00  0.00     0.009 A 
ATOM     84  C   UNL     1       3.147  13.025  -8.857  1.00  0.00     0.001 A 
ATOM     85  C   UNL     1       3.922  14.197 -10.817  1.00  0.00     0.001 A 
ATOM     86  C   UNL     1       4.000  13.955  -9.447  1.00  0.00     0.000 A 
ENDBRANCH  68  81
ENDBRANCH  42  43
ENDBRANCH  34  37
ENDBRANCH  32  33
ENDBRANCH  31  32
ENDBRANCH   1  31
TORSDOF 14
