REMARK SMILES CC[C@@H]1C=CCN1S(=O)(=O)c1sc2c(c1C(=O)NCCCCNC(=O)c1ccc(-c3c4nc(c(-c5ccccc5)c5ccc([nH]5)c(-c5ccccc5)c5nc(c(-c6ccccc6)c6ccc3[nH]6)C=C5)C=C4)cc1)CC[NH2+]C2
REMARK SMILES IDX 20 1 19 2 18 3 16 4 17 5 15 7 11 8 12 9 13 10 14 11 77 12
REMARK SMILES IDX 74 13 76 14 75 15 8 18 9 19 10 20 7 21 3 22 4 23 5 24 6 25
REMARK SMILES IDX 2 26 1 27 21 28 22 29 23 30 24 31 25 33 26 34 27 35 73 36
REMARK SMILES IDX 28 37 72 38 29 39 30 40 31 41 66 42 32 43 71 44 65 45 67 46
REMARK SMILES IDX 33 47 70 48 64 49 63 50 34 52 56 53 41 54 55 55 42 56 45 57
REMARK SMILES IDX 54 58 68 59 43 60 44 61 53 63 69 64 46 65 35 66 36 67 40 68
REMARK SMILES IDX 37 69 39 70 38 71 57 72 58 73 62 74 59 75 61 76 60 77 47 78
REMARK SMILES IDX 48 79 52 80 49 81 51 82 50 83
REMARK H PARENT 18 6 76 16 76 17 23 32 67 51 45 62
REMARK Flexibility Score: inf
ROOT
ATOM      1  C   UNL     1       4.941   2.001   1.456  1.00  0.00     0.023 C 
ENDROOT
BRANCH   1   2
ATOM      2  C   UNL     1       3.887   2.612   2.370  1.00  0.00     0.116 C 
BRANCH   2   3
ATOM      3  N   UNL     1       4.325   3.458   3.441  1.00  0.00    -0.352 N 
ATOM      4  C   UNL     1       3.749   4.588   3.975  1.00  0.00     0.253 C 
ATOM      5  O   UNL     1       4.257   4.931   5.049  1.00  0.00    -0.269 OA
ATOM      6  H   UNL     1       5.173   3.188   3.861  1.00  0.00     0.163 HD
BRANCH   4   7
ATOM      7  C   UNL     1       2.721   5.456   3.330  1.00  0.00     0.074 A 
ATOM      8  C   UNL     1       1.610   5.181   2.497  1.00  0.00     0.148 A 
ATOM      9  S   UNL     1       0.781   6.644   2.062  1.00  0.00    -0.120 S 
ATOM     10  C   UNL     1       1.794   7.633   2.936  1.00  0.00     0.064 A 
ATOM     11  C   UNL     1       2.743   6.920   3.632  1.00  0.00    -0.009 A 
ATOM     12  C   UNL     1       1.573   9.116   2.978  1.00  0.00     0.308 C 
ATOM     13  C   UNL     1       3.670   7.694   4.553  1.00  0.00     0.099 C 
ATOM     14  N   UNL     1       2.732   9.813   3.554  1.00  0.00    -0.342 N 
ATOM     15  C   UNL     1       3.156   9.139   4.794  1.00  0.00     0.265 C 
ATOM     16  H   UNL     1       3.501   9.803   2.883  1.00  0.00     0.346 HD
ATOM     17  H   UNL     1       2.474  10.777   3.766  1.00  0.00     0.346 HD
BRANCH   8  18
ATOM     18  S   UNL     1       0.702   3.767   1.749  1.00  0.00     0.254 S 
ATOM     19  O   UNL     1      -0.714   4.089   1.864  1.00  0.00    -0.206 OA
ATOM     20  O   UNL     1       1.192   2.579   2.392  1.00  0.00    -0.206 OA
BRANCH  18  21
ATOM     21  N   UNL     1       1.090   3.709   0.062  1.00  0.00    -0.186 NA
ATOM     22  C   UNL     1       0.703   2.429  -0.649  1.00  0.00     0.096 C 
ATOM     23  C   UNL     1      -0.314   2.881  -1.649  1.00  0.00    -0.010 C 
ATOM     24  C   UNL     1      -0.360   4.208  -1.738  1.00  0.00    -0.013 C 
ATOM     25  C   UNL     1       0.535   4.847  -0.743  1.00  0.00     0.130 C 
BRANCH  22  26
ATOM     26  C   UNL     1       1.958   1.801  -1.308  1.00  0.00     0.021 C 
ATOM     27  C   UNL     1       1.981   1.727  -2.838  1.00  0.00     0.006 C 
ENDBRANCH  22  26
ENDBRANCH  18  21
ENDBRANCH   8  18
ENDBRANCH   4   7
ENDBRANCH   2   3
ENDBRANCH   1   2
BRANCH   1  28
ATOM     28  C   UNL     1       5.726   0.782   1.943  1.00  0.00     0.023 C 
BRANCH  28  29
ATOM     29  C   UNL     1       4.899  -0.384   2.468  1.00  0.00     0.116 C 
BRANCH  29  30
ATOM     30  N   UNL     1       3.989  -0.997   1.496  1.00  0.00    -0.352 N 
ATOM     31  C   UNL     1       3.229  -2.148   1.671  1.00  0.00     0.251 C 
ATOM     32  H   UNL     1       3.907  -0.545   0.625  1.00  0.00     0.163 HD
ATOM     33  O   UNL     1       2.762  -2.760   0.718  1.00  0.00    -0.269 OA
BRANCH  31  34
ATOM     34  C   UNL     1       2.980  -2.611   3.050  1.00  0.00     0.039 A 
ATOM     35  C   UNL     1       3.061  -3.956   3.429  1.00  0.00     0.014 A 
ATOM     36  C   UNL     1       2.717  -1.624   3.993  1.00  0.00     0.014 A 
ATOM     37  C   UNL     1       2.963  -4.275   4.785  1.00  0.00     0.010 A 
ATOM     38  C   UNL     1       2.830  -1.913   5.324  1.00  0.00     0.010 A 
ATOM     39  C   UNL     1       2.870  -3.239   5.729  1.00  0.00    -0.014 A 
BRANCH  39  40
ATOM     40  C   UNL     1       2.928  -3.488   7.165  1.00  0.00     0.031 A 
ATOM     41  C   UNL     1       4.149  -4.208   7.606  1.00  0.00     0.074 A 
ATOM     42  C   UNL     1       2.082  -2.896   8.040  1.00  0.00     0.049 A 
ATOM     43  N   UNL     1       4.224  -5.414   8.061  1.00  0.00    -0.248 NA
ATOM     44  C   UNL     1       5.460  -3.576   7.376  1.00  0.00     0.031 C 
ATOM     45  C   UNL     1       1.035  -1.903   7.755  1.00  0.00     0.029 A 
ATOM     46  N   UNL     1       2.058  -2.960   9.399  1.00  0.00    -0.354 N 
ATOM     47  C   UNL     1       5.560  -5.614   8.391  1.00  0.00     0.074 A 
ATOM     48  C   UNL     1       6.293  -4.544   7.764  1.00  0.00     0.031 C 
ATOM     49  C   UNL     1       0.660  -1.290   8.900  1.00  0.00     0.029 A 
ATOM     50  C   UNL     1       1.298  -1.966  10.012  1.00  0.00     0.049 A 
ATOM     51  H   UNL     1       2.539  -3.652   9.908  1.00  0.00     0.167 HD
ATOM     52  C   UNL     1       5.910  -6.469   9.392  1.00  0.00     0.031 A 
ATOM     53  C   UNL     1       1.205  -1.708  11.340  1.00  0.00     0.031 A 
ATOM     54  C   UNL     1       4.797  -7.303   9.777  1.00  0.00     0.049 A 
ATOM     55  C   UNL     1       1.652  -2.924  12.051  1.00  0.00     0.074 A 
ATOM     56  C   UNL     1       4.007  -8.243   9.149  1.00  0.00     0.029 A 
ATOM     57  N   UNL     1       4.102  -6.895  10.889  1.00  0.00    -0.354 N 
ATOM     58  N   UNL     1       1.001  -4.050  12.017  1.00  0.00    -0.248 NA
ATOM     59  C   UNL     1       3.050  -3.021  12.432  1.00  0.00     0.031 C 
ATOM     60  C   UNL     1       2.696  -8.030   9.670  1.00  0.00     0.029 A 
ATOM     61  C   UNL     1       2.763  -7.032  10.645  1.00  0.00     0.049 A 
ATOM     62  H   UNL     1       4.501  -6.559  11.724  1.00  0.00     0.167 HD
ATOM     63  C   UNL     1       1.988  -5.018  11.905  1.00  0.00     0.074 A 
ATOM     64  C   UNL     1       3.223  -4.340  12.297  1.00  0.00     0.031 C 
ATOM     65  C   UNL     1       1.748  -6.180  11.228  1.00  0.00     0.031 A 
BRANCH  52  66
ATOM     66  C   UNL     1       7.066  -6.226  10.338  1.00  0.00    -0.014 A 
ATOM     67  C   UNL     1       7.303  -7.169  11.357  1.00  0.00     0.009 A 
ATOM     68  C   UNL     1       7.726  -4.989  10.463  1.00  0.00     0.009 A 
ATOM     69  C   UNL     1       8.079  -6.855  12.479  1.00  0.00     0.001 A 
ATOM     70  C   UNL     1       8.535  -4.686  11.562  1.00  0.00     0.001 A 
ATOM     71  C   UNL     1       8.686  -5.608  12.586  1.00  0.00     0.000 A 
ENDBRANCH  52  66
BRANCH  53  72
ATOM     72  C   UNL     1       1.006  -0.422  12.043  1.00  0.00    -0.014 A 
ATOM     73  C   UNL     1       0.572  -0.387  13.379  1.00  0.00     0.009 A 
ATOM     74  C   UNL     1       1.526   0.764  11.494  1.00  0.00     0.009 A 
ATOM     75  C   UNL     1       0.696   0.779  14.149  1.00  0.00     0.001 A 
ATOM     76  C   UNL     1       1.650   1.928  12.262  1.00  0.00     0.001 A 
ATOM     77  C   UNL     1       1.250   1.931  13.595  1.00  0.00     0.000 A 
ENDBRANCH  53  72
BRANCH  65  78
ATOM     78  C   UNL     1       0.315  -6.496  10.867  1.00  0.00    -0.014 A 
ATOM     79  C   UNL     1      -0.466  -5.704  10.005  1.00  0.00     0.009 A 
ATOM     80  C   UNL     1      -0.219  -7.712  11.316  1.00  0.00     0.009 A 
ATOM     81  C   UNL     1      -1.754  -6.107   9.632  1.00  0.00     0.001 A 
ATOM     82  C   UNL     1      -1.495  -8.124  10.926  1.00  0.00     0.001 A 
ATOM     83  C   UNL     1      -2.265  -7.319  10.090  1.00  0.00     0.000 A 
ENDBRANCH  65  78
ENDBRANCH  39  40
ENDBRANCH  31  34
ENDBRANCH  29  30
ENDBRANCH  28  29
ENDBRANCH   1  28
TORSDOF 14
