REMARK SMILES CC(C)C[C@H](NC(=O)[C@H](Cc1ccccc1)NC(=O)CNC(=O)C[NH3+])C(=O)NCCCCNC(=O)c1ccc(-c2c3nc(c(-c4ccccc4)c4ccc([nH]4)c(-c4ccccc4)c4nc(c(-c5ccccc5)c5ccc2[nH]5)C=C4)C=C3)cc1
REMARK SMILES IDX 26 1 27 2 28 3 5 5 4 6 2 7 1 8 3 9 6 10 7 11 8 13 9 14 17 15
REMARK SMILES IDX 18 16 19 18 20 19 21 20 22 21 23 23 24 24 25 25 10 29 11 30
REMARK SMILES IDX 12 31 16 32 13 33 15 34 14 35 29 36 30 37 31 38 32 39 33 40
REMARK SMILES IDX 34 41 35 43 36 44 37 45 83 46 38 47 82 48 39 49 40 50 41 51
REMARK SMILES IDX 76 52 42 53 81 54 75 55 77 56 43 57 80 58 74 59 73 60 44 62
REMARK SMILES IDX 66 63 51 64 65 65 52 66 55 67 64 68 78 69 53 70 54 71 63 73
REMARK SMILES IDX 79 74 56 75 45 76 46 77 50 78 47 79 49 80 48 81 67 82 68 83
REMARK SMILES IDX 72 84 69 85 71 86 70 87 57 88 58 89 62 90 59 91 61 92 60 93
REMARK H PARENT 28 4 6 12 17 17 21 22 25 26 25 27 25 28 33 42 77 61 55 72
REMARK Flexibility Score: inf
ROOT
ATOM      1  C   UNL     1       0.274  -3.458  -2.906  1.00  0.00     0.242 C 
ATOM      2  O   UNL     1       0.871  -4.489  -2.587  1.00  0.00    -0.273 OA
ATOM      3  N   UNL     1      -0.203  -3.369  -4.182  1.00  0.00    -0.354 N 
ATOM      4  H   UNL     1       0.099  -4.087  -4.785  1.00  0.00     0.163 HD
ENDROOT
BRANCH   1   5
ATOM      5  C   UNL     1      -0.027  -2.360  -1.869  1.00  0.00     0.171 C 
BRANCH   5   6
ATOM      6  C   UNL     1      -1.539  -2.369  -1.556  1.00  0.00     0.038 C 
BRANCH   6   7
ATOM      7  C   UNL     1      -2.069  -3.561  -0.731  1.00  0.00    -0.015 C 
ATOM      8  C   UNL     1      -1.186  -3.975   0.442  1.00  0.00     0.007 C 
ATOM      9  C   UNL     1      -3.468  -3.213  -0.209  1.00  0.00     0.007 C 
ENDBRANCH   6   7
ENDBRANCH   5   6
BRANCH   5  10
ATOM     10  N   UNL     1       0.427  -1.058  -2.379  1.00  0.00    -0.343 N 
ATOM     11  C   UNL     1       0.675   0.151  -1.815  1.00  0.00     0.243 C 
ATOM     12  H   UNL     1       0.587  -1.064  -3.351  1.00  0.00     0.164 HD
ATOM     13  O   UNL     1       0.803   1.077  -2.629  1.00  0.00    -0.273 OA
BRANCH  11  14
ATOM     14  C   UNL     1       0.944   0.387  -0.297  1.00  0.00     0.175 C 
BRANCH  14  15
ATOM     15  N   UNL     1       0.845   1.828  -0.074  1.00  0.00    -0.342 N 
ATOM     16  C   UNL     1       1.741   2.686   0.484  1.00  0.00     0.240 C 
ATOM     17  H   UNL     1       0.003   2.240  -0.374  1.00  0.00     0.164 HD
ATOM     18  O   UNL     1       1.481   3.893   0.432  1.00  0.00    -0.273 OA
BRANCH  16  19
ATOM     19  C   UNL     1       3.103   2.208   1.012  1.00  0.00     0.216 C 
BRANCH  19  20
ATOM     20  N   UNL     1       3.115   0.937   1.723  1.00  0.00    -0.342 N 
ATOM     21  C   UNL     1       3.847  -0.182   1.440  1.00  0.00     0.275 C 
ATOM     22  H   UNL     1       2.521   0.877   2.506  1.00  0.00     0.164 HD
ATOM     23  O   UNL     1       3.588  -1.231   2.033  1.00  0.00    -0.268 OA
BRANCH  21  24
ATOM     24  C   UNL     1       4.920  -0.131   0.345  1.00  0.00     0.360 C 
BRANCH  24  25
ATOM     25  N   UNL     1       4.310  -0.330  -0.979  1.00  0.00    -0.350 N 
ATOM     26  H   UNL     1       3.856  -1.242  -1.011  1.00  0.00     0.344 HD
ATOM     27  H   UNL     1       5.034  -0.286  -1.696  1.00  0.00     0.344 HD
ATOM     28  H   UNL     1       3.619   0.401  -1.149  1.00  0.00     0.344 HD
ENDBRANCH  24  25
ENDBRANCH  21  24
ENDBRANCH  19  20
ENDBRANCH  16  19
ENDBRANCH  14  15
BRANCH  14  29
ATOM     29  C   UNL     1       0.089  -0.435   0.669  1.00  0.00     0.070 C 
BRANCH  29  30
ATOM     30  C   UNL     1      -0.203  -0.098   2.116  1.00  0.00    -0.045 A 
ATOM     31  C   UNL     1      -0.249  -1.154   3.046  1.00  0.00     0.004 A 
ATOM     32  C   UNL     1      -0.692   1.150   2.516  1.00  0.00     0.004 A 
ATOM     33  C   UNL     1      -0.822  -0.985   4.306  1.00  0.00     0.000 A 
ATOM     34  C   UNL     1      -1.230   1.330   3.793  1.00  0.00     0.000 A 
ATOM     35  C   UNL     1      -1.319   0.258   4.677  1.00  0.00     0.000 A 
ENDBRANCH  29  30
ENDBRANCH  14  29
ENDBRANCH  11  14
ENDBRANCH   5  10
ENDBRANCH   1   5
BRANCH   3  36
ATOM     36  C   UNL     1      -1.085  -2.389  -4.797  1.00  0.00     0.116 C 
BRANCH  36  37
ATOM     37  C   UNL     1      -0.655  -2.065  -6.219  1.00  0.00     0.023 C 
BRANCH  37  38
ATOM     38  C   UNL     1      -0.819  -3.229  -7.194  1.00  0.00     0.023 C 
BRANCH  38  39
ATOM     39  C   UNL     1      -2.206  -3.861  -7.201  1.00  0.00     0.116 C 
BRANCH  39  40
ATOM     40  N   UNL     1      -3.258  -2.902  -7.504  1.00  0.00    -0.352 N 
ATOM     41  C   UNL     1      -4.239  -2.975  -8.467  1.00  0.00     0.251 C 
ATOM     42  H   UNL     1      -3.270  -2.092  -6.945  1.00  0.00     0.163 HD
ATOM     43  O   UNL     1      -4.956  -2.022  -8.706  1.00  0.00    -0.269 OA
BRANCH  41  44
ATOM     44  C   UNL     1      -4.381  -4.232  -9.230  1.00  0.00     0.039 A 
ATOM     45  C   UNL     1      -4.394  -4.177 -10.624  1.00  0.00     0.014 A 
ATOM     46  C   UNL     1      -4.439  -5.458  -8.561  1.00  0.00     0.014 A 
ATOM     47  C   UNL     1      -4.393  -5.366 -11.354  1.00  0.00     0.010 A 
ATOM     48  C   UNL     1      -4.352  -6.638  -9.289  1.00  0.00     0.010 A 
ATOM     49  C   UNL     1      -4.331  -6.604 -10.691  1.00  0.00    -0.014 A 
BRANCH  49  50
ATOM     50  C   UNL     1      -4.244  -7.877 -11.448  1.00  0.00     0.031 A 
ATOM     51  C   UNL     1      -5.347  -8.893 -11.338  1.00  0.00     0.074 A 
ATOM     52  C   UNL     1      -3.146  -8.146 -12.181  1.00  0.00     0.049 A 
ATOM     53  N   UNL     1      -5.428 -10.084 -11.874  1.00  0.00    -0.248 NA
ATOM     54  C   UNL     1      -6.498  -8.534 -10.493  1.00  0.00     0.031 C 
ATOM     55  C   UNL     1      -1.988  -7.262 -12.333  1.00  0.00     0.029 A 
ATOM     56  N   UNL     1      -2.823  -9.247 -12.934  1.00  0.00    -0.354 N 
ATOM     57  C   UNL     1      -6.626 -10.620 -11.419  1.00  0.00     0.074 A 
ATOM     58  C   UNL     1      -7.211  -9.650 -10.520  1.00  0.00     0.031 C 
ATOM     59  C   UNL     1      -1.097  -7.843 -13.153  1.00  0.00     0.029 A 
ATOM     60  C   UNL     1      -1.599  -9.154 -13.550  1.00  0.00     0.049 A 
ATOM     61  H   UNL     1      -3.413 -10.030 -13.023  1.00  0.00     0.167 HD
ATOM     62  C   UNL     1      -7.200 -11.803 -11.739  1.00  0.00     0.031 A 
ATOM     63  C   UNL     1      -0.951 -10.029 -14.341  1.00  0.00     0.031 A 
ATOM     64  C   UNL     1      -6.623 -12.763 -12.641  1.00  0.00     0.049 A 
ATOM     65  C   UNL     1      -1.603 -11.344 -14.668  1.00  0.00     0.074 A 
ATOM     66  C   UNL     1      -7.152 -13.967 -13.071  1.00  0.00     0.029 A 
ATOM     67  N   UNL     1      -5.385 -12.627 -13.249  1.00  0.00    -0.354 N 
ATOM     68  N   UNL     1      -2.769 -11.806 -14.286  1.00  0.00    -0.248 NA
ATOM     69  C   UNL     1      -0.853 -12.253 -15.545  1.00  0.00     0.031 C 
ATOM     70  C   UNL     1      -6.210 -14.585 -13.899  1.00  0.00     0.029 A 
ATOM     71  C   UNL     1      -5.122 -13.738 -14.033  1.00  0.00     0.049 A 
ATOM     72  H   UNL     1      -4.783 -11.856 -13.141  1.00  0.00     0.167 HD
ATOM     73  C   UNL     1      -2.905 -13.044 -14.899  1.00  0.00     0.074 A 
ATOM     74  C   UNL     1      -1.711 -13.253 -15.691  1.00  0.00     0.031 C 
ATOM     75  C   UNL     1      -3.928 -13.929 -14.815  1.00  0.00     0.031 A 
BRANCH  62  76
ATOM     76  C   UNL     1      -8.523 -12.124 -11.101  1.00  0.00    -0.014 A 
ATOM     77  C   UNL     1      -9.688 -11.421 -11.448  1.00  0.00     0.009 A 
ATOM     78  C   UNL     1      -8.614 -13.166 -10.165  1.00  0.00     0.009 A 
ATOM     79  C   UNL     1     -10.908 -11.729 -10.844  1.00  0.00     0.001 A 
ATOM     80  C   UNL     1      -9.841 -13.492  -9.584  1.00  0.00     0.001 A 
ATOM     81  C   UNL     1     -10.984 -12.768  -9.917  1.00  0.00     0.000 A 
ENDBRANCH  62  76
BRANCH  63  82
ATOM     82  C   UNL     1       0.388  -9.690 -14.893  1.00  0.00    -0.014 A 
ATOM     83  C   UNL     1       0.552  -9.443 -16.264  1.00  0.00     0.009 A 
ATOM     84  C   UNL     1       1.511  -9.624 -14.053  1.00  0.00     0.009 A 
ATOM     85  C   UNL     1       1.817  -9.169 -16.789  1.00  0.00     0.001 A 
ATOM     86  C   UNL     1       2.770  -9.319 -14.576  1.00  0.00     0.001 A 
ATOM     87  C   UNL     1       2.924  -9.103 -15.944  1.00  0.00     0.000 A 
ENDBRANCH  63  82
BRANCH  75  88
ATOM     88  C   UNL     1      -3.818 -15.187 -15.630  1.00  0.00    -0.014 A 
ATOM     89  C   UNL     1      -2.917 -16.206 -15.285  1.00  0.00     0.009 A 
ATOM     90  C   UNL     1      -4.662 -15.371 -16.737  1.00  0.00     0.009 A 
ATOM     91  C   UNL     1      -2.839 -17.369 -16.053  1.00  0.00     0.001 A 
ATOM     92  C   UNL     1      -4.604 -16.548 -17.484  1.00  0.00     0.001 A 
ATOM     93  C   UNL     1      -3.686 -17.541 -17.148  1.00  0.00     0.000 A 
ENDBRANCH  75  88
ENDBRANCH  49  50
ENDBRANCH  41  44
ENDBRANCH  39  40
ENDBRANCH  38  39
ENDBRANCH  37  38
ENDBRANCH  36  37
ENDBRANCH   3  36
TORSDOF 22
