REMARK SMILES CC[N@@H+](C)Cc1cc2c(cc1Cl)C=C(C(=O)NCCCCNC(=O)c1ccc(-c3c4nc(c(-c5ccccc5)c5ccc([nH]5)c(-c5ccccc5)c5nc(c(-c6ccccc6)c6ccc3[nH]6)C=C5)C=C4)cc1)[C@@H](C(F)(F)F)O2
REMARK SMILES IDX 19 1 18 2 17 3 15 4 16 5 14 7 6 8 7 9 11 10 8 11 10 12 12 13
REMARK SMILES IDX 9 14 78 15 13 16 73 17 5 18 3 19 4 20 2 22 1 23 74 24 75 25
REMARK SMILES IDX 76 26 77 27 20 28 21 29 22 30 23 31 24 33 25 34 26 35 72 36
REMARK SMILES IDX 27 37 71 38 28 39 29 40 30 41 65 42 31 43 70 44 64 45 66 46
REMARK SMILES IDX 32 47 69 48 63 49 62 50 33 52 55 53 40 54 54 55 41 56 44 57
REMARK SMILES IDX 53 58 67 59 42 60 43 61 52 63 68 64 45 65 34 66 35 67 39 68
REMARK SMILES IDX 36 69 38 70 37 71 56 72 57 73 61 74 58 75 60 76 59 77 46 78
REMARK SMILES IDX 47 79 51 80 48 81 50 82 49 83
REMARK H PARENT 17 6 3 21 22 32 66 51 44 62
REMARK Flexibility Score: inf
ROOT
ATOM      1  C   UNL     1       1.078   9.432  -1.137  1.00  0.00     0.023 C 
ENDROOT
BRANCH   1   2
ATOM      2  C   UNL     1       1.794   9.223  -2.469  1.00  0.00     0.116 C 
BRANCH   2   3
ATOM      3  N   UNL     1       3.207   8.927  -2.298  1.00  0.00    -0.352 N 
ATOM      4  C   UNL     1       3.983   7.817  -2.247  1.00  0.00     0.251 C 
ATOM      5  O   UNL     1       5.191   8.022  -2.089  1.00  0.00    -0.270 OA
ATOM      6  H   UNL     1       3.739   9.748  -2.190  1.00  0.00     0.163 HD
BRANCH   4   7
ATOM      7  C   UNL     1       3.481   6.416  -2.359  1.00  0.00     0.067 C 
ATOM      8  C   UNL     1       2.949   1.378  -2.349  1.00  0.00     0.029 A 
ATOM      9  C   UNL     1       2.090   2.482  -2.350  1.00  0.00     0.058 A 
ATOM     10  C   UNL     1       4.334   1.653  -2.316  1.00  0.00     0.050 A 
ATOM     11  C   UNL     1       2.576   3.784  -2.294  1.00  0.00     0.128 A 
ATOM     12  C   UNL     1       4.824   2.971  -2.264  1.00  0.00     0.033 A 
ATOM     13  Cl  UNL     1       5.511   0.382  -2.340  1.00  0.00    -0.084 Cl
ATOM     14  C   UNL     1       3.939   4.048  -2.249  1.00  0.00     0.019 A 
ATOM     15  O   UNL     1       1.630   4.765  -2.240  1.00  0.00    -0.475 OA
ATOM     16  C   UNL     1       4.383   5.435  -2.152  1.00  0.00     0.025 C 
ATOM     17  C   UNL     1       2.062   6.066  -2.707  1.00  0.00     0.314 C 
BRANCH   8  18
ATOM     18  C   UNL     1       2.446  -0.057  -2.393  1.00  0.00     0.300 C 
BRANCH  18  19
ATOM     19  N   UNL     1       1.005  -0.352  -2.315  1.00  0.00    -0.334 N 
ATOM     20  C   UNL     1       0.275  -0.084  -3.547  1.00  0.00     0.333 C 
ATOM     21  H   UNL     1       1.030  -1.366  -2.204  1.00  0.00     0.348 HD
BRANCH  19  22
ATOM     22  C   UNL     1       0.284   0.042  -1.105  1.00  0.00     0.258 C 
ATOM     23  C   UNL     1       0.918  -0.447   0.192  1.00  0.00     0.071 C 
ENDBRANCH  19  22
ENDBRANCH  18  19
ENDBRANCH   8  18
BRANCH  17  24
ATOM     24  C   UNL     1       1.768   6.190  -4.214  1.00  0.00     0.429 C 
ATOM     25  F   UNL     1       0.429   6.178  -4.434  1.00  0.00    -0.167 F 
ATOM     26  F   UNL     1       2.232   7.349  -4.739  1.00  0.00    -0.167 F 
ATOM     27  F   UNL     1       2.307   5.186  -4.939  1.00  0.00    -0.167 F 
ENDBRANCH  17  24
ENDBRANCH   4   7
ENDBRANCH   2   3
ENDBRANCH   1   2
BRANCH   1  28
ATOM     28  C   UNL     1       1.093  10.878  -0.640  1.00  0.00     0.023 C 
BRANCH  28  29
ATOM     29  C   UNL     1       0.515  11.906  -1.609  1.00  0.00     0.116 C 
BRANCH  29  30
ATOM     30  N   UNL     1      -0.834  11.611  -2.075  1.00  0.00    -0.352 N 
ATOM     31  C   UNL     1      -1.757  12.508  -2.571  1.00  0.00     0.251 C 
ATOM     32  H   UNL     1      -1.117  10.669  -2.032  1.00  0.00     0.163 HD
ATOM     33  O   UNL     1      -2.890  12.155  -2.876  1.00  0.00    -0.269 OA
BRANCH  31  34
ATOM     34  C   UNL     1      -1.359  13.926  -2.660  1.00  0.00     0.039 A 
ATOM     35  C   UNL     1      -0.197  14.275  -3.350  1.00  0.00     0.014 A 
ATOM     36  C   UNL     1      -2.064  14.874  -1.916  1.00  0.00     0.014 A 
ATOM     37  C   UNL     1       0.365  15.526  -3.137  1.00  0.00     0.010 A 
ATOM     38  C   UNL     1      -1.536  16.158  -1.770  1.00  0.00     0.010 A 
ATOM     39  C   UNL     1      -0.284  16.470  -2.322  1.00  0.00    -0.014 A 
BRANCH  39  40
ATOM     40  C   UNL     1       0.392  17.757  -2.025  1.00  0.00     0.031 A 
ATOM     41  C   UNL     1       0.853  18.077  -0.627  1.00  0.00     0.074 A 
ATOM     42  C   UNL     1       0.661  18.607  -3.033  1.00  0.00     0.049 A 
ATOM     43  N   UNL     1       1.486  19.139  -0.193  1.00  0.00    -0.248 NA
ATOM     44  C   UNL     1       0.573  17.080   0.420  1.00  0.00     0.031 C 
ATOM     45  C   UNL     1       0.296  18.390  -4.434  1.00  0.00     0.029 A 
ATOM     46  N   UNL     1       1.334  19.801  -3.042  1.00  0.00    -0.354 N 
ATOM     47  C   UNL     1       1.657  18.949   1.173  1.00  0.00     0.074 A 
ATOM     48  C   UNL     1       1.046  17.681   1.504  1.00  0.00     0.031 C 
ATOM     49  C   UNL     1       0.803  19.385  -5.176  1.00  0.00     0.029 A 
ATOM     50  C   UNL     1       1.469  20.341  -4.297  1.00  0.00     0.049 A 
ATOM     51  H   UNL     1       1.686  20.229  -2.229  1.00  0.00     0.167 HD
ATOM     52  C   UNL     1       2.275  19.756   2.068  1.00  0.00     0.031 A 
ATOM     53  C   UNL     1       2.055  21.484  -4.701  1.00  0.00     0.031 A 
ATOM     54  C   UNL     1       2.895  21.010   1.736  1.00  0.00     0.049 A 
ATOM     55  C   UNL     1       2.698  22.379  -3.684  1.00  0.00     0.074 A 
ATOM     56  C   UNL     1       3.547  21.896   2.578  1.00  0.00     0.029 A 
ATOM     57  N   UNL     1       2.950  21.553   0.462  1.00  0.00    -0.354 N 
ATOM     58  N   UNL     1       2.830  22.194  -2.394  1.00  0.00    -0.248 NA
ATOM     59  C   UNL     1       3.265  23.642  -4.176  1.00  0.00     0.031 C 
ATOM     60  C   UNL     1       3.957  22.996   1.820  1.00  0.00     0.029 A 
ATOM     61  C   UNL     1       3.608  22.770   0.498  1.00  0.00     0.049 A 
ATOM     62  H   UNL     1       2.575  21.136  -0.347  1.00  0.00     0.167 HD
ATOM     63  C   UNL     1       3.500  23.313  -1.918  1.00  0.00     0.074 A 
ATOM     64  C   UNL     1       3.765  24.162  -3.062  1.00  0.00     0.031 C 
ATOM     65  C   UNL     1       3.857  23.608  -0.646  1.00  0.00     0.031 A 
BRANCH  52  66
ATOM     66  C   UNL     1       2.300  19.321   3.507  1.00  0.00    -0.014 A 
ATOM     67  C   UNL     1       1.522  20.007   4.454  1.00  0.00     0.009 A 
ATOM     68  C   UNL     1       3.149  18.292   3.941  1.00  0.00     0.009 A 
ATOM     69  C   UNL     1       1.600  19.677   5.808  1.00  0.00     0.001 A 
ATOM     70  C   UNL     1       3.206  17.948   5.294  1.00  0.00     0.001 A 
ATOM     71  C   UNL     1       2.438  18.645   6.226  1.00  0.00     0.000 A 
ENDBRANCH  52  66
BRANCH  53  72
ATOM     72  C   UNL     1       2.051  21.826  -6.145  1.00  0.00    -0.014 A 
ATOM     73  C   UNL     1       0.854  22.179  -6.789  1.00  0.00     0.009 A 
ATOM     74  C   UNL     1       3.228  21.732  -6.902  1.00  0.00     0.009 A 
ATOM     75  C   UNL     1       0.829  22.402  -8.166  1.00  0.00     0.001 A 
ATOM     76  C   UNL     1       3.205  21.983  -8.276  1.00  0.00     0.001 A 
ATOM     77  C   UNL     1       2.004  22.306  -8.908  1.00  0.00     0.000 A 
ENDBRANCH  53  72
BRANCH  65  78
ATOM     78  C   UNL     1       4.582  24.901  -0.409  1.00  0.00    -0.014 A 
ATOM     79  C   UNL     1       5.947  24.886  -0.081  1.00  0.00     0.009 A 
ATOM     80  C   UNL     1       3.895  26.124  -0.418  1.00  0.00     0.009 A 
ATOM     81  C   UNL     1       6.609  26.070   0.244  1.00  0.00     0.001 A 
ATOM     82  C   UNL     1       4.566  27.310  -0.114  1.00  0.00     0.001 A 
ATOM     83  C   UNL     1       5.919  27.281   0.224  1.00  0.00     0.000 A 
ENDBRANCH  65  78
ENDBRANCH  39  40
ENDBRANCH  31  34
ENDBRANCH  29  30
ENDBRANCH  28  29
ENDBRANCH   1  28
TORSDOF 15
