REMARK SMILES Cc1cccc(OC2(C(=O)NCCCCNC(=O)c3ccc(-c4c5nc(c(-c6ccccc6)c6ccc([nH]6)c(-c6ccccc6)c6nc(c(-c7ccccc7)c7ccc4[nH]7)C=C6)C=C5)cc3)CCN(C(=O)c3cnc[nH]c3=O)CC2)c1
REMARK SMILES IDX 13 1 12 2 11 3 9 4 10 5 8 7 67 8 80 9 68 10 79 11 69 12
REMARK SMILES IDX 70 13 71 14 7 15 6 16 1 17 2 18 3 19 81 20 4 21 5 22 72 23
REMARK SMILES IDX 73 24 77 25 74 26 76 27 78 28 75 29 14 31 15 32 16 33 17 34
REMARK SMILES IDX 18 36 19 37 20 38 66 39 21 40 65 41 22 42 23 43 24 44 59 45
REMARK SMILES IDX 25 46 64 47 58 48 60 49 26 50 63 51 57 52 56 53 27 55 49 56
REMARK SMILES IDX 34 57 48 58 35 59 38 60 47 61 61 62 36 63 37 64 46 66 62 67
REMARK SMILES IDX 39 68 28 69 29 70 33 71 30 72 32 73 31 74 50 75 51 76 55 77
REMARK SMILES IDX 52 78 54 79 53 80 40 81 41 82 45 83 42 84 44 85 43 86
REMARK H PARENT 11 6 76 30 16 35 60 54 38 65
REMARK Flexibility Score: inf
ROOT
ATOM      1  C   UNL     1       1.646   6.411  -1.617  1.00  0.00     0.023 C 
ENDROOT
BRANCH   1   2
ATOM      2  C   UNL     1       0.111   6.496  -1.441  1.00  0.00     0.116 C 
BRANCH   2   3
ATOM      3  N   UNL     1      -0.699   5.353  -1.875  1.00  0.00    -0.353 N 
ATOM      4  C   UNL     1      -1.236   4.256  -1.251  1.00  0.00     0.264 C 
ATOM      5  O   UNL     1      -2.202   3.755  -1.845  1.00  0.00    -0.270 OA
ATOM      6  H   UNL     1      -0.905   5.380  -2.837  1.00  0.00     0.163 HD
BRANCH   4   7
ATOM      7  C   UNL     1      -0.716   3.636   0.094  1.00  0.00     0.190 C 
ATOM      8  C   UNL     1       0.779   3.880   0.224  1.00  0.00     0.080 C 
ATOM      9  C   UNL     1      -1.448   4.303   1.294  1.00  0.00     0.080 C 
ATOM     10  C   UNL     1       1.390   3.579   1.570  1.00  0.00     0.124 C 
ATOM     11  C   UNL     1      -0.768   3.957   2.635  1.00  0.00     0.124 C 
ATOM     12  N   UNL     1       0.644   4.320   2.563  1.00  0.00    -0.338 N 
ATOM     13  C   UNL     1       1.100   5.572   2.946  1.00  0.00     0.261 C 
ATOM     14  O   UNL     1       1.779   6.300   2.226  1.00  0.00    -0.269 OA
BRANCH   7  15
ATOM     15  O   UNL     1      -1.202   2.280   0.121  1.00  0.00    -0.477 OA
BRANCH  15  16
ATOM     16  C   UNL     1      -0.583   1.085  -0.001  1.00  0.00     0.121 A 
ATOM     17  C   UNL     1       2.743  -0.760  -0.084  1.00  0.00     0.044 C 
ATOM     18  C   UNL     1       1.263  -0.506  -0.072  1.00  0.00    -0.047 A 
ATOM     19  C   UNL     1       0.366  -1.571   0.011  1.00  0.00     0.003 A 
ATOM     20  C   UNL     1       0.772   0.810  -0.124  1.00  0.00     0.049 A 
ATOM     21  C   UNL     1      -1.001  -1.319   0.059  1.00  0.00     0.004 A 
ATOM     22  C   UNL     1      -1.464  -0.002   0.065  1.00  0.00     0.046 A 
ENDBRANCH  15  16
ENDBRANCH   7  15
BRANCH  13  23
ATOM     23  C   UNL     1       0.756   5.969   4.319  1.00  0.00     0.123 A 
ATOM     24  C   UNL     1       0.181   7.155   4.559  1.00  0.00     0.132 A 
ATOM     25  C   UNL     1       1.089   5.125   5.480  1.00  0.00     0.263 A 
ATOM     26  N   UNL     1      -0.175   7.619   5.804  1.00  0.00    -0.246 NA
ATOM     27  N   UNL     1       0.715   5.638   6.689  1.00  0.00    -0.312 N 
ATOM     28  O   UNL     1       1.675   4.053   5.395  1.00  0.00    -0.269 OA
ATOM     29  C   UNL     1       0.106   6.852   6.804  1.00  0.00     0.199 A 
ATOM     30  H   UNL     1       0.891   5.114   7.504  1.00  0.00     0.171 HD
ENDBRANCH  13  23
ENDBRANCH   4   7
ENDBRANCH   2   3
ENDBRANCH   1   2
BRANCH   1  31
ATOM     31  C   UNL     1       2.156   6.099  -3.017  1.00  0.00     0.023 C 
BRANCH  31  32
ATOM     32  C   UNL     1       2.278   7.345  -3.869  1.00  0.00     0.116 C 
BRANCH  32  33
ATOM     33  N   UNL     1       3.425   8.193  -3.546  1.00  0.00    -0.352 N 
ATOM     34  C   UNL     1       3.676   9.507  -3.933  1.00  0.00     0.251 C 
ATOM     35  H   UNL     1       4.113   7.779  -2.976  1.00  0.00     0.163 HD
ATOM     36  O   UNL     1       4.679  10.086  -3.585  1.00  0.00    -0.269 OA
BRANCH  34  37
ATOM     37  C   UNL     1       2.605  10.227  -4.670  1.00  0.00     0.039 A 
ATOM     38  C   UNL     1       2.143  11.425  -4.118  1.00  0.00     0.014 A 
ATOM     39  C   UNL     1       1.869   9.561  -5.643  1.00  0.00     0.014 A 
ATOM     40  C   UNL     1       0.817  11.787  -4.321  1.00  0.00     0.010 A 
ATOM     41  C   UNL     1       0.522   9.840  -5.734  1.00  0.00     0.010 A 
ATOM     42  C   UNL     1      -0.017  10.910  -5.011  1.00  0.00    -0.014 A 
BRANCH  42  43
ATOM     43  C   UNL     1      -1.472  10.968  -4.927  1.00  0.00     0.031 A 
ATOM     44  C   UNL     1      -2.258  11.392  -6.100  1.00  0.00     0.074 A 
ATOM     45  C   UNL     1      -2.104  10.620  -3.784  1.00  0.00     0.049 A 
ATOM     46  N   UNL     1      -3.432  11.920  -6.035  1.00  0.00    -0.248 NA
ATOM     47  C   UNL     1      -1.734  11.314  -7.458  1.00  0.00     0.031 C 
ATOM     48  C   UNL     1      -3.532  10.384  -3.586  1.00  0.00     0.029 A 
ATOM     49  N   UNL     1      -1.583  10.625  -2.497  1.00  0.00    -0.354 N 
ATOM     50  C   UNL     1      -3.926  11.982  -7.316  1.00  0.00     0.074 A 
ATOM     51  C   UNL     1      -2.803  11.677  -8.169  1.00  0.00     0.031 C 
ATOM     52  C   UNL     1      -3.816  10.499  -2.277  1.00  0.00     0.029 A 
ATOM     53  C   UNL     1      -2.611  10.962  -1.608  1.00  0.00     0.049 A 
ATOM     54  H   UNL     1      -0.650  10.426  -2.252  1.00  0.00     0.167 HD
ATOM     55  C   UNL     1      -5.265  12.141  -7.512  1.00  0.00     0.031 A 
ATOM     56  C   UNL     1      -2.533  12.091  -0.843  1.00  0.00     0.031 A 
ATOM     57  C   UNL     1      -5.975  12.358  -6.253  1.00  0.00     0.049 A 
ATOM     58  C   UNL     1      -3.619  13.105  -1.141  1.00  0.00     0.074 A 
ATOM     59  C   UNL     1      -6.713  11.521  -5.431  1.00  0.00     0.029 A 
ATOM     60  N   UNL     1      -5.718  13.508  -5.517  1.00  0.00    -0.354 N 
ATOM     61  N   UNL     1      -4.351  13.097  -2.221  1.00  0.00    -0.248 NA
ATOM     62  C   UNL     1      -3.927  14.238  -0.270  1.00  0.00     0.031 C 
ATOM     63  C   UNL     1      -6.833  12.148  -4.163  1.00  0.00     0.029 A 
ATOM     64  C   UNL     1      -6.198  13.376  -4.228  1.00  0.00     0.049 A 
ATOM     65  H   UNL     1      -5.259  14.306  -5.865  1.00  0.00     0.167 HD
ATOM     66  C   UNL     1      -5.182  14.187  -2.221  1.00  0.00     0.074 A 
ATOM     67  C   UNL     1      -4.893  14.861  -0.969  1.00  0.00     0.031 C 
ATOM     68  C   UNL     1      -6.021  14.454  -3.264  1.00  0.00     0.031 A 
BRANCH  55  69
ATOM     69  C   UNL     1      -5.951  11.791  -8.812  1.00  0.00    -0.014 A 
ATOM     70  C   UNL     1      -7.293  11.372  -8.796  1.00  0.00     0.009 A 
ATOM     71  C   UNL     1      -5.323  11.780 -10.069  1.00  0.00     0.009 A 
ATOM     72  C   UNL     1      -7.931  10.871  -9.939  1.00  0.00     0.001 A 
ATOM     73  C   UNL     1      -5.937  11.241 -11.208  1.00  0.00     0.001 A 
ATOM     74  C   UNL     1      -7.241  10.774 -11.140  1.00  0.00     0.000 A 
ENDBRANCH  55  69
BRANCH  56  75
ATOM     75  C   UNL     1      -1.139  12.451  -0.451  1.00  0.00    -0.014 A 
ATOM     76  C   UNL     1      -0.427  11.564   0.382  1.00  0.00     0.009 A 
ATOM     77  C   UNL     1      -0.422  13.427  -1.157  1.00  0.00     0.009 A 
ATOM     78  C   UNL     1       0.971  11.572   0.409  1.00  0.00     0.001 A 
ATOM     79  C   UNL     1       0.979  13.442  -1.113  1.00  0.00     0.001 A 
ATOM     80  C   UNL     1       1.673  12.493  -0.362  1.00  0.00     0.000 A 
ENDBRANCH  56  75
BRANCH  68  81
ATOM     81  C   UNL     1      -6.805  15.727  -3.467  1.00  0.00    -0.014 A 
ATOM     82  C   UNL     1      -6.454  16.968  -2.921  1.00  0.00     0.009 A 
ATOM     83  C   UNL     1      -7.888  15.719  -4.377  1.00  0.00     0.009 A 
ATOM     84  C   UNL     1      -7.173  18.131  -3.232  1.00  0.00     0.001 A 
ATOM     85  C   UNL     1      -8.578  16.883  -4.725  1.00  0.00     0.001 A 
ATOM     86  C   UNL     1      -8.226  18.090  -4.141  1.00  0.00     0.000 A 
ENDBRANCH  68  81
ENDBRANCH  42  43
ENDBRANCH  34  37
ENDBRANCH  32  33
ENDBRANCH  31  32
ENDBRANCH   1  31
TORSDOF 14
