REMARK SMILES C[C@H](NC(=O)c1cccc(NC(=O)c2ccccc2C(=O)NCCCCNC(=O)c2ccc(-c3c4nc(c(-c5ccccc5)c5ccc([nH]5)c(-c5ccccc5)c5nc(c(-c6ccccc6)c6ccc3[nH]6)C=C5)C=C4)cc2)c1)c1ccccc1
REMARK SMILES IDX 23 1 22 2 20 3 21 4 19 6 14 7 15 8 16 9 18 10 17 11 12 12
REMARK SMILES IDX 11 13 13 15 10 16 6 17 7 18 78 19 8 20 9 21 4 22 3 23 5 25
REMARK SMILES IDX 2 26 1 27 79 28 80 29 84 30 81 31 83 32 82 33 24 34 25 35
REMARK SMILES IDX 26 36 27 37 28 38 29 40 30 41 31 42 77 43 32 44 76 45 33 46
REMARK SMILES IDX 34 47 35 48 70 49 36 50 75 51 69 52 71 53 37 54 74 55 68 56
REMARK SMILES IDX 67 57 38 59 60 60 45 61 59 62 46 63 49 64 58 65 72 66 47 67
REMARK SMILES IDX 48 68 57 70 73 71 50 72 39 73 40 74 44 75 41 76 43 77 42 78
REMARK SMILES IDX 61 79 62 80 66 81 63 82 65 83 64 84 51 85 52 86 56 87 53 88
REMARK SMILES IDX 55 89 54 90
REMARK H PARENT 22 5 11 14 3 24 27 39 71 58 49 69
REMARK Flexibility Score: inf
ROOT
ATOM      1  C   UNL     1      -2.111   5.214   2.707  1.00  0.00     0.116 C 
ENDROOT
BRANCH   1   2
ATOM      2  N   UNL     1      -0.853   5.186   1.983  1.00  0.00    -0.352 N 
ATOM      3  C   UNL     1       0.427   5.467   2.395  1.00  0.00     0.252 C 
ATOM      4  O   UNL     1       1.328   5.394   1.558  1.00  0.00    -0.269 OA
ATOM      5  H   UNL     1      -0.931   4.922   1.038  1.00  0.00     0.163 HD
BRANCH   3   6
ATOM      6  C   UNL     1       0.770   5.919   3.772  1.00  0.00     0.052 A 
ATOM      7  C   UNL     1       0.328   5.337   4.968  1.00  0.00     0.052 A 
ATOM      8  C   UNL     1       0.703   5.890   6.208  1.00  0.00     0.014 A 
ATOM      9  C   UNL     1       1.602   6.953   6.267  1.00  0.00     0.001 A 
ATOM     10  C   UNL     1       1.709   6.967   3.854  1.00  0.00     0.014 A 
ATOM     11  C   UNL     1       2.128   7.473   5.090  1.00  0.00     0.001 A 
BRANCH   7  12
ATOM     12  C   UNL     1      -0.498   4.122   5.051  1.00  0.00     0.256 C 
ATOM     13  N   UNL     1      -0.168   2.963   4.391  1.00  0.00    -0.322 N 
ATOM     14  H   UNL     1      -0.896   2.302   4.346  1.00  0.00     0.170 HD
ATOM     15  O   UNL     1      -1.554   4.188   5.681  1.00  0.00    -0.269 OA
BRANCH  13  16
ATOM     16  C   UNL     1       1.022   2.552   3.768  1.00  0.00     0.042 A 
ATOM     17  C   UNL     1       2.064   1.120   2.131  1.00  0.00     0.041 A 
ATOM     18  C   UNL     1       3.315   1.670   2.412  1.00  0.00     0.014 A 
ATOM     19  C   UNL     1       0.920   1.539   2.812  1.00  0.00     0.040 A 
ATOM     20  C   UNL     1       3.422   2.648   3.394  1.00  0.00     0.003 A 
ATOM     21  C   UNL     1       2.281   3.076   4.079  1.00  0.00     0.026 A 
BRANCH  17  22
ATOM     22  C   UNL     1       1.986   0.007   1.182  1.00  0.00     0.251 C 
ATOM     23  N   UNL     1       1.699   0.244  -0.129  1.00  0.00    -0.346 N 
ATOM     24  H   UNL     1       1.780  -0.540  -0.719  1.00  0.00     0.164 HD
ATOM     25  O   UNL     1       2.210  -1.134   1.581  1.00  0.00    -0.269 OA
BRANCH  23  26
ATOM     26  C   UNL     1       1.291   1.476  -0.798  1.00  0.00     0.109 C 
ATOM     27  C   UNL     1       2.105   1.624  -2.088  1.00  0.00     0.036 C 
BRANCH  26  28
ATOM     28  C   UNL     1      -0.187   1.462  -1.170  1.00  0.00    -0.026 A 
ATOM     29  C   UNL     1      -0.810   2.655  -1.579  1.00  0.00     0.006 A 
ATOM     30  C   UNL     1      -0.912   0.266  -1.266  1.00  0.00     0.006 A 
ATOM     31  C   UNL     1      -2.098   2.639  -2.121  1.00  0.00     0.000 A 
ATOM     32  C   UNL     1      -2.186   0.253  -1.826  1.00  0.00     0.000 A 
ATOM     33  C   UNL     1      -2.780   1.436  -2.256  1.00  0.00     0.000 A 
ENDBRANCH  26  28
ENDBRANCH  23  26
ENDBRANCH  17  22
ENDBRANCH  13  16
ENDBRANCH   7  12
ENDBRANCH   3   6
ENDBRANCH   1   2
BRANCH   1  34
ATOM     34  C   UNL     1      -3.334   5.455   1.823  1.00  0.00     0.023 C 
BRANCH  34  35
ATOM     35  C   UNL     1      -3.626   4.381   0.766  1.00  0.00     0.023 C 
BRANCH  35  36
ATOM     36  C   UNL     1      -3.759   2.936   1.257  1.00  0.00     0.116 C 
BRANCH  36  37
ATOM     37  N   UNL     1      -4.914   2.720   2.117  1.00  0.00    -0.352 N 
ATOM     38  C   UNL     1      -6.074   2.012   1.891  1.00  0.00     0.251 C 
ATOM     39  H   UNL     1      -4.857   3.150   3.001  1.00  0.00     0.163 HD
ATOM     40  O   UNL     1      -6.987   2.056   2.713  1.00  0.00    -0.269 OA
BRANCH  38  41
ATOM     41  C   UNL     1      -6.258   1.219   0.654  1.00  0.00     0.039 A 
ATOM     42  C   UNL     1      -7.409   1.406  -0.115  1.00  0.00     0.014 A 
ATOM     43  C   UNL     1      -5.327   0.264   0.258  1.00  0.00     0.014 A 
ATOM     44  C   UNL     1      -7.557   0.737  -1.341  1.00  0.00     0.010 A 
ATOM     45  C   UNL     1      -5.462  -0.363  -0.988  1.00  0.00     0.010 A 
ATOM     46  C   UNL     1      -6.540  -0.093  -1.845  1.00  0.00    -0.014 A 
BRANCH  46  47
ATOM     47  C   UNL     1      -6.548  -0.576  -3.272  1.00  0.00     0.031 A 
ATOM     48  C   UNL     1      -6.286  -2.021  -3.653  1.00  0.00     0.074 A 
ATOM     49  C   UNL     1      -6.666   0.318  -4.283  1.00  0.00     0.049 A 
ATOM     50  N   UNL     1      -6.189  -2.554  -4.851  1.00  0.00    -0.248 NA
ATOM     51  C   UNL     1      -6.047  -2.978  -2.564  1.00  0.00     0.031 C 
ATOM     52  C   UNL     1      -6.777   1.772  -4.134  1.00  0.00     0.029 A 
ATOM     53  N   UNL     1      -6.710   0.133  -5.649  1.00  0.00    -0.354 N 
ATOM     54  C   UNL     1      -5.813  -3.879  -4.657  1.00  0.00     0.074 A 
ATOM     55  C   UNL     1      -5.662  -4.059  -3.229  1.00  0.00     0.031 C 
ATOM     56  C   UNL     1      -6.948   2.333  -5.341  1.00  0.00     0.029 A 
ATOM     57  C   UNL     1      -6.916   1.292  -6.362  1.00  0.00     0.049 A 
ATOM     58  H   UNL     1      -6.604  -0.748  -6.075  1.00  0.00     0.167 HD
ATOM     59  C   UNL     1      -5.634  -4.869  -5.568  1.00  0.00     0.031 A 
ATOM     60  C   UNL     1      -7.075   1.513  -7.682  1.00  0.00     0.031 A 
ATOM     61  C   UNL     1      -5.882  -4.753  -6.982  1.00  0.00     0.049 A 
ATOM     62  C   UNL     1      -7.028   0.372  -8.657  1.00  0.00     0.074 A 
ATOM     63  C   UNL     1      -5.877  -5.756  -7.940  1.00  0.00     0.029 A 
ATOM     64  N   UNL     1      -6.194  -3.579  -7.642  1.00  0.00    -0.354 N 
ATOM     65  N   UNL     1      -6.795  -0.896  -8.433  1.00  0.00    -0.248 NA
ATOM     66  C   UNL     1      -7.284   0.695 -10.071  1.00  0.00     0.031 C 
ATOM     67  C   UNL     1      -6.162  -5.184  -9.184  1.00  0.00     0.029 A 
ATOM     68  C   UNL     1      -6.380  -3.831  -8.992  1.00  0.00     0.049 A 
ATOM     69  H   UNL     1      -6.274  -2.695  -7.215  1.00  0.00     0.167 HD
ATOM     70  C   UNL     1      -6.902  -1.522  -9.668  1.00  0.00     0.074 A 
ATOM     71  C   UNL     1      -7.238  -0.503 -10.637  1.00  0.00     0.031 C 
ATOM     72  C   UNL     1      -6.731  -2.832  -9.964  1.00  0.00     0.031 A 
BRANCH  59  73
ATOM     73  C   UNL     1      -5.177  -6.213  -5.065  1.00  0.00    -0.014 A 
ATOM     74  C   UNL     1      -6.034  -7.043  -4.328  1.00  0.00     0.009 A 
ATOM     75  C   UNL     1      -3.901  -6.689  -5.410  1.00  0.00     0.009 A 
ATOM     76  C   UNL     1      -5.610  -8.307  -3.912  1.00  0.00     0.001 A 
ATOM     77  C   UNL     1      -3.491  -7.965  -5.018  1.00  0.00     0.001 A 
ATOM     78  C   UNL     1      -4.342  -8.769  -4.262  1.00  0.00     0.000 A 
ENDBRANCH  59  73
BRANCH  60  79
ATOM     79  C   UNL     1      -7.355   2.885  -8.179  1.00  0.00    -0.014 A 
ATOM     80  C   UNL     1      -8.648   3.225  -8.610  1.00  0.00     0.009 A 
ATOM     81  C   UNL     1      -6.334   3.841  -8.265  1.00  0.00     0.009 A 
ATOM     82  C   UNL     1      -8.904   4.486  -9.152  1.00  0.00     0.001 A 
ATOM     83  C   UNL     1      -6.600   5.111  -8.783  1.00  0.00     0.001 A 
ATOM     84  C   UNL     1      -7.880   5.428  -9.236  1.00  0.00     0.000 A 
ENDBRANCH  60  79
BRANCH  72  85
ATOM     85  C   UNL     1      -6.949  -3.259 -11.388  1.00  0.00    -0.014 A 
ATOM     86  C   UNL     1      -6.020  -2.951 -12.394  1.00  0.00     0.009 A 
ATOM     87  C   UNL     1      -8.086  -4.012 -11.721  1.00  0.00     0.009 A 
ATOM     88  C   UNL     1      -6.241  -3.362 -13.710  1.00  0.00     0.001 A 
ATOM     89  C   UNL     1      -8.293  -4.442 -13.033  1.00  0.00     0.001 A 
ATOM     90  C   UNL     1      -7.374  -4.110 -14.028  1.00  0.00     0.000 A 
ENDBRANCH  72  85
ENDBRANCH  46  47
ENDBRANCH  38  41
ENDBRANCH  36  37
ENDBRANCH  35  36
ENDBRANCH  34  35
ENDBRANCH   1  34
TORSDOF 16
