REMARK SMILES Cc1ccc(-c2cc(C(=O)NCCCCNC(=O)c3ccc(-c4c5nc(c(-c6ccccc6)c6ccc([nH]6)c(-c6ccccc6)c6nc(c(-c7ccccc7)c7ccc4[nH]7)C=C6)C=C5)cc3)c3c(-c4cccc([N+](=O)[O-])c4)[nH]nc3n2)cc1
REMARK SMILES IDX 13 1 12 2 11 3 9 4 10 5 8 7 6 8 7 9 81 10 80 11 67 12 79 13
REMARK SMILES IDX 68 14 78 15 5 17 1 18 2 19 3 20 83 21 4 22 82 23 69 24 70 25
REMARK SMILES IDX 77 26 71 27 73 28 72 29 74 30 75 31 76 32 14 33 15 34 16 35
REMARK SMILES IDX 17 36 18 38 19 39 20 40 66 41 21 42 65 43 22 44 23 45 24 46
REMARK SMILES IDX 59 47 25 48 64 49 58 50 60 51 26 52 63 53 57 54 56 55 27 57
REMARK SMILES IDX 49 58 34 59 48 60 35 61 38 62 47 63 61 64 36 65 37 66 46 68
REMARK SMILES IDX 62 69 39 70 28 71 29 72 33 73 30 74 32 75 31 76 50 77 51 78
REMARK SMILES IDX 55 79 52 80 54 81 53 82 40 83 41 84 45 85 42 86 44 87 43 88
REMARK H PARENT 11 6 78 16 16 37 60 56 38 67
REMARK Flexibility Score: inf
ROOT
ATOM      1  C   UNL     1      -2.915   1.092  -4.344  1.00  0.00     0.023 C 
ENDROOT
BRANCH   1   2
ATOM      2  C   UNL     1      -3.518   2.252  -3.539  1.00  0.00     0.116 C 
BRANCH   2   3
ATOM      3  N   UNL     1      -4.942   2.093  -3.287  1.00  0.00    -0.352 N 
ATOM      4  C   UNL     1      -5.724   1.501  -2.324  1.00  0.00     0.252 C 
ATOM      5  O   UNL     1      -6.920   1.758  -2.439  1.00  0.00    -0.269 OA
ATOM      6  H   UNL     1      -5.486   2.520  -3.987  1.00  0.00     0.163 HD
BRANCH   4   7
ATOM      7  C   UNL     1      -5.227   0.664  -1.201  1.00  0.00     0.055 A 
ATOM      8  C   UNL     1      -3.348  -0.222   0.180  1.00  0.00     0.074 A 
ATOM      9  C   UNL     1      -3.870   0.417  -0.972  1.00  0.00     0.043 A 
ATOM     10  N   UNL     1      -4.079  -0.771   1.177  1.00  0.00    -0.226 NA
ATOM     11  C   UNL     1      -5.414  -0.630   0.979  1.00  0.00     0.182 A 
ATOM     12  C   UNL     1      -5.979   0.057  -0.167  1.00  0.00     0.059 A 
ATOM     13  N   UNL     1      -6.354  -1.085   1.804  1.00  0.00    -0.154 NA
ATOM     14  C   UNL     1      -7.350  -0.063   0.015  1.00  0.00     0.076 A 
ATOM     15  N   UNL     1      -7.497  -0.724   1.212  1.00  0.00    -0.275 N 
ATOM     16  H   UNL     1      -8.379  -0.917   1.604  1.00  0.00     0.190 HD
BRANCH   8  17
ATOM     17  C   UNL     1      -1.885  -0.231   0.330  1.00  0.00     0.000 A 
ATOM     18  C   UNL     1       2.429  -0.135   0.080  1.00  0.00     0.044 C 
ATOM     19  C   UNL     1       0.936  -0.162   0.215  1.00  0.00    -0.051 A 
ATOM     20  C   UNL     1       0.251  -1.385   0.261  1.00  0.00     0.004 A 
ATOM     21  C   UNL     1       0.209   1.027   0.280  1.00  0.00     0.004 A 
ATOM     22  C   UNL     1      -1.147  -1.420   0.323  1.00  0.00     0.010 A 
ATOM     23  C   UNL     1      -1.183   0.990   0.343  1.00  0.00     0.010 A 
ENDBRANCH   8  17
BRANCH  14  24
ATOM     24  C   UNL     1      -8.526   0.294  -0.766  1.00  0.00     0.007 A 
ATOM     25  C   UNL     1      -9.383   1.315  -0.331  1.00  0.00     0.011 A 
ATOM     26  C   UNL     1      -8.769  -0.340  -1.991  1.00  0.00     0.096 A 
ATOM     27  C   UNL     1     -10.445   1.739  -1.135  1.00  0.00     0.008 A 
ATOM     28  C   UNL     1      -9.809   0.118  -2.808  1.00  0.00     0.270 A 
ATOM     29  C   UNL     1     -10.654   1.153  -2.384  1.00  0.00     0.085 A 
BRANCH  28  30
ATOM     30  N   UNL     1      -9.977  -0.454  -4.148  1.00  0.00     0.062 N 
ATOM     31  O   UNL     1     -10.869   0.016  -4.870  1.00  0.00    -0.258 OA
ATOM     32  O   UNL     1      -9.221  -1.378  -4.483  1.00  0.00    -0.258 OA
ENDBRANCH  28  30
ENDBRANCH  14  24
ENDBRANCH   4   7
ENDBRANCH   2   3
ENDBRANCH   1   2
BRANCH   1  33
ATOM     33  C   UNL     1      -3.428   0.977  -5.785  1.00  0.00     0.023 C 
BRANCH  33  34
ATOM     34  C   UNL     1      -3.035   2.142  -6.684  1.00  0.00     0.116 C 
BRANCH  34  35
ATOM     35  N   UNL     1      -1.684   2.079  -7.223  1.00  0.00    -0.352 N 
ATOM     36  C   UNL     1      -0.919   3.074  -7.822  1.00  0.00     0.251 C 
ATOM     37  H   UNL     1      -1.246   1.200  -7.154  1.00  0.00     0.163 HD
ATOM     38  O   UNL     1       0.166   2.809  -8.296  1.00  0.00    -0.269 OA
BRANCH  36  39
ATOM     39  C   UNL     1      -1.371   4.490  -7.740  1.00  0.00     0.039 A 
ATOM     40  C   UNL     1      -0.424   5.442  -7.340  1.00  0.00     0.014 A 
ATOM     41  C   UNL     1      -2.718   4.829  -7.802  1.00  0.00     0.014 A 
ATOM     42  C   UNL     1      -0.857   6.614  -6.727  1.00  0.00     0.010 A 
ATOM     43  C   UNL     1      -3.152   5.935  -7.098  1.00  0.00     0.010 A 
ATOM     44  C   UNL     1      -2.219   6.778  -6.488  1.00  0.00    -0.014 A 
BRANCH  44  45
ATOM     45  C   UNL     1      -2.744   7.703  -5.491  1.00  0.00     0.031 A 
ATOM     46  C   UNL     1      -3.454   8.926  -5.904  1.00  0.00     0.074 A 
ATOM     47  C   UNL     1      -2.616   7.407  -4.179  1.00  0.00     0.049 A 
ATOM     48  N   UNL     1      -3.622   9.954  -5.143  1.00  0.00    -0.248 NA
ATOM     49  C   UNL     1      -3.954   9.125  -7.260  1.00  0.00     0.031 C 
ATOM     50  C   UNL     1      -3.305   8.023  -3.048  1.00  0.00     0.029 A 
ATOM     51  N   UNL     1      -1.633   6.617  -3.590  1.00  0.00    -0.354 N 
ATOM     52  C   UNL     1      -4.491  10.803  -5.784  1.00  0.00     0.074 A 
ATOM     53  C   UNL     1      -4.557  10.310  -7.139  1.00  0.00     0.031 C 
ATOM     54  C   UNL     1      -2.602   7.787  -1.928  1.00  0.00     0.029 A 
ATOM     55  C   UNL     1      -1.356   7.153  -2.324  1.00  0.00     0.049 A 
ATOM     56  H   UNL     1      -1.208   5.825  -3.990  1.00  0.00     0.167 HD
ATOM     57  C   UNL     1      -5.167  11.732  -5.053  1.00  0.00     0.031 A 
ATOM     58  C   UNL     1      -0.115   7.638  -2.024  1.00  0.00     0.031 A 
ATOM     59  C   UNL     1      -4.638  11.832  -3.690  1.00  0.00     0.049 A 
ATOM     60  C   UNL     1      -0.098   9.115  -1.691  1.00  0.00     0.074 A 
ATOM     61  C   UNL     1      -5.090  11.392  -2.457  1.00  0.00     0.029 A 
ATOM     62  N   UNL     1      -3.316  12.225  -3.507  1.00  0.00    -0.354 N 
ATOM     63  N   UNL     1      -1.061   9.945  -1.985  1.00  0.00    -0.248 NA
ATOM     64  C   UNL     1       1.023   9.779  -1.031  1.00  0.00     0.031 C 
ATOM     65  C   UNL     1      -3.999  11.447  -1.547  1.00  0.00     0.029 A 
ATOM     66  C   UNL     1      -2.901  11.958  -2.217  1.00  0.00     0.049 A 
ATOM     67  H   UNL     1      -2.753  12.636  -4.202  1.00  0.00     0.167 HD
ATOM     68  C   UNL     1      -0.719  11.211  -1.585  1.00  0.00     0.074 A 
ATOM     69  C   UNL     1       0.590  11.051  -0.978  1.00  0.00     0.031 C 
ATOM     70  C   UNL     1      -1.540  12.281  -1.802  1.00  0.00     0.031 A 
BRANCH  57  71
ATOM     71  C   UNL     1      -6.472  12.370  -5.486  1.00  0.00    -0.014 A 
ATOM     72  C   UNL     1      -7.256  13.055  -4.538  1.00  0.00     0.009 A 
ATOM     73  C   UNL     1      -7.043  12.252  -6.766  1.00  0.00     0.009 A 
ATOM     74  C   UNL     1      -8.541  13.536  -4.837  1.00  0.00     0.001 A 
ATOM     75  C   UNL     1      -8.323  12.730  -7.076  1.00  0.00     0.001 A 
ATOM     76  C   UNL     1      -9.079  13.364  -6.105  1.00  0.00     0.000 A 
ENDBRANCH  57  71
BRANCH  58  77
ATOM     77  C   UNL     1       0.991   6.914  -2.712  1.00  0.00    -0.014 A 
ATOM     78  C   UNL     1       1.229   5.569  -2.360  1.00  0.00     0.009 A 
ATOM     79  C   UNL     1       1.532   7.397  -3.912  1.00  0.00     0.009 A 
ATOM     80  C   UNL     1       1.884   4.703  -3.240  1.00  0.00     0.001 A 
ATOM     81  C   UNL     1       2.199   6.527  -4.785  1.00  0.00     0.001 A 
ATOM     82  C   UNL     1       2.342   5.177  -4.466  1.00  0.00     0.000 A 
ENDBRANCH  58  77
BRANCH  70  83
ATOM     83  C   UNL     1      -1.187  13.740  -1.604  1.00  0.00    -0.014 A 
ATOM     84  C   UNL     1       0.118  14.244  -1.526  1.00  0.00     0.009 A 
ATOM     85  C   UNL     1      -2.228  14.698  -1.622  1.00  0.00     0.009 A 
ATOM     86  C   UNL     1       0.366  15.622  -1.425  1.00  0.00     0.001 A 
ATOM     87  C   UNL     1      -1.984  16.073  -1.570  1.00  0.00     0.001 A 
ATOM     88  C   UNL     1      -0.683  16.536  -1.458  1.00  0.00     0.000 A 
ENDBRANCH  70  83
ENDBRANCH  44  45
ENDBRANCH  36  39
ENDBRANCH  34  35
ENDBRANCH  33  34
ENDBRANCH   1  33
TORSDOF 14
