REMARK SMILES NC(=O)C1CC[NH+](Cc2ccc(C(=O)NCCCCNC(=O)c3ccc(-c4c5nc(c(-c6ccccc6)c6ccc([nH]6)c(-c6ccccc6)c6nc(c(-c7ccccc7)c7ccc4[nH]7)C=C6)C=C5)cc3)cc2)CC1
REMARK SMILES IDX 17 1 16 2 15 3 13 4 14 5 12 7 9 8 10 9 72 10 11 11 71 12
REMARK SMILES IDX 8 13 7 14 4 15 5 16 74 17 6 18 73 19 2 21 1 22 3 25 18 26
REMARK SMILES IDX 19 27 20 28 21 29 22 31 23 32 24 33 70 34 25 35 69 36 26 37
REMARK SMILES IDX 27 38 28 39 63 40 29 41 68 42 62 43 64 44 30 45 67 46 61 47
REMARK SMILES IDX 60 48 31 50 53 51 38 52 52 53 39 54 42 55 51 56 65 57 40 58
REMARK SMILES IDX 41 59 50 61 66 62 43 63 32 64 33 65 37 66 34 67 36 68 35 69
REMARK SMILES IDX 54 70 55 71 59 72 56 73 58 74 57 75 44 76 45 77 49 78 46 79
REMARK SMILES IDX 48 80 47 81
REMARK H PARENT 15 6 7 20 1 23 1 24 20 30 64 49 42 60
REMARK Flexibility Score: inf
ROOT
ATOM      1  C   UNL     1      -2.678   2.955   4.997  1.00  0.00     0.023 C 
ENDROOT
BRANCH   1   2
ATOM      2  C   UNL     1      -3.251   2.313   3.732  1.00  0.00     0.116 C 
BRANCH   2   3
ATOM      3  N   UNL     1      -4.535   2.896   3.388  1.00  0.00    -0.352 N 
ATOM      4  C   UNL     1      -4.870   3.813   2.420  1.00  0.00     0.251 C 
ATOM      5  O   UNL     1      -6.055   4.094   2.258  1.00  0.00    -0.269 OA
ATOM      6  H   UNL     1      -5.289   2.583   3.937  1.00  0.00     0.163 HD
BRANCH   4   7
ATOM      7  C   UNL     1      -3.847   4.419   1.530  1.00  0.00     0.039 A 
ATOM      8  C   UNL     1      -1.917   5.360  -0.289  1.00  0.00     0.006 A 
ATOM      9  C   UNL     1      -3.208   5.032  -0.727  1.00  0.00     0.010 A 
ATOM     10  C   UNL     1      -1.641   5.313   1.083  1.00  0.00     0.010 A 
ATOM     11  C   UNL     1      -4.166   4.564   0.176  1.00  0.00     0.014 A 
ATOM     12  C   UNL     1      -2.603   4.859   1.985  1.00  0.00     0.014 A 
BRANCH   8  13
ATOM     13  C   UNL     1      -0.823   5.701  -1.281  1.00  0.00     0.299 C 
BRANCH  13  14
ATOM     14  N   UNL     1       0.018   4.572  -1.731  1.00  0.00    -0.331 N 
ATOM     15  C   UNL     1       1.062   1.839  -2.005  1.00  0.00     0.089 C 
ATOM     16  C   UNL     1       1.772   2.920  -1.184  1.00  0.00     0.075 C 
ATOM     17  C   UNL     1       0.178   2.493  -3.072  1.00  0.00     0.075 C 
ATOM     18  C   UNL     1       0.784   3.956  -0.644  1.00  0.00     0.263 C 
ATOM     19  C   UNL     1      -0.741   3.573  -2.493  1.00  0.00     0.263 C 
ATOM     20  H   UNL     1       0.702   4.979  -2.369  1.00  0.00     0.348 HD
BRANCH  15  21
ATOM     21  C   UNL     1       0.273   0.883  -1.113  1.00  0.00     0.220 C 
ATOM     22  N   UNL     1       1.025   0.134  -0.256  1.00  0.00    -0.369 N 
ATOM     23  H   UNL     1       0.589  -0.506   0.351  1.00  0.00     0.159 HD
ATOM     24  H   UNL     1       2.005   0.234  -0.245  1.00  0.00     0.159 HD
ATOM     25  O   UNL     1      -0.944   0.741  -1.141  1.00  0.00    -0.275 OA
ENDBRANCH  15  21
ENDBRANCH  13  14
ENDBRANCH   8  13
ENDBRANCH   4   7
ENDBRANCH   2   3
ENDBRANCH   1   2
BRANCH   1  26
ATOM     26  C   UNL     1      -3.373   2.535   6.294  1.00  0.00     0.023 C 
BRANCH  26  27
ATOM     27  C   UNL     1      -3.239   1.060   6.644  1.00  0.00     0.116 C 
BRANCH  27  28
ATOM     28  N   UNL     1      -1.859   0.630   6.800  1.00  0.00    -0.352 N 
ATOM     29  C   UNL     1      -1.341  -0.298   7.673  1.00  0.00     0.251 C 
ATOM     30  H   UNL     1      -1.208   1.060   6.200  1.00  0.00     0.163 HD
ATOM     31  O   UNL     1      -0.133  -0.470   7.750  1.00  0.00    -0.269 OA
BRANCH  29  32
ATOM     32  C   UNL     1      -2.258  -1.060   8.547  1.00  0.00     0.039 A 
ATOM     33  C   UNL     1      -1.955  -1.169   9.906  1.00  0.00     0.014 A 
ATOM     34  C   UNL     1      -3.417  -1.648   8.033  1.00  0.00     0.014 A 
ATOM     35  C   UNL     1      -2.845  -1.822  10.761  1.00  0.00     0.010 A 
ATOM     36  C   UNL     1      -4.337  -2.232   8.897  1.00  0.00     0.010 A 
ATOM     37  C   UNL     1      -4.056  -2.334  10.268  1.00  0.00    -0.014 A 
BRANCH  37  38
ATOM     38  C   UNL     1      -5.028  -3.004  11.166  1.00  0.00     0.031 A 
ATOM     39  C   UNL     1      -5.337  -4.465  10.980  1.00  0.00     0.074 A 
ATOM     40  C   UNL     1      -5.667  -2.293  12.115  1.00  0.00     0.049 A 
ATOM     41  N   UNL     1      -6.192  -5.217  11.625  1.00  0.00    -0.248 NA
ATOM     42  C   UNL     1      -4.606  -5.167   9.911  1.00  0.00     0.031 C 
ATOM     43  C   UNL     1      -5.489  -0.862  12.371  1.00  0.00     0.029 A 
ATOM     44  N   UNL     1      -6.604  -2.681  13.040  1.00  0.00    -0.354 N 
ATOM     45  C   UNL     1      -6.107  -6.473  11.037  1.00  0.00     0.074 A 
ATOM     46  C   UNL     1      -5.164  -6.368   9.946  1.00  0.00     0.031 C 
ATOM     47  C   UNL     1      -6.273  -0.499  13.399  1.00  0.00     0.029 A 
ATOM     48  C   UNL     1      -7.033  -1.659  13.852  1.00  0.00     0.049 A 
ATOM     49  H   UNL     1      -6.937  -3.605  13.114  1.00  0.00     0.167 HD
ATOM     50  C   UNL     1      -6.733  -7.620  11.390  1.00  0.00     0.031 A 
ATOM     51  C   UNL     1      -7.940  -1.658  14.847  1.00  0.00     0.031 A 
ATOM     52  C   UNL     1      -7.667  -7.730  12.478  1.00  0.00     0.049 A 
ATOM     53  C   UNL     1      -8.626  -2.945  15.215  1.00  0.00     0.074 A 
ATOM     54  C   UNL     1      -8.340  -8.853  12.928  1.00  0.00     0.029 A 
ATOM     55  N   UNL     1      -8.052  -6.678  13.293  1.00  0.00    -0.354 N 
ATOM     56  N   UNL     1      -8.495  -4.135  14.681  1.00  0.00    -0.248 NA
ATOM     57  C   UNL     1      -9.571  -2.891  16.340  1.00  0.00     0.031 C 
ATOM     58  C   UNL     1      -9.159  -8.471  13.996  1.00  0.00     0.029 A 
ATOM     59  C   UNL     1      -8.955  -7.123  14.242  1.00  0.00     0.049 A 
ATOM     60  H   UNL     1      -7.731  -5.751  13.209  1.00  0.00     0.167 HD
ATOM     61  C   UNL     1      -9.312  -4.976  15.426  1.00  0.00     0.074 A 
ATOM     62  C   UNL     1      -9.920  -4.163  16.459  1.00  0.00     0.031 C 
ATOM     63  C   UNL     1      -9.538  -6.303  15.271  1.00  0.00     0.031 A 
BRANCH  50  64
ATOM     64  C   UNL     1      -6.413  -8.853  10.591  1.00  0.00    -0.014 A 
ATOM     65  C   UNL     1      -5.156  -9.471  10.694  1.00  0.00     0.009 A 
ATOM     66  C   UNL     1      -7.384  -9.422   9.754  1.00  0.00     0.009 A 
ATOM     67  C   UNL     1      -4.866 -10.614   9.946  1.00  0.00     0.001 A 
ATOM     68  C   UNL     1      -7.101 -10.582   9.030  1.00  0.00     0.001 A 
ATOM     69  C   UNL     1      -5.840 -11.171   9.120  1.00  0.00     0.000 A 
ENDBRANCH  50  64
BRANCH  51  70
ATOM     70  C   UNL     1      -8.245  -0.404  15.583  1.00  0.00    -0.014 A 
ATOM     71  C   UNL     1      -7.856  -0.248  16.923  1.00  0.00     0.009 A 
ATOM     72  C   UNL     1      -8.956   0.633  14.960  1.00  0.00     0.009 A 
ATOM     73  C   UNL     1      -8.208   0.902  17.634  1.00  0.00     0.001 A 
ATOM     74  C   UNL     1      -9.279   1.795  15.664  1.00  0.00     0.001 A 
ATOM     75  C   UNL     1      -8.917   1.923  17.004  1.00  0.00     0.000 A 
ENDBRANCH  51  70
BRANCH  63  76
ATOM     76  C   UNL     1     -10.437  -6.968  16.275  1.00  0.00    -0.014 A 
ATOM     77  C   UNL     1     -11.822  -6.743  16.282  1.00  0.00     0.009 A 
ATOM     78  C   UNL     1      -9.886  -7.859  17.210  1.00  0.00     0.009 A 
ATOM     79  C   UNL     1     -12.632  -7.367  17.234  1.00  0.00     0.001 A 
ATOM     80  C   UNL     1     -10.702  -8.504  18.140  1.00  0.00     0.001 A 
ATOM     81  C   UNL     1     -12.072  -8.249  18.158  1.00  0.00     0.000 A 
ENDBRANCH  63  76
ENDBRANCH  37  38
ENDBRANCH  29  32
ENDBRANCH  27  28
ENDBRANCH  26  27
ENDBRANCH   1  26
TORSDOF 14
