REMARK SMILES C[C@@H](C(=O)NCCCCNC(=O)c1ccc(-c2c3nc(c(-c4ccccc4)c4ccc([nH]4)c(-c4ccccc4)c4nc(c(-c5ccccc5)c5ccc2[nH]5)C=C4)C=C3)cc1)c1ccc(C(=O)c2cccs2)cc1
REMARK SMILES IDX 7 1 6 2 5 3 3 4 4 5 2 7 1 8 61 9 62 10 73 11 63 12 72 13
REMARK SMILES IDX 64 14 65 15 66 16 67 17 68 18 71 19 69 20 70 21 8 22 9 23
REMARK SMILES IDX 10 24 11 25 12 27 13 28 14 29 60 30 15 31 59 32 16 33 17 34
REMARK SMILES IDX 18 35 53 36 19 37 58 38 52 39 54 40 20 41 57 42 51 43 50 44
REMARK SMILES IDX 21 46 43 47 28 48 42 49 29 50 32 51 41 52 55 53 30 54 31 55
REMARK SMILES IDX 40 57 56 58 33 59 22 60 23 61 27 62 24 63 26 64 25 65 44 66
REMARK SMILES IDX 45 67 49 68 46 69 48 70 47 71 34 72 35 73 39 74 36 75 38 76
REMARK SMILES IDX 37 77
REMARK H PARENT 5 6 10 26 54 45 32 56
REMARK Flexibility Score: inf
ROOT
ATOM      1  C   UNL     1       4.174   0.927   0.801  1.00  0.00     0.023 C 
ENDROOT
BRANCH   1   2
ATOM      2  C   UNL     1       3.416   0.085   1.829  1.00  0.00     0.116 C 
BRANCH   2   3
ATOM      3  N   UNL     1       2.417   0.874   2.516  1.00  0.00    -0.356 N 
ATOM      4  C   UNL     1       1.063   0.923   2.354  1.00  0.00     0.227 C 
ATOM      5  O   UNL     1       0.471   1.758   3.041  1.00  0.00    -0.274 OA
ATOM      6  H   UNL     1       2.771   1.473   3.212  1.00  0.00     0.163 HD
BRANCH   4   7
ATOM      7  C   UNL     1       0.362  -0.057   1.395  1.00  0.00     0.105 C 
ATOM      8  C   UNL     1       0.670   0.218  -0.079  1.00  0.00     0.023 C 
BRANCH   7   9
ATOM      9  C   UNL     1      -1.156  -0.106   1.555  1.00  0.00    -0.036 A 
ATOM     10  C   UNL     1      -1.934   1.061   1.554  1.00  0.00     0.005 A 
ATOM     11  C   UNL     1      -1.811  -1.344   1.612  1.00  0.00     0.005 A 
ATOM     12  C   UNL     1      -3.325   0.994   1.646  1.00  0.00     0.012 A 
ATOM     13  C   UNL     1      -3.207  -1.413   1.675  1.00  0.00     0.012 A 
ATOM     14  C   UNL     1      -3.978  -0.243   1.706  1.00  0.00     0.023 A 
BRANCH  14  15
ATOM     15  C   UNL     1      -5.478  -0.246   1.742  1.00  0.00     0.202 C 
ATOM     16  O   UNL     1      -6.063   0.836   1.742  1.00  0.00    -0.288 OA
BRANCH  15  17
ATOM     17  C   UNL     1      -6.186  -1.511   1.732  1.00  0.00     0.075 A 
ATOM     18  C   UNL     1      -6.163  -2.545   2.649  1.00  0.00     0.024 A 
ATOM     19  S   UNL     1      -7.251  -1.839   0.432  1.00  0.00    -0.140 S 
ATOM     20  C   UNL     1      -6.986  -3.637   2.246  1.00  0.00     0.012 A 
ATOM     21  C   UNL     1      -7.629  -3.386   1.054  1.00  0.00     0.065 A 
ENDBRANCH  15  17
ENDBRANCH  14  15
ENDBRANCH   7   9
ENDBRANCH   4   7
ENDBRANCH   2   3
ENDBRANCH   1   2
BRANCH   1  22
ATOM     22  C   UNL     1       4.949   2.111   1.386  1.00  0.00     0.023 C 
BRANCH  22  23
ATOM     23  C   UNL     1       5.933   1.755   2.491  1.00  0.00     0.116 C 
BRANCH  23  24
ATOM     24  N   UNL     1       6.929   0.787   2.064  1.00  0.00    -0.352 N 
ATOM     25  C   UNL     1       8.275   0.763   2.319  1.00  0.00     0.251 C 
ATOM     26  H   UNL     1       6.589   0.044   1.516  1.00  0.00     0.163 HD
ATOM     27  O   UNL     1       8.990  -0.064   1.751  1.00  0.00    -0.269 OA
BRANCH  25  28
ATOM     28  C   UNL     1       8.876   1.737   3.254  1.00  0.00     0.039 A 
ATOM     29  C   UNL     1      10.103   2.316   2.923  1.00  0.00     0.014 A 
ATOM     30  C   UNL     1       8.251   2.062   4.462  1.00  0.00     0.014 A 
ATOM     31  C   UNL     1      10.691   3.237   3.790  1.00  0.00     0.010 A 
ATOM     32  C   UNL     1       8.795   3.045   5.283  1.00  0.00     0.010 A 
ATOM     33  C   UNL     1      10.036   3.620   4.972  1.00  0.00    -0.014 A 
BRANCH  33  34
ATOM     34  C   UNL     1      10.666   4.574   5.917  1.00  0.00     0.031 A 
ATOM     35  C   UNL     1      11.056   4.117   7.298  1.00  0.00     0.074 A 
ATOM     36  C   UNL     1      10.867   5.853   5.548  1.00  0.00     0.049 A 
ATOM     37  N   UNL     1      11.629   4.793   8.262  1.00  0.00    -0.248 NA
ATOM     38  C   UNL     1      10.738   2.724   7.654  1.00  0.00     0.031 C 
ATOM     39  C   UNL     1      10.497   6.432   4.255  1.00  0.00     0.029 A 
ATOM     40  N   UNL     1      11.440   6.898   6.228  1.00  0.00    -0.354 N 
ATOM     41  C   UNL     1      11.719   3.917   9.336  1.00  0.00     0.074 A 
ATOM     42  C   UNL     1      11.091   2.681   8.929  1.00  0.00     0.031 C 
ATOM     43  C   UNL     1      10.893   7.715   4.219  1.00  0.00     0.029 A 
ATOM     44  C   UNL     1      11.510   8.058   5.497  1.00  0.00     0.049 A 
ATOM     45  H   UNL     1      11.770   6.823   7.153  1.00  0.00     0.167 HD
ATOM     46  C   UNL     1      12.296   4.111  10.547  1.00  0.00     0.031 A 
ATOM     47  C   UNL     1      12.024   9.261   5.817  1.00  0.00     0.031 A 
ATOM     48  C   UNL     1      12.936   5.335  10.947  1.00  0.00     0.049 A 
ATOM     49  C   UNL     1      12.660   9.451   7.166  1.00  0.00     0.074 A 
ATOM     50  C   UNL     1      13.601   5.614  12.127  1.00  0.00     0.029 A 
ATOM     51  N   UNL     1      12.989   6.484  10.174  1.00  0.00    -0.354 N 
ATOM     52  N   UNL     1      12.807   8.588   8.143  1.00  0.00    -0.248 NA
ATOM     53  C   UNL     1      13.223  10.779   7.446  1.00  0.00     0.031 C 
ATOM     54  C   UNL     1      14.011   6.951  12.091  1.00  0.00     0.029 A 
ATOM     55  C   UNL     1      13.659   7.483  10.861  1.00  0.00     0.049 A 
ATOM     56  H   UNL     1      12.607   6.577   9.271  1.00  0.00     0.167 HD
ATOM     57  C   UNL     1      13.515   9.256   9.134  1.00  0.00     0.074 A 
ATOM     58  C   UNL     1      13.777  10.590   8.635  1.00  0.00     0.031 C 
ATOM     59  C   UNL     1      13.917   8.803  10.347  1.00  0.00     0.031 A 
BRANCH  46  60
ATOM     60  C   UNL     1      12.247   2.970  11.527  1.00  0.00    -0.014 A 
ATOM     61  C   UNL     1      12.974   1.788  11.312  1.00  0.00     0.009 A 
ATOM     62  C   UNL     1      11.478   3.088  12.696  1.00  0.00     0.009 A 
ATOM     63  C   UNL     1      12.897   0.732  12.223  1.00  0.00     0.001 A 
ATOM     64  C   UNL     1      11.430   2.045  13.622  1.00  0.00     0.001 A 
ATOM     65  C   UNL     1      12.129   0.864  13.379  1.00  0.00     0.000 A 
ENDBRANCH  46  60
BRANCH  47  66
ATOM     66  C   UNL     1      11.999  10.372   4.829  1.00  0.00    -0.014 A 
ATOM     67  C   UNL     1      13.189  10.825   4.238  1.00  0.00     0.009 A 
ATOM     68  C   UNL     1      10.791  10.997   4.484  1.00  0.00     0.009 A 
ATOM     69  C   UNL     1      13.174  11.902   3.350  1.00  0.00     0.001 A 
ATOM     70  C   UNL     1      10.775  12.053   3.571  1.00  0.00     0.001 A 
ATOM     71  C   UNL     1      11.967  12.513   3.014  1.00  0.00     0.000 A 
ENDBRANCH  47  66
BRANCH  59  72
ATOM     72  C   UNL     1      14.736   9.740  11.193  1.00  0.00    -0.014 A 
ATOM     73  C   UNL     1      14.176  10.883  11.783  1.00  0.00     0.009 A 
ATOM     74  C   UNL     1      16.093   9.454  11.419  1.00  0.00     0.009 A 
ATOM     75  C   UNL     1      14.969  11.744  12.544  1.00  0.00     0.001 A 
ATOM     76  C   UNL     1      16.874  10.297  12.208  1.00  0.00     0.001 A 
ATOM     77  C   UNL     1      16.315  11.449  12.759  1.00  0.00     0.000 A 
ENDBRANCH  59  72
ENDBRANCH  33  34
ENDBRANCH  25  28
ENDBRANCH  23  24
ENDBRANCH  22  23
ENDBRANCH   1  22
TORSDOF 14
