REMARK SMILES O=C(NCCCCNC(=O)[C@H]1[NH2+][C@@H]2CC[C@H]1CC2(F)F)c1ccc(-c2c3nc(c(-c4ccccc4)c4ccc([nH]4)c(-c4ccccc4)c4nc(c(-c5ccccc5)c5ccc2[nH]5)C=C4)C=C3)cc1
REMARK SMILES IDX 4 1 3 2 1 3 2 4 21 6 22 7 68 8 23 9 67 10 24 11 25 12 26 13
REMARK SMILES IDX 61 14 27 15 66 16 60 17 62 18 28 19 65 20 59 21 58 22 29 24
REMARK SMILES IDX 51 25 36 26 50 27 37 28 40 29 49 30 63 31 38 32 39 33 48 35
REMARK SMILES IDX 64 36 41 37 30 38 31 39 35 40 32 41 34 42 33 43 52 44 53 45
REMARK SMILES IDX 57 46 54 47 56 48 55 49 42 50 43 51 47 52 44 53 46 54 45 55
REMARK SMILES IDX 5 56 6 57 7 58 8 59 9 60 10 62 11 63 12 64 16 65 13 66 15 69
REMARK SMILES IDX 17 70 14 71 18 72 19 73 20 74
REMARK H PARENT 3 5 62 23 40 34 8 61 12 67 12 68
REMARK Flexibility Score: inf
ROOT
ATOM      1  C   UNL     1       8.251   9.131  -8.153  1.00  0.00     0.116 C 
ENDROOT
BRANCH   1   2
ATOM      2  N   UNL     1       8.314  10.527  -7.744  1.00  0.00    -0.352 N 
ATOM      3  O   UNL     1       8.404  12.766  -8.098  1.00  0.00    -0.269 OA
ATOM      4  C   UNL     1       8.259  11.638  -8.555  1.00  0.00     0.251 C 
ATOM      5  H   UNL     1       8.408  10.696  -6.779  1.00  0.00     0.163 HD
BRANCH   4   6
ATOM      6  C   UNL     1       8.065  11.435 -10.003  1.00  0.00     0.039 A 
ATOM      7  C   UNL     1       7.012  10.638 -10.456  1.00  0.00     0.014 A 
ATOM      8  C   UNL     1       8.988  11.977 -10.900  1.00  0.00     0.014 A 
ATOM      9  C   UNL     1       6.971  10.258 -11.789  1.00  0.00     0.010 A 
ATOM     10  C   UNL     1       8.895  11.660 -12.257  1.00  0.00     0.010 A 
ATOM     11  C   UNL     1       7.907  10.769 -12.705  1.00  0.00    -0.014 A 
BRANCH  11  12
ATOM     12  C   UNL     1       7.780  10.392 -14.133  1.00  0.00     0.031 A 
ATOM     13  C   UNL     1       8.813   9.540 -14.814  1.00  0.00     0.074 A 
ATOM     14  C   UNL     1       6.669  10.774 -14.791  1.00  0.00     0.049 A 
ATOM     15  N   UNL     1       8.804   9.064 -16.034  1.00  0.00    -0.248 NA
ATOM     16  C   UNL     1      10.008   9.177 -14.037  1.00  0.00     0.031 C 
ATOM     17  C   UNL     1       5.602  11.607 -14.228  1.00  0.00     0.029 A 
ATOM     18  N   UNL     1       6.231  10.481 -16.055  1.00  0.00    -0.354 N 
ATOM     19  C   UNL     1       9.994   8.362 -16.178  1.00  0.00     0.074 A 
ATOM     20  C   UNL     1      10.711   8.487 -14.927  1.00  0.00     0.031 C 
ATOM     21  C   UNL     1       4.604  11.700 -15.117  1.00  0.00     0.029 A 
ATOM     22  C   UNL     1       4.984  10.987 -16.329  1.00  0.00     0.049 A 
ATOM     23  H   UNL     1       6.758   9.960 -16.703  1.00  0.00     0.167 HD
ATOM     24  C   UNL     1      10.445   7.677 -17.256  1.00  0.00     0.031 A 
ATOM     25  C   UNL     1       4.229  10.892 -17.437  1.00  0.00     0.031 A 
ATOM     26  C   UNL     1       9.728   7.553 -18.499  1.00  0.00     0.049 A 
ATOM     27  C   UNL     1       4.755  10.125 -18.611  1.00  0.00     0.074 A 
ATOM     28  C   UNL     1      10.103   6.877 -19.648  1.00  0.00     0.029 A 
ATOM     29  N   UNL     1       8.487   8.114 -18.753  1.00  0.00    -0.354 N 
ATOM     30  N   UNL     1       5.882   9.467 -18.726  1.00  0.00    -0.248 NA
ATOM     31  C   UNL     1       3.906  10.094 -19.809  1.00  0.00     0.031 C 
ATOM     32  C   UNL     1       9.102   7.058 -20.610  1.00  0.00     0.029 A 
ATOM     33  C   UNL     1       8.086   7.811 -20.044  1.00  0.00     0.049 A 
ATOM     34  H   UNL     1       7.966   8.648 -18.111  1.00  0.00     0.167 HD
ATOM     35  C   UNL     1       5.882   8.946 -20.011  1.00  0.00     0.074 A 
ATOM     36  C   UNL     1       4.626   9.333 -20.622  1.00  0.00     0.031 C 
ATOM     37  C   UNL     1       6.842   8.223 -20.637  1.00  0.00     0.031 A 
BRANCH  24  38
ATOM     38  C   UNL     1      11.792   7.019 -17.152  1.00  0.00    -0.014 A 
ATOM     39  C   UNL     1      11.965   5.830 -16.427  1.00  0.00     0.009 A 
ATOM     40  C   UNL     1      12.888   7.559 -17.843  1.00  0.00     0.009 A 
ATOM     41  C   UNL     1      13.214   5.205 -16.382  1.00  0.00     0.001 A 
ATOM     42  C   UNL     1      14.130   6.922 -17.812  1.00  0.00     0.001 A 
ATOM     43  C   UNL     1      14.293   5.748 -17.078  1.00  0.00     0.000 A 
ENDBRANCH  24  38
BRANCH  25  44
ATOM     44  C   UNL     1       2.904  11.559 -17.483  1.00  0.00    -0.014 A 
ATOM     45  C   UNL     1       1.722  10.804 -17.470  1.00  0.00     0.009 A 
ATOM     46  C   UNL     1       2.819  12.960 -17.520  1.00  0.00     0.009 A 
ATOM     47  C   UNL     1       0.480  11.441 -17.511  1.00  0.00     0.001 A 
ATOM     48  C   UNL     1       1.576  13.593 -17.532  1.00  0.00     0.001 A 
ATOM     49  C   UNL     1       0.408  12.834 -17.536  1.00  0.00     0.000 A 
ENDBRANCH  25  44
BRANCH  37  50
ATOM     50  C   UNL     1       6.556   7.814 -22.051  1.00  0.00    -0.014 A 
ATOM     51  C   UNL     1       6.623   8.749 -23.096  1.00  0.00     0.009 A 
ATOM     52  C   UNL     1       6.216   6.485 -22.341  1.00  0.00     0.009 A 
ATOM     53  C   UNL     1       6.314   8.367 -24.402  1.00  0.00     0.001 A 
ATOM     54  C   UNL     1       5.931   6.102 -23.652  1.00  0.00     0.001 A 
ATOM     55  C   UNL     1       5.970   7.045 -24.679  1.00  0.00     0.000 A 
ENDBRANCH  37  50
ENDBRANCH  11  12
ENDBRANCH   4   6
ENDBRANCH   1   2
BRANCH   1  56
ATOM     56  C   UNL     1       8.934   8.166  -7.191  1.00  0.00     0.023 C 
BRANCH  56  57
ATOM     57  C   UNL     1       8.462   8.257  -5.740  1.00  0.00     0.023 C 
BRANCH  57  58
ATOM     58  C   UNL     1       6.957   8.078  -5.556  1.00  0.00     0.116 C 
BRANCH  58  59
ATOM     59  N   UNL     1       6.573   6.682  -5.544  1.00  0.00    -0.351 N 
ATOM     60  C   UNL     1       6.339   5.772  -4.565  1.00  0.00     0.278 C 
ATOM     61  H   UNL     1       6.457   6.309  -6.448  1.00  0.00     0.163 HD
ATOM     62  O   UNL     1       5.990   4.651  -4.963  1.00  0.00    -0.268 OA
BRANCH  60  63
ATOM     63  C   UNL     1       6.414   6.025  -3.040  1.00  0.00     0.276 C 
ATOM     64  N   UNL     1       7.082   7.256  -2.579  1.00  0.00    -0.328 N 
ATOM     65  C   UNL     1       5.008   5.915  -2.386  1.00  0.00     0.064 C 
ATOM     66  C   UNL     1       6.155   8.144  -1.838  1.00  0.00     0.253 C 
ATOM     67  H   UNL     1       7.443   7.760  -3.390  1.00  0.00     0.347 HD
ATOM     68  H   UNL     1       7.837   6.989  -1.947  1.00  0.00     0.347 HD
ATOM     69  C   UNL     1       5.179   6.051  -0.855  1.00  0.00     0.017 C 
ATOM     70  C   UNL     1       4.113   7.074  -2.874  1.00  0.00     0.094 C 
ATOM     71  C   UNL     1       5.866   7.389  -0.527  1.00  0.00     0.072 C 
ATOM     72  C   UNL     1       4.781   8.400  -2.522  1.00  0.00     0.298 C 
ATOM     73  F   UNL     1       3.975   9.109  -1.689  1.00  0.00    -0.200 F 
ATOM     74  F   UNL     1       4.916   9.161  -3.634  1.00  0.00    -0.200 F 
ENDBRANCH  60  63
ENDBRANCH  58  59
ENDBRANCH  57  58
ENDBRANCH  56  57
ENDBRANCH   1  56
TORSDOF 11
