REMARK SMILES CC(C)Cc1s/c(=N/C(=O)CCC(=O)Nc2nccs2)[nH]c1C(=O)NCCCCNC(=O)c1ccc(-c2c3nc(c(-c4ccccc4)c4ccc([nH]4)c(-c4ccccc4)c4nc(c(-c5ccccc5)c5ccc2[nH]5)C=C4)C=C3)cc1
REMARK SMILES IDX 26 1 25 2 23 3 24 4 22 6 5 7 6 8 7 9 21 10 8 11 4 13 2 14
REMARK SMILES IDX 1 15 3 16 9 17 10 18 11 19 12 20 13 21 14 22 15 23 16 25
REMARK SMILES IDX 17 26 20 27 18 28 19 29 27 30 28 31 29 32 30 33 31 34 32 36
REMARK SMILES IDX 33 37 34 38 80 39 35 40 79 41 36 42 37 43 38 44 73 45 39 46
REMARK SMILES IDX 78 47 72 48 74 49 40 50 77 51 71 52 70 53 41 55 63 56 48 57
REMARK SMILES IDX 62 58 49 59 52 60 61 61 75 62 50 63 51 64 60 66 76 67 53 68
REMARK SMILES IDX 42 69 43 70 47 71 44 72 46 73 45 74 64 75 65 76 69 77 66 78
REMARK SMILES IDX 68 79 67 80 54 81 55 82 59 83 56 84 58 85 57 86
REMARK H PARENT 25 5 21 12 15 24 30 35 74 54 52 65
REMARK Flexibility Score: inf
ROOT
ATOM      1  C   UNL     1      -1.375  -0.006  -1.826  1.00  0.00     0.116 C 
ENDROOT
BRANCH   1   2
ATOM      2  N   UNL     1      -0.809  -1.102  -1.067  1.00  0.00    -0.351 N 
ATOM      3  C   UNL     1      -0.833  -1.390   0.260  1.00  0.00     0.268 C 
ATOM      4  O   UNL     1      -0.296  -2.438   0.631  1.00  0.00    -0.268 OA
ATOM      5  H   UNL     1      -0.319  -1.759  -1.612  1.00  0.00     0.163 HD
BRANCH   3   6
ATOM      6  C   UNL     1      -1.575  -0.575   1.277  1.00  0.00     0.119 A 
ATOM      7  C   UNL     1      -1.517   0.742   1.594  1.00  0.00     0.038 A 
ATOM      8  S   UNL     1      -2.577   1.086   2.988  1.00  0.00    -0.101 S 
ATOM      9  C   UNL     1      -2.886  -0.643   3.236  1.00  0.00     0.190 A 
ATOM     10  N   UNL     1      -2.326  -1.310   2.190  1.00  0.00    -0.326 N 
ATOM     11  N   UNL     1      -3.476  -0.998   4.314  1.00  0.00    -0.185 NA
ATOM     12  H   UNL     1      -2.447  -2.281   2.083  1.00  0.00     0.169 HD
BRANCH   7  13
ATOM     13  C   UNL     1      -0.752   1.907   1.041  1.00  0.00     0.052 C 
BRANCH  13  14
ATOM     14  C   UNL     1       0.750   2.030   1.389  1.00  0.00    -0.012 C 
ATOM     15  C   UNL     1       1.588   0.765   1.203  1.00  0.00     0.008 C 
ATOM     16  C   UNL     1       1.371   3.175   0.578  1.00  0.00     0.008 C 
ENDBRANCH  13  14
ENDBRANCH   7  13
BRANCH  11  17
ATOM     17  C   UNL     1      -3.560  -2.337   4.587  1.00  0.00     0.248 C 
ATOM     18  O   UNL     1      -3.437  -3.237   3.759  1.00  0.00    -0.273 OA
BRANCH  17  19
ATOM     19  C   UNL     1      -3.887  -2.624   6.040  1.00  0.00     0.112 C 
BRANCH  19  20
ATOM     20  C   UNL     1      -2.767  -2.318   7.027  1.00  0.00     0.110 C 
BRANCH  20  21
ATOM     21  C   UNL     1      -2.313  -0.869   7.030  1.00  0.00     0.226 C 
ATOM     22  O   UNL     1      -2.961  -0.024   7.656  1.00  0.00    -0.275 OA
ATOM     23  N   UNL     1      -1.181  -0.469   6.388  1.00  0.00    -0.302 N 
ATOM     24  H   UNL     1      -0.893   0.460   6.541  1.00  0.00     0.172 HD
BRANCH  23  25
ATOM     25  C   UNL     1      -0.406  -1.219   5.557  1.00  0.00     0.189 A 
ATOM     26  N   UNL     1      -0.587  -2.450   5.156  1.00  0.00    -0.229 NA
ATOM     27  S   UNL     1       0.942  -0.400   4.908  1.00  0.00    -0.105 S 
ATOM     28  C   UNL     1       0.387  -2.782   4.237  1.00  0.00     0.125 A 
ATOM     29  C   UNL     1       1.317  -1.797   3.982  1.00  0.00     0.088 A 
ENDBRANCH  23  25
ENDBRANCH  20  21
ENDBRANCH  19  20
ENDBRANCH  17  19
ENDBRANCH  11  17
ENDBRANCH   3   6
ENDBRANCH   1   2
BRANCH   1  30
ATOM     30  C   UNL     1      -0.299   1.033  -2.132  1.00  0.00     0.023 C 
BRANCH  30  31
ATOM     31  C   UNL     1       0.581   0.756  -3.337  1.00  0.00     0.023 C 
BRANCH  31  32
ATOM     32  C   UNL     1      -0.033   1.233  -4.639  1.00  0.00     0.116 C 
BRANCH  32  33
ATOM     33  N   UNL     1      -0.258   2.678  -4.680  1.00  0.00    -0.352 N 
ATOM     34  C   UNL     1       0.008   3.570  -5.692  1.00  0.00     0.251 C 
ATOM     35  H   UNL     1      -0.656   3.067  -3.868  1.00  0.00     0.163 HD
ATOM     36  O   UNL     1      -0.163   4.774  -5.532  1.00  0.00    -0.269 OA
BRANCH  34  37
ATOM     37  C   UNL     1       0.562   3.053  -6.955  1.00  0.00     0.039 A 
ATOM     38  C   UNL     1       1.730   3.623  -7.466  1.00  0.00     0.014 A 
ATOM     39  C   UNL     1       0.001   1.919  -7.542  1.00  0.00     0.014 A 
ATOM     40  C   UNL     1       2.404   2.976  -8.501  1.00  0.00     0.010 A 
ATOM     41  C   UNL     1       0.731   1.220  -8.488  1.00  0.00     0.010 A 
ATOM     42  C   UNL     1       1.946   1.734  -8.969  1.00  0.00    -0.014 A 
BRANCH  42  43
ATOM     43  C   UNL     1       2.717   0.929  -9.944  1.00  0.00     0.031 A 
ATOM     44  C   UNL     1       2.082   0.539 -11.249  1.00  0.00     0.074 A 
ATOM     45  C   UNL     1       3.931   0.449  -9.607  1.00  0.00     0.049 A 
ATOM     46  N   UNL     1       2.513  -0.291 -12.162  1.00  0.00    -0.248 NA
ATOM     47  C   UNL     1       0.763   1.125 -11.543  1.00  0.00     0.031 C 
ATOM     48  C   UNL     1       4.631   0.703  -8.345  1.00  0.00     0.029 A 
ATOM     49  N   UNL     1       4.787  -0.371 -10.299  1.00  0.00    -0.354 N 
ATOM     50  C   UNL     1       1.502  -0.360 -13.110  1.00  0.00     0.074 A 
ATOM     51  C   UNL     1       0.416   0.471 -12.640  1.00  0.00     0.031 C 
ATOM     52  C   UNL     1       5.822   0.082  -8.367  1.00  0.00     0.029 A 
ATOM     53  C   UNL     1       5.949  -0.652  -9.621  1.00  0.00     0.049 A 
ATOM     54  H   UNL     1       4.588  -0.724 -11.196  1.00  0.00     0.167 HD
ATOM     55  C   UNL     1       1.486  -1.037 -14.282  1.00  0.00     0.031 A 
ATOM     56  C   UNL     1       6.995  -1.425  -9.967  1.00  0.00     0.031 A 
ATOM     57  C   UNL     1       2.586  -1.820 -14.771  1.00  0.00     0.049 A 
ATOM     58  C   UNL     1       6.966  -2.145 -11.285  1.00  0.00     0.074 A 
ATOM     59  C   UNL     1       2.710  -2.466 -15.987  1.00  0.00     0.029 A 
ATOM     60  N   UNL     1       3.757  -2.053 -14.067  1.00  0.00    -0.354 N 
ATOM     61  N   UNL     1       6.030  -2.146 -12.203  1.00  0.00    -0.248 NA
ATOM     62  C   UNL     1       8.136  -2.971 -11.613  1.00  0.00     0.031 C 
ATOM     63  C   UNL     1       3.945  -3.123 -16.005  1.00  0.00     0.029 A 
ATOM     64  C   UNL     1       4.602  -2.853 -14.815  1.00  0.00     0.049 A 
ATOM     65  H   UNL     1       3.957  -1.702 -13.169  1.00  0.00     0.167 HD
ATOM     66  C   UNL     1       6.502  -2.960 -13.223  1.00  0.00     0.074 A 
ATOM     67  C   UNL     1       7.815  -3.421 -12.819  1.00  0.00     0.031 C 
ATOM     68  C   UNL     1       5.901  -3.300 -14.388  1.00  0.00     0.031 A 
BRANCH  55  69
ATOM     69  C   UNL     1       0.237  -0.947 -15.111  1.00  0.00    -0.014 A 
ATOM     70  C   UNL     1      -0.116   0.244 -15.766  1.00  0.00     0.009 A 
ATOM     71  C   UNL     1      -0.593  -2.070 -15.246  1.00  0.00     0.009 A 
ATOM     72  C   UNL     1      -1.297   0.320 -16.505  1.00  0.00     0.001 A 
ATOM     73  C   UNL     1      -1.760  -1.998 -16.009  1.00  0.00     0.001 A 
ATOM     74  C   UNL     1      -2.116  -0.801 -16.629  1.00  0.00     0.000 A 
ENDBRANCH  55  69
BRANCH  56  75
ATOM     75  C   UNL     1       8.165  -1.549  -9.060  1.00  0.00    -0.014 A 
ATOM     76  C   UNL     1       9.375  -0.914  -9.379  1.00  0.00     0.009 A 
ATOM     77  C   UNL     1       8.082  -2.297  -7.876  1.00  0.00     0.009 A 
ATOM     78  C   UNL     1      10.485  -1.045  -8.541  1.00  0.00     0.001 A 
ATOM     79  C   UNL     1       9.187  -2.407  -7.029  1.00  0.00     0.001 A 
ATOM     80  C   UNL     1      10.389  -1.788  -7.366  1.00  0.00     0.000 A 
ENDBRANCH  56  75
BRANCH  68  81
ATOM     81  C   UNL     1       6.664  -4.203 -15.312  1.00  0.00    -0.014 A 
ATOM     82  C   UNL     1       6.768  -5.577 -15.050  1.00  0.00     0.009 A 
ATOM     83  C   UNL     1       7.233  -3.682 -16.483  1.00  0.00     0.009 A 
ATOM     84  C   UNL     1       7.447  -6.412 -15.939  1.00  0.00     0.001 A 
ATOM     85  C   UNL     1       7.892  -4.523 -17.380  1.00  0.00     0.001 A 
ATOM     86  C   UNL     1       8.003  -5.885 -17.105  1.00  0.00     0.000 A 
ENDBRANCH  68  81
ENDBRANCH  42  43
ENDBRANCH  34  37
ENDBRANCH  32  33
ENDBRANCH  31  32
ENDBRANCH  30  31
ENDBRANCH   1  30
TORSDOF 18
