REMARK SMILES CC(C)c1ccc2c(c1)C(=O)C[C@@H]1[C@@]2(C)CCC[C@]1(C)C(=O)NCCCCNC(=O)c1ccc(-c2c3nc(c(-c4ccccc4)c4ccc([nH]4)c(-c4ccccc4)c4nc(c(-c5ccccc5)c5ccc2[nH]5)C=C4)C=C3)cc1
REMARK SMILES IDX 26 1 25 2 24 3 23 4 21 5 22 6 19 8 4 9 5 10 9 11 6 12 8 13
REMARK SMILES IDX 7 14 10 15 14 16 12 17 11 18 13 19 16 20 15 21 17 22 18 23
REMARK SMILES IDX 20 24 2 25 1 26 3 27 27 28 28 29 29 30 30 32 31 33 32 34
REMARK SMILES IDX 78 35 33 36 77 37 34 38 35 39 36 40 71 41 37 42 76 43 70 44
REMARK SMILES IDX 72 45 38 46 75 47 69 48 68 49 39 51 61 52 46 53 60 54 47 55
REMARK SMILES IDX 50 56 59 57 73 58 48 59 49 60 58 62 74 63 51 64 40 65 41 66
REMARK SMILES IDX 45 67 42 68 44 69 43 70 62 71 63 72 67 73 64 74 66 75 65 76
REMARK SMILES IDX 52 77 53 78 57 79 54 80 56 81 55 82
REMARK H PARENT 23 7 28 31 72 50 50 61
REMARK Flexibility Score: inf
ROOT
ATOM      1  C   UNL     1      -6.306   2.247   6.663  1.00  0.00     0.023 C 
ENDROOT
BRANCH   1   2
ATOM      2  C   UNL     1      -7.392   2.274   5.589  1.00  0.00     0.023 C 
BRANCH   2   3
ATOM      3  C   UNL     1      -6.935   1.879   4.184  1.00  0.00     0.116 C 
BRANCH   3   4
ATOM      4  N   UNL     1      -6.313   0.568   4.138  1.00  0.00    -0.356 N 
ATOM      5  C   UNL     1      -7.048  -0.572   4.016  1.00  0.00     0.226 C 
ATOM      6  O   UNL     1      -7.245  -1.221   5.045  1.00  0.00    -0.274 OA
ATOM      7  H   UNL     1      -5.332   0.502   4.195  1.00  0.00     0.163 HD
BRANCH   5   8
ATOM      8  C   UNL     1      -7.389  -1.107   2.597  1.00  0.00     0.050 C 
ATOM      9  C   UNL     1      -0.986  -0.340   1.221  1.00  0.00    -0.045 A 
ATOM     10  C   UNL     1      -1.711   0.612   0.507  1.00  0.00     0.004 A 
ATOM     11  C   UNL     1      -1.700  -1.370   1.843  1.00  0.00     0.016 A 
ATOM     12  C   UNL     1      -3.104   0.525   0.415  1.00  0.00     0.005 A 
ATOM     13  C   UNL     1      -3.106  -1.453   1.750  1.00  0.00     0.022 A 
ATOM     14  C   UNL     1      -3.844  -0.499   1.049  1.00  0.00    -0.031 A 
ATOM     15  C   UNL     1      -3.762  -2.599   2.395  1.00  0.00     0.163 C 
ATOM     16  C   UNL     1      -5.371  -0.582   0.875  1.00  0.00    -0.003 C 
ATOM     17  C   UNL     1      -5.221  -2.502   2.715  1.00  0.00     0.086 C 
ATOM     18  O   UNL     1      -3.096  -3.566   2.763  1.00  0.00    -0.294 OA
ATOM     19  C   UNL     1      -6.108  -1.618   1.815  1.00  0.00     0.022 C 
ATOM     20  C   UNL     1      -5.969   0.841   1.003  1.00  0.00     0.012 C 
ATOM     21  C   UNL     1      -5.598  -1.055  -0.594  1.00  0.00     0.017 C 
ATOM     22  C   UNL     1      -7.482   0.928   0.963  1.00  0.00     0.002 C 
ATOM     23  C   UNL     1      -8.229  -0.128   1.758  1.00  0.00     0.017 C 
ATOM     24  C   UNL     1      -8.325  -2.333   2.854  1.00  0.00     0.022 C 
BRANCH   9  25
ATOM     25  C   UNL     1       0.527  -0.283   1.331  1.00  0.00     0.013 C 
ATOM     26  C   UNL     1       1.208  -0.146  -0.035  1.00  0.00     0.012 C 
ATOM     27  C   UNL     1       0.964   0.847   2.266  1.00  0.00     0.012 C 
ENDBRANCH   9  25
ENDBRANCH   5   8
ENDBRANCH   3   4
ENDBRANCH   2   3
ENDBRANCH   1   2
BRANCH   1  28
ATOM     28  C   UNL     1      -4.982   2.894   6.278  1.00  0.00     0.116 C 
BRANCH  28  29
ATOM     29  N   UNL     1      -5.108   4.295   5.904  1.00  0.00    -0.352 N 
ATOM     30  C   UNL     1      -4.443   5.389   6.408  1.00  0.00     0.251 C 
ATOM     31  H   UNL     1      -5.759   4.487   5.191  1.00  0.00     0.163 HD
ATOM     32  O   UNL     1      -4.727   6.523   6.039  1.00  0.00    -0.269 OA
BRANCH  30  33
ATOM     33  C   UNL     1      -3.415   5.176   7.444  1.00  0.00     0.039 A 
ATOM     34  C   UNL     1      -2.401   4.238   7.240  1.00  0.00     0.014 A 
ATOM     35  C   UNL     1      -3.536   5.843   8.664  1.00  0.00     0.014 A 
ATOM     36  C   UNL     1      -1.635   3.824   8.322  1.00  0.00     0.010 A 
ATOM     37  C   UNL     1      -2.701   5.488   9.725  1.00  0.00     0.010 A 
ATOM     38  C   UNL     1      -1.788   4.433   9.580  1.00  0.00    -0.014 A 
BRANCH  38  39
ATOM     39  C   UNL     1      -0.998   3.930  10.732  1.00  0.00     0.031 A 
ATOM     40  C   UNL     1      -1.677   3.283  11.910  1.00  0.00     0.074 A 
ATOM     41  C   UNL     1       0.346   3.997  10.682  1.00  0.00     0.049 A 
ATOM     42  N   UNL     1      -1.140   2.773  12.990  1.00  0.00    -0.248 NA
ATOM     43  C   UNL     1      -3.147   3.194  11.876  1.00  0.00     0.031 C 
ATOM     44  C   UNL     1       1.119   4.571   9.578  1.00  0.00     0.029 A 
ATOM     45  N   UNL     1       1.300   3.549  11.559  1.00  0.00    -0.354 N 
ATOM     46  C   UNL     1      -2.200   2.324  13.768  1.00  0.00     0.074 A 
ATOM     47  C   UNL     1      -3.415   2.642  13.052  1.00  0.00     0.031 C 
ATOM     48  C   UNL     1       2.424   4.378   9.811  1.00  0.00     0.029 A 
ATOM     49  C   UNL     1       2.585   3.737  11.112  1.00  0.00     0.049 A 
ATOM     50  H   UNL     1       1.085   3.132  12.425  1.00  0.00     0.167 HD
ATOM     51  C   UNL     1      -2.161   1.694  14.967  1.00  0.00     0.031 A 
ATOM     52  C   UNL     1       3.766   3.441  11.686  1.00  0.00     0.031 A 
ATOM     53  C   UNL     1      -0.949   1.364  15.669  1.00  0.00     0.049 A 
ATOM     54  C   UNL     1       3.779   2.793  13.039  1.00  0.00     0.074 A 
ATOM     55  C   UNL     1      -0.811   0.719  16.886  1.00  0.00     0.029 A 
ATOM     56  N   UNL     1       0.330   1.645  15.216  1.00  0.00    -0.354 N 
ATOM     57  N   UNL     1       2.767   2.392  13.768  1.00  0.00    -0.248 NA
ATOM     58  C   UNL     1       5.095   2.566  13.652  1.00  0.00     0.031 C 
ATOM     59  C   UNL     1       0.550   0.656  17.195  1.00  0.00     0.029 A 
ATOM     60  C   UNL     1       1.262   1.207  16.141  1.00  0.00     0.049 A 
ATOM     61  H   UNL     1       0.544   2.088  14.364  1.00  0.00     0.167 HD
ATOM     62  C   UNL     1       3.321   1.857  14.922  1.00  0.00     0.074 A 
ATOM     63  C   UNL     1       4.759   1.965  14.787  1.00  0.00     0.031 C 
ATOM     64  C   UNL     1       2.690   1.328  15.998  1.00  0.00     0.031 A 
BRANCH  51  65
ATOM     65  C   UNL     1      -3.467   1.326  15.616  1.00  0.00    -0.014 A 
ATOM     66  C   UNL     1      -3.877   1.993  16.782  1.00  0.00     0.009 A 
ATOM     67  C   UNL     1      -4.244   0.260  15.136  1.00  0.00     0.009 A 
ATOM     68  C   UNL     1      -5.030   1.595  17.461  1.00  0.00     0.001 A 
ATOM     69  C   UNL     1      -5.412  -0.119  15.803  1.00  0.00     0.001 A 
ATOM     70  C   UNL     1      -5.799   0.542  16.968  1.00  0.00     0.000 A 
ENDBRANCH  51  65
BRANCH  52  71
ATOM     71  C   UNL     1       5.025   3.762  10.966  1.00  0.00    -0.014 A 
ATOM     72  C   UNL     1       5.403   5.098  10.752  1.00  0.00     0.009 A 
ATOM     73  C   UNL     1       5.821   2.738  10.433  1.00  0.00     0.009 A 
ATOM     74  C   UNL     1       6.535   5.403   9.994  1.00  0.00     0.001 A 
ATOM     75  C   UNL     1       6.970   3.046   9.701  1.00  0.00     0.001 A 
ATOM     76  C   UNL     1       7.320   4.376   9.473  1.00  0.00     0.000 A 
ENDBRANCH  52  71
BRANCH  64  77
ATOM     77  C   UNL     1       3.542   0.813  17.122  1.00  0.00    -0.014 A 
ATOM     78  C   UNL     1       3.625  -0.568  17.358  1.00  0.00     0.009 A 
ATOM     79  C   UNL     1       4.183   1.697  18.003  1.00  0.00     0.009 A 
ATOM     80  C   UNL     1       4.322  -1.055  18.465  1.00  0.00     0.001 A 
ATOM     81  C   UNL     1       4.902   1.205  19.095  1.00  0.00     0.001 A 
ATOM     82  C   UNL     1       4.962  -0.169  19.329  1.00  0.00     0.000 A 
ENDBRANCH  64  77
ENDBRANCH  38  39
ENDBRANCH  30  33
ENDBRANCH  28  29
ENDBRANCH   1  28
TORSDOF 12
