REMARK SMILES CC(C)C[C@H](NC(N)=O)C(=O)N[C@@H](C(=O)NCCCCNC(=O)c1ccc(-c2c3nc(c(-c4ccccc4)c4ccc([nH]4)c(-c4ccccc4)c4nc(c(-c5ccccc5)c5ccc2[nH]5)C=C4)C=C3)cc1)C(C)C
REMARK SMILES IDX 17 1 16 2 14 3 15 4 13 6 12 7 10 8 11 9 5 11 4 12 2 13 1 14
REMARK SMILES IDX 3 15 6 16 7 17 8 19 9 20 72 23 73 24 74 25 18 26 19 27 20 28
REMARK SMILES IDX 21 29 22 30 23 32 24 33 25 34 71 35 26 36 70 37 27 38 28 39
REMARK SMILES IDX 29 40 64 41 30 42 69 43 63 44 65 45 31 46 68 47 62 48 61 49
REMARK SMILES IDX 32 51 54 52 39 53 53 54 40 55 43 56 52 57 66 58 41 59 42 60
REMARK SMILES IDX 51 62 67 63 44 64 33 65 34 66 38 67 35 68 37 69 36 70 55 71
REMARK SMILES IDX 56 72 60 73 57 74 59 75 58 76 45 77 46 78 50 79 47 80 49 81
REMARK SMILES IDX 48 82
REMARK H PARENT 16 5 12 10 6 18 8 21 8 22 21 31 65 50 43 61
REMARK Flexibility Score: inf
ROOT
ATOM      1  C   UNL     1      -2.807   2.931   0.006  1.00  0.00     0.116 C 
ENDROOT
BRANCH   1   2
ATOM      2  N   UNL     1      -3.482   3.660   1.047  1.00  0.00    -0.354 N 
ATOM      3  C   UNL     1      -3.642   3.338   2.363  1.00  0.00     0.242 C 
ATOM      4  O   UNL     1      -4.219   4.185   3.051  1.00  0.00    -0.273 OA
ATOM      5  H   UNL     1      -3.885   4.514   0.770  1.00  0.00     0.163 HD
BRANCH   3   6
ATOM      6  C   UNL     1      -3.007   2.039   2.980  1.00  0.00     0.173 C 
BRANCH   6   7
ATOM      7  N   UNL     1      -3.451   0.861   2.224  1.00  0.00    -0.342 N 
ATOM      8  C   UNL     1      -2.794  -0.123   1.544  1.00  0.00     0.243 C 
ATOM      9  O   UNL     1      -3.517  -0.987   1.032  1.00  0.00    -0.273 OA
ATOM     10  H   UNL     1      -4.430   0.760   2.203  1.00  0.00     0.164 HD
BRANCH   8  11
ATOM     11  C   UNL     1      -1.241  -0.258   1.464  1.00  0.00     0.173 C 
BRANCH  11  12
ATOM     12  C   UNL     1      -0.609  -0.602   2.814  1.00  0.00     0.038 C 
BRANCH  12  13
ATOM     13  C   UNL     1      -0.769  -2.076   3.217  1.00  0.00    -0.015 C 
ATOM     14  C   UNL     1       0.087  -2.990   2.334  1.00  0.00     0.007 C 
ATOM     15  C   UNL     1      -0.360  -2.251   4.680  1.00  0.00     0.007 C 
ENDBRANCH  12  13
ENDBRANCH  11  12
BRANCH  11  16
ATOM     16  N   UNL     1      -0.509   0.872   0.885  1.00  0.00    -0.327 N 
ATOM     17  C   UNL     1      -0.119   0.881  -0.419  1.00  0.00     0.312 C 
ATOM     18  H   UNL     1      -0.294   1.646   1.455  1.00  0.00     0.166 HD
ATOM     19  N   UNL     1       0.608   1.970  -0.755  1.00  0.00    -0.352 N 
ATOM     20  O   UNL     1      -0.394   0.027  -1.249  1.00  0.00    -0.249 OA
ATOM     21  H   UNL     1       0.820   2.649  -0.074  1.00  0.00     0.161 HD
ATOM     22  H   UNL     1       0.925   2.085  -1.680  1.00  0.00     0.161 HD
ENDBRANCH  11  16
ENDBRANCH   8  11
ENDBRANCH   6   7
BRANCH   6  23
ATOM     23  C   UNL     1      -3.428   1.935   4.482  1.00  0.00     0.015 C 
ATOM     24  C   UNL     1      -3.286   0.545   5.111  1.00  0.00     0.010 C 
ATOM     25  C   UNL     1      -2.631   2.928   5.344  1.00  0.00     0.010 C 
ENDBRANCH   6  23
ENDBRANCH   3   6
ENDBRANCH   1   2
BRANCH   1  26
ATOM     26  C   UNL     1      -3.708   2.577  -1.163  1.00  0.00     0.023 C 
BRANCH  26  27
ATOM     27  C   UNL     1      -3.993   3.753  -2.088  1.00  0.00     0.023 C 
BRANCH  27  28
ATOM     28  C   UNL     1      -2.750   4.431  -2.653  1.00  0.00     0.116 C 
BRANCH  28  29
ATOM     29  N   UNL     1      -1.908   3.541  -3.442  1.00  0.00    -0.352 N 
ATOM     30  C   UNL     1      -1.390   3.749  -4.699  1.00  0.00     0.251 C 
ATOM     31  H   UNL     1      -1.681   2.680  -3.021  1.00  0.00     0.163 HD
ATOM     32  O   UNL     1      -0.775   2.868  -5.287  1.00  0.00    -0.269 OA
BRANCH  30  33
ATOM     33  C   UNL     1      -1.622   5.051  -5.355  1.00  0.00     0.039 A 
ATOM     34  C   UNL     1      -2.208   5.073  -6.622  1.00  0.00     0.014 A 
ATOM     35  C   UNL     1      -1.343   6.242  -4.678  1.00  0.00     0.014 A 
ATOM     36  C   UNL     1      -2.606   6.293  -7.170  1.00  0.00     0.010 A 
ATOM     37  C   UNL     1      -1.815   7.446  -5.190  1.00  0.00     0.010 A 
ATOM     38  C   UNL     1      -2.466   7.481  -6.433  1.00  0.00    -0.014 A 
BRANCH  38  39
ATOM     39  C   UNL     1      -3.046   8.759  -6.917  1.00  0.00     0.031 A 
ATOM     40  C   UNL     1      -2.158   9.933  -7.217  1.00  0.00     0.074 A 
ATOM     41  C   UNL     1      -4.385   8.883  -7.014  1.00  0.00     0.049 A 
ATOM     42  N   UNL     1      -2.491  11.144  -7.587  1.00  0.00    -0.248 NA
ATOM     43  C   UNL     1      -0.710   9.728  -7.059  1.00  0.00     0.031 C 
ATOM     44  C   UNL     1      -5.359   7.830  -6.714  1.00  0.00     0.029 A 
ATOM     45  N   UNL     1      -5.160   9.954  -7.385  1.00  0.00    -0.354 N 
ATOM     46  C   UNL     1      -1.297  11.845  -7.697  1.00  0.00     0.074 A 
ATOM     47  C   UNL     1      -0.238  10.941  -7.305  1.00  0.00     0.031 C 
ATOM     48  C   UNL     1      -6.596   8.297  -6.943  1.00  0.00     0.029 A 
ATOM     49  C   UNL     1      -6.509   9.694  -7.353  1.00  0.00     0.049 A 
ATOM     50  H   UNL     1      -4.784  10.824  -7.650  1.00  0.00     0.167 HD
ATOM     51  C   UNL     1      -1.100  13.121  -8.105  1.00  0.00     0.031 A 
ATOM     52  C   UNL     1      -7.561  10.495  -7.610  1.00  0.00     0.031 A 
ATOM     53  C   UNL     1      -2.155  14.022  -8.488  1.00  0.00     0.049 A 
ATOM     54  C   UNL     1      -7.315  11.921  -8.014  1.00  0.00     0.074 A 
ATOM     55  C   UNL     1      -2.051  15.316  -8.966  1.00  0.00     0.029 A 
ATOM     56  N   UNL     1      -3.509  13.726  -8.427  1.00  0.00    -0.354 N 
ATOM     57  N   UNL     1      -6.176  12.547  -8.188  1.00  0.00    -0.248 NA
ATOM     58  C   UNL     1      -8.502  12.751  -8.263  1.00  0.00     0.031 C 
ATOM     59  C   UNL     1      -3.342  15.828  -9.128  1.00  0.00     0.029 A 
ATOM     60  C   UNL     1      -4.251  14.829  -8.818  1.00  0.00     0.049 A 
ATOM     61  H   UNL     1      -3.886  12.862  -8.146  1.00  0.00     0.167 HD
ATOM     62  C   UNL     1      -6.508  13.835  -8.586  1.00  0.00     0.074 A 
ATOM     63  C   UNL     1      -7.954  13.893  -8.653  1.00  0.00     0.031 C 
ATOM     64  C   UNL     1      -5.689  14.878  -8.868  1.00  0.00     0.031 A 
BRANCH  51  65
ATOM     65  C   UNL     1       0.317  13.627  -8.141  1.00  0.00    -0.014 A 
ATOM     66  C   UNL     1       1.242  13.139  -9.078  1.00  0.00     0.009 A 
ATOM     67  C   UNL     1       0.720  14.637  -7.254  1.00  0.00     0.009 A 
ATOM     68  C   UNL     1       2.551  13.626  -9.101  1.00  0.00     0.001 A 
ATOM     69  C   UNL     1       2.020  15.145  -7.301  1.00  0.00     0.001 A 
ATOM     70  C   UNL     1       2.937  14.632  -8.217  1.00  0.00     0.000 A 
ENDBRANCH  51  65
BRANCH  52  71
ATOM     71  C   UNL     1      -8.947   9.969  -7.487  1.00  0.00    -0.014 A 
ATOM     72  C   UNL     1      -9.754   9.808  -8.624  1.00  0.00     0.009 A 
ATOM     73  C   UNL     1      -9.476   9.636  -6.229  1.00  0.00     0.009 A 
ATOM     74  C   UNL     1     -11.069   9.353  -8.501  1.00  0.00     0.001 A 
ATOM     75  C   UNL     1     -10.779   9.148  -6.113  1.00  0.00     0.001 A 
ATOM     76  C   UNL     1     -11.578   9.018  -7.248  1.00  0.00     0.000 A 
ENDBRANCH  52  71
BRANCH  64  77
ATOM     77  C   UNL     1      -6.339  16.165  -9.294  1.00  0.00    -0.014 A 
ATOM     78  C   UNL     1      -7.062  16.953  -8.384  1.00  0.00     0.009 A 
ATOM     79  C   UNL     1      -6.197  16.614 -10.617  1.00  0.00     0.009 A 
ATOM     80  C   UNL     1      -7.658  18.146  -8.800  1.00  0.00     0.001 A 
ATOM     81  C   UNL     1      -6.765  17.823 -11.021  1.00  0.00     0.001 A 
ATOM     82  C   UNL     1      -7.504  18.582 -10.115  1.00  0.00     0.000 A 
ENDBRANCH  64  77
ENDBRANCH  38  39
ENDBRANCH  30  33
ENDBRANCH  28  29
ENDBRANCH  27  28
ENDBRANCH  26  27
ENDBRANCH   1  26
TORSDOF 17
