REMARK SMILES O=C(CCN1C(=O)S/C(=C\c2ccc(F)cc2)C1=O)Nc1ccc(O)cc1C(=O)NCCCCNC(=O)c1ccc(-c2c3nc(c(-c4ccccc4)c4ccc([nH]4)c(-c4ccccc4)c4nc(c(-c5ccccc5)c5ccc2[nH]5)C=C4)C=C3)cc1
REMARK SMILES IDX 31 1 30 2 28 3 29 4 27 6 21 7 22 8 23 9 26 10 24 11 20 12
REMARK SMILES IDX 1 13 2 14 3 16 4 17 5 18 6 19 18 20 7 21 8 22 9 23 19 24
REMARK SMILES IDX 10 25 11 26 12 27 17 28 13 29 16 30 14 31 15 32 25 33 32 35
REMARK SMILES IDX 33 36 34 37 35 38 36 39 37 41 38 42 39 43 85 44 40 45 84 46
REMARK SMILES IDX 41 47 42 48 43 49 78 50 44 51 83 52 77 53 79 54 45 55 82 56
REMARK SMILES IDX 76 57 75 58 46 60 68 61 53 62 67 63 54 64 57 65 66 66 80 67
REMARK SMILES IDX 55 68 56 69 65 71 81 72 58 73 47 74 48 75 52 76 49 77 51 78
REMARK SMILES IDX 50 79 69 80 70 81 74 82 71 83 73 84 72 85 59 86 60 87 64 88
REMARK SMILES IDX 61 89 63 90 62 91
REMARK H PARENT 30 5 20 15 25 34 35 40 79 59 57 70
REMARK Flexibility Score: inf
ROOT
ATOM      1  C   UNL     1       2.866   2.660   0.390  1.00  0.00     0.116 C 
ENDROOT
BRANCH   1   2
ATOM      2  N   UNL     1       3.629   2.692   1.649  1.00  0.00    -0.352 N 
ATOM      3  C   UNL     1       3.430   2.167   2.913  1.00  0.00     0.253 C 
ATOM      4  O   UNL     1       4.295   2.371   3.769  1.00  0.00    -0.269 OA
ATOM      5  H   UNL     1       4.468   3.201   1.574  1.00  0.00     0.163 HD
BRANCH   3   6
ATOM      6  C   UNL     1       2.257   1.339   3.316  1.00  0.00     0.067 A 
ATOM      7  C   UNL     1       1.791   0.235   2.588  1.00  0.00     0.054 A 
ATOM      8  C   UNL     1       0.681  -0.494   3.055  1.00  0.00     0.031 A 
ATOM      9  C   UNL     1       0.089  -0.192   4.281  1.00  0.00     0.048 A 
ATOM     10  C   UNL     1       1.671   1.617   4.566  1.00  0.00     0.062 A 
ATOM     11  C   UNL     1       0.606   0.849   5.038  1.00  0.00     0.116 A 
BRANCH   7  12
ATOM     12  N   UNL     1       2.523  -0.253   1.490  1.00  0.00    -0.325 N 
ATOM     13  O   UNL     1       0.772  -0.955   0.166  1.00  0.00    -0.275 OA
ATOM     14  C   UNL     1       1.976  -0.896   0.405  1.00  0.00     0.226 C 
ATOM     15  H   UNL     1       3.499  -0.125   1.500  1.00  0.00     0.169 HD
BRANCH  14  16
ATOM     16  C   UNL     1       2.974  -1.568  -0.509  1.00  0.00     0.122 C 
BRANCH  16  17
ATOM     17  C   UNL     1       4.189  -0.731  -0.886  1.00  0.00     0.140 C 
BRANCH  17  18
ATOM     18  N   UNL     1       5.268  -0.571   0.088  1.00  0.00    -0.268 N 
ATOM     19  C   UNL     1       5.883   0.635   0.278  1.00  0.00     0.293 C 
ATOM     20  C   UNL     1       5.820  -1.607   0.804  1.00  0.00     0.268 C 
ATOM     21  O   UNL     1       5.450   1.739   0.013  1.00  0.00    -0.261 OA
ATOM     22  S   UNL     1       7.384   0.466   1.123  1.00  0.00    -0.022 SA
ATOM     23  C   UNL     1       6.861  -1.056   1.712  1.00  0.00     0.083 C 
ATOM     24  O   UNL     1       5.483  -2.778   0.775  1.00  0.00    -0.268 OA
ATOM     25  C   UNL     1       7.115  -1.555   2.925  1.00  0.00     0.029 C 
BRANCH  25  26
ATOM     26  C   UNL     1       7.870  -0.779   3.913  1.00  0.00    -0.024 A 
ATOM     27  C   UNL     1       7.187   0.137   4.732  1.00  0.00     0.011 A 
ATOM     28  C   UNL     1       9.267  -0.834   3.945  1.00  0.00     0.011 A 
ATOM     29  C   UNL     1       7.899   0.973   5.591  1.00  0.00     0.040 A 
ATOM     30  C   UNL     1       9.975   0.004   4.807  1.00  0.00     0.040 A 
ATOM     31  C   UNL     1       9.286   0.894   5.625  1.00  0.00     0.123 A 
ATOM     32  F   UNL     1       9.972   1.699   6.447  1.00  0.00    -0.207 F 
ENDBRANCH  25  26
ENDBRANCH  17  18
ENDBRANCH  16  17
ENDBRANCH  14  16
ENDBRANCH   7  12
BRANCH  11  33
ATOM     33  O   UNL     1       0.098   1.133   6.271  1.00  0.00    -0.508 OA
ATOM     34  H   UNL     1      -0.617   0.632   6.611  1.00  0.00     0.293 HD
ENDBRANCH  11  33
ENDBRANCH   3   6
ENDBRANCH   1   2
BRANCH   1  35
ATOM     35  C   UNL     1       3.256   3.749  -0.651  1.00  0.00     0.023 C 
BRANCH  35  36
ATOM     36  C   UNL     1       4.115   3.663  -1.975  1.00  0.00     0.023 C 
BRANCH  36  37
ATOM     37  C   UNL     1       5.482   3.009  -2.300  1.00  0.00     0.116 C 
BRANCH  37  38
ATOM     38  N   UNL     1       5.357   1.641  -2.816  1.00  0.00    -0.352 N 
ATOM     39  C   UNL     1       6.232   0.860  -3.534  1.00  0.00     0.251 C 
ATOM     40  H   UNL     1       4.497   1.207  -2.612  1.00  0.00     0.163 HD
ATOM     41  O   UNL     1       5.905  -0.262  -3.908  1.00  0.00    -0.269 OA
BRANCH  39  42
ATOM     42  C   UNL     1       7.557   1.386  -3.887  1.00  0.00     0.039 A 
ATOM     43  C   UNL     1       7.864   1.627  -5.231  1.00  0.00     0.014 A 
ATOM     44  C   UNL     1       8.478   1.660  -2.879  1.00  0.00     0.014 A 
ATOM     45  C   UNL     1       9.065   2.260  -5.554  1.00  0.00     0.010 A 
ATOM     46  C   UNL     1       9.656   2.323  -3.198  1.00  0.00     0.010 A 
ATOM     47  C   UNL     1       9.937   2.665  -4.530  1.00  0.00    -0.014 A 
BRANCH  47  48
ATOM     48  C   UNL     1      11.085   3.555  -4.812  1.00  0.00     0.031 A 
ATOM     49  C   UNL     1      12.490   3.079  -4.610  1.00  0.00     0.074 A 
ATOM     50  C   UNL     1      10.829   4.836  -5.143  1.00  0.00     0.049 A 
ATOM     51  N   UNL     1      13.611   3.736  -4.759  1.00  0.00    -0.248 NA
ATOM     52  C   UNL     1      12.659   1.691  -4.152  1.00  0.00     0.031 C 
ATOM     53  C   UNL     1       9.491   5.418  -5.295  1.00  0.00     0.029 A 
ATOM     54  N   UNL     1      11.675   5.882  -5.403  1.00  0.00    -0.354 N 
ATOM     55  C   UNL     1      14.617   2.846  -4.407  1.00  0.00     0.074 A 
ATOM     56  C   UNL     1      13.971   1.622  -3.985  1.00  0.00     0.031 C 
ATOM     57  C   UNL     1       9.608   6.705  -5.657  1.00  0.00     0.029 A 
ATOM     58  C   UNL     1      11.023   7.048  -5.726  1.00  0.00     0.049 A 
ATOM     59  H   UNL     1      12.655   5.806  -5.362  1.00  0.00     0.167 HD
ATOM     60  C   UNL     1      15.957   3.031  -4.452  1.00  0.00     0.031 A 
ATOM     61  C   UNL     1      11.515   8.258  -6.047  1.00  0.00     0.031 A 
ATOM     62  C   UNL     1      16.580   4.262  -4.861  1.00  0.00     0.049 A 
ATOM     63  C   UNL     1      13.006   8.437  -6.087  1.00  0.00     0.074 A 
ATOM     64  C   UNL     1      17.927   4.548  -4.992  1.00  0.00     0.029 A 
ATOM     65  N   UNL     1      15.889   5.417  -5.199  1.00  0.00    -0.354 N 
ATOM     66  N   UNL     1      13.948   7.559  -5.840  1.00  0.00    -0.248 NA
ATOM     67  C   UNL     1      13.500   9.766  -6.466  1.00  0.00     0.031 C 
ATOM     68  C   UNL     1      18.051   5.892  -5.363  1.00  0.00     0.029 A 
ATOM     69  C   UNL     1      16.781   6.425  -5.519  1.00  0.00     0.049 A 
ATOM     70  H   UNL     1      14.909   5.506  -5.209  1.00  0.00     0.167 HD
ATOM     71  C   UNL     1      15.148   8.220  -6.061  1.00  0.00     0.074 A 
ATOM     72  C   UNL     1      14.811   9.567  -6.479  1.00  0.00     0.031 C 
ATOM     73  C   UNL     1      16.415   7.757  -5.931  1.00  0.00     0.031 A 
BRANCH  60  74
ATOM     74  C   UNL     1      16.826   1.873  -4.044  1.00  0.00    -0.014 A 
ATOM     75  C   UNL     1      16.895   0.707  -4.825  1.00  0.00     0.009 A 
ATOM     76  C   UNL     1      17.596   1.949  -2.873  1.00  0.00     0.009 A 
ATOM     77  C   UNL     1      17.678  -0.375  -4.419  1.00  0.00     0.001 A 
ATOM     78  C   UNL     1      18.403   0.877  -2.485  1.00  0.00     0.001 A 
ATOM     79  C   UNL     1      18.434  -0.288  -3.251  1.00  0.00     0.000 A 
ENDBRANCH  60  74
BRANCH  61  80
ATOM     80  C   UNL     1      10.595   9.372  -6.396  1.00  0.00    -0.014 A 
ATOM     81  C   UNL     1      10.511   9.834  -7.718  1.00  0.00     0.009 A 
ATOM     82  C   UNL     1       9.790   9.974  -5.416  1.00  0.00     0.009 A 
ATOM     83  C   UNL     1       9.662  10.894  -8.047  1.00  0.00     0.001 A 
ATOM     84  C   UNL     1       8.920  11.014  -5.754  1.00  0.00     0.001 A 
ATOM     85  C   UNL     1       8.864  11.480  -7.066  1.00  0.00     0.000 A 
ENDBRANCH  61  80
BRANCH  73  86
ATOM     86  C   UNL     1      17.525   8.707  -6.281  1.00  0.00    -0.014 A 
ATOM     87  C   UNL     1      17.845   9.792  -5.451  1.00  0.00     0.009 A 
ATOM     88  C   UNL     1      18.286   8.485  -7.439  1.00  0.00     0.009 A 
ATOM     89  C   UNL     1      18.886  10.656  -5.793  1.00  0.00     0.001 A 
ATOM     90  C   UNL     1      19.346   9.331  -7.762  1.00  0.00     0.001 A 
ATOM     91  C   UNL     1      19.639  10.421  -6.944  1.00  0.00     0.000 A 
ENDBRANCH  73  86
ENDBRANCH  47  48
ENDBRANCH  39  42
ENDBRANCH  37  38
ENDBRANCH  36  37
ENDBRANCH  35  36
ENDBRANCH   1  35
TORSDOF 17
