REMARK SMILES O=C(NCCCCNC(=O)[C@@H]1C=C[C@H](NC(=O)[C@@H]2Cc3ccccc3O2)C1)c1ccc(-c2c3nc(c(-c4ccccc4)c4ccc([nH]4)c(-c4ccccc4)c4nc(c(-c5ccccc5)c5ccc2[nH]5)C=C4)C=C3)cc1
REMARK SMILES IDX 5 1 4 2 3 3 1 4 2 5 28 7 29 8 75 9 30 10 74 11 31 12 32 13
REMARK SMILES IDX 33 14 68 15 34 16 73 17 67 18 69 19 35 20 72 21 66 22 65 23
REMARK SMILES IDX 36 25 58 26 43 27 57 28 44 29 47 30 56 31 70 32 45 33 46 34
REMARK SMILES IDX 55 36 71 37 48 38 37 39 38 40 42 41 39 42 41 43 40 44 59 45
REMARK SMILES IDX 60 46 64 47 61 48 63 49 62 50 49 51 50 52 54 53 51 54 53 55
REMARK SMILES IDX 52 56 6 57 7 58 8 59 9 60 10 62 11 63 12 64 27 65 13 66
REMARK SMILES IDX 14 67 15 68 16 69 17 71 18 72 19 73 26 74 20 75 25 76 21 77
REMARK SMILES IDX 24 78 22 79 23 80
REMARK H PARENT 3 6 69 24 47 35 8 61 15 70
REMARK Flexibility Score: inf
ROOT
ATOM      1  C   UNL     1      -3.010   4.057  -5.387  1.00  0.00     0.023 C 
ENDROOT
BRANCH   1   2
ATOM      2  C   UNL     1      -3.683   5.406  -5.156  1.00  0.00     0.116 C 
BRANCH   2   3
ATOM      3  N   UNL     1      -4.527   5.826  -6.263  1.00  0.00    -0.352 N 
ATOM      4  O   UNL     1      -6.392   6.619  -7.259  1.00  0.00    -0.269 OA
ATOM      5  C   UNL     1      -5.762   6.431  -6.222  1.00  0.00     0.251 C 
ATOM      6  H   UNL     1      -4.167   5.654  -7.163  1.00  0.00     0.163 HD
BRANCH   5   7
ATOM      7  C   UNL     1      -6.345   6.824  -4.921  1.00  0.00     0.039 A 
ATOM      8  C   UNL     1      -5.573   7.488  -3.965  1.00  0.00     0.014 A 
ATOM      9  C   UNL     1      -7.683   6.517  -4.652  1.00  0.00     0.014 A 
ATOM     10  C   UNL     1      -6.093   7.715  -2.696  1.00  0.00     0.010 A 
ATOM     11  C   UNL     1      -8.229   6.817  -3.400  1.00  0.00     0.010 A 
ATOM     12  C   UNL     1      -7.428   7.389  -2.400  1.00  0.00    -0.014 A 
BRANCH  12  13
ATOM     13  C   UNL     1      -7.962   7.706  -1.052  1.00  0.00     0.031 A 
ATOM     14  C   UNL     1      -8.358   6.620  -0.090  1.00  0.00     0.074 A 
ATOM     15  C   UNL     1      -8.030   8.998  -0.674  1.00  0.00     0.049 A 
ATOM     16  N   UNL     1      -8.766   6.731   1.150  1.00  0.00    -0.248 NA
ATOM     17  C   UNL     1      -8.294   5.234  -0.578  1.00  0.00     0.031 C 
ATOM     18  C   UNL     1      -7.684  10.142  -1.522  1.00  0.00     0.029 A 
ATOM     19  N   UNL     1      -8.377   9.564   0.525  1.00  0.00    -0.354 N 
ATOM     20  C   UNL     1      -9.015   5.436   1.587  1.00  0.00     0.074 A 
ATOM     21  C   UNL     1      -8.739   4.556   0.471  1.00  0.00     0.031 C 
ATOM     22  C   UNL     1      -7.781  11.268  -0.800  1.00  0.00     0.029 A 
ATOM     23  C   UNL     1      -8.244  10.931   0.541  1.00  0.00     0.049 A 
ATOM     24  H   UNL     1      -8.691   9.043   1.298  1.00  0.00     0.167 HD
ATOM     25  C   UNL     1      -9.426   5.018   2.809  1.00  0.00     0.031 A 
ATOM     26  C   UNL     1      -8.472  11.821   1.524  1.00  0.00     0.031 A 
ATOM     27  C   UNL     1      -9.706   5.892   3.918  1.00  0.00     0.049 A 
ATOM     28  C   UNL     1      -8.936  11.329   2.862  1.00  0.00     0.074 A 
ATOM     29  C   UNL     1     -10.126   5.559   5.196  1.00  0.00     0.029 A 
ATOM     30  N   UNL     1      -9.590   7.272   3.884  1.00  0.00    -0.354 N 
ATOM     31  N   UNL     1      -9.148  10.099   3.260  1.00  0.00    -0.248 NA
ATOM     32  C   UNL     1      -9.190  12.351   3.887  1.00  0.00     0.031 C 
ATOM     33  C   UNL     1     -10.299   6.742   5.923  1.00  0.00     0.029 A 
ATOM     34  C   UNL     1      -9.943   7.807   5.113  1.00  0.00     0.049 A 
ATOM     35  H   UNL     1      -9.300   7.796   3.103  1.00  0.00     0.167 HD
ATOM     36  C   UNL     1      -9.554  10.196   4.583  1.00  0.00     0.074 A 
ATOM     37  C   UNL     1      -9.528  11.603   4.928  1.00  0.00     0.031 C 
ATOM     38  C   UNL     1      -9.924   9.209   5.435  1.00  0.00     0.031 A 
BRANCH  25  39
ATOM     39  C   UNL     1      -9.615   3.540   3.009  1.00  0.00    -0.014 A 
ATOM     40  C   UNL     1      -8.513   2.680   3.139  1.00  0.00     0.009 A 
ATOM     41  C   UNL     1     -10.909   3.009   3.127  1.00  0.00     0.009 A 
ATOM     42  C   UNL     1      -8.704   1.314   3.358  1.00  0.00     0.001 A 
ATOM     43  C   UNL     1     -11.097   1.646   3.368  1.00  0.00     0.001 A 
ATOM     44  C   UNL     1      -9.995   0.799   3.478  1.00  0.00     0.000 A 
ENDBRANCH  25  39
BRANCH  26  45
ATOM     45  C   UNL     1      -8.271  13.269   1.269  1.00  0.00    -0.014 A 
ATOM     46  C   UNL     1      -7.205  13.961   1.862  1.00  0.00     0.009 A 
ATOM     47  C   UNL     1      -9.144  13.964   0.417  1.00  0.00     0.009 A 
ATOM     48  C   UNL     1      -7.031  15.326   1.623  1.00  0.00     0.001 A 
ATOM     49  C   UNL     1      -8.950  15.321   0.157  1.00  0.00     0.001 A 
ATOM     50  C   UNL     1      -7.899  16.003   0.767  1.00  0.00     0.000 A 
ENDBRANCH  26  45
BRANCH  38  51
ATOM     51  C   UNL     1     -10.316   9.627   6.822  1.00  0.00    -0.014 A 
ATOM     52  C   UNL     1     -11.544  10.263   7.065  1.00  0.00     0.009 A 
ATOM     53  C   UNL     1      -9.453   9.374   7.898  1.00  0.00     0.009 A 
ATOM     54  C   UNL     1     -11.881  10.673   8.356  1.00  0.00     0.001 A 
ATOM     55  C   UNL     1      -9.804   9.763   9.191  1.00  0.00     0.001 A 
ATOM     56  C   UNL     1     -11.013  10.421   9.417  1.00  0.00     0.000 A 
ENDBRANCH  38  51
ENDBRANCH  12  13
ENDBRANCH   5   7
ENDBRANCH   2   3
ENDBRANCH   1   2
BRANCH   1  57
ATOM     57  C   UNL     1      -2.058   3.993  -6.585  1.00  0.00     0.023 C 
BRANCH  57  58
ATOM     58  C   UNL     1      -0.937   5.034  -6.567  1.00  0.00     0.116 C 
BRANCH  58  59
ATOM     59  N   UNL     1      -0.057   4.851  -5.428  1.00  0.00    -0.356 N 
ATOM     60  C   UNL     1       1.154   4.219  -5.361  1.00  0.00     0.227 C 
ATOM     61  H   UNL     1      -0.377   5.238  -4.581  1.00  0.00     0.163 HD
ATOM     62  O   UNL     1       1.698   4.119  -4.261  1.00  0.00    -0.274 OA
BRANCH  60  63
ATOM     63  C   UNL     1       1.791   3.713  -6.656  1.00  0.00     0.103 C 
ATOM     64  C   UNL     1       2.679   2.528  -6.437  1.00  0.00    -0.016 C 
ATOM     65  C   UNL     1       2.739   4.777  -7.236  1.00  0.00     0.047 C 
ATOM     66  C   UNL     1       3.964   2.815  -6.662  1.00  0.00    -0.006 C 
ATOM     67  C   UNL     1       4.167   4.242  -7.048  1.00  0.00     0.106 C 
BRANCH  67  68
ATOM     68  N   UNL     1       4.893   4.889  -5.980  1.00  0.00    -0.347 N 
ATOM     69  C   UNL     1       5.598   6.061  -6.022  1.00  0.00     0.261 C 
ATOM     70  H   UNL     1       4.879   4.427  -5.111  1.00  0.00     0.164 HD
ATOM     71  O   UNL     1       6.249   6.388  -5.028  1.00  0.00    -0.271 OA
BRANCH  69  72
ATOM     72  C   UNL     1       5.530   6.925  -7.285  1.00  0.00     0.266 C 
ATOM     73  C   UNL     1       6.833   7.692  -7.546  1.00  0.00     0.095 C 
ATOM     74  O   UNL     1       4.447   7.881  -7.137  1.00  0.00    -0.480 OA
ATOM     75  C   UNL     1       6.255   8.932  -8.112  1.00  0.00    -0.002 A 
ATOM     76  C   UNL     1       4.907   8.993  -7.793  1.00  0.00     0.123 A 
ATOM     77  C   UNL     1       6.872   9.964  -8.796  1.00  0.00     0.008 A 
ATOM     78  C   UNL     1       4.131  10.088  -8.110  1.00  0.00     0.047 A 
ATOM     79  C   UNL     1       6.098  11.070  -9.154  1.00  0.00     0.001 A 
ATOM     80  C   UNL     1       4.738  11.137  -8.805  1.00  0.00     0.004 A 
ENDBRANCH  69  72
ENDBRANCH  67  68
ENDBRANCH  60  63
ENDBRANCH  58  59
ENDBRANCH  57  58
ENDBRANCH   1  57
TORSDOF 13
