REMARK SMILES CC1(C)CCC[C@H]1NS(=O)(=O)c1ccc(O)c(C(=O)NCCCCNC(=O)c2ccc(-c3c4nc(c(-c5ccccc5)c5ccc([nH]5)c(-c5ccccc5)c5nc(c(-c6ccccc6)c6ccc3[nH]6)C=C5)C=C4)cc2)c1
REMARK SMILES IDX 22 1 21 2 20 3 18 4 19 5 17 7 12 8 13 9 76 10 14 11 15 12
REMARK SMILES IDX 9 13 10 14 11 15 8 16 7 18 1 19 2 20 3 21 4 22 5 23 6 24
REMARK SMILES IDX 16 25 23 27 24 28 25 29 26 30 27 32 28 33 29 34 75 35 30 36
REMARK SMILES IDX 74 37 31 38 32 39 33 40 68 41 34 42 73 43 67 44 69 45 35 46
REMARK SMILES IDX 72 47 66 48 65 49 36 51 58 52 43 53 57 54 44 55 47 56 56 57
REMARK SMILES IDX 70 58 45 59 46 60 55 62 71 63 48 64 37 65 38 66 42 67 39 68
REMARK SMILES IDX 41 69 40 70 59 71 60 72 64 73 61 74 63 75 62 76 49 77 50 78
REMARK SMILES IDX 54 79 51 80 53 81 52 82
REMARK H PARENT 20 6 8 17 16 26 25 31 69 50 47 61
REMARK Flexibility Score: inf
ROOT
ATOM      1  C   UNL     1      -1.340   9.730  -2.026  1.00  0.00     0.023 C 
ENDROOT
BRANCH   1   2
ATOM      2  C   UNL     1      -0.435   9.585  -0.798  1.00  0.00     0.116 C 
BRANCH   2   3
ATOM      3  N   UNL     1      -1.216   9.130   0.328  1.00  0.00    -0.352 N 
ATOM      4  C   UNL     1      -1.561   7.876   0.757  1.00  0.00     0.255 C 
ATOM      5  O   UNL     1      -2.377   7.836   1.683  1.00  0.00    -0.269 OA
ATOM      6  H   UNL     1      -1.565   9.856   0.893  1.00  0.00     0.163 HD
BRANCH   4   7
ATOM      7  C   UNL     1      -0.967   6.587   0.271  1.00  0.00     0.082 A 
ATOM      8  C   UNL     1      -0.531   4.263   0.914  1.00  0.00     0.083 A 
ATOM      9  C   UNL     1       0.199   4.052  -0.246  1.00  0.00     0.025 A 
ATOM     10  C   UNL     1      -1.052   5.532   1.200  1.00  0.00     0.039 A 
ATOM     11  C   UNL     1       0.228   5.053  -1.209  1.00  0.00     0.048 A 
ATOM     12  C   UNL     1      -0.411   6.280  -0.978  1.00  0.00     0.128 A 
BRANCH   8  13
ATOM     13  S   UNL     1      -1.005   2.942   1.993  1.00  0.00     0.240 S 
ATOM     14  O   UNL     1      -2.416   2.702   1.767  1.00  0.00    -0.207 OA
ATOM     15  O   UNL     1      -0.483   3.259   3.298  1.00  0.00    -0.207 OA
BRANCH  13  16
ATOM     16  N   UNL     1      -0.154   1.582   1.505  1.00  0.00    -0.208 NA
ATOM     17  H   UNL     1       0.807   1.891   1.359  1.00  0.00     0.141 HD
BRANCH  16  18
ATOM     18  C   UNL     1      -0.507   0.789   0.316  1.00  0.00     0.075 C 
ATOM     19  C   UNL     1       1.900  -0.160   0.789  1.00  0.00     0.013 C 
ATOM     20  C   UNL     1       0.555  -0.331   0.061  1.00  0.00    -0.019 C 
ATOM     21  C   UNL     1       0.863  -0.423  -1.449  1.00  0.00     0.013 C 
ATOM     22  C   UNL     1      -0.157  -1.606   0.547  1.00  0.00     0.008 C 
ATOM     23  C   UNL     1      -1.606  -1.394   0.145  1.00  0.00     0.002 C 
ATOM     24  C   UNL     1      -1.856   0.070   0.474  1.00  0.00     0.020 C 
ENDBRANCH  16  18
ENDBRANCH  13  16
ENDBRANCH   8  13
BRANCH  12  25
ATOM     25  O   UNL     1      -0.529   7.098  -2.060  1.00  0.00    -0.507 OA
ATOM     26  H   UNL     1      -0.141   6.854  -2.877  1.00  0.00     0.293 HD
ENDBRANCH  12  25
ENDBRANCH   4   7
ENDBRANCH   2   3
ENDBRANCH   1   2
BRANCH   1  27
ATOM     27  C   UNL     1      -2.012  11.095  -2.160  1.00  0.00     0.023 C 
BRANCH  27  28
ATOM     28  C   UNL     1      -1.047  12.232  -2.463  1.00  0.00     0.116 C 
BRANCH  28  29
ATOM     29  N   UNL     1      -0.260  12.018  -3.670  1.00  0.00    -0.352 N 
ATOM     30  C   UNL     1       0.345  12.954  -4.469  1.00  0.00     0.251 C 
ATOM     31  H   UNL     1      -0.148  11.081  -3.947  1.00  0.00     0.163 HD
ATOM     32  O   UNL     1       0.913  12.621  -5.503  1.00  0.00    -0.269 OA
BRANCH  30  33
ATOM     33  C   UNL     1       0.251  14.379  -4.097  1.00  0.00     0.039 A 
ATOM     34  C   UNL     1      -0.193  15.289  -5.058  1.00  0.00     0.014 A 
ATOM     35  C   UNL     1       0.545  14.801  -2.798  1.00  0.00     0.014 A 
ATOM     36  C   UNL     1      -0.407  16.617  -4.696  1.00  0.00     0.010 A 
ATOM     37  C   UNL     1       0.263  16.108  -2.421  1.00  0.00     0.010 A 
ATOM     38  C   UNL     1      -0.213  17.026  -3.367  1.00  0.00    -0.014 A 
BRANCH  38  39
ATOM     39  C   UNL     1      -0.510  18.416  -2.953  1.00  0.00     0.031 A 
ATOM     40  C   UNL     1       0.601  19.326  -2.517  1.00  0.00     0.074 A 
ATOM     41  C   UNL     1      -1.788  18.838  -2.921  1.00  0.00     0.049 A 
ATOM     42  N   UNL     1       0.537  20.571  -2.120  1.00  0.00    -0.248 NA
ATOM     43  C   UNL     1       1.958  18.756  -2.498  1.00  0.00     0.031 C 
ATOM     44  C   UNL     1      -2.959  18.027  -3.262  1.00  0.00     0.029 A 
ATOM     45  N   UNL     1      -2.314  20.059  -2.586  1.00  0.00    -0.354 N 
ATOM     46  C   UNL     1       1.837  20.926  -1.788  1.00  0.00     0.074 A 
ATOM     47  C   UNL     1       2.662  19.755  -1.986  1.00  0.00     0.031 C 
ATOM     48  C   UNL     1      -4.064  18.783  -3.151  1.00  0.00     0.029 A 
ATOM     49  C   UNL     1      -3.680  20.121  -2.712  1.00  0.00     0.049 A 
ATOM     50  H   UNL     1      -1.765  20.818  -2.284  1.00  0.00     0.167 HD
ATOM     51  C   UNL     1       2.308  22.127  -1.377  1.00  0.00     0.031 A 
ATOM     52  C   UNL     1      -4.526  21.147  -2.509  1.00  0.00     0.031 A 
ATOM     53  C   UNL     1       1.492  23.297  -1.202  1.00  0.00     0.049 A 
ATOM     54  C   UNL     1      -3.976  22.479  -2.091  1.00  0.00     0.074 A 
ATOM     55  C   UNL     1       1.883  24.577  -0.851  1.00  0.00     0.029 A 
ATOM     56  N   UNL     1       0.117  23.328  -1.370  1.00  0.00    -0.354 N 
ATOM     57  N   UNL     1      -2.732  22.821  -1.857  1.00  0.00    -0.248 NA
ATOM     58  C   UNL     1      -4.945  23.571  -1.926  1.00  0.00     0.031 C 
ATOM     59  C   UNL     1       0.737  25.377  -0.778  1.00  0.00     0.029 A 
ATOM     60  C   UNL     1      -0.360  24.602  -1.119  1.00  0.00     0.049 A 
ATOM     61  H   UNL     1      -0.438  22.557  -1.629  1.00  0.00     0.167 HD
ATOM     62  C   UNL     1      -2.766  24.172  -1.541  1.00  0.00     0.074 A 
ATOM     63  C   UNL     1      -4.151  24.590  -1.626  1.00  0.00     0.031 C 
ATOM     64  C   UNL     1      -1.741  24.995  -1.210  1.00  0.00     0.031 A 
BRANCH  51  65
ATOM     65  C   UNL     1       3.778  22.224  -1.092  1.00  0.00    -0.014 A 
ATOM     66  C   UNL     1       4.719  22.218  -2.135  1.00  0.00     0.009 A 
ATOM     67  C   UNL     1       4.229  22.337   0.232  1.00  0.00     0.009 A 
ATOM     68  C   UNL     1       6.085  22.287  -1.855  1.00  0.00     0.001 A 
ATOM     69  C   UNL     1       5.595  22.430   0.507  1.00  0.00     0.001 A 
ATOM     70  C   UNL     1       6.521  22.395  -0.535  1.00  0.00     0.000 A 
ENDBRANCH  51  65
BRANCH  52  71
ATOM     71  C   UNL     1      -5.980  20.966  -2.746  1.00  0.00    -0.014 A 
ATOM     72  C   UNL     1      -6.582  21.510  -3.890  1.00  0.00     0.009 A 
ATOM     73  C   UNL     1      -6.770  20.248  -1.835  1.00  0.00     0.009 A 
ATOM     74  C   UNL     1      -7.953  21.359  -4.107  1.00  0.00     0.001 A 
ATOM     75  C   UNL     1      -8.137  20.080  -2.067  1.00  0.00     0.001 A 
ATOM     76  C   UNL     1      -8.728  20.642  -3.197  1.00  0.00     0.000 A 
ENDBRANCH  52  71
BRANCH  64  77
ATOM     77  C   UNL     1      -2.081  26.431  -0.943  1.00  0.00    -0.014 A 
ATOM     78  C   UNL     1      -2.699  26.819   0.255  1.00  0.00     0.009 A 
ATOM     79  C   UNL     1      -1.749  27.411  -1.891  1.00  0.00     0.009 A 
ATOM     80  C   UNL     1      -3.005  28.160   0.486  1.00  0.00     0.001 A 
ATOM     81  C   UNL     1      -2.037  28.754  -1.647  1.00  0.00     0.001 A 
ATOM     82  C   UNL     1      -2.671  29.127  -0.463  1.00  0.00     0.000 A 
ENDBRANCH  64  77
ENDBRANCH  38  39
ENDBRANCH  30  33
ENDBRANCH  28  29
ENDBRANCH  27  28
ENDBRANCH   1  27
TORSDOF 15
