REMARK SMILES O=C(CC1(CC(=O)NNC(=O)C2CC2)CCCCC1)NCCCCNC(=O)c1ccc(-c2c3nc(c(-c4ccccc4)c4ccc([nH]4)c(-c4ccccc4)c4nc(c(-c5ccccc5)c5ccc2[nH]5)C=C4)C=C3)cc1
REMARK SMILES IDX 21 1 20 2 1 3 2 4 3 6 4 7 15 8 19 9 16 10 18 11 17 12 5 13
REMARK SMILES IDX 6 14 7 15 8 16 9 18 10 19 11 21 12 22 13 23 14 24 22 25
REMARK SMILES IDX 23 26 24 27 25 28 26 29 27 31 28 32 29 33 75 34 30 35 74 36
REMARK SMILES IDX 31 37 32 38 33 39 68 40 34 41 73 42 67 43 69 44 35 45 72 46
REMARK SMILES IDX 66 47 65 48 36 50 58 51 43 52 57 53 44 54 47 55 56 56 70 57
REMARK SMILES IDX 45 58 46 59 55 61 71 62 48 63 37 64 38 65 42 66 39 67 41 68
REMARK SMILES IDX 40 69 59 70 60 71 64 72 61 73 63 74 62 75 49 76 50 77 54 78
REMARK SMILES IDX 51 79 53 80 52 81
REMARK H PARENT 20 5 8 17 9 20 25 30 69 49 47 60
REMARK Flexibility Score: inf
ROOT
ATOM      1  C   UNL     1       2.138  -2.211   1.291  1.00  0.00     0.116 C 
ENDROOT
BRANCH   1   2
ATOM      2  N   UNL     1       2.723  -1.210   0.407  1.00  0.00    -0.356 N 
ATOM      3  O   UNL     1       0.816   0.070   0.272  1.00  0.00    -0.275 OA
ATOM      4  C   UNL     1       2.013  -0.082   0.038  1.00  0.00     0.220 C 
ATOM      5  H   UNL     1       3.638  -1.339   0.067  1.00  0.00     0.163 HD
BRANCH   4   6
ATOM      6  C   UNL     1       2.823   1.026  -0.627  1.00  0.00     0.107 C 
BRANCH   6   7
ATOM      7  C   UNL     1       3.626   1.976   0.339  1.00  0.00    -0.012 C 
ATOM      8  C   UNL     1       3.193   3.449   0.023  1.00  0.00     0.008 C 
ATOM      9  C   UNL     1       3.302   1.713   1.836  1.00  0.00     0.008 C 
ATOM     10  C   UNL     1       3.742   4.500   0.994  1.00  0.00     0.001 C 
ATOM     11  C   UNL     1       3.799   2.783   2.811  1.00  0.00     0.001 C 
ATOM     12  C   UNL     1       3.351   4.183   2.430  1.00  0.00     0.000 C 
BRANCH   7  13
ATOM     13  C   UNL     1       5.149   1.857   0.033  1.00  0.00     0.109 C 
BRANCH  13  14
ATOM     14  C   UNL     1       5.772   0.468   0.147  1.00  0.00     0.238 C 
ATOM     15  O   UNL     1       5.570  -0.407  -0.698  1.00  0.00    -0.273 OA
ATOM     16  N   UNL     1       6.597   0.187   1.206  1.00  0.00    -0.268 N 
ATOM     17  H   UNL     1       7.195  -0.593   1.139  1.00  0.00     0.191 HD
BRANCH  16  18
ATOM     18  N   UNL     1       6.632   0.944   2.364  1.00  0.00    -0.267 N 
ATOM     19  C   UNL     1       6.362   0.457   3.624  1.00  0.00     0.241 C 
ATOM     20  H   UNL     1       6.866   1.897   2.281  1.00  0.00     0.191 HD
ATOM     21  O   UNL     1       6.034   1.198   4.534  1.00  0.00    -0.273 OA
BRANCH  19  22
ATOM     22  C   UNL     1       6.610  -0.968   3.918  1.00  0.00     0.080 C 
ATOM     23  C   UNL     1       5.449  -1.836   4.330  1.00  0.00     0.014 C 
ATOM     24  C   UNL     1       6.223  -2.140   3.075  1.00  0.00     0.014 C 
ENDBRANCH  19  22
ENDBRANCH  16  18
ENDBRANCH  13  14
ENDBRANCH   7  13
ENDBRANCH   6   7
ENDBRANCH   4   6
ENDBRANCH   1   2
BRANCH   1  25
ATOM     25  C   UNL     1       2.216  -3.656   0.785  1.00  0.00     0.023 C 
BRANCH  25  26
ATOM     26  C   UNL     1       3.602  -4.319   0.799  1.00  0.00     0.023 C 
BRANCH  26  27
ATOM     27  C   UNL     1       4.251  -4.537   2.175  1.00  0.00     0.116 C 
BRANCH  27  28
ATOM     28  N   UNL     1       3.731  -5.646   2.956  1.00  0.00    -0.352 N 
ATOM     29  C   UNL     1       4.390  -6.496   3.826  1.00  0.00     0.251 C 
ATOM     30  H   UNL     1       2.767  -5.819   2.850  1.00  0.00     0.163 HD
ATOM     31  O   UNL     1       3.760  -7.357   4.434  1.00  0.00    -0.269 OA
BRANCH  29  32
ATOM     32  C   UNL     1       5.860  -6.409   4.036  1.00  0.00     0.039 A 
ATOM     33  C   UNL     1       6.663  -7.537   3.874  1.00  0.00     0.014 A 
ATOM     34  C   UNL     1       6.456  -5.231   4.469  1.00  0.00     0.014 A 
ATOM     35  C   UNL     1       8.058  -7.445   4.043  1.00  0.00     0.010 A 
ATOM     36  C   UNL     1       7.853  -5.113   4.557  1.00  0.00     0.010 A 
ATOM     37  C   UNL     1       8.687  -6.215   4.323  1.00  0.00    -0.014 A 
BRANCH  37  38
ATOM     38  C   UNL     1      10.183  -6.070   4.286  1.00  0.00     0.031 A 
ATOM     39  C   UNL     1      10.980  -5.501   5.443  1.00  0.00     0.074 A 
ATOM     40  C   UNL     1      10.848  -6.374   3.148  1.00  0.00     0.049 A 
ATOM     41  N   UNL     1      12.279  -5.323   5.546  1.00  0.00    -0.248 NA
ATOM     42  C   UNL     1      10.229  -5.034   6.617  1.00  0.00     0.031 C 
ATOM     43  C   UNL     1      10.226  -6.822   1.899  1.00  0.00     0.029 A 
ATOM     44  N   UNL     1      12.192  -6.350   2.849  1.00  0.00    -0.354 N 
ATOM     45  C   UNL     1      12.492  -4.714   6.780  1.00  0.00     0.074 A 
ATOM     46  C   UNL     1      11.184  -4.490   7.358  1.00  0.00     0.031 C 
ATOM     47  C   UNL     1      11.181  -7.081   0.994  1.00  0.00     0.029 A 
ATOM     48  C   UNL     1      12.485  -6.780   1.575  1.00  0.00     0.049 A 
ATOM     49  H   UNL     1      12.880  -6.053   3.488  1.00  0.00     0.167 HD
ATOM     50  C   UNL     1      13.660  -4.393   7.396  1.00  0.00     0.031 A 
ATOM     51  C   UNL     1      13.661  -6.929   0.933  1.00  0.00     0.031 A 
ATOM     52  C   UNL     1      14.971  -4.626   6.839  1.00  0.00     0.049 A 
ATOM     53  C   UNL     1      14.945  -6.616   1.646  1.00  0.00     0.074 A 
ATOM     54  C   UNL     1      16.208  -4.426   7.431  1.00  0.00     0.029 A 
ATOM     55  N   UNL     1      15.216  -5.107   5.563  1.00  0.00    -0.354 N 
ATOM     56  N   UNL     1      15.123  -6.155   2.860  1.00  0.00    -0.248 NA
ATOM     57  C   UNL     1      16.192  -6.864   0.908  1.00  0.00     0.031 C 
ATOM     58  C   UNL     1      17.201  -4.730   6.493  1.00  0.00     0.029 A 
ATOM     59  C   UNL     1      16.583  -5.184   5.341  1.00  0.00     0.049 A 
ATOM     60  H   UNL     1      14.523  -5.356   4.910  1.00  0.00     0.167 HD
ATOM     61  C   UNL     1      16.498  -6.085   3.040  1.00  0.00     0.074 A 
ATOM     62  C   UNL     1      17.108  -6.569   1.820  1.00  0.00     0.031 C 
ATOM     63  C   UNL     1      17.191  -5.658   4.124  1.00  0.00     0.031 A 
BRANCH  50  64
ATOM     64  C   UNL     1      13.584  -3.765   8.768  1.00  0.00    -0.014 A 
ATOM     65  C   UNL     1      13.107  -4.488   9.874  1.00  0.00     0.009 A 
ATOM     66  C   UNL     1      14.055  -2.457   8.974  1.00  0.00     0.009 A 
ATOM     67  C   UNL     1      13.057  -3.902  11.141  1.00  0.00     0.001 A 
ATOM     68  C   UNL     1      14.037  -1.885  10.250  1.00  0.00     0.001 A 
ATOM     69  C   UNL     1      13.526  -2.603  11.329  1.00  0.00     0.000 A 
ENDBRANCH  50  64
BRANCH  51  70
ATOM     70  C   UNL     1      13.680  -7.448  -0.463  1.00  0.00    -0.014 A 
ATOM     71  C   UNL     1      14.151  -8.742  -0.736  1.00  0.00     0.009 A 
ATOM     72  C   UNL     1      13.214  -6.659  -1.527  1.00  0.00     0.009 A 
ATOM     73  C   UNL     1      14.175  -9.227  -2.046  1.00  0.00     0.001 A 
ATOM     74  C   UNL     1      13.209  -7.159  -2.832  1.00  0.00     0.001 A 
ATOM     75  C   UNL     1      13.697  -8.439  -3.091  1.00  0.00     0.000 A 
ENDBRANCH  51  70
BRANCH  63  76
ATOM     76  C   UNL     1      18.692  -5.723   4.055  1.00  0.00    -0.014 A 
ATOM     77  C   UNL     1      19.427  -4.858   3.229  1.00  0.00     0.009 A 
ATOM     78  C   UNL     1      19.384  -6.648   4.854  1.00  0.00     0.009 A 
ATOM     79  C   UNL     1      20.821  -4.943   3.178  1.00  0.00     0.001 A 
ATOM     80  C   UNL     1      20.779  -6.709   4.824  1.00  0.00     0.001 A 
ATOM     81  C   UNL     1      21.495  -5.864   3.978  1.00  0.00     0.000 A 
ENDBRANCH  63  76
ENDBRANCH  37  38
ENDBRANCH  29  32
ENDBRANCH  27  28
ENDBRANCH  26  27
ENDBRANCH  25  26
ENDBRANCH   1  25
TORSDOF 16
