REMARK SMILES CN1C(=O)C[C@@H](C(=O)NCCCCNC(=O)c2ccc(-c3c4nc(c(-c5ccccc5)c5ccc([nH]5)c(-c5ccccc5)c5nc(c(-c6ccccc6)c6ccc3[nH]6)C=C5)C=C4)cc2)C12CCN(S(=O)(=O)c1ccccc1F)CC2
REMARK SMILES IDX 11 1 10 2 9 3 7 4 8 5 6 7 1 8 2 9 3 10 65 11 4 12 5 13 66 14
REMARK SMILES IDX 80 15 67 16 79 17 68 18 69 19 70 20 71 21 72 22 73 23 77 24
REMARK SMILES IDX 74 25 76 26 78 27 75 28 12 29 13 30 14 31 15 32 16 34 17 35
REMARK SMILES IDX 18 36 64 37 19 38 63 39 20 40 21 41 22 42 57 43 23 44 62 45
REMARK SMILES IDX 56 46 58 47 24 48 61 49 55 50 54 51 25 53 47 54 32 55 46 56
REMARK SMILES IDX 33 57 36 58 45 59 59 60 34 61 35 62 44 64 60 65 37 66 26 67
REMARK SMILES IDX 27 68 31 69 28 70 30 71 29 72 48 73 49 74 53 75 50 76 52 77
REMARK SMILES IDX 51 78 38 79 39 80 43 81 40 82 42 83 41 84
REMARK H PARENT 9 6 14 33 58 52 36 63
REMARK Flexibility Score: inf
ROOT
ATOM      1  C   UNL     1      -0.155  -0.290  -3.373  1.00  0.00     0.023 C 
ENDROOT
BRANCH   1   2
ATOM      2  C   UNL     1      -1.403  -0.732  -2.601  1.00  0.00     0.116 C 
BRANCH   2   3
ATOM      3  N   UNL     1      -1.767  -2.128  -2.796  1.00  0.00    -0.356 N 
ATOM      4  C   UNL     1      -1.663  -3.247  -2.033  1.00  0.00     0.226 C 
ATOM      5  O   UNL     1      -2.105  -4.286  -2.540  1.00  0.00    -0.275 OA
ATOM      6  H   UNL     1      -2.178  -2.299  -3.674  1.00  0.00     0.163 HD
BRANCH   4   7
ATOM      7  C   UNL     1      -1.010  -3.337  -0.646  1.00  0.00     0.113 C 
ATOM      8  C   UNL     1       1.548  -0.685  -0.036  1.00  0.00     0.147 C 
ATOM      9  N   UNL     1       0.428  -1.612  -0.028  1.00  0.00    -0.339 N 
ATOM     10  C   UNL     1      -0.771  -1.319   0.608  1.00  0.00     0.223 C 
ATOM     11  C   UNL     1       0.495  -2.993  -0.535  1.00  0.00     0.057 C 
ATOM     12  O   UNL     1      -1.051  -0.295   1.208  1.00  0.00    -0.275 OA
ATOM     13  C   UNL     1      -1.718  -2.466   0.391  1.00  0.00     0.116 C 
ATOM     14  C   UNL     1       1.231  -3.157  -1.877  1.00  0.00     0.046 C 
ATOM     15  C   UNL     1       1.212  -3.845   0.564  1.00  0.00     0.046 C 
ATOM     16  C   UNL     1       1.544  -4.605  -2.202  1.00  0.00     0.105 C 
ATOM     17  C   UNL     1       1.695  -5.230   0.126  1.00  0.00     0.105 C 
ATOM     18  N   UNL     1       2.420  -5.185  -1.174  1.00  0.00    -0.198 NA
BRANCH  18  19
ATOM     19  S   UNL     1       4.059  -4.682  -1.095  1.00  0.00     0.245 S 
ATOM     20  O   UNL     1       4.109  -3.265  -0.810  1.00  0.00    -0.207 OA
ATOM     21  O   UNL     1       4.725  -5.610  -0.200  1.00  0.00    -0.207 OA
BRANCH  19  22
ATOM     22  C   UNL     1       4.727  -4.941  -2.714  1.00  0.00     0.118 A 
ATOM     23  C   UNL     1       5.620  -5.993  -2.942  1.00  0.00     0.025 A 
ATOM     24  C   UNL     1       4.455  -4.041  -3.742  1.00  0.00     0.143 A 
ATOM     25  C   UNL     1       6.197  -6.156  -4.206  1.00  0.00     0.002 A 
ATOM     26  C   UNL     1       5.004  -4.220  -5.010  1.00  0.00     0.041 A 
ATOM     27  F   UNL     1       3.636  -2.997  -3.567  1.00  0.00    -0.206 F 
ATOM     28  C   UNL     1       5.879  -5.278  -5.243  1.00  0.00     0.003 A 
ENDBRANCH  19  22
ENDBRANCH  18  19
ENDBRANCH   4   7
ENDBRANCH   2   3
ENDBRANCH   1   2
BRANCH   1  29
ATOM     29  C   UNL     1      -0.319  -0.239  -4.890  1.00  0.00     0.023 C 
BRANCH  29  30
ATOM     30  C   UNL     1      -1.361   0.762  -5.363  1.00  0.00     0.116 C 
BRANCH  30  31
ATOM     31  N   UNL     1      -1.137   2.106  -4.844  1.00  0.00    -0.352 N 
ATOM     32  C   UNL     1      -1.294   3.309  -5.483  1.00  0.00     0.251 C 
ATOM     33  H   UNL     1      -0.831   2.156  -3.910  1.00  0.00     0.163 HD
ATOM     34  O   UNL     1      -0.946   4.356  -4.950  1.00  0.00    -0.269 OA
BRANCH  32  35
ATOM     35  C   UNL     1      -1.861   3.315  -6.841  1.00  0.00     0.039 A 
ATOM     36  C   UNL     1      -1.187   4.001  -7.853  1.00  0.00     0.014 A 
ATOM     37  C   UNL     1      -3.019   2.584  -7.117  1.00  0.00     0.014 A 
ATOM     38  C   UNL     1      -1.640   3.895  -9.166  1.00  0.00     0.010 A 
ATOM     39  C   UNL     1      -3.418   2.412  -8.433  1.00  0.00     0.010 A 
ATOM     40  C   UNL     1      -2.735   3.069  -9.467  1.00  0.00    -0.014 A 
BRANCH  40  41
ATOM     41  C   UNL     1      -3.203   2.884 -10.858  1.00  0.00     0.031 A 
ATOM     42  C   UNL     1      -4.578   3.349 -11.244  1.00  0.00     0.074 A 
ATOM     43  C   UNL     1      -2.429   2.225 -11.741  1.00  0.00     0.049 A 
ATOM     44  N   UNL     1      -5.215   3.189 -12.375  1.00  0.00    -0.248 NA
ATOM     45  C   UNL     1      -5.353   4.054 -10.210  1.00  0.00     0.031 C 
ATOM     46  C   UNL     1      -1.095   1.684 -11.467  1.00  0.00     0.029 A 
ATOM     47  N   UNL     1      -2.662   1.890 -13.049  1.00  0.00    -0.354 N 
ATOM     48  C   UNL     1      -6.472   3.744 -12.176  1.00  0.00     0.074 A 
ATOM     49  C   UNL     1      -6.526   4.202 -10.806  1.00  0.00     0.031 C 
ATOM     50  C   UNL     1      -0.617   1.111 -12.583  1.00  0.00     0.029 A 
ATOM     51  C   UNL     1      -1.622   1.212 -13.636  1.00  0.00     0.049 A 
ATOM     52  H   UNL     1      -3.495   2.114 -13.524  1.00  0.00     0.167 HD
ATOM     53  C   UNL     1      -7.485   3.881 -13.063  1.00  0.00     0.031 A 
ATOM     54  C   UNL     1      -1.497   0.725 -14.884  1.00  0.00     0.031 A 
ATOM     55  C   UNL     1      -7.417   3.455 -14.433  1.00  0.00     0.049 A 
ATOM     56  C   UNL     1      -2.626   0.911 -15.857  1.00  0.00     0.074 A 
ATOM     57  C   UNL     1      -8.362   3.606 -15.432  1.00  0.00     0.029 A 
ATOM     58  N   UNL     1      -6.333   2.800 -14.998  1.00  0.00    -0.354 N 
ATOM     59  N   UNL     1      -3.788   1.490 -15.672  1.00  0.00    -0.248 NA
ATOM     60  C   UNL     1      -2.422   0.384 -17.214  1.00  0.00     0.031 C 
ATOM     61  C   UNL     1      -7.861   3.013 -16.596  1.00  0.00     0.029 A 
ATOM     62  C   UNL     1      -6.590   2.529 -16.329  1.00  0.00     0.049 A 
ATOM     63  H   UNL     1      -5.505   2.564 -14.521  1.00  0.00     0.167 HD
ATOM     64  C   UNL     1      -4.443   1.419 -16.894  1.00  0.00     0.074 A 
ATOM     65  C   UNL     1      -3.545   0.752 -17.814  1.00  0.00     0.031 C 
ATOM     66  C   UNL     1      -5.678   1.867 -17.225  1.00  0.00     0.031 A 
BRANCH  53  67
ATOM     67  C   UNL     1      -8.750   4.520 -12.565  1.00  0.00    -0.014 A 
ATOM     68  C   UNL     1      -8.801   5.892 -12.268  1.00  0.00     0.009 A 
ATOM     69  C   UNL     1      -9.906   3.744 -12.398  1.00  0.00     0.009 A 
ATOM     70  C   UNL     1      -9.974   6.465 -11.775  1.00  0.00     0.001 A 
ATOM     71  C   UNL     1     -11.086   4.326 -11.931  1.00  0.00     0.001 A 
ATOM     72  C   UNL     1     -11.116   5.682 -11.610  1.00  0.00     0.000 A 
ENDBRANCH  53  67
BRANCH  54  73
ATOM     73  C   UNL     1      -0.243   0.044 -15.294  1.00  0.00    -0.014 A 
ATOM     74  C   UNL     1       0.662   0.689 -16.151  1.00  0.00     0.009 A 
ATOM     75  C   UNL     1       0.057  -1.246 -14.834  1.00  0.00     0.009 A 
ATOM     76  C   UNL     1       1.833   0.045 -16.557  1.00  0.00     0.001 A 
ATOM     77  C   UNL     1       1.240  -1.879 -15.224  1.00  0.00     0.001 A 
ATOM     78  C   UNL     1       2.123  -1.236 -16.091  1.00  0.00     0.000 A 
ENDBRANCH  54  73
BRANCH  66  79
ATOM     79  C   UNL     1      -6.113   1.679 -18.648  1.00  0.00    -0.014 A 
ATOM     80  C   UNL     1      -6.513   0.421 -19.123  1.00  0.00     0.009 A 
ATOM     81  C   UNL     1      -6.167   2.786 -19.509  1.00  0.00     0.009 A 
ATOM     82  C   UNL     1      -6.934   0.271 -20.445  1.00  0.00     0.001 A 
ATOM     83  C   UNL     1      -6.610   2.636 -20.823  1.00  0.00     0.001 A 
ATOM     84  C   UNL     1      -6.986   1.378 -21.292  1.00  0.00     0.000 A 
ENDBRANCH  66  79
ENDBRANCH  40  41
ENDBRANCH  32  35
ENDBRANCH  30  31
ENDBRANCH  29  30
ENDBRANCH   1  29
TORSDOF 13
