REMARK SMILES CSc1ccc(/C=C2\C(C)=C(CC(=O)NCCCCNC(=O)c3ccc(-c4c5nc(c(-c6ccccc6)c6ccc([nH]6)c(-c6ccccc6)c6nc(c(-c7ccccc7)c7ccc4[nH]7)C=C6)C=C5)cc3)c3cc(F)ccc32)cc1
REMARK SMILES IDX 17 1 16 2 15 3 13 4 14 5 12 7 11 8 7 9 8 10 9 11 77 12 10 13
REMARK SMILES IDX 71 14 76 15 72 16 75 17 73 18 74 19 6 20 3 21 4 22 79 23
REMARK SMILES IDX 5 24 78 25 2 26 1 27 18 28 19 29 20 30 21 31 22 33 23 34
REMARK SMILES IDX 24 35 70 36 25 37 69 38 26 39 27 40 28 41 63 42 29 43 68 44
REMARK SMILES IDX 62 45 64 46 30 47 67 48 61 49 60 50 31 52 53 53 38 54 52 55
REMARK SMILES IDX 39 56 42 57 51 58 65 59 40 60 41 61 50 63 66 64 43 65 32 66
REMARK SMILES IDX 33 67 37 68 34 69 36 70 35 71 54 72 55 73 59 74 56 75 58 76
REMARK SMILES IDX 57 77 44 78 45 79 49 80 46 81 48 82 47 83
REMARK H PARENT 15 6 20 32 64 51 42 62
REMARK Flexibility Score: inf
ROOT
ATOM      1  C   UNL     1       4.858  -7.513  -3.930  1.00  0.00     0.023 C 
ENDROOT
BRANCH   1   2
ATOM      2  C   UNL     1       4.941  -7.271  -5.434  1.00  0.00     0.116 C 
BRANCH   2   3
ATOM      3  N   UNL     1       4.575  -8.455  -6.183  1.00  0.00    -0.356 N 
ATOM      4  C   UNL     1       3.324  -8.843  -6.572  1.00  0.00     0.224 C 
ATOM      5  O   UNL     1       3.184  -9.947  -7.101  1.00  0.00    -0.275 OA
ATOM      6  H   UNL     1       5.315  -9.050  -6.443  1.00  0.00     0.163 HD
BRANCH   4   7
ATOM      7  C   UNL     1       2.149  -7.905  -6.357  1.00  0.00     0.136 C 
BRANCH   7   8
ATOM      8  C   UNL     1       1.624  -8.000  -4.936  1.00  0.00    -0.027 C 
ATOM      9  C   UNL     1       0.108  -4.905  -4.472  1.00  0.00     0.017 C 
ATOM     10  C   UNL     1       0.347  -6.226  -4.418  1.00  0.00    -0.014 C 
ATOM     11  C   UNL     1       1.609  -6.921  -4.099  1.00  0.00    -0.039 C 
ATOM     12  C   UNL     1      -0.611  -7.326  -4.644  1.00  0.00    -0.010 A 
ATOM     13  C   UNL     1       1.676  -7.192  -2.581  1.00  0.00     0.045 C 
ATOM     14  C   UNL     1       0.212  -8.448  -4.875  1.00  0.00    -0.011 A 
ATOM     15  C   UNL     1      -1.911  -7.481  -4.195  1.00  0.00     0.012 A 
ATOM     16  C   UNL     1      -0.226  -9.742  -4.663  1.00  0.00     0.048 A 
ATOM     17  C   UNL     1      -2.359  -8.788  -3.956  1.00  0.00     0.040 A 
ATOM     18  C   UNL     1      -1.520  -9.893  -4.182  1.00  0.00     0.123 A 
ATOM     19  F   UNL     1      -1.940 -11.113  -3.824  1.00  0.00    -0.207 F 
BRANCH   9  20
ATOM     20  C   UNL     1       0.911  -3.775  -3.921  1.00  0.00    -0.025 A 
ATOM     21  C   UNL     1       1.293  -1.942  -1.845  1.00  0.00     0.007 A 
ATOM     22  C   UNL     1       2.075  -3.090  -1.912  1.00  0.00     0.015 A 
ATOM     23  C   UNL     1       0.534  -1.579  -2.959  1.00  0.00     0.015 A 
ATOM     24  C   UNL     1       1.925  -3.971  -2.981  1.00  0.00     0.009 A 
ATOM     25  C   UNL     1       0.350  -2.494  -4.004  1.00  0.00     0.009 A 
BRANCH  21  26
ATOM     26  S   UNL     1       1.021  -1.224  -0.234  1.00  0.00    -0.130 SA
ATOM     27  C   UNL     1       1.579   0.466  -0.486  1.00  0.00     0.091 C 
ENDBRANCH  21  26
ENDBRANCH   9  20
ENDBRANCH   7   8
ENDBRANCH   4   7
ENDBRANCH   2   3
ENDBRANCH   1   2
BRANCH   1  28
ATOM     28  C   UNL     1       5.899  -8.445  -3.333  1.00  0.00     0.023 C 
BRANCH  28  29
ATOM     29  C   UNL     1       7.324  -8.115  -3.712  1.00  0.00     0.116 C 
BRANCH  29  30
ATOM     30  N   UNL     1       7.680  -6.723  -3.480  1.00  0.00    -0.352 N 
ATOM     31  C   UNL     1       8.923  -6.215  -3.181  1.00  0.00     0.251 C 
ATOM     32  H   UNL     1       6.946  -6.070  -3.543  1.00  0.00     0.163 HD
ATOM     33  O   UNL     1       9.085  -5.031  -2.947  1.00  0.00    -0.269 OA
BRANCH  31  34
ATOM     34  C   UNL     1      10.046  -7.168  -3.095  1.00  0.00     0.039 A 
ATOM     35  C   UNL     1      10.779  -7.226  -1.910  1.00  0.00     0.014 A 
ATOM     36  C   UNL     1      10.278  -8.073  -4.133  1.00  0.00     0.014 A 
ATOM     37  C   UNL     1      11.710  -8.248  -1.738  1.00  0.00     0.010 A 
ATOM     38  C   UNL     1      11.140  -9.139  -3.925  1.00  0.00     0.010 A 
ATOM     39  C   UNL     1      11.867  -9.232  -2.728  1.00  0.00    -0.014 A 
BRANCH  39  40
ATOM     40  C   UNL     1      12.806 -10.361  -2.543  1.00  0.00     0.031 A 
ATOM     41  C   UNL     1      13.991 -10.496  -3.456  1.00  0.00     0.074 A 
ATOM     42  C   UNL     1      12.552 -11.295  -1.606  1.00  0.00     0.049 A 
ATOM     43  N   UNL     1      14.892 -11.442  -3.501  1.00  0.00    -0.248 NA
ATOM     44  C   UNL     1      14.169  -9.445  -4.473  1.00  0.00     0.031 C 
ATOM     45  C   UNL     1      11.402 -11.302  -0.698  1.00  0.00     0.029 A 
ATOM     46  N   UNL     1      13.247 -12.428  -1.269  1.00  0.00    -0.354 N 
ATOM     47  C   UNL     1      15.725 -11.114  -4.563  1.00  0.00     0.074 A 
ATOM     48  C   UNL     1      15.197  -9.911  -5.166  1.00  0.00     0.031 C 
ATOM     49  C   UNL     1      11.485 -12.372   0.109  1.00  0.00     0.029 A 
ATOM     50  C   UNL     1      12.673 -13.142  -0.245  1.00  0.00     0.049 A 
ATOM     51  H   UNL     1      14.079 -12.704  -1.718  1.00  0.00     0.167 HD
ATOM     52  C   UNL     1      16.843 -11.746  -4.985  1.00  0.00     0.031 A 
ATOM     53  C   UNL     1      13.063 -14.289   0.340  1.00  0.00     0.031 A 
ATOM     54  C   UNL     1      17.385 -12.923  -4.363  1.00  0.00     0.049 A 
ATOM     55  C   UNL     1      14.324 -14.957  -0.132  1.00  0.00     0.074 A 
ATOM     56  C   UNL     1      18.553 -13.597  -4.667  1.00  0.00     0.029 A 
ATOM     57  N   UNL     1      16.793 -13.595  -3.306  1.00  0.00    -0.354 N 
ATOM     58  N   UNL     1      15.145 -14.591  -1.087  1.00  0.00    -0.248 NA
ATOM     59  C   UNL     1      14.719 -16.190   0.563  1.00  0.00     0.031 C 
ATOM     60  C   UNL     1      18.650 -14.703  -3.817  1.00  0.00     0.029 A 
ATOM     61  C   UNL     1      17.564 -14.689  -2.956  1.00  0.00     0.049 A 
ATOM     62  H   UNL     1      15.950 -13.334  -2.870  1.00  0.00     0.167 HD
ATOM     63  C   UNL     1      16.166 -15.532  -1.089  1.00  0.00     0.074 A 
ATOM     64  C   UNL     1      15.869 -16.476  -0.031  1.00  0.00     0.031 C 
ATOM     65  C   UNL     1      17.252 -15.610  -1.895  1.00  0.00     0.031 A 
BRANCH  52  66
ATOM     66  C   UNL     1      17.557 -11.171  -6.173  1.00  0.00    -0.014 A 
ATOM     67  C   UNL     1      18.272  -9.966  -6.077  1.00  0.00     0.009 A 
ATOM     68  C   UNL     1      17.543 -11.858  -7.396  1.00  0.00     0.009 A 
ATOM     69  C   UNL     1      18.934  -9.446  -7.191  1.00  0.00     0.001 A 
ATOM     70  C   UNL     1      18.227 -11.349  -8.501  1.00  0.00     0.001 A 
ATOM     71  C   UNL     1      18.915 -10.141  -8.400  1.00  0.00     0.000 A 
ENDBRANCH  52  66
BRANCH  53  72
ATOM     72  C   UNL     1      12.267 -14.873   1.450  1.00  0.00    -0.014 A 
ATOM     73  C   UNL     1      12.754 -14.846   2.765  1.00  0.00     0.009 A 
ATOM     74  C   UNL     1      11.024 -15.475   1.198  1.00  0.00     0.009 A 
ATOM     75  C   UNL     1      12.027 -15.437   3.801  1.00  0.00     0.001 A 
ATOM     76  C   UNL     1      10.288 -16.042   2.240  1.00  0.00     0.001 A 
ATOM     77  C   UNL     1      10.794 -16.032   3.539  1.00  0.00     0.000 A 
ENDBRANCH  53  72
BRANCH  65  78
ATOM     78  C   UNL     1      18.215 -16.731  -1.639  1.00  0.00    -0.014 A 
ATOM     79  C   UNL     1      17.906 -18.050  -2.003  1.00  0.00     0.009 A 
ATOM     80  C   UNL     1      19.467 -16.454  -1.069  1.00  0.00     0.009 A 
ATOM     81  C   UNL     1      18.823 -19.076  -1.772  1.00  0.00     0.001 A 
ATOM     82  C   UNL     1      20.392 -17.477  -0.863  1.00  0.00     0.001 A 
ATOM     83  C   UNL     1      20.066 -18.789  -1.207  1.00  0.00     0.000 A 
ENDBRANCH  65  78
ENDBRANCH  39  40
ENDBRANCH  31  34
ENDBRANCH  29  30
ENDBRANCH  28  29
ENDBRANCH   1  28
TORSDOF 14
