REMARK SMILES O=C(C[C@@H](C(=O)N(c1ccccc1)c1ccccc1)[NH+]1CCOCC1)NCCCCNC(=O)c1ccc(-c2c3nc(c(-c4ccccc4)c4ccc([nH]4)c(-c4ccccc4)c4nc(c(-c5ccccc5)c5ccc2[nH]5)C=C4)C=C3)cc1
REMARK SMILES IDX 28 1 27 2 26 3 1 4 2 5 3 7 4 8 5 9 6 10 7 11 8 12 9 13 13 14
REMARK SMILES IDX 10 15 12 16 11 17 14 18 15 19 19 20 16 21 18 22 17 23 20 24
REMARK SMILES IDX 21 25 25 26 22 28 24 29 23 30 29 31 30 32 31 33 32 34 33 36
REMARK SMILES IDX 34 37 35 38 81 39 36 40 80 41 37 42 38 43 39 44 74 45 40 46
REMARK SMILES IDX 79 47 73 48 75 49 41 50 78 51 72 52 71 53 42 55 64 56 49 57
REMARK SMILES IDX 63 58 50 59 53 60 62 61 76 62 51 63 52 64 61 66 77 67 54 68
REMARK SMILES IDX 43 69 44 70 48 71 45 72 47 73 46 74 65 75 66 76 70 77 67 78
REMARK SMILES IDX 69 79 68 80 55 81 56 82 60 83 57 84 59 85 58 86
REMARK H PARENT 26 6 20 27 31 35 75 54 53 65
REMARK Flexibility Score: inf
ROOT
ATOM      1  C   UNL     1       2.497   1.337  -3.789  1.00  0.00     0.023 C 
ENDROOT
BRANCH   1   2
ATOM      2  C   UNL     1       2.170   0.570  -2.503  1.00  0.00     0.116 C 
BRANCH   2   3
ATOM      3  N   UNL     1       2.883   0.996  -1.301  1.00  0.00    -0.356 N 
ATOM      4  O   UNL     1       1.061   0.850   0.101  1.00  0.00    -0.275 OA
ATOM      5  C   UNL     1       2.273   0.976  -0.054  1.00  0.00     0.226 C 
ATOM      6  H   UNL     1       3.815   1.305  -1.377  1.00  0.00     0.163 HD
BRANCH   5   7
ATOM      7  C   UNL     1       3.207   1.042   1.155  1.00  0.00     0.175 C 
BRANCH   7   8
ATOM      8  C   UNL     1       3.858  -0.325   1.503  1.00  0.00     0.284 C 
BRANCH   8   9
ATOM      9  C   UNL     1       4.597  -0.758   0.243  1.00  0.00     0.290 C 
ATOM     10  O   UNL     1       5.478   0.029  -0.153  1.00  0.00    -0.267 OA
ATOM     11  N   UNL     1       4.330  -1.969  -0.428  1.00  0.00    -0.276 N 
BRANCH  11  12
ATOM     12  C   UNL     1       3.016  -2.513  -0.783  1.00  0.00     0.049 A 
ATOM     13  C   UNL     1       2.862  -3.315  -1.939  1.00  0.00     0.027 A 
ATOM     14  C   UNL     1       1.813  -2.169  -0.148  1.00  0.00     0.027 A 
ATOM     15  C   UNL     1       1.602  -3.623  -2.486  1.00  0.00     0.002 A 
ATOM     16  C   UNL     1       0.550  -2.472  -0.688  1.00  0.00     0.002 A 
ATOM     17  C   UNL     1       0.443  -3.174  -1.874  1.00  0.00     0.000 A 
ENDBRANCH  11  12
BRANCH  11  18
ATOM     18  C   UNL     1       5.429  -2.425  -1.234  1.00  0.00     0.049 A 
ATOM     19  C   UNL     1       5.950  -1.590  -2.231  1.00  0.00     0.027 A 
ATOM     20  C   UNL     1       6.115  -3.594  -0.897  1.00  0.00     0.027 A 
ATOM     21  C   UNL     1       7.157  -1.878  -2.851  1.00  0.00     0.002 A 
ATOM     22  C   UNL     1       7.323  -3.894  -1.537  1.00  0.00     0.002 A 
ATOM     23  C   UNL     1       7.847  -3.032  -2.503  1.00  0.00     0.000 A 
ENDBRANCH  11  18
ENDBRANCH   8   9
BRANCH   8  24
ATOM     24  N   UNL     1       4.743  -0.323   2.714  1.00  0.00    -0.320 N 
ATOM     25  C   UNL     1       5.489   0.890   3.073  1.00  0.00     0.291 C 
ATOM     26  C   UNL     1       5.607  -1.513   2.881  1.00  0.00     0.291 C 
ATOM     27  H   UNL     1       3.984  -0.356   3.395  1.00  0.00     0.348 HD
ATOM     28  C   UNL     1       6.906   0.984   2.489  1.00  0.00     0.221 C 
ATOM     29  C   UNL     1       7.046  -1.360   2.339  1.00  0.00     0.221 C 
ATOM     30  O   UNL     1       7.676  -0.173   2.836  1.00  0.00    -0.370 OA
ENDBRANCH   8  24
ENDBRANCH   7   8
ENDBRANCH   5   7
ENDBRANCH   2   3
ENDBRANCH   1   2
BRANCH   1  31
ATOM     31  C   UNL     1       3.898   1.135  -4.384  1.00  0.00     0.023 C 
BRANCH  31  32
ATOM     32  C   UNL     1       4.255  -0.273  -4.882  1.00  0.00     0.116 C 
BRANCH  32  33
ATOM     33  N   UNL     1       3.747  -0.611  -6.200  1.00  0.00    -0.352 N 
ATOM     34  C   UNL     1       4.409  -1.138  -7.288  1.00  0.00     0.251 C 
ATOM     35  H   UNL     1       2.788  -0.436  -6.338  1.00  0.00     0.163 HD
ATOM     36  O   UNL     1       3.784  -1.368  -8.327  1.00  0.00    -0.269 OA
BRANCH  34  37
ATOM     37  C   UNL     1       5.872  -1.390  -7.267  1.00  0.00     0.039 A 
ATOM     38  C   UNL     1       6.657  -0.846  -8.289  1.00  0.00     0.014 A 
ATOM     39  C   UNL     1       6.485  -2.175  -6.290  1.00  0.00     0.014 A 
ATOM     40  C   UNL     1       8.051  -1.002  -8.275  1.00  0.00     0.010 A 
ATOM     41  C   UNL     1       7.886  -2.290  -6.255  1.00  0.00     0.010 A 
ATOM     42  C   UNL     1       8.695  -1.677  -7.223  1.00  0.00    -0.014 A 
BRANCH  42  43
ATOM     43  C   UNL     1      10.190  -1.665  -7.103  1.00  0.00     0.031 A 
ATOM     44  C   UNL     1      11.012  -2.932  -7.076  1.00  0.00     0.074 A 
ATOM     45  C   UNL     1      10.839  -0.487  -6.958  1.00  0.00     0.049 A 
ATOM     46  N   UNL     1      12.315  -3.067  -6.986  1.00  0.00    -0.248 NA
ATOM     47  C   UNL     1      10.285  -4.207  -7.129  1.00  0.00     0.031 C 
ATOM     48  C   UNL     1      10.202   0.829  -6.883  1.00  0.00     0.029 A 
ATOM     49  N   UNL     1      12.183  -0.206  -6.855  1.00  0.00    -0.354 N 
ATOM     50  C   UNL     1      12.560  -4.435  -6.942  1.00  0.00     0.074 A 
ATOM     51  C   UNL     1      11.267  -5.087  -6.981  1.00  0.00     0.031 C 
ATOM     52  C   UNL     1      11.151   1.776  -6.809  1.00  0.00     0.029 A 
ATOM     53  C   UNL     1      12.464   1.139  -6.788  1.00  0.00     0.049 A 
ATOM     54  H   UNL     1      12.878  -0.903  -6.833  1.00  0.00     0.167 HD
ATOM     55  C   UNL     1      13.744  -5.095  -6.891  1.00  0.00     0.031 A 
ATOM     56  C   UNL     1      13.636   1.801  -6.727  1.00  0.00     0.031 A 
ATOM     57  C   UNL     1      15.045  -4.474  -6.897  1.00  0.00     0.049 A 
ATOM     58  C   UNL     1      14.936   1.049  -6.720  1.00  0.00     0.074 A 
ATOM     59  C   UNL     1      16.288  -5.087  -6.952  1.00  0.00     0.029 A 
ATOM     60  N   UNL     1      15.278  -3.112  -6.846  1.00  0.00    -0.354 N 
ATOM     61  N   UNL     1      15.143  -0.242  -6.769  1.00  0.00    -0.248 NA
ATOM     62  C   UNL     1      16.168   1.854  -6.658  1.00  0.00     0.031 C 
ATOM     63  C   UNL     1      17.274  -4.097  -6.889  1.00  0.00     0.029 A 
ATOM     64  C   UNL     1      16.644  -2.865  -6.846  1.00  0.00     0.049 A 
ATOM     65  H   UNL     1      14.579  -2.419  -6.815  1.00  0.00     0.167 HD
ATOM     66  C   UNL     1      16.523  -0.404  -6.770  1.00  0.00     0.074 A 
ATOM     67  C   UNL     1      17.106   0.919  -6.730  1.00  0.00     0.031 C 
ATOM     68  C   UNL     1      17.236  -1.555  -6.803  1.00  0.00     0.031 A 
BRANCH  55  69
ATOM     69  C   UNL     1      13.703  -6.598  -6.830  1.00  0.00    -0.014 A 
ATOM     70  C   UNL     1      13.346  -7.362  -7.952  1.00  0.00     0.009 A 
ATOM     71  C   UNL     1      14.105  -7.259  -5.657  1.00  0.00     0.009 A 
ATOM     72  C   UNL     1      13.362  -8.758  -7.890  1.00  0.00     0.001 A 
ATOM     73  C   UNL     1      14.146  -8.653  -5.608  1.00  0.00     0.001 A 
ATOM     74  C   UNL     1      13.767  -9.401  -6.721  1.00  0.00     0.000 A 
ENDBRANCH  55  69
BRANCH  56  75
ATOM     75  C   UNL     1      13.642   3.287  -6.709  1.00  0.00    -0.014 A 
ATOM     76  C   UNL     1      14.029   4.004  -7.852  1.00  0.00     0.009 A 
ATOM     77  C   UNL     1      13.270   3.992  -5.555  1.00  0.00     0.009 A 
ATOM     78  C   UNL     1      14.062   5.399  -7.833  1.00  0.00     0.001 A 
ATOM     79  C   UNL     1      13.280   5.388  -5.548  1.00  0.00     0.001 A 
ATOM     80  C   UNL     1      13.684   6.090  -6.684  1.00  0.00     0.000 A 
ENDBRANCH  56  75
BRANCH  68  81
ATOM     81  C   UNL     1      18.735  -1.446  -6.831  1.00  0.00    -0.014 A 
ATOM     82  C   UNL     1      19.462  -1.068  -5.691  1.00  0.00     0.009 A 
ATOM     83  C   UNL     1      19.435  -1.765  -8.006  1.00  0.00     0.009 A 
ATOM     84  C   UNL     1      20.856  -0.985  -5.736  1.00  0.00     0.001 A 
ATOM     85  C   UNL     1      20.829  -1.705  -8.041  1.00  0.00     0.001 A 
ATOM     86  C   UNL     1      21.538  -1.308  -6.909  1.00  0.00     0.000 A 
ENDBRANCH  68  81
ENDBRANCH  42  43
ENDBRANCH  34  37
ENDBRANCH  32  33
ENDBRANCH  31  32
ENDBRANCH   1  31
TORSDOF 16
