REMARK SMILES CC1CCN(S(=O)(=O)N2CCC[C@H](c3cccc(C(=O)NCCCCNC(=O)c4ccc(-c5c6nc(c(-c7ccccc7)c7ccc([nH]7)c(-c7ccccc7)c7nc(c(-c8ccccc8)c8ccc5[nH]8)C=C7)C=C6)cc4)c3)C2)CC1
REMARK SMILES IDX 23 1 22 2 21 3 19 4 20 5 18 7 14 8 15 9 77 10 16 11 17 12
REMARK SMILES IDX 13 13 9 14 10 15 78 16 11 17 12 18 6 19 7 20 8 21 5 22 1 23
REMARK SMILES IDX 2 24 3 25 80 26 4 27 79 28 24 29 25 30 26 31 27 32 28 34
REMARK SMILES IDX 29 35 30 36 76 37 31 38 75 39 32 40 33 41 34 42 69 43 35 44
REMARK SMILES IDX 74 45 68 46 70 47 36 48 73 49 67 50 66 51 37 53 59 54 44 55
REMARK SMILES IDX 58 56 45 57 48 58 57 59 71 60 46 61 47 62 56 64 72 65 49 66
REMARK SMILES IDX 38 67 39 68 43 69 40 70 42 71 41 72 60 73 61 74 65 75 62 76
REMARK SMILES IDX 64 77 63 78 50 79 51 80 55 81 52 82 54 83 53 84
REMARK H PARENT 21 6 26 33 70 52 48 63
REMARK Flexibility Score: inf
ROOT
ATOM      1  C   UNL     1       2.885  -8.779  -4.215  1.00  0.00     0.023 C 
ENDROOT
BRANCH   1   2
ATOM      2  C   UNL     1       3.490  -7.502  -4.777  1.00  0.00     0.116 C 
BRANCH   2   3
ATOM      3  N   UNL     1       3.439  -7.367  -6.228  1.00  0.00    -0.352 N 
ATOM      4  C   UNL     1       3.119  -6.287  -7.035  1.00  0.00     0.251 C 
ATOM      5  O   UNL     1       3.140  -6.435  -8.255  1.00  0.00    -0.269 OA
ATOM      6  H   UNL     1       3.672  -8.187  -6.721  1.00  0.00     0.163 HD
BRANCH   4   7
ATOM      7  C   UNL     1       2.681  -4.983  -6.463  1.00  0.00     0.040 A 
ATOM      8  C   UNL     1       2.423  -3.618  -4.470  1.00  0.00    -0.043 A 
ATOM      9  C   UNL     1       1.459  -2.856  -5.142  1.00  0.00     0.004 A 
ATOM     10  C   UNL     1       3.135  -4.561  -5.219  1.00  0.00     0.017 A 
ATOM     11  C   UNL     1       1.151  -3.119  -6.482  1.00  0.00     0.001 A 
ATOM     12  C   UNL     1       1.723  -4.217  -7.127  1.00  0.00     0.014 A 
BRANCH   8  13
ATOM     13  C   UNL     1       2.547  -3.687  -2.950  1.00  0.00     0.034 C 
ATOM     14  N   UNL     1       2.589  -1.319  -2.222  1.00  0.00    -0.188 NA
ATOM     15  C   UNL     1       4.001  -1.379  -1.799  1.00  0.00     0.103 C 
ATOM     16  C   UNL     1       1.839  -2.589  -2.155  1.00  0.00     0.111 C 
ATOM     17  C   UNL     1       4.729  -2.509  -2.528  1.00  0.00     0.017 C 
ATOM     18  C   UNL     1       3.975  -3.825  -2.389  1.00  0.00     0.011 C 
BRANCH  14  19
ATOM     19  S   UNL     1       1.755   0.110  -1.974  1.00  0.00     0.281 S 
ATOM     20  O   UNL     1       0.445  -0.039  -2.561  1.00  0.00    -0.195 OA
ATOM     21  O   UNL     1       2.614   1.203  -2.379  1.00  0.00    -0.195 OA
BRANCH  19  22
ATOM     22  N   UNL     1       1.600   0.217  -0.284  1.00  0.00    -0.189 NA
ATOM     23  C   UNL     1      -2.653   0.089  -0.001  1.00  0.00     0.008 C 
ATOM     24  C   UNL     1      -1.225   0.208   0.530  1.00  0.00    -0.012 C 
ATOM     25  C   UNL     1      -0.542   1.470  -0.035  1.00  0.00     0.020 C 
ATOM     26  C   UNL     1      -0.444  -1.081   0.232  1.00  0.00     0.020 C 
ATOM     27  C   UNL     1       0.975   1.496   0.171  1.00  0.00     0.104 C 
ATOM     28  C   UNL     1       1.036  -0.890   0.516  1.00  0.00     0.104 C 
ENDBRANCH  19  22
ENDBRANCH  14  19
ENDBRANCH   8  13
ENDBRANCH   4   7
ENDBRANCH   2   3
ENDBRANCH   1   2
BRANCH   1  29
ATOM     29  C   UNL     1       3.567 -10.077  -4.615  1.00  0.00     0.023 C 
BRANCH  29  30
ATOM     30  C   UNL     1       5.070 -10.134  -4.374  1.00  0.00     0.116 C 
BRANCH  30  31
ATOM     31  N   UNL     1       5.450  -9.949  -2.979  1.00  0.00    -0.352 N 
ATOM     32  C   UNL     1       6.163 -10.781  -2.145  1.00  0.00     0.251 C 
ATOM     33  H   UNL     1       5.154  -9.102  -2.572  1.00  0.00     0.163 HD
ATOM     34  O   UNL     1       6.306 -10.500  -0.960  1.00  0.00    -0.269 OA
BRANCH  32  35
ATOM     35  C   UNL     1       6.712 -12.046  -2.678  1.00  0.00     0.039 A 
ATOM     36  C   UNL     1       6.434 -13.239  -2.007  1.00  0.00     0.014 A 
ATOM     37  C   UNL     1       7.430 -12.059  -3.875  1.00  0.00     0.014 A 
ATOM     38  C   UNL     1       6.771 -14.456  -2.601  1.00  0.00     0.010 A 
ATOM     39  C   UNL     1       7.687 -13.272  -4.506  1.00  0.00     0.010 A 
ATOM     40  C   UNL     1       7.338 -14.482  -3.886  1.00  0.00    -0.014 A 
BRANCH  40  41
ATOM     41  C   UNL     1       7.518 -15.757  -4.627  1.00  0.00     0.031 A 
ATOM     42  C   UNL     1       8.890 -16.210  -5.040  1.00  0.00     0.074 A 
ATOM     43  C   UNL     1       6.433 -16.461  -5.007  1.00  0.00     0.049 A 
ATOM     44  N   UNL     1       9.233 -17.244  -5.765  1.00  0.00    -0.248 NA
ATOM     45  C   UNL     1      10.022 -15.380  -4.599  1.00  0.00     0.031 C 
ATOM     46  C   UNL     1       5.043 -16.110  -4.703  1.00  0.00     0.029 A 
ATOM     47  N   UNL     1       6.327 -17.616  -5.743  1.00  0.00    -0.354 N 
ATOM     48  C   UNL     1      10.616 -17.183  -5.877  1.00  0.00     0.074 A 
ATOM     49  C   UNL     1      11.043 -15.984  -5.189  1.00  0.00     0.031 C 
ATOM     50  C   UNL     1       4.229 -17.041  -5.225  1.00  0.00     0.029 A 
ATOM     51  C   UNL     1       5.030 -18.024  -5.945  1.00  0.00     0.049 A 
ATOM     52  H   UNL     1       7.106 -18.105  -6.093  1.00  0.00     0.167 HD
ATOM     53  C   UNL     1      11.455 -18.054  -6.485  1.00  0.00     0.031 A 
ATOM     54  C   UNL     1       4.537 -19.061  -6.648  1.00  0.00     0.031 A 
ATOM     55  C   UNL     1      11.028 -19.242  -7.175  1.00  0.00     0.049 A 
ATOM     56  C   UNL     1       5.488 -19.984  -7.359  1.00  0.00     0.074 A 
ATOM     57  C   UNL     1      11.807 -20.216  -7.775  1.00  0.00     0.029 A 
ATOM     58  N   UNL     1       9.706 -19.611  -7.369  1.00  0.00    -0.354 N 
ATOM     59  N   UNL     1       6.799 -19.956  -7.388  1.00  0.00    -0.248 NA
ATOM     60  C   UNL     1       4.891 -21.081  -8.133  1.00  0.00     0.031 C 
ATOM     61  C   UNL     1      10.955 -21.137  -8.392  1.00  0.00     0.029 A 
ATOM     62  C   UNL     1       9.646 -20.776  -8.118  1.00  0.00     0.049 A 
ATOM     63  H   UNL     1       8.925 -19.119  -7.026  1.00  0.00     0.167 HD
ATOM     64  C   UNL     1       7.183 -21.041  -8.165  1.00  0.00     0.074 A 
ATOM     65  C   UNL     1       5.969 -21.721  -8.566  1.00  0.00     0.031 C 
ATOM     66  C   UNL     1       8.430 -21.436  -8.518  1.00  0.00     0.031 A 
BRANCH  53  67
ATOM     67  C   UNL     1      12.926 -17.743  -6.444  1.00  0.00    -0.014 A 
ATOM     68  C   UNL     1      13.654 -17.811  -5.244  1.00  0.00     0.009 A 
ATOM     69  C   UNL     1      13.604 -17.418  -7.629  1.00  0.00     0.009 A 
ATOM     70  C   UNL     1      15.020 -17.523  -5.227  1.00  0.00     0.001 A 
ATOM     71  C   UNL     1      14.976 -17.161  -7.615  1.00  0.00     0.001 A 
ATOM     72  C   UNL     1      15.681 -17.204  -6.413  1.00  0.00     0.000 A 
ENDBRANCH  53  67
BRANCH  54  73
ATOM     73  C   UNL     1       3.067 -19.281  -6.727  1.00  0.00    -0.014 A 
ATOM     74  C   UNL     1       2.478 -20.398  -6.114  1.00  0.00     0.009 A 
ATOM     75  C   UNL     1       2.246 -18.383  -7.428  1.00  0.00     0.009 A 
ATOM     76  C   UNL     1       1.104 -20.625  -6.226  1.00  0.00     0.001 A 
ATOM     77  C   UNL     1       0.868 -18.595  -7.509  1.00  0.00     0.001 A 
ATOM     78  C   UNL     1       0.300 -19.721  -6.918  1.00  0.00     0.000 A 
ENDBRANCH  54  73
BRANCH  66  79
ATOM     79  C   UNL     1       8.547 -22.670  -9.369  1.00  0.00    -0.014 A 
ATOM     80  C   UNL     1       8.159 -22.664 -10.718  1.00  0.00     0.009 A 
ATOM     81  C   UNL     1       9.098 -23.842  -8.827  1.00  0.00     0.009 A 
ATOM     82  C   UNL     1       8.292 -23.815 -11.497  1.00  0.00     0.001 A 
ATOM     83  C   UNL     1       9.260 -24.981  -9.617  1.00  0.00     0.001 A 
ATOM     84  C   UNL     1       8.849 -24.969 -10.948  1.00  0.00     0.000 A 
ENDBRANCH  66  79
ENDBRANCH  40  41
ENDBRANCH  32  35
ENDBRANCH  30  31
ENDBRANCH  29  30
ENDBRANCH   1  29
TORSDOF 14
