REMARK SMILES O=C(NCCCCNC(=O)[C@H]1CC2(CCN(C(=O)C3CC3)CC2)CN1C(=O)CCn1cccn1)c1ccc(-c2c3nc(c(-c4ccccc4)c4ccc([nH]4)c(-c4ccccc4)c4nc(c(-c5ccccc5)c5ccc2[nH]5)C=C4)C=C3)cc1
REMARK SMILES IDX 6 1 5 2 4 3 3 4 1 5 2 6 35 8 36 9 82 10 37 11 81 12 38 13
REMARK SMILES IDX 39 14 40 15 75 16 41 17 80 18 74 19 76 20 42 21 79 22 73 23
REMARK SMILES IDX 72 24 43 26 65 27 50 28 64 29 51 30 54 31 63 32 77 33 52 34
REMARK SMILES IDX 53 35 62 37 78 38 55 39 44 40 45 41 49 42 46 43 48 44 47 45
REMARK SMILES IDX 66 46 67 47 71 48 68 49 70 50 69 51 56 52 57 53 61 54 58 55
REMARK SMILES IDX 60 56 59 57 7 58 8 59 9 60 10 62 11 63 12 64 25 65 13 66
REMARK SMILES IDX 24 67 14 68 23 69 15 70 22 71 16 72 17 73 18 74 26 75 27 76
REMARK SMILES IDX 28 77 29 78 30 79 31 80 34 81 32 82 33 83 19 84 20 85 21 86
REMARK H PARENT 3 7 76 25 54 36 8 61
REMARK Flexibility Score: inf
ROOT
ATOM      1  C   UNL     1      10.049  -1.439  -4.918  1.00  0.00     0.023 C 
ENDROOT
BRANCH   1   2
ATOM      2  C   UNL     1      11.160  -1.654  -5.954  1.00  0.00     0.023 C 
BRANCH   2   3
ATOM      3  C   UNL     1      10.980  -0.901  -7.272  1.00  0.00     0.116 C 
BRANCH   3   4
ATOM      4  N   UNL     1      10.781   0.526  -7.132  1.00  0.00    -0.352 N 
ATOM      5  O   UNL     1      11.086   2.709  -7.011  1.00  0.00    -0.269 OA
ATOM      6  C   UNL     1      11.610   1.594  -6.940  1.00  0.00     0.251 C 
ATOM      7  H   UNL     1       9.833   0.785  -7.188  1.00  0.00     0.163 HD
BRANCH   6   8
ATOM      8  C   UNL     1      13.046   1.502  -6.568  1.00  0.00     0.039 A 
ATOM      9  C   UNL     1      13.831   0.350  -6.611  1.00  0.00     0.014 A 
ATOM     10  C   UNL     1      13.618   2.690  -6.075  1.00  0.00     0.014 A 
ATOM     11  C   UNL     1      15.099   0.343  -6.038  1.00  0.00     0.010 A 
ATOM     12  C   UNL     1      14.892   2.698  -5.528  1.00  0.00     0.010 A 
ATOM     13  C   UNL     1      15.605   1.507  -5.457  1.00  0.00    -0.014 A 
BRANCH  13  14
ATOM     14  C   UNL     1      16.956   1.484  -4.913  1.00  0.00     0.031 A 
ATOM     15  C   UNL     1      18.020   1.279  -5.935  1.00  0.00     0.074 A 
ATOM     16  C   UNL     1      17.238   1.774  -3.627  1.00  0.00     0.049 A 
ATOM     17  N   UNL     1      18.866   0.306  -6.021  1.00  0.00    -0.248 NA
ATOM     18  C   UNL     1      18.068   2.216  -7.071  1.00  0.00     0.031 C 
ATOM     19  C   UNL     1      16.327   2.266  -2.590  1.00  0.00     0.029 A 
ATOM     20  N   UNL     1      18.448   1.800  -3.000  1.00  0.00    -0.354 N 
ATOM     21  C   UNL     1      19.675   0.596  -7.119  1.00  0.00     0.074 A 
ATOM     22  C   UNL     1      19.047   1.694  -7.809  1.00  0.00     0.031 C 
ATOM     23  C   UNL     1      17.049   2.770  -1.563  1.00  0.00     0.029 A 
ATOM     24  C   UNL     1      18.458   2.511  -1.806  1.00  0.00     0.049 A 
ATOM     25  H   UNL     1      19.247   1.353  -3.363  1.00  0.00     0.167 HD
ATOM     26  C   UNL     1      20.927   0.073  -7.242  1.00  0.00     0.031 A 
ATOM     27  C   UNL     1      19.550   2.913  -1.106  1.00  0.00     0.031 A 
ATOM     28  C   UNL     1      21.115  -1.070  -6.389  1.00  0.00     0.049 A 
ATOM     29  C   UNL     1      20.698   2.094  -1.556  1.00  0.00     0.074 A 
ATOM     30  C   UNL     1      20.530  -2.315  -6.274  1.00  0.00     0.029 A 
ATOM     31  N   UNL     1      21.800  -0.870  -5.215  1.00  0.00    -0.354 N 
ATOM     32  N   UNL     1      20.802   0.819  -1.319  1.00  0.00    -0.248 NA
ATOM     33  C   UNL     1      21.500   2.594  -2.661  1.00  0.00     0.031 C 
ATOM     34  C   UNL     1      20.480  -2.566  -4.870  1.00  0.00     0.029 A 
ATOM     35  C   UNL     1      21.097  -1.495  -4.222  1.00  0.00     0.049 A 
ATOM     36  H   UNL     1      22.641  -0.368  -5.109  1.00  0.00     0.167 HD
ATOM     37  C   UNL     1      21.303   0.285  -2.497  1.00  0.00     0.074 A 
ATOM     38  C   UNL     1      21.801   1.435  -3.253  1.00  0.00     0.031 C 
ATOM     39  C   UNL     1      21.006  -0.994  -2.871  1.00  0.00     0.031 A 
BRANCH  26  40
ATOM     40  C   UNL     1      22.102   0.864  -7.773  1.00  0.00    -0.014 A 
ATOM     41  C   UNL     1      23.368   0.248  -7.794  1.00  0.00     0.009 A 
ATOM     42  C   UNL     1      22.079   2.261  -7.944  1.00  0.00     0.009 A 
ATOM     43  C   UNL     1      24.545   1.002  -7.864  1.00  0.00     0.001 A 
ATOM     44  C   UNL     1      23.252   3.013  -8.056  1.00  0.00     0.001 A 
ATOM     45  C   UNL     1      24.486   2.387  -7.979  1.00  0.00     0.000 A 
ENDBRANCH  26  40
BRANCH  27  46
ATOM     46  C   UNL     1      19.741   4.149  -0.314  1.00  0.00    -0.014 A 
ATOM     47  C   UNL     1      20.798   4.269   0.604  1.00  0.00     0.009 A 
ATOM     48  C   UNL     1      19.050   5.323  -0.669  1.00  0.00     0.009 A 
ATOM     49  C   UNL     1      21.169   5.521   1.119  1.00  0.00     0.001 A 
ATOM     50  C   UNL     1      19.420   6.571  -0.155  1.00  0.00     0.001 A 
ATOM     51  C   UNL     1      20.489   6.672   0.728  1.00  0.00     0.000 A 
ENDBRANCH  27  46
BRANCH  39  52
ATOM     52  C   UNL     1      20.297  -1.875  -1.874  1.00  0.00    -0.014 A 
ATOM     53  C   UNL     1      19.015  -1.588  -1.369  1.00  0.00     0.009 A 
ATOM     54  C   UNL     1      20.877  -3.111  -1.553  1.00  0.00     0.009 A 
ATOM     55  C   UNL     1      18.351  -2.501  -0.542  1.00  0.00     0.001 A 
ATOM     56  C   UNL     1      20.205  -4.029  -0.745  1.00  0.00     0.001 A 
ATOM     57  C   UNL     1      18.945  -3.723  -0.235  1.00  0.00     0.000 A 
ENDBRANCH  39  52
ENDBRANCH  13  14
ENDBRANCH   6   8
ENDBRANCH   3   4
ENDBRANCH   2   3
ENDBRANCH   1   2
BRANCH   1  58
ATOM     58  C   UNL     1       8.627  -1.658  -5.436  1.00  0.00     0.116 C 
BRANCH  58  59
ATOM     59  N   UNL     1       8.452  -3.000  -5.944  1.00  0.00    -0.354 N 
ATOM     60  C   UNL     1       8.042  -4.024  -5.138  1.00  0.00     0.242 C 
ATOM     61  H   UNL     1       8.632  -3.180  -6.895  1.00  0.00     0.163 HD
ATOM     62  O   UNL     1       8.887  -4.792  -4.683  1.00  0.00    -0.273 OA
BRANCH  60  63
ATOM     63  C   UNL     1       6.560  -4.050  -4.738  1.00  0.00     0.175 C 
ATOM     64  C   UNL     1       5.553  -3.218  -5.540  1.00  0.00     0.044 C 
ATOM     65  N   UNL     1       5.783  -5.281  -4.535  1.00  0.00    -0.330 N 
ATOM     66  C   UNL     1       4.184  -3.534  -4.857  1.00  0.00    -0.006 C 
ATOM     67  C   UNL     1       4.479  -4.834  -4.045  1.00  0.00     0.127 C 
ATOM     68  C   UNL     1       3.044  -3.808  -5.861  1.00  0.00     0.030 C 
ATOM     69  C   UNL     1       3.763  -2.361  -3.951  1.00  0.00     0.030 C 
ATOM     70  C   UNL     1       2.553  -2.567  -6.606  1.00  0.00     0.120 C 
ATOM     71  C   UNL     1       3.320  -1.139  -4.765  1.00  0.00     0.120 C 
ATOM     72  N   UNL     1       2.237  -1.474  -5.692  1.00  0.00    -0.342 N 
ATOM     73  C   UNL     1       1.107  -0.653  -5.673  1.00  0.00     0.225 C 
ATOM     74  O   UNL     1       1.041   0.295  -4.880  1.00  0.00    -0.275 OA
BRANCH  65  75
ATOM     75  C   UNL     1       5.816  -6.454  -5.281  1.00  0.00     0.225 C 
ATOM     76  O   UNL     1       4.806  -7.155  -5.419  1.00  0.00    -0.275 OA
BRANCH  75  77
ATOM     77  C   UNL     1       7.100  -6.968  -5.895  1.00  0.00     0.124 C 
BRANCH  77  78
ATOM     78  C   UNL     1       7.120  -6.932  -7.417  1.00  0.00     0.154 C 
BRANCH  78  79
ATOM     79  N   UNL     1       6.928  -5.638  -8.039  1.00  0.00    -0.272 N 
ATOM     80  C   UNL     1       5.770  -5.178  -8.606  1.00  0.00     0.108 A 
ATOM     81  N   UNL     1       7.972  -4.805  -8.236  1.00  0.00    -0.182 NA
ATOM     82  C   UNL     1       6.069  -3.958  -9.164  1.00  0.00     0.042 A 
ATOM     83  C   UNL     1       7.440  -3.781  -8.912  1.00  0.00     0.135 A 
ENDBRANCH  78  79
ENDBRANCH  77  78
ENDBRANCH  75  77
ENDBRANCH  65  75
BRANCH  73  84
ATOM     84  C   UNL     1      -0.107  -0.820  -6.528  1.00  0.00     0.079 C 
ATOM     85  C   UNL     1      -0.304  -1.492  -7.854  1.00  0.00     0.014 C 
ATOM     86  C   UNL     1      -0.832  -2.141  -6.601  1.00  0.00     0.014 C 
ENDBRANCH  73  84
ENDBRANCH  60  63
ENDBRANCH  58  59
ENDBRANCH   1  58
TORSDOF 16
