REMARK SMILES COc1c(Cl)cc(C[NH2+][C@@H](Cc2c[nH]c3ccccc23)C(=O)NCCCCNC(=O)c2ccc(-c3c4nc(c(-c5ccccc5)c5ccc([nH]5)c(-c5ccccc5)c5nc(c(-c6ccccc6)c6ccc3[nH]6)C=C5)C=C4)cc2)cc1Cl
REMARK SMILES IDX 24 1 23 2 21 3 22 4 10 6 9 7 8 10 7 11 3 12 4 13 80 14 5 15
REMARK SMILES IDX 6 16 79 17 81 18 2 19 1 20 11 21 12 22 13 23 20 24 14 25
REMARK SMILES IDX 15 26 19 27 16 29 18 30 17 31 25 32 26 33 27 34 28 35 29 36
REMARK SMILES IDX 30 38 31 39 32 40 78 41 33 42 77 43 34 44 35 45 36 46 71 47
REMARK SMILES IDX 37 48 76 49 70 50 72 51 38 52 75 53 69 54 68 55 39 57 61 58
REMARK SMILES IDX 46 59 60 60 47 61 50 62 59 63 73 64 48 65 49 66 58 68 74 69
REMARK SMILES IDX 51 70 40 71 41 72 45 73 42 74 44 75 43 76 62 77 63 78 67 79
REMARK SMILES IDX 64 80 66 81 65 82 52 83 53 84 57 85 54 86 56 87 55 88
REMARK H PARENT 23 5 9 8 9 9 14 28 28 37 72 56 50 67
REMARK Flexibility Score: inf
ROOT
ATOM      1  C   UNL     1       3.018  -7.851  -2.587  1.00  0.00     0.116 C 
ENDROOT
BRANCH   1   2
ATOM      2  N   UNL     1       2.155  -8.332  -3.648  1.00  0.00    -0.351 N 
ATOM      3  C   UNL     1       1.985  -7.883  -4.931  1.00  0.00     0.278 C 
ATOM      4  O   UNL     1       1.486  -8.680  -5.736  1.00  0.00    -0.268 OA
ATOM      5  H   UNL     1       1.600  -9.109  -3.408  1.00  0.00     0.163 HD
BRANCH   3   6
ATOM      6  C   UNL     1       2.393  -6.460  -5.404  1.00  0.00     0.277 C 
BRANCH   6   7
ATOM      7  N   UNL     1       1.930  -5.458  -4.426  1.00  0.00    -0.332 N 
ATOM      8  H   UNL     1       0.948  -5.647  -4.227  1.00  0.00     0.347 HD
ATOM      9  H   UNL     1       2.547  -5.556  -3.620  1.00  0.00     0.347 HD
BRANCH   7  10
ATOM     10  C   UNL     1       2.040  -4.067  -4.832  1.00  0.00     0.298 C 
BRANCH  10  11
ATOM     11  C   UNL     1       1.687  -3.213  -3.631  1.00  0.00     0.009 A 
ATOM     12  C   UNL     1       1.093  -1.893  -1.208  1.00  0.00     0.156 A 
ATOM     13  C   UNL     1       2.395  -1.879  -1.723  1.00  0.00     0.085 A 
ATOM     14  C   UNL     1       0.091  -2.576  -1.909  1.00  0.00     0.085 A 
ATOM     15  Cl  UNL     1       3.711  -1.143  -0.880  1.00  0.00    -0.080 Cl
ATOM     16  C   UNL     1       2.687  -2.525  -2.930  1.00  0.00     0.034 A 
ATOM     17  C   UNL     1       0.383  -3.222  -3.114  1.00  0.00     0.034 A 
ATOM     18  Cl  UNL     1      -1.524  -2.673  -1.302  1.00  0.00    -0.080 Cl
BRANCH  12  19
ATOM     19  O   UNL     1       0.796  -1.365   0.024  1.00  0.00    -0.494 OA
ATOM     20  C   UNL     1       0.733   0.060  -0.004  1.00  0.00     0.278 C 
ENDBRANCH  12  19
ENDBRANCH  10  11
ENDBRANCH   7  10
ENDBRANCH   6   7
BRANCH   6  21
ATOM     21  C   UNL     1       3.846  -6.406  -5.936  1.00  0.00     0.113 C 
BRANCH  21  22
ATOM     22  C   UNL     1       4.944  -6.729  -4.969  1.00  0.00    -0.016 A 
ATOM     23  C   UNL     1       5.636  -5.844  -4.162  1.00  0.00     0.087 A 
ATOM     24  C   UNL     1       5.481  -8.034  -4.701  1.00  0.00     0.003 A 
ATOM     25  N   UNL     1       6.514  -6.559  -3.389  1.00  0.00    -0.361 N 
ATOM     26  C   UNL     1       6.409  -7.902  -3.668  1.00  0.00     0.046 A 
ATOM     27  C   UNL     1       5.200  -9.328  -5.191  1.00  0.00     0.010 A 
ATOM     28  H   UNL     1       7.130  -6.168  -2.728  1.00  0.00     0.166 HD
ATOM     29  C   UNL     1       7.045  -9.001  -3.076  1.00  0.00     0.026 A 
ATOM     30  C   UNL     1       5.826 -10.437  -4.612  1.00  0.00     0.001 A 
ATOM     31  C   UNL     1       6.730 -10.273  -3.566  1.00  0.00     0.002 A 
ENDBRANCH  21  22
ENDBRANCH   6  21
ENDBRANCH   3   6
ENDBRANCH   1   2
BRANCH   1  32
ATOM     32  C   UNL     1       2.373  -7.856  -1.208  1.00  0.00     0.023 C 
BRANCH  32  33
ATOM     33  C   UNL     1       2.362  -9.222  -0.520  1.00  0.00     0.023 C 
BRANCH  33  34
ATOM     34  C   UNL     1       3.702  -9.959  -0.452  1.00  0.00     0.116 C 
BRANCH  34  35
ATOM     35  N   UNL     1       4.790  -9.174   0.111  1.00  0.00    -0.352 N 
ATOM     36  C   UNL     1       5.867  -9.606   0.855  1.00  0.00     0.251 C 
ATOM     37  H   UNL     1       4.752  -8.206  -0.062  1.00  0.00     0.163 HD
ATOM     38  O   UNL     1       6.694  -8.813   1.274  1.00  0.00    -0.269 OA
BRANCH  36  39
ATOM     39  C   UNL     1       5.991 -11.046   1.175  1.00  0.00     0.039 A 
ATOM     40  C   UNL     1       6.143 -11.426   2.511  1.00  0.00     0.014 A 
ATOM     41  C   UNL     1       5.921 -12.013   0.169  1.00  0.00     0.014 A 
ATOM     42  C   UNL     1       6.145 -12.783   2.846  1.00  0.00     0.010 A 
ATOM     43  C   UNL     1       5.869 -13.363   0.510  1.00  0.00     0.010 A 
ATOM     44  C   UNL     1       5.968 -13.760   1.852  1.00  0.00    -0.014 A 
BRANCH  44  45
ATOM     45  C   UNL     1       5.836 -15.195   2.210  1.00  0.00     0.031 A 
ATOM     46  C   UNL     1       6.885 -16.189   1.799  1.00  0.00     0.074 A 
ATOM     47  C   UNL     1       4.731 -15.615   2.857  1.00  0.00     0.049 A 
ATOM     48  N   UNL     1       6.930 -17.479   2.022  1.00  0.00    -0.248 NA
ATOM     49  C   UNL     1       8.021 -15.672   1.019  1.00  0.00     0.031 C 
ATOM     50  C   UNL     1       3.612 -14.763   3.264  1.00  0.00     0.029 A 
ATOM     51  N   UNL     1       4.366 -16.868   3.282  1.00  0.00    -0.354 N 
ATOM     52  C   UNL     1       8.091 -17.928   1.406  1.00  0.00     0.074 A 
ATOM     53  C   UNL     1       8.696 -16.783   0.759  1.00  0.00     0.031 C 
ATOM     54  C   UNL     1       2.699 -15.512   3.903  1.00  0.00     0.029 A 
ATOM     55  C   UNL     1       3.153 -16.899   3.926  1.00  0.00     0.049 A 
ATOM     56  H   UNL     1       4.921 -17.669   3.139  1.00  0.00     0.167 HD
ATOM     57  C   UNL     1       8.617 -19.176   1.395  1.00  0.00     0.031 A 
ATOM     58  C   UNL     1       2.482 -17.927   4.478  1.00  0.00     0.031 A 
ATOM     59  C   UNL     1       8.019 -20.317   2.037  1.00  0.00     0.049 A 
ATOM     60  C   UNL     1       3.085 -19.303   4.448  1.00  0.00     0.074 A 
ATOM     61  C   UNL     1       8.509 -21.608   2.133  1.00  0.00     0.029 A 
ATOM     62  N   UNL     1       6.794 -20.305   2.686  1.00  0.00    -0.354 N 
ATOM     63  N   UNL     1       4.228 -19.694   3.939  1.00  0.00    -0.248 NA
ATOM     64  C   UNL     1       2.309 -20.378   5.083  1.00  0.00     0.031 C 
ATOM     65  C   UNL     1       7.559 -22.389   2.799  1.00  0.00     0.029 A 
ATOM     66  C   UNL     1       6.501 -21.573   3.163  1.00  0.00     0.049 A 
ATOM     67  H   UNL     1       6.218 -19.514   2.792  1.00  0.00     0.167 HD
ATOM     68  C   UNL     1       4.320 -21.051   4.215  1.00  0.00     0.074 A 
ATOM     69  C   UNL     1       3.126 -21.413   4.951  1.00  0.00     0.031 C 
ATOM     70  C   UNL     1       5.307 -21.921   3.888  1.00  0.00     0.031 A 
BRANCH  57  71
ATOM     71  C   UNL     1       9.913 -19.372   0.659  1.00  0.00    -0.014 A 
ATOM     72  C   UNL     1      11.117 -18.850   1.160  1.00  0.00     0.009 A 
ATOM     73  C   UNL     1       9.939 -20.120  -0.528  1.00  0.00     0.009 A 
ATOM     74  C   UNL     1      12.314 -19.042   0.467  1.00  0.00     0.001 A 
ATOM     75  C   UNL     1      11.142 -20.333  -1.204  1.00  0.00     0.001 A 
ATOM     76  C   UNL     1      12.326 -19.787  -0.712  1.00  0.00     0.000 A 
ENDBRANCH  57  71
BRANCH  58  77
ATOM     77  C   UNL     1       1.170 -17.692   5.135  1.00  0.00    -0.014 A 
ATOM     78  C   UNL     1       1.053 -17.762   6.531  1.00  0.00     0.009 A 
ATOM     79  C   UNL     1       0.028 -17.407   4.370  1.00  0.00     0.009 A 
ATOM     80  C   UNL     1      -0.186 -17.577   7.148  1.00  0.00     0.001 A 
ATOM     81  C   UNL     1      -1.205 -17.197   4.992  1.00  0.00     0.001 A 
ATOM     82  C   UNL     1      -1.313 -17.291   6.378  1.00  0.00     0.000 A 
ENDBRANCH  58  77
BRANCH  70  83
ATOM     83  C   UNL     1       5.148 -23.342   4.348  1.00  0.00    -0.014 A 
ATOM     84  C   UNL     1       4.214 -24.201   3.748  1.00  0.00     0.009 A 
ATOM     85  C   UNL     1       5.965 -23.836   5.377  1.00  0.00     0.009 A 
ATOM     86  C   UNL     1       4.079 -25.518   4.193  1.00  0.00     0.001 A 
ATOM     87  C   UNL     1       5.847 -25.161   5.800  1.00  0.00     0.001 A 
ATOM     88  C   UNL     1       4.898 -25.997   5.215  1.00  0.00     0.000 A 
ENDBRANCH  70  83
ENDBRANCH  44  45
ENDBRANCH  36  39
ENDBRANCH  34  35
ENDBRANCH  33  34
ENDBRANCH  32  33
ENDBRANCH   1  32
TORSDOF 17
