REMARK SMILES O=C(NCCCCNC(=O)c1ccc(-c2c3nc(c(-c4ccccc4)c4ccc([nH]4)c(-c4ccccc4)c4nc(c(-c5ccccc5)c5ccc2[nH]5)C=C4)C=C3)cc1)c1ccc(-c2ccc(=O)[nH]c2)cc1
REMARK SMILES IDX 6 1 5 2 4 3 3 4 1 5 2 6 59 8 60 9 71 10 61 11 70 12 62 13
REMARK SMILES IDX 63 14 64 15 69 16 65 17 68 18 66 19 67 21 7 22 8 23 9 24
REMARK SMILES IDX 10 26 11 27 12 28 58 29 13 30 57 31 14 32 15 33 16 34 51 35
REMARK SMILES IDX 17 36 56 37 50 38 52 39 18 40 55 41 49 42 48 43 19 45 41 46
REMARK SMILES IDX 26 47 40 48 27 49 30 50 39 51 53 52 28 53 29 54 38 56 54 57
REMARK SMILES IDX 31 58 20 59 21 60 25 61 22 62 24 63 23 64 42 65 43 66 47 67
REMARK SMILES IDX 44 68 46 69 45 70 32 71 33 72 37 73 34 74 36 75 35 76
REMARK H PARENT 3 7 68 20 8 25 52 44 30 55
REMARK Flexibility Score: inf
ROOT
ATOM      1  C   UNL     1       4.554   3.091  -2.139  1.00  0.00     0.023 C 
ENDROOT
BRANCH   1   2
ATOM      2  C   UNL     1       5.017   1.674  -1.811  1.00  0.00     0.023 C 
BRANCH   2   3
ATOM      3  C   UNL     1       4.650   1.179  -0.417  1.00  0.00     0.116 C 
BRANCH   3   4
ATOM      4  N   UNL     1       3.212   1.085  -0.215  1.00  0.00    -0.352 N 
ATOM      5  O   UNL     1       1.232   0.038   0.084  1.00  0.00    -0.269 OA
ATOM      6  C   UNL     1       2.456  -0.020   0.094  1.00  0.00     0.251 C 
ATOM      7  H   UNL     1       2.713   1.928  -0.315  1.00  0.00     0.163 HD
BRANCH   6   8
ATOM      8  C   UNL     1       3.133  -1.292   0.415  1.00  0.00     0.039 A 
ATOM      9  C   UNL     1       4.130  -1.339   1.393  1.00  0.00     0.014 A 
ATOM     10  C   UNL     1       2.783  -2.443  -0.293  1.00  0.00     0.014 A 
ATOM     11  C   UNL     1       4.851  -2.516   1.588  1.00  0.00     0.009 A 
ATOM     12  C   UNL     1       3.490  -3.629  -0.075  1.00  0.00     0.009 A 
ATOM     13  C   UNL     1       4.543  -3.671   0.851  1.00  0.00    -0.017 A 
BRANCH  13  14
ATOM     14  C   UNL     1       5.336  -4.904   1.034  1.00  0.00    -0.002 A 
ATOM     15  C   UNL     1       5.961  -5.621  -0.071  1.00  0.00     0.016 A 
ATOM     16  C   UNL     1       5.510  -5.386   2.279  1.00  0.00     0.094 A 
ATOM     17  C   UNL     1       6.694  -6.725   0.137  1.00  0.00     0.072 A 
ATOM     18  N   UNL     1       6.262  -6.511   2.506  1.00  0.00    -0.328 N 
ATOM     19  C   UNL     1       6.882  -7.233   1.517  1.00  0.00     0.247 A 
ATOM     20  H   UNL     1       6.363  -6.820   3.435  1.00  0.00     0.169 HD
ATOM     21  O   UNL     1       7.553  -8.234   1.743  1.00  0.00    -0.270 OA
ENDBRANCH  13  14
ENDBRANCH   6   8
ENDBRANCH   3   4
ENDBRANCH   2   3
ENDBRANCH   1   2
BRANCH   1  22
ATOM     22  C   UNL     1       4.960   4.159  -1.130  1.00  0.00     0.116 C 
BRANCH  22  23
ATOM     23  N   UNL     1       6.402   4.267  -0.958  1.00  0.00    -0.352 N 
ATOM     24  C   UNL     1       7.212   5.374  -1.040  1.00  0.00     0.251 C 
ATOM     25  H   UNL     1       6.864   3.422  -0.752  1.00  0.00     0.163 HD
ATOM     26  O   UNL     1       8.432   5.250  -0.989  1.00  0.00    -0.269 OA
BRANCH  24  27
ATOM     27  C   UNL     1       6.614   6.713  -1.230  1.00  0.00     0.039 A 
ATOM     28  C   UNL     1       7.158   7.561  -2.198  1.00  0.00     0.014 A 
ATOM     29  C   UNL     1       5.508   7.120  -0.480  1.00  0.00     0.014 A 
ATOM     30  C   UNL     1       6.539   8.782  -2.472  1.00  0.00     0.010 A 
ATOM     31  C   UNL     1       4.844   8.297  -0.812  1.00  0.00     0.010 A 
ATOM     32  C   UNL     1       5.349   9.138  -1.816  1.00  0.00    -0.014 A 
BRANCH  32  33
ATOM     33  C   UNL     1       4.603  10.366  -2.191  1.00  0.00     0.031 A 
ATOM     34  C   UNL     1       4.396  11.470  -1.192  1.00  0.00     0.074 A 
ATOM     35  C   UNL     1       4.045  10.456  -3.414  1.00  0.00     0.049 A 
ATOM     36  N   UNL     1       3.734  12.592  -1.327  1.00  0.00    -0.248 NA
ATOM     37  C   UNL     1       4.988  11.277   0.140  1.00  0.00     0.031 C 
ATOM     38  C   UNL     1       4.125   9.433  -4.459  1.00  0.00     0.029 A 
ATOM     39  N   UNL     1       3.290  11.452  -3.981  1.00  0.00    -0.354 N 
ATOM     40  C   UNL     1       3.818  13.229  -0.096  1.00  0.00     0.074 A 
ATOM     41  C   UNL     1       4.545  12.343   0.788  1.00  0.00     0.031 C 
ATOM     42  C   UNL     1       3.472   9.867  -5.548  1.00  0.00     0.029 A 
ATOM     43  C   UNL     1       2.890  11.174  -5.266  1.00  0.00     0.049 A 
ATOM     44  H   UNL     1       3.058  12.286  -3.513  1.00  0.00     0.167 HD
ATOM     45  C   UNL     1       3.350  14.448   0.264  1.00  0.00     0.031 A 
ATOM     46  C   UNL     1       2.131  11.885  -6.120  1.00  0.00     0.031 A 
ATOM     47  C   UNL     1       2.619  15.325  -0.613  1.00  0.00     0.049 A 
ATOM     48  C   UNL     1       1.601  13.225  -5.695  1.00  0.00     0.074 A 
ATOM     49  C   UNL     1       2.155  16.605  -0.362  1.00  0.00     0.029 A 
ATOM     50  N   UNL     1       2.234  15.007  -1.907  1.00  0.00    -0.354 N 
ATOM     51  N   UNL     1       1.760  13.851  -4.554  1.00  0.00    -0.248 NA
ATOM     52  C   UNL     1       0.796  13.960  -6.680  1.00  0.00     0.031 C 
ATOM     53  C   UNL     1       1.432  17.035  -1.481  1.00  0.00     0.029 A 
ATOM     54  C   UNL     1       1.504  16.051  -2.454  1.00  0.00     0.049 A 
ATOM     55  H   UNL     1       2.446  14.164  -2.368  1.00  0.00     0.167 HD
ATOM     56  C   UNL     1       1.092  15.061  -4.689  1.00  0.00     0.074 A 
ATOM     57  C   UNL     1       0.545  15.089  -6.031  1.00  0.00     0.031 C 
ATOM     58  C   UNL     1       0.948  16.060  -3.783  1.00  0.00     0.031 A 
BRANCH  45  59
ATOM     59  C   UNL     1       3.602  14.889   1.681  1.00  0.00    -0.014 A 
ATOM     60  C   UNL     1       4.900  15.169   2.141  1.00  0.00     0.009 A 
ATOM     61  C   UNL     1       2.525  15.035   2.569  1.00  0.00     0.009 A 
ATOM     62  C   UNL     1       5.118  15.530   3.473  1.00  0.00     0.001 A 
ATOM     63  C   UNL     1       2.742  15.431   3.890  1.00  0.00     0.001 A 
ATOM     64  C   UNL     1       4.039  15.664   4.345  1.00  0.00     0.000 A 
ENDBRANCH  45  59
BRANCH  46  65
ATOM     65  C   UNL     1       1.838  11.339  -7.472  1.00  0.00    -0.014 A 
ATOM     66  C   UNL     1       2.432  11.901  -8.612  1.00  0.00     0.009 A 
ATOM     67  C   UNL     1       0.985  10.235  -7.625  1.00  0.00     0.009 A 
ATOM     68  C   UNL     1       2.165  11.377  -9.879  1.00  0.00     0.001 A 
ATOM     69  C   UNL     1       0.744   9.695  -8.890  1.00  0.00     0.001 A 
ATOM     70  C   UNL     1       1.328  10.271 -10.016  1.00  0.00     0.000 A 
ENDBRANCH  46  65
BRANCH  58  71
ATOM     71  C   UNL     1       0.178  17.276  -4.219  1.00  0.00    -0.014 A 
ATOM     72  C   UNL     1      -1.212  17.232  -4.410  1.00  0.00     0.009 A 
ATOM     73  C   UNL     1       0.850  18.495  -4.406  1.00  0.00     0.009 A 
ATOM     74  C   UNL     1      -1.907  18.375  -4.813  1.00  0.00     0.001 A 
ATOM     75  C   UNL     1       0.149  19.643  -4.777  1.00  0.00     0.001 A 
ATOM     76  C   UNL     1      -1.227  19.580  -4.990  1.00  0.00     0.000 A 
ENDBRANCH  58  71
ENDBRANCH  32  33
ENDBRANCH  24  27
ENDBRANCH  22  23
ENDBRANCH   1  22
TORSDOF 12
