REMARK SMILES Cc1cc(C)c2c(c1)C=C(C(=O)NCCCCNC(=O)c1ccc(-c3c4nc(c(-c5ccccc5)c5ccc([nH]5)c(-c5ccccc5)c5nc(c(-c6ccccc6)c6ccc3[nH]6)C=C5)C=C4)cc1)[C@@H](C(F)(F)F)O2
REMARK SMILES IDX 16 1 15 2 14 3 13 4 11 5 12 6 10 8 1 9 2 10 3 11 8 12 4 13
REMARK SMILES IDX 7 14 5 15 6 16 9 17 74 18 69 19 70 20 71 21 72 22 73 23
REMARK SMILES IDX 17 24 18 25 19 26 20 28 21 29 22 30 68 31 23 32 67 33 24 34
REMARK SMILES IDX 25 35 26 36 61 37 27 38 66 39 60 40 62 41 28 42 65 43 59 44
REMARK SMILES IDX 58 45 29 47 51 48 36 49 50 50 37 51 40 52 49 53 63 54 38 55
REMARK SMILES IDX 39 56 48 58 64 59 41 60 30 61 31 62 35 63 32 64 34 65 33 66
REMARK SMILES IDX 52 67 53 68 57 69 54 70 56 71 55 72 42 73 43 74 47 75 44 76
REMARK SMILES IDX 46 77 45 78
REMARK H PARENT 13 7 18 27 62 46 40 57
REMARK Flexibility Score: inf
ROOT
ATOM      1  C   UNL     1      -3.469   5.308  -8.848  1.00  0.00     0.023 C 
ENDROOT
BRANCH   1   2
ATOM      2  C   UNL     1      -2.981   4.064  -8.101  1.00  0.00     0.023 C 
BRANCH   2   3
ATOM      3  C   UNL     1      -1.468   4.004  -7.913  1.00  0.00     0.116 C 
BRANCH   3   4
ATOM      4  N   UNL     1      -1.040   4.713  -6.721  1.00  0.00    -0.352 N 
ATOM      5  C   UNL     1      -0.646   4.389  -5.467  1.00  0.00     0.251 C 
ATOM      6  O   UNL     1      -0.370   5.350  -4.742  1.00  0.00    -0.270 OA
ATOM      7  H   UNL     1      -1.036   5.688  -6.862  1.00  0.00     0.163 HD
BRANCH   5   8
ATOM      8  C   UNL     1      -0.531   3.001  -4.930  1.00  0.00     0.067 C 
ATOM      9  C   UNL     1       1.026  -0.005   0.246  1.00  0.00     0.044 C 
ATOM     10  C   UNL     1       0.480   0.155  -1.143  1.00  0.00    -0.050 A 
ATOM     11  C   UNL     1       0.118  -0.969  -1.896  1.00  0.00     0.010 A 
ATOM     12  C   UNL     1       0.375   1.429  -1.717  1.00  0.00     0.015 A 
ATOM     13  C   UNL     1      -0.372  -0.832  -3.201  1.00  0.00    -0.008 A 
ATOM     14  C   UNL     1      -0.106   1.582  -3.020  1.00  0.00     0.018 A 
ATOM     15  C   UNL     1      -0.767  -2.043  -3.997  1.00  0.00     0.048 C 
ATOM     16  C   UNL     1      -0.472   0.451  -3.754  1.00  0.00     0.130 A 
ATOM     17  C   UNL     1      -0.263   2.905  -3.614  1.00  0.00     0.025 C 
ATOM     18  O   UNL     1      -0.985   0.549  -5.019  1.00  0.00    -0.475 OA
ATOM     19  C   UNL     1      -0.651   1.753  -5.758  1.00  0.00     0.314 C 
BRANCH  19  20
ATOM     20  C   UNL     1       0.597   1.490  -6.622  1.00  0.00     0.429 C 
ATOM     21  F   UNL     1       0.324   0.565  -7.577  1.00  0.00    -0.167 F 
ATOM     22  F   UNL     1       1.016   2.599  -7.278  1.00  0.00    -0.167 F 
ATOM     23  F   UNL     1       1.649   1.036  -5.907  1.00  0.00    -0.167 F 
ENDBRANCH  19  20
ENDBRANCH   5   8
ENDBRANCH   3   4
ENDBRANCH   2   3
ENDBRANCH   1   2
BRANCH   1  24
ATOM     24  C   UNL     1      -2.840   5.536 -10.222  1.00  0.00     0.116 C 
BRANCH  24  25
ATOM     25  N   UNL     1      -2.900   4.376 -11.099  1.00  0.00    -0.352 N 
ATOM     26  C   UNL     1      -2.986   4.357 -12.470  1.00  0.00     0.251 C 
ATOM     27  H   UNL     1      -2.875   3.497 -10.656  1.00  0.00     0.163 HD
ATOM     28  O   UNL     1      -3.101   3.301 -13.082  1.00  0.00    -0.269 OA
BRANCH  26  29
ATOM     29  C   UNL     1      -2.986   5.641 -13.194  1.00  0.00     0.039 A 
ATOM     30  C   UNL     1      -4.065   5.942 -14.027  1.00  0.00     0.014 A 
ATOM     31  C   UNL     1      -1.962   6.568 -12.982  1.00  0.00     0.014 A 
ATOM     32  C   UNL     1      -4.157   7.212 -14.594  1.00  0.00     0.010 A 
ATOM     33  C   UNL     1      -2.084   7.851 -13.502  1.00  0.00     0.010 A 
ATOM     34  C   UNL     1      -3.188   8.186 -14.303  1.00  0.00    -0.014 A 
BRANCH  34  35
ATOM     35  C   UNL     1      -3.313   9.568 -14.820  1.00  0.00     0.031 A 
ATOM     36  C   UNL     1      -2.329  10.080 -15.830  1.00  0.00     0.074 A 
ATOM     37  C   UNL     1      -4.273  10.377 -14.334  1.00  0.00     0.049 A 
ATOM     38  N   UNL     1      -2.228  11.278 -16.346  1.00  0.00    -0.248 NA
ATOM     39  C   UNL     1      -1.314   9.128 -16.307  1.00  0.00     0.031 C 
ATOM     40  C   UNL     1      -5.272  10.002 -13.331  1.00  0.00     0.029 A 
ATOM     41  N   UNL     1      -4.563  11.686 -14.620  1.00  0.00    -0.354 N 
ATOM     42  C   UNL     1      -1.132  11.227 -17.197  1.00  0.00     0.074 A 
ATOM     43  C   UNL     1      -0.576   9.895 -17.096  1.00  0.00     0.031 C 
ATOM     44  C   UNL     1      -6.084  11.049 -13.109  1.00  0.00     0.029 A 
ATOM     45  C   UNL     1      -5.642  12.175 -13.924  1.00  0.00     0.049 A 
ATOM     46  H   UNL     1      -4.048  12.225 -15.263  1.00  0.00     0.167 HD
ATOM     47  C   UNL     1      -0.643  12.196 -18.005  1.00  0.00     0.031 A 
ATOM     48  C   UNL     1      -6.210  13.395 -13.942  1.00  0.00     0.031 A 
ATOM     49  C   UNL     1      -1.201  13.516 -18.115  1.00  0.00     0.049 A 
ATOM     50  C   UNL     1      -5.638  14.460 -14.834  1.00  0.00     0.074 A 
ATOM     51  C   UNL     1      -0.797  14.557 -18.931  1.00  0.00     0.029 A 
ATOM     52  N   UNL     1      -2.288  13.973 -17.387  1.00  0.00    -0.354 N 
ATOM     53  N   UNL     1      -4.619  14.387 -15.655  1.00  0.00    -0.248 NA
ATOM     54  C   UNL     1      -6.298  15.773 -14.804  1.00  0.00     0.031 C 
ATOM     55  C   UNL     1      -1.621  15.658 -18.673  1.00  0.00     0.029 A 
ATOM     56  C   UNL     1      -2.562  15.287 -17.727  1.00  0.00     0.049 A 
ATOM     57  H   UNL     1      -2.791  13.443 -16.727  1.00  0.00     0.167 HD
ATOM     58  C   UNL     1      -4.526  15.636 -16.253  1.00  0.00     0.074 A 
ATOM     59  C   UNL     1      -5.599  16.444 -15.710  1.00  0.00     0.031 C 
ATOM     60  C   UNL     1      -3.631  16.074 -17.171  1.00  0.00     0.031 A 
BRANCH  47  61
ATOM     61  C   UNL     1       0.559  11.855 -18.836  1.00  0.00    -0.014 A 
ATOM     62  C   UNL     1       0.448  11.004 -19.947  1.00  0.00     0.009 A 
ATOM     63  C   UNL     1       1.809  12.408 -18.522  1.00  0.00     0.009 A 
ATOM     64  C   UNL     1       1.574  10.690 -20.710  1.00  0.00     0.001 A 
ATOM     65  C   UNL     1       2.928  12.111 -19.302  1.00  0.00     0.001 A 
ATOM     66  C   UNL     1       2.811  11.246 -20.389  1.00  0.00     0.000 A 
ENDBRANCH  47  61
BRANCH  48  67
ATOM     67  C   UNL     1      -7.407  13.666 -13.107  1.00  0.00    -0.014 A 
ATOM     68  C   UNL     1      -8.674  13.759 -13.703  1.00  0.00     0.009 A 
ATOM     69  C   UNL     1      -7.295  13.816 -11.717  1.00  0.00     0.009 A 
ATOM     70  C   UNL     1      -9.804  14.014 -12.924  1.00  0.00     0.001 A 
ATOM     71  C   UNL     1      -8.430  14.050 -10.938  1.00  0.00     0.001 A 
ATOM     72  C   UNL     1      -9.682  14.154 -11.542  1.00  0.00     0.000 A 
ENDBRANCH  48  67
BRANCH  60  73
ATOM     73  C   UNL     1      -3.784  17.484 -17.662  1.00  0.00    -0.014 A 
ATOM     74  C   UNL     1      -3.383  18.571 -16.870  1.00  0.00     0.009 A 
ATOM     75  C   UNL     1      -4.275  17.722 -18.954  1.00  0.00     0.009 A 
ATOM     76  C   UNL     1      -3.491  19.874 -17.360  1.00  0.00     0.001 A 
ATOM     77  C   UNL     1      -4.361  19.024 -19.448  1.00  0.00     0.001 A 
ATOM     78  C   UNL     1      -3.974  20.099 -18.649  1.00  0.00     0.000 A 
ENDBRANCH  60  73
ENDBRANCH  34  35
ENDBRANCH  26  29
ENDBRANCH  24  25
ENDBRANCH   1  24
TORSDOF 12
