REMARK SMILES C[C@@H](C(=O)NCCCCNC(=O)c1ccc(-c2c3nc(c(-c4ccccc4)c4ccc([nH]4)c(-c4ccccc4)c4nc(c(-c5ccccc5)c5ccc2[nH]5)C=C4)C=C3)cc1)c1ccc(-c2ccccc2)c(F)c1
REMARK SMILES IDX 7 1 6 2 5 3 3 4 4 5 2 7 1 8 61 9 62 10 73 11 63 12 71 13
REMARK SMILES IDX 64 14 72 15 65 16 66 17 70 18 67 19 69 20 68 21 8 22 9 23
REMARK SMILES IDX 10 24 11 25 12 27 13 28 14 29 60 30 15 31 59 32 16 33 17 34
REMARK SMILES IDX 18 35 53 36 19 37 58 38 52 39 54 40 20 41 57 42 51 43 50 44
REMARK SMILES IDX 21 46 43 47 28 48 42 49 29 50 32 51 41 52 55 53 30 54 31 55
REMARK SMILES IDX 40 57 56 58 33 59 22 60 23 61 27 62 24 63 26 64 25 65 44 66
REMARK SMILES IDX 45 67 49 68 46 69 48 70 47 71 34 72 35 73 39 74 36 75 38 76
REMARK SMILES IDX 37 77
REMARK H PARENT 5 6 10 26 54 45 32 56
REMARK Flexibility Score: inf
ROOT
ATOM      1  C   UNL     1       4.302   0.808  -0.882  1.00  0.00     0.023 C 
ENDROOT
BRANCH   1   2
ATOM      2  C   UNL     1       3.446   1.847  -0.151  1.00  0.00     0.116 C 
BRANCH   2   3
ATOM      3  N   UNL     1       2.369   2.326  -0.995  1.00  0.00    -0.356 N 
ATOM      4  C   UNL     1       1.049   1.971  -1.028  1.00  0.00     0.227 C 
ATOM      5  O   UNL     1       0.379   2.431  -1.955  1.00  0.00    -0.274 OA
ATOM      6  H   UNL     1       2.629   3.017  -1.647  1.00  0.00     0.163 HD
BRANCH   4   7
ATOM      7  C   UNL     1       0.459   1.070   0.076  1.00  0.00     0.105 C 
ATOM      8  C   UNL     1       0.963  -0.369  -0.098  1.00  0.00     0.023 C 
BRANCH   7   9
ATOM      9  C   UNL     1      -1.070   1.162   0.165  1.00  0.00    -0.033 A 
ATOM     10  C   UNL     1      -1.694   2.414   0.307  1.00  0.00     0.005 A 
ATOM     11  C   UNL     1      -1.897   0.030   0.143  1.00  0.00     0.044 A 
ATOM     12  C   UNL     1      -3.090   2.528   0.390  1.00  0.00     0.012 A 
ATOM     13  C   UNL     1      -3.282   0.148   0.245  1.00  0.00     0.131 A 
ATOM     14  C   UNL     1      -3.911   1.391   0.361  1.00  0.00     0.017 A 
ATOM     15  F   UNL     1      -4.009  -0.981   0.217  1.00  0.00    -0.206 F 
BRANCH  14  16
ATOM     16  C   UNL     1      -5.374   1.494   0.437  1.00  0.00    -0.015 A 
ATOM     17  C   UNL     1      -6.098   2.218  -0.523  1.00  0.00     0.009 A 
ATOM     18  C   UNL     1      -6.090   0.836   1.451  1.00  0.00     0.009 A 
ATOM     19  C   UNL     1      -7.494   2.274  -0.476  1.00  0.00     0.001 A 
ATOM     20  C   UNL     1      -7.484   0.894   1.501  1.00  0.00     0.001 A 
ATOM     21  C   UNL     1      -8.186   1.611   0.535  1.00  0.00     0.000 A 
ENDBRANCH  14  16
ENDBRANCH   7   9
ENDBRANCH   4   7
ENDBRANCH   2   3
ENDBRANCH   1   2
BRANCH   1  22
ATOM     22  C   UNL     1       5.094   1.350  -2.072  1.00  0.00     0.023 C 
BRANCH  22  23
ATOM     23  C   UNL     1       6.106   2.433  -1.730  1.00  0.00     0.116 C 
BRANCH  23  24
ATOM     24  N   UNL     1       7.131   1.984  -0.799  1.00  0.00    -0.352 N 
ATOM     25  C   UNL     1       8.476   2.270  -0.815  1.00  0.00     0.251 C 
ATOM     26  H   UNL     1       6.823   1.403  -0.067  1.00  0.00     0.163 HD
ATOM     27  O   UNL     1       9.244   1.732  -0.026  1.00  0.00    -0.269 OA
BRANCH  25  28
ATOM     28  C   UNL     1       8.987   3.212  -1.829  1.00  0.00     0.039 A 
ATOM     29  C   UNL     1      10.032   2.810  -2.664  1.00  0.00     0.014 A 
ATOM     30  C   UNL     1       8.375   4.456  -1.998  1.00  0.00     0.014 A 
ATOM     31  C   UNL     1      10.413   3.628  -3.729  1.00  0.00     0.010 A 
ATOM     32  C   UNL     1       8.710   5.237  -3.096  1.00  0.00     0.010 A 
ATOM     33  C   UNL     1       9.725   4.826  -3.977  1.00  0.00    -0.014 A 
BRANCH  33  34
ATOM     34  C   UNL     1      10.025   5.677  -5.153  1.00  0.00     0.031 A 
ATOM     35  C   UNL     1      10.535   7.073  -4.947  1.00  0.00     0.074 A 
ATOM     36  C   UNL     1       9.714   5.245  -6.389  1.00  0.00     0.049 A 
ATOM     37  N   UNL     1      10.680   8.037  -5.819  1.00  0.00    -0.248 NA
ATOM     38  C   UNL     1      10.889   7.444  -3.568  1.00  0.00     0.031 C 
ATOM     39  C   UNL     1       9.169   3.926  -6.718  1.00  0.00     0.029 A 
ATOM     40  N   UNL     1       9.780   5.890  -7.599  1.00  0.00    -0.354 N 
ATOM     41  C   UNL     1      11.101   9.140  -5.088  1.00  0.00     0.074 A 
ATOM     42  C   UNL     1      11.157   8.735  -3.700  1.00  0.00     0.031 C 
ATOM     43  C   UNL     1       8.949   3.861  -8.041  1.00  0.00     0.029 A 
ATOM     44  C   UNL     1       9.297   5.143  -8.645  1.00  0.00     0.049 A 
ATOM     45  H   UNL     1      10.140   6.800  -7.707  1.00  0.00     0.167 HD
ATOM     46  C   UNL     1      11.417  10.379  -5.534  1.00  0.00     0.031 A 
ATOM     47  C   UNL     1       9.128   5.461  -9.942  1.00  0.00     0.031 A 
ATOM     48  C   UNL     1      11.385  10.773  -6.916  1.00  0.00     0.049 A 
ATOM     49  C   UNL     1       9.511   6.832 -10.421  1.00  0.00     0.074 A 
ATOM     50  C   UNL     1      11.765  11.978  -7.478  1.00  0.00     0.029 A 
ATOM     51  N   UNL     1      10.945   9.966  -7.954  1.00  0.00    -0.354 N 
ATOM     52  N   UNL     1       9.970   7.847  -9.730  1.00  0.00    -0.248 NA
ATOM     53  C   UNL     1       9.360   7.099 -11.859  1.00  0.00     0.031 C 
ATOM     54  C   UNL     1      11.518  11.915  -8.854  1.00  0.00     0.029 A 
ATOM     55  C   UNL     1      11.025  10.654  -9.152  1.00  0.00     0.049 A 
ATOM     56  H   UNL     1      10.623   9.041  -7.853  1.00  0.00     0.167 HD
ATOM     57  C   UNL     1      10.185   8.865 -10.650  1.00  0.00     0.074 A 
ATOM     58  C   UNL     1       9.812   8.342 -11.949  1.00  0.00     0.031 C 
ATOM     59  C   UNL     1      10.652  10.118 -10.435  1.00  0.00     0.031 A 
BRANCH  46  60
ATOM     60  C   UNL     1      11.804  11.399  -4.501  1.00  0.00    -0.014 A 
ATOM     61  C   UNL     1      13.021  11.310  -3.806  1.00  0.00     0.009 A 
ATOM     62  C   UNL     1      10.936  12.464  -4.217  1.00  0.00     0.009 A 
ATOM     63  C   UNL     1      13.338  12.240  -2.814  1.00  0.00     0.001 A 
ATOM     64  C   UNL     1      11.268  13.409  -3.245  1.00  0.00     0.001 A 
ATOM     65  C   UNL     1      12.462  13.289  -2.535  1.00  0.00     0.000 A 
ENDBRANCH  46  60
BRANCH  47  66
ATOM     66  C   UNL     1       8.572   4.452 -10.877  1.00  0.00    -0.014 A 
ATOM     67  C   UNL     1       9.410   3.785 -11.783  1.00  0.00     0.009 A 
ATOM     68  C   UNL     1       7.207   4.124 -10.843  1.00  0.00     0.009 A 
ATOM     69  C   UNL     1       8.890   2.817 -12.645  1.00  0.00     0.001 A 
ATOM     70  C   UNL     1       6.695   3.140 -11.692  1.00  0.00     0.001 A 
ATOM     71  C   UNL     1       7.535   2.492 -12.595  1.00  0.00     0.000 A 
ENDBRANCH  47  66
BRANCH  59  72
ATOM     72  C   UNL     1      10.822  11.005 -11.634  1.00  0.00    -0.014 A 
ATOM     73  C   UNL     1       9.718  11.612 -12.252  1.00  0.00     0.009 A 
ATOM     74  C   UNL     1      12.112  11.287 -12.111  1.00  0.00     0.009 A 
ATOM     75  C   UNL     1       9.903  12.470 -13.337  1.00  0.00     0.001 A 
ATOM     76  C   UNL     1      12.295  12.162 -13.181  1.00  0.00     0.001 A 
ATOM     77  C   UNL     1      11.190  12.749 -13.797  1.00  0.00     0.000 A 
ENDBRANCH  59  72
ENDBRANCH  33  34
ENDBRANCH  25  28
ENDBRANCH  23  24
ENDBRANCH  22  23
ENDBRANCH   1  22
TORSDOF 13
