REMARK SMILES O=C(NCCCCNC(=O)[C@H]1C[N@H+](Cc2ccc(Cl)c(Cl)c2)CC12CCCCC2)c1ccc(-c2c3nc(c(-c4ccccc4)c4ccc([nH]4)c(-c4ccccc4)c4nc(c(-c5ccccc5)c5ccc2[nH]5)C=C4)C=C3)cc1
REMARK SMILES IDX 5 1 4 2 3 3 1 4 2 5 30 7 31 8 77 9 32 10 76 11 33 12 34 13
REMARK SMILES IDX 35 14 70 15 36 16 75 17 69 18 71 19 37 20 74 21 68 22 67 23
REMARK SMILES IDX 38 25 60 26 45 27 59 28 46 29 49 30 58 31 72 32 47 33 48 34
REMARK SMILES IDX 57 36 73 37 50 38 39 39 40 40 44 41 41 42 43 43 42 44 61 45
REMARK SMILES IDX 62 46 66 47 63 48 65 49 64 50 51 51 52 52 56 53 53 54 55 55
REMARK SMILES IDX 54 56 6 57 7 58 8 59 9 60 10 62 11 63 12 64 24 65 13 66
REMARK SMILES IDX 23 67 25 68 29 69 26 71 28 72 27 73 14 74 15 75 16 76 22 77
REMARK SMILES IDX 17 78 20 79 18 80 21 81 19 82
REMARK H PARENT 3 6 71 24 49 35 8 61 13 70
REMARK Flexibility Score: inf
ROOT
ATOM      1  C   UNL     1       4.747  -2.584   0.429  1.00  0.00     0.023 C 
ENDROOT
BRANCH   1   2
ATOM      2  C   UNL     1       4.437  -1.284  -0.302  1.00  0.00     0.116 C 
BRANCH   2   3
ATOM      3  N   UNL     1       3.015  -1.041  -0.477  1.00  0.00    -0.352 N 
ATOM      4  O   UNL     1       1.044   0.029  -0.229  1.00  0.00    -0.269 OA
ATOM      5  C   UNL     1       2.256   0.043  -0.087  1.00  0.00     0.251 C 
ATOM      6  H   UNL     1       2.521  -1.754  -0.941  1.00  0.00     0.163 HD
BRANCH   5   7
ATOM      7  C   UNL     1       2.917   1.206   0.548  1.00  0.00     0.039 A 
ATOM      8  C   UNL     1       4.084   1.750   0.010  1.00  0.00     0.014 A 
ATOM      9  C   UNL     1       2.373   1.735   1.722  1.00  0.00     0.014 A 
ATOM     10  C   UNL     1       4.805   2.688   0.741  1.00  0.00     0.010 A 
ATOM     11  C   UNL     1       3.053   2.747   2.407  1.00  0.00     0.010 A 
ATOM     12  C   UNL     1       4.302   3.194   1.951  1.00  0.00    -0.014 A 
BRANCH  12  13
ATOM     13  C   UNL     1       5.098   4.193   2.709  1.00  0.00     0.031 A 
ATOM     14  C   UNL     1       5.648   3.878   4.075  1.00  0.00     0.074 A 
ATOM     15  C   UNL     1       5.369   5.382   2.136  1.00  0.00     0.049 A 
ATOM     16  N   UNL     1       6.407   4.616   4.848  1.00  0.00    -0.248 NA
ATOM     17  C   UNL     1       5.296   2.572   4.655  1.00  0.00     0.031 C 
ATOM     18  C   UNL     1       4.897   5.811   0.818  1.00  0.00     0.029 A 
ATOM     19  N   UNL     1       6.131   6.435   2.575  1.00  0.00    -0.354 N 
ATOM     20  C   UNL     1       6.598   3.881   6.011  1.00  0.00     0.074 A 
ATOM     21  C   UNL     1       5.860   2.646   5.854  1.00  0.00     0.031 C 
ATOM     22  C   UNL     1       5.431   7.006   0.527  1.00  0.00     0.029 A 
ATOM     23  C   UNL     1       6.231   7.454   1.661  1.00  0.00     0.049 A 
ATOM     24  H   UNL     1       6.563   6.457   3.459  1.00  0.00     0.167 HD
ATOM     25  C   UNL     1       7.324   4.201   7.110  1.00  0.00     0.031 A 
ATOM     26  C   UNL     1       6.892   8.624   1.724  1.00  0.00     0.031 A 
ATOM     27  C   UNL     1       8.073   5.421   7.264  1.00  0.00     0.049 A 
ATOM     28  C   UNL     1       7.679   8.958   2.955  1.00  0.00     0.074 A 
ATOM     29  C   UNL     1       8.871   5.816   8.325  1.00  0.00     0.029 A 
ATOM     30  N   UNL     1       8.117   6.444   6.330  1.00  0.00    -0.354 N 
ATOM     31  N   UNL     1       7.873   8.236   4.032  1.00  0.00    -0.248 NA
ATOM     32  C   UNL     1       8.342  10.269   2.977  1.00  0.00     0.031 C 
ATOM     33  C   UNL     1       9.361   7.098   8.052  1.00  0.00     0.029 A 
ATOM     34  C   UNL     1       8.910   7.479   6.798  1.00  0.00     0.049 A 
ATOM     35  H   UNL     1       7.653   6.436   5.462  1.00  0.00     0.167 HD
ATOM     36  C   UNL     1       8.698   8.995   4.850  1.00  0.00     0.074 A 
ATOM     37  C   UNL     1       8.980  10.225   4.138  1.00  0.00     0.031 C 
ATOM     38  C   UNL     1       9.181   8.697   6.081  1.00  0.00     0.031 A 
BRANCH  25  39
ATOM     39  C   UNL     1       7.317   3.226   8.255  1.00  0.00    -0.014 A 
ATOM     40  C   UNL     1       8.011   2.008   8.187  1.00  0.00     0.009 A 
ATOM     41  C   UNL     1       6.633   3.551   9.438  1.00  0.00     0.009 A 
ATOM     42  C   UNL     1       7.992   1.121   9.266  1.00  0.00     0.001 A 
ATOM     43  C   UNL     1       6.637   2.674  10.525  1.00  0.00     0.001 A 
ATOM     44  C   UNL     1       7.309   1.456  10.435  1.00  0.00     0.000 A 
ENDBRANCH  25  39
BRANCH  26  45
ATOM     45  C   UNL     1       6.843   9.560   0.572  1.00  0.00    -0.014 A 
ATOM     46  C   UNL     1       7.977   9.760  -0.230  1.00  0.00     0.009 A 
ATOM     47  C   UNL     1       5.659  10.246   0.260  1.00  0.00     0.009 A 
ATOM     48  C   UNL     1       7.930  10.642  -1.311  1.00  0.00     0.001 A 
ATOM     49  C   UNL     1       5.607  11.105  -0.838  1.00  0.00     0.001 A 
ATOM     50  C   UNL     1       6.745  11.309  -1.617  1.00  0.00     0.000 A 
ENDBRANCH  26  45
BRANCH  38  51
ATOM     51  C   UNL     1      10.096   9.705   6.714  1.00  0.00    -0.014 A 
ATOM     52  C   UNL     1       9.605  10.915   7.227  1.00  0.00     0.009 A 
ATOM     53  C   UNL     1      11.468   9.429   6.812  1.00  0.00     0.009 A 
ATOM     54  C   UNL     1      10.478  11.847   7.792  1.00  0.00     0.001 A 
ATOM     55  C   UNL     1      12.335  10.350   7.402  1.00  0.00     0.001 A 
ATOM     56  C   UNL     1      11.841  11.562   7.881  1.00  0.00     0.000 A 
ENDBRANCH  38  51
ENDBRANCH  12  13
ENDBRANCH   5   7
ENDBRANCH   2   3
ENDBRANCH   1   2
BRANCH   1  57
ATOM     57  C   UNL     1       4.323  -3.863  -0.286  1.00  0.00     0.023 C 
BRANCH  57  58
ATOM     58  C   UNL     1       4.744  -3.975  -1.748  1.00  0.00     0.116 C 
BRANCH  58  59
ATOM     59  N   UNL     1       6.164  -3.772  -1.961  1.00  0.00    -0.356 N 
ATOM     60  C   UNL     1       7.070  -4.509  -2.673  1.00  0.00     0.229 C 
ATOM     61  H   UNL     1       6.537  -2.974  -1.522  1.00  0.00     0.163 HD
ATOM     62  O   UNL     1       8.190  -4.020  -2.800  1.00  0.00    -0.275 OA
BRANCH  60  63
ATOM     63  C   UNL     1       6.641  -5.852  -3.259  1.00  0.00     0.145 C 
ATOM     64  C   UNL     1       5.698  -5.610  -4.439  1.00  0.00     0.276 C 
ATOM     65  C   UNL     1       7.702  -6.867  -3.810  1.00  0.00     0.037 C 
ATOM     66  N   UNL     1       5.704  -6.831  -5.227  1.00  0.00    -0.330 N 
ATOM     67  C   UNL     1       7.060  -7.363  -5.144  1.00  0.00     0.270 C 
ATOM     68  C   UNL     1       9.117  -6.300  -4.083  1.00  0.00     0.014 C 
ATOM     69  C   UNL     1       7.892  -8.020  -2.788  1.00  0.00     0.014 C 
ATOM     70  H   UNL     1       5.482  -6.611  -6.198  1.00  0.00     0.348 HD
ATOM     71  C   UNL     1      10.107  -7.360  -4.582  1.00  0.00     0.001 C 
ATOM     72  C   UNL     1       8.848  -9.113  -3.266  1.00  0.00     0.001 C 
ATOM     73  C   UNL     1      10.212  -8.540  -3.620  1.00  0.00     0.000 C 
BRANCH  66  74
ATOM     74  C   UNL     1       4.588  -7.763  -5.057  1.00  0.00     0.299 C 
BRANCH  74  75
ATOM     75  C   UNL     1       4.524  -8.580  -3.784  1.00  0.00     0.008 A 
ATOM     76  C   UNL     1       4.022  -8.035  -2.594  1.00  0.00     0.011 A 
ATOM     77  C   UNL     1       4.990  -9.906  -3.768  1.00  0.00     0.031 A 
ATOM     78  C   UNL     1       4.081  -8.755  -1.397  1.00  0.00     0.022 A 
ATOM     79  C   UNL     1       5.030 -10.640  -2.575  1.00  0.00     0.060 A 
ATOM     80  C   UNL     1       4.598 -10.053  -1.382  1.00  0.00     0.059 A 
ATOM     81  Cl  UNL     1       5.665 -12.245  -2.640  1.00  0.00    -0.083 Cl
ATOM     82  Cl  UNL     1       4.698 -10.860   0.142  1.00  0.00    -0.083 Cl
ENDBRANCH  74  75
ENDBRANCH  66  74
ENDBRANCH  60  63
ENDBRANCH  58  59
ENDBRANCH  57  58
ENDBRANCH   1  57
TORSDOF 13
