REMARK SMILES COc1ccc(-n2c(SCc3cn(-c4ccc(C(=O)NCCCCNC(=O)c5ccc(-c6c7nc(c(-c8ccccc8)c8ccc([nH]8)c(-c8ccccc8)c8nc(c(-c9ccccc9)c9ccc6[nH]9)C=C8)C=C7)cc5)cc4)nn3)nc3ccccc3c2=O)cc1
REMARK SMILES IDX 18 1 19 2 20 3 17 5 14 6 15 7 77 8 16 9 76 10 13 11 11 12
REMARK SMILES IDX 12 13 79 14 78 15 10 16 9 17 8 18 7 19 87 20 80 21 86 22
REMARK SMILES IDX 88 23 81 24 85 25 82 26 84 27 83 28 6 29 3 30 4 31 90 32
REMARK SMILES IDX 5 33 89 34 2 35 1 36 21 37 22 38 23 39 24 40 25 41 26 42
REMARK SMILES IDX 27 44 28 45 29 46 75 47 30 48 74 49 31 50 32 51 33 52 68 53
REMARK SMILES IDX 34 54 73 55 67 56 69 57 35 58 72 59 66 60 65 61 36 63 58 64
REMARK SMILES IDX 43 65 57 66 44 67 47 68 56 69 70 70 45 71 46 72 55 74 71 75
REMARK SMILES IDX 48 76 37 77 38 78 42 79 39 80 41 81 40 82 59 83 60 84 64 85
REMARK SMILES IDX 61 86 63 87 62 88 49 89 50 90 54 91 51 92 53 93 52 94
REMARK H PARENT 20 4 25 43 69 62 47 73
REMARK Flexibility Score: inf
ROOT
ATOM      1  C   UNL     1      -2.002  -0.770   5.822  1.00  0.00     0.251 C 
ATOM      2  O   UNL     1      -3.229  -0.679   5.823  1.00  0.00    -0.269 OA
ATOM      3  N   UNL     1      -1.431  -1.762   6.582  1.00  0.00    -0.352 N 
ATOM      4  H   UNL     1      -2.079  -2.273   7.119  1.00  0.00     0.163 HD
ENDROOT
BRANCH   1   5
ATOM      5  C   UNL     1      -1.207   0.146   4.965  1.00  0.00     0.039 A 
ATOM      6  C   UNL     1       0.248   1.699   3.208  1.00  0.00     0.066 A 
ATOM      7  C   UNL     1      -1.135   1.662   3.064  1.00  0.00     0.029 A 
ATOM      8  C   UNL     1       0.905   1.057   4.247  1.00  0.00     0.029 A 
ATOM      9  C   UNL     1      -1.859   0.840   3.928  1.00  0.00     0.016 A 
ATOM     10  C   UNL     1       0.158   0.350   5.154  1.00  0.00     0.016 A 
BRANCH   6  11
ATOM     11  N   UNL     1       1.040   2.515   2.417  1.00  0.00    -0.220 N 
ATOM     12  C   UNL     1       2.908   3.437   1.869  1.00  0.00     0.093 A 
ATOM     13  C   UNL     1       2.310   2.216   2.000  1.00  0.00     0.141 A 
ATOM     14  N   UNL     1       1.994   4.408   2.193  1.00  0.00    -0.134 NA
ATOM     15  N   UNL     1       0.829   3.837   2.422  1.00  0.00    -0.062 NA
BRANCH  12  16
ATOM     16  C   UNL     1       4.279   3.735   1.434  1.00  0.00     0.138 C 
BRANCH  16  17
ATOM     17  S   UNL     1       4.714   5.453   1.581  1.00  0.00    -0.081 SA
BRANCH  17  18
ATOM     18  C   UNL     1       3.254   6.319   0.929  1.00  0.00     0.176 A 
ATOM     19  N   UNL     1       3.093   6.159  -0.436  1.00  0.00    -0.255 N 
ATOM     20  C   UNL     1       3.653   7.153  -1.229  1.00  0.00     0.266 A 
ATOM     21  N   UNL     1       3.063   7.496   1.450  1.00  0.00    -0.223 NA
ATOM     22  C   UNL     1       4.414   8.181  -0.440  1.00  0.00     0.066 A 
ATOM     23  O   UNL     1       3.613   7.220  -2.452  1.00  0.00    -0.268 OA
ATOM     24  C   UNL     1       4.007   8.380   0.895  1.00  0.00     0.079 A 
ATOM     25  C   UNL     1       5.639   8.671  -0.875  1.00  0.00     0.016 A 
ATOM     26  C   UNL     1       4.772   9.154   1.765  1.00  0.00     0.029 A 
ATOM     27  C   UNL     1       6.450   9.362   0.033  1.00  0.00     0.001 A 
ATOM     28  C   UNL     1       6.010   9.624   1.337  1.00  0.00     0.002 A 
BRANCH  19  29
ATOM     29  C   UNL     1       2.267   5.120  -0.949  1.00  0.00     0.052 A 
ATOM     30  C   UNL     1       0.830   2.723  -1.279  1.00  0.00     0.119 A 
ATOM     31  C   UNL     1       0.185   3.860  -0.797  1.00  0.00     0.048 A 
ATOM     32  C   UNL     1       2.144   2.824  -1.734  1.00  0.00     0.048 A 
ATOM     33  C   UNL     1       0.909   5.047  -0.601  1.00  0.00     0.030 A 
ATOM     34  C   UNL     1       2.852   4.030  -1.600  1.00  0.00     0.030 A 
BRANCH  30  35
ATOM     35  O   UNL     1       0.110   1.561  -1.342  1.00  0.00    -0.497 OA
ATOM     36  C   UNL     1       0.700   0.464  -0.640  1.00  0.00     0.278 C 
ENDBRANCH  30  35
ENDBRANCH  19  29
ENDBRANCH  17  18
ENDBRANCH  16  17
ENDBRANCH  12  16
ENDBRANCH   6  11
ENDBRANCH   1   5
BRANCH   3  37
ATOM     37  C   UNL     1      -0.057  -2.205   6.748  1.00  0.00     0.116 C 
BRANCH  37  38
ATOM     38  C   UNL     1       0.641  -1.519   7.935  1.00  0.00     0.023 C 
BRANCH  38  39
ATOM     39  C   UNL     1       0.259  -2.043   9.320  1.00  0.00     0.023 C 
BRANCH  39  40
ATOM     40  C   UNL     1       0.710  -3.466   9.615  1.00  0.00     0.116 C 
BRANCH  40  41
ATOM     41  N   UNL     1       2.168  -3.632   9.583  1.00  0.00    -0.352 N 
ATOM     42  C   UNL     1       2.895  -4.809   9.449  1.00  0.00     0.251 C 
ATOM     43  H   UNL     1       2.698  -2.806   9.667  1.00  0.00     0.163 HD
ATOM     44  O   UNL     1       4.045  -4.902   9.833  1.00  0.00    -0.269 OA
BRANCH  42  45
ATOM     45  C   UNL     1       2.236  -5.938   8.771  1.00  0.00     0.039 A 
ATOM     46  C   UNL     1       2.320  -7.259   9.213  1.00  0.00     0.014 A 
ATOM     47  C   UNL     1       1.451  -5.598   7.679  1.00  0.00     0.014 A 
ATOM     48  C   UNL     1       1.538  -8.220   8.572  1.00  0.00     0.010 A 
ATOM     49  C   UNL     1       0.508  -6.474   7.238  1.00  0.00     0.010 A 
ATOM     50  C   UNL     1       0.625  -7.808   7.589  1.00  0.00    -0.014 A 
BRANCH  50  51
ATOM     51  C   UNL     1      -0.292  -8.723   6.931  1.00  0.00     0.031 A 
ATOM     52  C   UNL     1      -1.186  -9.467   7.849  1.00  0.00     0.074 A 
ATOM     53  C   UNL     1      -0.494  -8.701   5.594  1.00  0.00     0.049 A 
ATOM     54  N   UNL     1      -1.146 -10.726   8.122  1.00  0.00    -0.248 NA
ATOM     55  C   UNL     1      -2.146  -8.707   8.666  1.00  0.00     0.031 C 
ATOM     56  C   UNL     1       0.055  -7.777   4.590  1.00  0.00     0.029 A 
ATOM     57  N   UNL     1      -1.360  -9.442   4.859  1.00  0.00    -0.354 N 
ATOM     58  C   UNL     1      -2.210 -10.965   8.983  1.00  0.00     0.074 A 
ATOM     59  C   UNL     1      -2.658  -9.671   9.435  1.00  0.00     0.031 C 
ATOM     60  C   UNL     1      -0.679  -7.849   3.456  1.00  0.00     0.029 A 
ATOM     61  C   UNL     1      -1.620  -8.944   3.589  1.00  0.00     0.049 A 
ATOM     62  H   UNL     1      -1.772 -10.269   5.199  1.00  0.00     0.167 HD
ATOM     63  C   UNL     1      -2.803 -12.189   9.045  1.00  0.00     0.031 A 
ATOM     64  C   UNL     1      -2.571  -9.385   2.728  1.00  0.00     0.031 A 
ATOM     65  C   UNL     1      -2.013 -13.194   8.374  1.00  0.00     0.049 A 
ATOM     66  C   UNL     1      -2.942 -10.756   3.159  1.00  0.00     0.074 A 
ATOM     67  C   UNL     1      -0.723 -13.666   8.517  1.00  0.00     0.029 A 
ATOM     68  N   UNL     1      -2.405 -13.554   7.104  1.00  0.00    -0.354 N 
ATOM     69  N   UNL     1      -2.116 -11.763   3.112  1.00  0.00    -0.248 NA
ATOM     70  C   UNL     1      -4.041 -10.893   4.103  1.00  0.00     0.031 C 
ATOM     71  C   UNL     1      -0.242 -13.812   7.181  1.00  0.00     0.029 A 
ATOM     72  C   UNL     1      -1.289 -13.514   6.307  1.00  0.00     0.049 A 
ATOM     73  H   UNL     1      -3.316 -13.796   6.821  1.00  0.00     0.167 HD
ATOM     74  C   UNL     1      -2.316 -12.440   4.308  1.00  0.00     0.074 A 
ATOM     75  C   UNL     1      -3.575 -11.910   4.836  1.00  0.00     0.031 C 
ATOM     76  C   UNL     1      -1.307 -13.139   4.909  1.00  0.00     0.031 A 
BRANCH  63  77
ATOM     77  C   UNL     1      -4.271 -12.396   9.321  1.00  0.00    -0.014 A 
ATOM     78  C   UNL     1      -4.758 -13.713   9.403  1.00  0.00     0.009 A 
ATOM     79  C   UNL     1      -5.231 -11.371   9.219  1.00  0.00     0.009 A 
ATOM     80  C   UNL     1      -6.126 -13.990   9.302  1.00  0.00     0.001 A 
ATOM     81  C   UNL     1      -6.600 -11.642   9.161  1.00  0.00     0.001 A 
ATOM     82  C   UNL     1      -7.045 -12.955   9.171  1.00  0.00     0.000 A 
ENDBRANCH  63  77
BRANCH  64  83
ATOM     83  C   UNL     1      -3.383  -8.595   1.774  1.00  0.00    -0.014 A 
ATOM     84  C   UNL     1      -4.115  -9.220   0.753  1.00  0.00     0.009 A 
ATOM     85  C   UNL     1      -3.657  -7.238   2.035  1.00  0.00     0.009 A 
ATOM     86  C   UNL     1      -5.109  -8.524   0.046  1.00  0.00     0.001 A 
ATOM     87  C   UNL     1      -4.647  -6.543   1.330  1.00  0.00     0.001 A 
ATOM     88  C   UNL     1      -5.383  -7.191   0.345  1.00  0.00     0.000 A 
ENDBRANCH  64  83
BRANCH  76  89
ATOM     89  C   UNL     1      -0.011 -13.324   4.152  1.00  0.00    -0.014 A 
ATOM     90  C   UNL     1       0.799 -12.253   3.733  1.00  0.00     0.009 A 
ATOM     91  C   UNL     1       0.492 -14.626   4.013  1.00  0.00     0.009 A 
ATOM     92  C   UNL     1       2.062 -12.482   3.171  1.00  0.00     0.001 A 
ATOM     93  C   UNL     1       1.760 -14.854   3.471  1.00  0.00     0.001 A 
ATOM     94  C   UNL     1       2.542 -13.783   3.046  1.00  0.00     0.000 A 
ENDBRANCH  76  89
ENDBRANCH  50  51
ENDBRANCH  42  45
ENDBRANCH  40  41
ENDBRANCH  39  40
ENDBRANCH  38  39
ENDBRANCH  37  38
ENDBRANCH   3  37
TORSDOF 17
