REMARK SMILES CC(C)[NH2+][C@@]1(C(=O)NCCCCNC(=O)c2ccc(-c3c4nc(c(-c5ccccc5)c5ccc([nH]5)c(-c5ccccc5)c5nc(c(-c6ccccc6)c6ccc3[nH]6)C=C5)C=C4)cc2)CC[C@@H](Sc2ccncc2)C1
REMARK SMILES IDX 10 1 9 2 8 3 6 4 7 5 5 7 64 8 74 9 65 10 66 11 4 12 2 15
REMARK SMILES IDX 1 16 3 17 67 18 68 19 69 20 73 21 70 22 72 23 71 24 11 25
REMARK SMILES IDX 12 26 13 27 14 28 15 30 16 31 17 32 63 33 18 34 62 35 19 36
REMARK SMILES IDX 20 37 21 38 56 39 22 40 61 41 55 42 57 43 23 44 60 45 54 46
REMARK SMILES IDX 53 47 24 49 46 50 31 51 45 52 32 53 35 54 44 55 58 56 33 57
REMARK SMILES IDX 34 58 43 60 59 61 36 62 25 63 26 64 30 65 27 66 29 67 28 68
REMARK SMILES IDX 47 69 48 70 52 71 49 72 51 73 50 74 37 75 38 76 42 77 39 78
REMARK SMILES IDX 41 79 40 80
REMARK H PARENT 8 6 4 13 4 14 13 29 57 48 35 59
REMARK Flexibility Score: inf
ROOT
ATOM      1  C   UNL     1      -3.369   2.594  -5.620  1.00  0.00     0.023 C 
ENDROOT
BRANCH   1   2
ATOM      2  C   UNL     1      -3.606   3.028  -4.173  1.00  0.00     0.116 C 
BRANCH   2   3
ATOM      3  N   UNL     1      -3.676   1.881  -3.305  1.00  0.00    -0.351 N 
ATOM      4  C   UNL     1      -2.741   1.208  -2.596  1.00  0.00     0.281 C 
ATOM      5  O   UNL     1      -3.139   0.126  -2.130  1.00  0.00    -0.268 OA
ATOM      6  H   UNL     1      -4.585   1.515  -3.208  1.00  0.00     0.163 HD
BRANCH   4   7
ATOM      7  C   UNL     1      -1.239   1.670  -2.339  1.00  0.00     0.176 C 
ATOM      8  C   UNL     1      -1.150   3.099  -1.772  1.00  0.00     0.080 C 
ATOM      9  C   UNL     1      -0.391   1.676  -3.625  1.00  0.00     0.094 C 
ATOM     10  C   UNL     1      -0.461   3.992  -2.806  1.00  0.00     0.022 C 
ATOM     11  C   UNL     1      -0.203   3.134  -4.040  1.00  0.00     0.058 C 
BRANCH   7  12
ATOM     12  N   UNL     1      -0.793   0.743  -1.259  1.00  0.00    -0.332 N 
ATOM     13  H   UNL     1      -1.069   1.175  -0.377  1.00  0.00     0.347 HD
ATOM     14  H   UNL     1      -1.232  -0.137  -1.532  1.00  0.00     0.347 HD
BRANCH  12  15
ATOM     15  C   UNL     1       0.602   0.362  -1.109  1.00  0.00     0.176 C 
ATOM     16  C   UNL     1       0.826   0.042   0.372  1.00  0.00     0.075 C 
ATOM     17  C   UNL     1       0.964  -0.881  -1.930  1.00  0.00     0.075 C 
ENDBRANCH  12  15
ENDBRANCH   7  12
BRANCH  11  18
ATOM     18  S   UNL     1       1.354   3.462  -4.970  1.00  0.00    -0.122 SA
BRANCH  18  19
ATOM     19  C   UNL     1       2.550   3.670  -3.667  1.00  0.00     0.011 A 
ATOM     20  C   UNL     1       3.086   2.579  -2.992  1.00  0.00     0.035 A 
ATOM     21  C   UNL     1       2.967   4.954  -3.319  1.00  0.00     0.035 A 
ATOM     22  C   UNL     1       3.961   2.820  -1.946  1.00  0.00     0.112 A 
ATOM     23  C   UNL     1       3.853   5.092  -2.265  1.00  0.00     0.112 A 
ATOM     24  N   UNL     1       4.349   4.053  -1.562  1.00  0.00    -0.265 NA
ENDBRANCH  18  19
ENDBRANCH  11  18
ENDBRANCH   4   7
ENDBRANCH   2   3
ENDBRANCH   1   2
BRANCH   1  25
ATOM     25  C   UNL     1      -4.647   2.287  -6.400  1.00  0.00     0.023 C 
BRANCH  25  26
ATOM     26  C   UNL     1      -5.597   3.469  -6.552  1.00  0.00     0.116 C 
BRANCH  26  27
ATOM     27  N   UNL     1      -4.976   4.657  -7.122  1.00  0.00    -0.352 N 
ATOM     28  C   UNL     1      -5.580   5.660  -7.842  1.00  0.00     0.251 C 
ATOM     29  H   UNL     1      -4.007   4.753  -6.973  1.00  0.00     0.163 HD
ATOM     30  O   UNL     1      -4.925   6.573  -8.329  1.00  0.00    -0.269 OA
BRANCH  28  31
ATOM     31  C   UNL     1      -7.035   5.581  -8.062  1.00  0.00     0.039 A 
ATOM     32  C   UNL     1      -7.519   5.588  -9.371  1.00  0.00     0.014 A 
ATOM     33  C   UNL     1      -7.898   5.398  -6.979  1.00  0.00     0.014 A 
ATOM     34  C   UNL     1      -8.870   5.333  -9.600  1.00  0.00     0.010 A 
ATOM     35  C   UNL     1      -9.226   5.069  -7.213  1.00  0.00     0.010 A 
ATOM     36  C   UNL     1      -9.723   5.030  -8.525  1.00  0.00    -0.014 A 
BRANCH  36  37
ATOM     37  C   UNL     1     -11.141   4.664  -8.748  1.00  0.00     0.031 A 
ATOM     38  C   UNL     1     -12.233   5.548  -8.220  1.00  0.00     0.074 A 
ATOM     39  C   UNL     1     -11.442   3.502  -9.357  1.00  0.00     0.049 A 
ATOM     40  N   UNL     1     -13.529   5.372  -8.261  1.00  0.00    -0.248 NA
ATOM     41  C   UNL     1     -11.812   6.777  -7.528  1.00  0.00     0.031 C 
ATOM     42  C   UNL     1     -10.471   2.536  -9.877  1.00  0.00     0.029 A 
ATOM     43  N   UNL     1     -12.659   2.935  -9.640  1.00  0.00    -0.354 N 
ATOM     44  C   UNL     1     -14.075   6.453  -7.581  1.00  0.00     0.074 A 
ATOM     45  C   UNL     1     -12.970   7.249  -7.093  1.00  0.00     0.031 C 
ATOM     46  C   UNL     1     -11.131   1.518 -10.453  1.00  0.00     0.029 A 
ATOM     47  C   UNL     1     -12.566   1.740 -10.309  1.00  0.00     0.049 A 
ATOM     48  H   UNL     1     -13.517   3.346  -9.387  1.00  0.00     0.167 HD
ATOM     49  C   UNL     1     -15.378   6.767  -7.396  1.00  0.00     0.031 A 
ATOM     50  C   UNL     1     -13.531   0.918 -10.762  1.00  0.00     0.031 A 
ATOM     51  C   UNL     1     -16.476   5.986  -7.896  1.00  0.00     0.049 A 
ATOM     52  C   UNL     1     -14.971   1.283 -10.537  1.00  0.00     0.074 A 
ATOM     53  C   UNL     1     -17.831   6.254  -7.822  1.00  0.00     0.029 A 
ATOM     54  N   UNL     1     -16.340   4.779  -8.565  1.00  0.00    -0.354 N 
ATOM     55  N   UNL     1     -15.473   2.343  -9.951  1.00  0.00    -0.248 NA
ATOM     56  C   UNL     1     -15.976   0.339 -11.044  1.00  0.00     0.031 C 
ATOM     57  C   UNL     1     -18.518   5.186  -8.411  1.00  0.00     0.029 A 
ATOM     58  C   UNL     1     -17.588   4.277  -8.890  1.00  0.00     0.049 A 
ATOM     59  H   UNL     1     -15.483   4.344  -8.777  1.00  0.00     0.167 HD
ATOM     60  C   UNL     1     -16.852   2.208 -10.044  1.00  0.00     0.074 A 
ATOM     61  C   UNL     1     -17.106   0.968 -10.749  1.00  0.00     0.031 C 
ATOM     62  C   UNL     1     -17.820   3.040  -9.590  1.00  0.00     0.031 A 
BRANCH  49  63
ATOM     63  C   UNL     1     -15.672   8.012  -6.606  1.00  0.00    -0.014 A 
ATOM     64  C   UNL     1     -15.396   9.286  -7.128  1.00  0.00     0.009 A 
ATOM     65  C   UNL     1     -16.223   7.908  -5.320  1.00  0.00     0.009 A 
ATOM     66  C   UNL     1     -15.617  10.429  -6.357  1.00  0.00     0.001 A 
ATOM     67  C   UNL     1     -16.472   9.055  -4.563  1.00  0.00     0.001 A 
ATOM     68  C   UNL     1     -16.156  10.312  -5.076  1.00  0.00     0.000 A 
ENDBRANCH  49  63
BRANCH  50  69
ATOM     69  C   UNL     1     -13.169  -0.308 -11.516  1.00  0.00    -0.014 A 
ATOM     70  C   UNL     1     -13.364  -0.360 -12.905  1.00  0.00     0.009 A 
ATOM     71  C   UNL     1     -12.623  -1.423 -10.863  1.00  0.00     0.009 A 
ATOM     72  C   UNL     1     -13.037  -1.512 -13.623  1.00  0.00     0.001 A 
ATOM     73  C   UNL     1     -12.276  -2.566 -11.587  1.00  0.00     0.001 A 
ATOM     74  C   UNL     1     -12.489  -2.612 -12.964  1.00  0.00     0.000 A 
ENDBRANCH  50  69
BRANCH  62  75
ATOM     75  C   UNL     1     -19.242   2.651  -9.873  1.00  0.00    -0.014 A 
ATOM     76  C   UNL     1     -19.867   1.613  -9.164  1.00  0.00     0.009 A 
ATOM     77  C   UNL     1     -19.977   3.358 -10.837  1.00  0.00     0.009 A 
ATOM     78  C   UNL     1     -21.193   1.274  -9.437  1.00  0.00     0.001 A 
ATOM     79  C   UNL     1     -21.310   3.033 -11.089  1.00  0.00     0.001 A 
ATOM     80  C   UNL     1     -21.914   1.986 -10.395  1.00  0.00     0.000 A 
ENDBRANCH  62  75
ENDBRANCH  36  37
ENDBRANCH  28  31
ENDBRANCH  26  27
ENDBRANCH  25  26
ENDBRANCH   1  25
TORSDOF 15
