REMARK SMILES C[C@]([NH3+])(Cc1ccc(I)cc1)C(=O)NCCCCNC(=O)c1ccc(-c2c3nc(c(-c4ccccc4)c4ccc([nH]4)c(-c4ccccc4)c4nc(c(-c5ccccc5)c5ccc2[nH]5)C=C4)C=C3)cc1
REMARK SMILES IDX 16 1 15 2 14 3 12 4 13 5 2 7 1 8 4 9 5 10 6 11 11 12 7 13
REMARK SMILES IDX 10 14 8 15 9 16 3 17 17 21 18 22 19 23 20 24 21 26 22 27
REMARK SMILES IDX 23 28 69 29 24 30 68 31 25 32 26 33 27 34 62 35 28 36 67 37
REMARK SMILES IDX 61 38 63 39 29 40 66 41 60 42 59 43 30 45 52 46 37 47 51 48
REMARK SMILES IDX 38 49 41 50 50 51 64 52 39 53 40 54 49 56 65 57 42 58 31 59
REMARK SMILES IDX 32 60 36 61 33 62 35 63 34 64 53 65 54 66 58 67 55 68 57 69
REMARK SMILES IDX 56 70 43 71 44 72 48 73 45 74 47 75 46 76
REMARK H PARENT 14 6 3 18 3 19 3 20 19 25 63 44 41 55
REMARK Flexibility Score: inf
ROOT
ATOM      1  C   UNL     1      -1.530   4.726  -0.983  1.00  0.00     0.023 C 
ENDROOT
BRANCH   1   2
ATOM      2  C   UNL     1      -0.235   4.062  -1.446  1.00  0.00     0.116 C 
BRANCH   2   3
ATOM      3  N   UNL     1       0.639   3.667  -0.355  1.00  0.00    -0.351 N 
ATOM      4  C   UNL     1       1.094   2.446   0.056  1.00  0.00     0.281 C 
ATOM      5  O   UNL     1       2.009   2.465   0.890  1.00  0.00    -0.268 OA
ATOM      6  H   UNL     1       0.964   4.420   0.190  1.00  0.00     0.163 HD
BRANCH   4   7
ATOM      7  C   UNL     1       0.556   1.101  -0.530  1.00  0.00     0.175 C 
ATOM      8  C   UNL     1       1.016   0.961  -1.994  1.00  0.00     0.090 C 
BRANCH   7   9
ATOM      9  C   UNL     1      -0.983   0.965  -0.374  1.00  0.00     0.114 C 
BRANCH   9  10
ATOM     10  C   UNL     1      -1.509   0.883   1.051  1.00  0.00    -0.041 A 
ATOM     11  C   UNL     1      -1.726   2.034   1.821  1.00  0.00     0.005 A 
ATOM     12  C   UNL     1      -1.779  -0.366   1.627  1.00  0.00     0.005 A 
ATOM     13  C   UNL     1      -2.222   1.943   3.125  1.00  0.00     0.015 A 
ATOM     14  C   UNL     1      -2.266  -0.463   2.934  1.00  0.00     0.015 A 
ATOM     15  C   UNL     1      -2.491   0.694   3.676  1.00  0.00     0.013 A 
ATOM     16  I   UNL     1      -3.219   0.557   5.617  1.00  0.00    -0.044 I 
ENDBRANCH   9  10
ENDBRANCH   7   9
BRANCH   7  17
ATOM     17  N   UNL     1       1.193  -0.035   0.198  1.00  0.00    -0.345 N 
ATOM     18  H   UNL     1       0.926  -0.001   1.182  1.00  0.00     0.345 HD
ATOM     19  H   UNL     1       2.207   0.036   0.118  1.00  0.00     0.345 HD
ATOM     20  H   UNL     1       0.880  -0.917  -0.208  1.00  0.00     0.345 HD
ENDBRANCH   7  17
ENDBRANCH   4   7
ENDBRANCH   2   3
ENDBRANCH   1   2
BRANCH   1  21
ATOM     21  C   UNL     1      -1.350   6.017  -0.185  1.00  0.00     0.023 C 
BRANCH  21  22
ATOM     22  C   UNL     1      -0.571   7.111  -0.905  1.00  0.00     0.116 C 
BRANCH  22  23
ATOM     23  N   UNL     1      -1.154   7.465  -2.189  1.00  0.00    -0.352 N 
ATOM     24  C   UNL     1      -1.339   8.702  -2.748  1.00  0.00     0.251 C 
ATOM     25  H   UNL     1      -1.461   6.706  -2.736  1.00  0.00     0.163 HD
ATOM     26  O   UNL     1      -1.980   8.811  -3.793  1.00  0.00    -0.269 OA
BRANCH  24  27
ATOM     27  C   UNL     1      -0.788   9.907  -2.095  1.00  0.00     0.039 A 
ATOM     28  C   UNL     1      -1.571  11.063  -2.049  1.00  0.00     0.014 A 
ATOM     29  C   UNL     1       0.505   9.912  -1.563  1.00  0.00     0.014 A 
ATOM     30  C   UNL     1      -1.070  12.216  -1.443  1.00  0.00     0.010 A 
ATOM     31  C   UNL     1       0.974  11.037  -0.893  1.00  0.00     0.010 A 
ATOM     32  C   UNL     1       0.202  12.207  -0.851  1.00  0.00    -0.014 A 
BRANCH  32  33
ATOM     33  C   UNL     1       0.770  13.433  -0.240  1.00  0.00     0.031 A 
ATOM     34  C   UNL     1       1.976  14.084  -0.861  1.00  0.00     0.074 A 
ATOM     35  C   UNL     1       0.233  13.933   0.888  1.00  0.00     0.049 A 
ATOM     36  N   UNL     1       2.646  15.135  -0.460  1.00  0.00    -0.248 NA
ATOM     37  C   UNL     1       2.518  13.455  -2.077  1.00  0.00     0.031 C 
ATOM     38  C   UNL     1      -0.912  13.371   1.607  1.00  0.00     0.029 A 
ATOM     39  N   UNL     1       0.586  15.032   1.629  1.00  0.00    -0.354 N 
ATOM     40  C   UNL     1       3.697  15.275  -1.358  1.00  0.00     0.074 A 
ATOM     41  C   UNL     1       3.607  14.176  -2.292  1.00  0.00     0.031 C 
ATOM     42  C   UNL     1      -1.185  14.146   2.670  1.00  0.00     0.029 A 
ATOM     43  C   UNL     1      -0.219  15.239   2.723  1.00  0.00     0.049 A 
ATOM     44  H   UNL     1       1.343  15.617   1.399  1.00  0.00     0.167 HD
ATOM     45  C   UNL     1       4.640  16.245  -1.415  1.00  0.00     0.031 A 
ATOM     46  C   UNL     1      -0.183  16.206   3.658  1.00  0.00     0.031 A 
ATOM     47  C   UNL     1       4.714  17.352  -0.503  1.00  0.00     0.049 A 
ATOM     48  C   UNL     1       0.860  17.284   3.561  1.00  0.00     0.074 A 
ATOM     49  C   UNL     1       5.599  18.416  -0.505  1.00  0.00     0.029 A 
ATOM     50  N   UNL     1       3.862  17.541   0.574  1.00  0.00    -0.354 N 
ATOM     51  N   UNL     1       1.810  17.436   2.671  1.00  0.00    -0.248 NA
ATOM     52  C   UNL     1       0.819  18.335   4.587  1.00  0.00     0.031 C 
ATOM     53  C   UNL     1       5.303  19.231   0.593  1.00  0.00     0.029 A 
ATOM     54  C   UNL     1       4.204  18.699   1.248  1.00  0.00     0.049 A 
ATOM     55  H   UNL     1       3.123  16.939   0.822  1.00  0.00     0.167 HD
ATOM     56  C   UNL     1       2.459  18.616   3.009  1.00  0.00     0.074 A 
ATOM     57  C   UNL     1       1.786  19.145   4.178  1.00  0.00     0.031 C 
ATOM     58  C   UNL     1       3.515  19.213   2.403  1.00  0.00     0.031 A 
BRANCH  45  59
ATOM     59  C   UNL     1       5.667  16.141  -2.508  1.00  0.00    -0.014 A 
ATOM     60  C   UNL     1       5.323  16.357  -3.853  1.00  0.00     0.009 A 
ATOM     61  C   UNL     1       7.000  15.838  -2.189  1.00  0.00     0.009 A 
ATOM     62  C   UNL     1       6.284  16.230  -4.858  1.00  0.00     0.001 A 
ATOM     63  C   UNL     1       7.964  15.741  -3.194  1.00  0.00     0.001 A 
ATOM     64  C   UNL     1       7.603  15.926  -4.528  1.00  0.00     0.000 A 
ENDBRANCH  45  59
BRANCH  46  65
ATOM     65  C   UNL     1      -1.192  16.223   4.749  1.00  0.00    -0.014 A 
ATOM     66  C   UNL     1      -2.211  17.189   4.757  1.00  0.00     0.009 A 
ATOM     67  C   UNL     1      -1.140  15.281   5.787  1.00  0.00     0.009 A 
ATOM     68  C   UNL     1      -3.139  17.229   5.799  1.00  0.00     0.001 A 
ATOM     69  C   UNL     1      -2.087  15.308   6.814  1.00  0.00     0.001 A 
ATOM     70  C   UNL     1      -3.079  16.287   6.824  1.00  0.00     0.000 A 
ENDBRANCH  46  65
BRANCH  58  71
ATOM     71  C   UNL     1       3.973  20.528   2.965  1.00  0.00    -0.014 A 
ATOM     72  C   UNL     1       4.668  20.602   4.181  1.00  0.00     0.009 A 
ATOM     73  C   UNL     1       3.736  21.707   2.241  1.00  0.00     0.009 A 
ATOM     74  C   UNL     1       5.085  21.837   4.679  1.00  0.00     0.001 A 
ATOM     75  C   UNL     1       4.178  22.937   2.729  1.00  0.00     0.001 A 
ATOM     76  C   UNL     1       4.843  23.002   3.952  1.00  0.00     0.000 A 
ENDBRANCH  58  71
ENDBRANCH  32  33
ENDBRANCH  24  27
ENDBRANCH  22  23
ENDBRANCH  21  22
ENDBRANCH   1  21
TORSDOF 14
