REMARK SMILES O=C(NCCCCNC(=O)[C@H]1CCC(=O)N1Cc1ccco1)c1ccc(-c2c3nc(c(-c4ccccc4)c4ccc([nH]4)c(-c4ccccc4)c4nc(c(-c5ccccc5)c5ccc2[nH]5)C=C4)C=C3)cc1
REMARK SMILES IDX 5 1 4 2 3 3 1 4 2 5 23 7 24 8 70 9 25 10 69 11 26 12 27 13
REMARK SMILES IDX 28 14 63 15 29 16 68 17 62 18 64 19 30 20 67 21 61 22 60 23
REMARK SMILES IDX 31 25 53 26 38 27 52 28 39 29 42 30 51 31 65 32 40 33 41 34
REMARK SMILES IDX 50 36 66 37 43 38 32 39 33 40 37 41 34 42 36 43 35 44 54 45
REMARK SMILES IDX 55 46 59 47 56 48 58 49 57 50 44 51 45 52 49 53 46 54 48 55
REMARK SMILES IDX 47 56 6 57 7 58 8 59 9 60 10 62 11 63 12 64 16 65 13 66
REMARK SMILES IDX 14 67 15 68 17 69 18 70 19 71 22 72 20 73 21 74
REMARK H PARENT 3 6 64 24 42 35 8 61
REMARK Flexibility Score: inf
ROOT
ATOM      1  C   UNL     1       9.422  -0.137   6.322  1.00  0.00     0.023 C 
ENDROOT
BRANCH   1   2
ATOM      2  C   UNL     1      10.919  -0.370   6.471  1.00  0.00     0.116 C 
BRANCH   2   3
ATOM      3  N   UNL     1      11.655   0.128   5.322  1.00  0.00    -0.352 N 
ATOM      4  O   UNL     1      12.995   1.545   4.197  1.00  0.00    -0.269 OA
ATOM      5  C   UNL     1      12.655   1.065   5.273  1.00  0.00     0.251 C 
ATOM      6  H   UNL     1      11.400  -0.262   4.455  1.00  0.00     0.163 HD
BRANCH   5   7
ATOM      7  C   UNL     1      13.318   1.492   6.520  1.00  0.00     0.039 A 
ATOM      8  C   UNL     1      13.682   0.551   7.488  1.00  0.00     0.014 A 
ATOM      9  C   UNL     1      13.613   2.845   6.702  1.00  0.00     0.014 A 
ATOM     10  C   UNL     1      14.243   0.972   8.686  1.00  0.00     0.010 A 
ATOM     11  C   UNL     1      14.252   3.257   7.870  1.00  0.00     0.010 A 
ATOM     12  C   UNL     1      14.559   2.325   8.875  1.00  0.00    -0.014 A 
BRANCH  12  13
ATOM     13  C   UNL     1      15.285   2.752  10.092  1.00  0.00     0.031 A 
ATOM     14  C   UNL     1      14.655   3.695  11.070  1.00  0.00     0.074 A 
ATOM     15  C   UNL     1      16.544   2.313  10.278  1.00  0.00     0.049 A 
ATOM     16  N   UNL     1      15.179   4.250  12.132  1.00  0.00    -0.248 NA
ATOM     17  C   UNL     1      13.257   4.074  10.816  1.00  0.00     0.031 C 
ATOM     18  C   UNL     1      17.256   1.391   9.389  1.00  0.00     0.029 A 
ATOM     19  N   UNL     1      17.453   2.594  11.265  1.00  0.00    -0.354 N 
ATOM     20  C   UNL     1      14.188   5.068  12.658  1.00  0.00     0.074 A 
ATOM     21  C   UNL     1      13.039   4.953  11.784  1.00  0.00     0.031 C 
ATOM     22  C   UNL     1      18.486   1.177   9.875  1.00  0.00     0.029 A 
ATOM     23  C   UNL     1      18.674   2.000  11.063  1.00  0.00     0.049 A 
ATOM     24  H   UNL     1      17.250   3.166  12.040  1.00  0.00     0.167 HD
ATOM     25  C   UNL     1      14.238   5.846  13.766  1.00  0.00     0.031 A 
ATOM     26  C   UNL     1      19.834   2.136  11.730  1.00  0.00     0.031 A 
ATOM     27  C   UNL     1      15.397   5.966  14.611  1.00  0.00     0.049 A 
ATOM     28  C   UNL     1      19.885   3.045  12.921  1.00  0.00     0.074 A 
ATOM     29  C   UNL     1      15.542   6.696  15.778  1.00  0.00     0.029 A 
ATOM     30  N   UNL     1      16.619   5.353  14.369  1.00  0.00    -0.354 N 
ATOM     31  N   UNL     1      18.928   3.780  13.435  1.00  0.00    -0.248 NA
ATOM     32  C   UNL     1      21.169   3.143  13.625  1.00  0.00     0.031 C 
ATOM     33  C   UNL     1      16.870   6.582  16.200  1.00  0.00     0.029 A 
ATOM     34  C   UNL     1      17.533   5.718  15.342  1.00  0.00     0.049 A 
ATOM     35  H   UNL     1      16.807   4.747  13.615  1.00  0.00     0.167 HD
ATOM     36  C   UNL     1      19.485   4.407  14.540  1.00  0.00     0.074 A 
ATOM     37  C   UNL     1      20.862   3.962  14.623  1.00  0.00     0.031 C 
ATOM     38  C   UNL     1      18.901   5.267  15.411  1.00  0.00     0.031 A 
BRANCH  25  39
ATOM     39  C   UNL     1      13.020   6.671  14.085  1.00  0.00    -0.014 A 
ATOM     40  C   UNL     1      11.808   6.080  14.479  1.00  0.00     0.009 A 
ATOM     41  C   UNL     1      13.089   8.071  13.992  1.00  0.00     0.009 A 
ATOM     42  C   UNL     1      10.680   6.869  14.717  1.00  0.00     0.001 A 
ATOM     43  C   UNL     1      11.970   8.859  14.264  1.00  0.00     0.001 A 
ATOM     44  C   UNL     1      10.762   8.257  14.611  1.00  0.00     0.000 A 
ENDBRANCH  25  39
BRANCH  26  45
ATOM     45  C   UNL     1      21.033   1.405  11.249  1.00  0.00    -0.014 A 
ATOM     46  C   UNL     1      21.540   0.309  11.962  1.00  0.00     0.009 A 
ATOM     47  C   UNL     1      21.637   1.761  10.031  1.00  0.00     0.009 A 
ATOM     48  C   UNL     1      22.631  -0.409  11.468  1.00  0.00     0.001 A 
ATOM     49  C   UNL     1      22.707   1.022   9.525  1.00  0.00     0.001 A 
ATOM     50  C   UNL     1      23.207  -0.059  10.247  1.00  0.00     0.000 A 
ENDBRANCH  26  45
BRANCH  38  51
ATOM     51  C   UNL     1      19.732   5.754  16.565  1.00  0.00    -0.014 A 
ATOM     52  C   UNL     1      20.754   6.697  16.388  1.00  0.00     0.009 A 
ATOM     53  C   UNL     1      19.424   5.317  17.864  1.00  0.00     0.009 A 
ATOM     54  C   UNL     1      21.461   7.184  17.490  1.00  0.00     0.001 A 
ATOM     55  C   UNL     1      20.111   5.827  18.965  1.00  0.00     0.001 A 
ATOM     56  C   UNL     1      21.132   6.757  18.777  1.00  0.00     0.000 A 
ENDBRANCH  38  51
ENDBRANCH  12  13
ENDBRANCH   5   7
ENDBRANCH   2   3
ENDBRANCH   1   2
BRANCH   1  57
ATOM     57  C   UNL     1       8.795  -0.826   5.103  1.00  0.00     0.023 C 
BRANCH  57  58
ATOM     58  C   UNL     1       8.928  -2.353   5.091  1.00  0.00     0.116 C 
BRANCH  58  59
ATOM     59  N   UNL     1       8.401  -2.985   6.290  1.00  0.00    -0.354 N 
ATOM     60  C   UNL     1       7.219  -3.636   6.514  1.00  0.00     0.242 C 
ATOM     61  H   UNL     1       8.996  -2.937   7.073  1.00  0.00     0.163 HD
ATOM     62  O   UNL     1       7.023  -4.092   7.642  1.00  0.00    -0.273 OA
BRANCH  60  63
ATOM     63  C   UNL     1       6.212  -3.816   5.366  1.00  0.00     0.175 C 
ATOM     64  C   UNL     1       6.175  -5.304   5.006  1.00  0.00     0.045 C 
ATOM     65  N   UNL     1       4.825  -3.520   5.694  1.00  0.00    -0.323 N 
ATOM     66  C   UNL     1       4.979  -5.854   5.777  1.00  0.00     0.103 C 
ATOM     67  C   UNL     1       4.067  -4.663   5.881  1.00  0.00     0.223 C 
ATOM     68  O   UNL     1       2.862  -4.720   6.074  1.00  0.00    -0.275 OA
BRANCH  65  69
ATOM     69  C   UNL     1       4.242  -2.186   5.647  1.00  0.00     0.195 C 
BRANCH  69  70
ATOM     70  C   UNL     1       4.637  -1.323   6.793  1.00  0.00     0.123 A 
ATOM     71  C   UNL     1       5.835  -0.830   7.263  1.00  0.00     0.047 A 
ATOM     72  O   UNL     1       3.623  -0.790   7.543  1.00  0.00    -0.467 OA
ATOM     73  C   UNL     1       5.556   0.022   8.349  1.00  0.00     0.042 A 
ATOM     74  C   UNL     1       4.191   0.010   8.484  1.00  0.00     0.195 A 
ENDBRANCH  69  70
ENDBRANCH  65  69
ENDBRANCH  60  63
ENDBRANCH  58  59
ENDBRANCH  57  58
ENDBRANCH   1  57
TORSDOF 13
