REMARK SMILES CC(C)=Cc1c(C(=O)NCCCCNC(=O)c2ccc(-c3c4nc(c(-c5ccccc5)c5ccc([nH]5)c(-c5ccccc5)c5nc(c(-c6ccccc6)c6ccc3[nH]6)C=C5)C=C4)cc2)nnn1-c1ccc(C(C)C)cc1
REMARK SMILES IDX 11 1 10 2 9 3 7 4 8 5 6 7 5 8 67 9 65 10 66 11 4 12 1 13
REMARK SMILES IDX 2 14 3 15 68 16 69 17 76 18 70 19 75 20 71 21 72 22 73 23
REMARK SMILES IDX 74 24 12 25 13 26 14 27 15 28 16 30 17 31 18 32 64 33 19 34
REMARK SMILES IDX 63 35 20 36 21 37 22 38 57 39 23 40 62 41 56 42 58 43 24 44
REMARK SMILES IDX 61 45 55 46 54 47 25 49 47 50 32 51 46 52 33 53 36 54 45 55
REMARK SMILES IDX 59 56 34 57 35 58 44 60 60 61 37 62 26 63 27 64 31 65 28 66
REMARK SMILES IDX 30 67 29 68 48 69 49 70 53 71 50 72 52 73 51 74 38 75 39 76
REMARK SMILES IDX 43 77 40 78 42 79 41 80
REMARK H PARENT 9 6 14 29 58 48 36 59
REMARK Flexibility Score: inf
ROOT
ATOM      1  C   UNL     1      -2.146   0.346   3.491  1.00  0.00     0.023 C 
ENDROOT
BRANCH   1   2
ATOM      2  C   UNL     1      -1.000   0.730   4.427  1.00  0.00     0.116 C 
BRANCH   2   3
ATOM      3  N   UNL     1      -0.386  -0.404   5.074  1.00  0.00    -0.351 N 
ATOM      4  C   UNL     1       0.740  -1.159   4.858  1.00  0.00     0.274 C 
ATOM      5  O   UNL     1       0.910  -2.032   5.717  1.00  0.00    -0.267 OA
ATOM      6  H   UNL     1      -0.898  -0.710   5.857  1.00  0.00     0.163 HD
BRANCH   4   7
ATOM      7  C   UNL     1       1.698  -1.018   3.753  1.00  0.00     0.178 A 
ATOM      8  C   UNL     1       1.919  -0.105   2.725  1.00  0.00     0.100 A 
ATOM      9  N   UNL     1       3.083  -0.569   2.102  1.00  0.00    -0.213 N 
ATOM     10  N   UNL     1       2.635  -2.034   3.610  1.00  0.00    -0.124 NA
ATOM     11  N   UNL     1       3.391  -1.797   2.553  1.00  0.00    -0.061 NA
BRANCH   8  12
ATOM     12  C   UNL     1       1.280   1.050   2.208  1.00  0.00     0.029 C 
ATOM     13  C   UNL     1       0.469  -0.095   0.084  1.00  0.00     0.039 C 
ATOM     14  C   UNL     1       0.620   1.069   1.032  1.00  0.00    -0.074 C 
ATOM     15  C   UNL     1      -0.025   2.342   0.550  1.00  0.00     0.039 C 
ENDBRANCH   8  12
BRANCH   9  16
ATOM     16  C   UNL     1       3.811   0.032   1.046  1.00  0.00     0.067 A 
ATOM     17  C   UNL     1       4.157  -0.742  -0.064  1.00  0.00     0.029 A 
ATOM     18  C   UNL     1       4.035   1.413   1.047  1.00  0.00     0.029 A 
ATOM     19  C   UNL     1       4.583  -0.100  -1.228  1.00  0.00     0.006 A 
ATOM     20  C   UNL     1       4.492   2.041  -0.108  1.00  0.00     0.006 A 
ATOM     21  C   UNL     1       4.723   1.299  -1.273  1.00  0.00    -0.045 A 
BRANCH  21  22
ATOM     22  C   UNL     1       5.055   2.030  -2.560  1.00  0.00     0.013 C 
ATOM     23  C   UNL     1       6.345   1.515  -3.194  1.00  0.00     0.012 C 
ATOM     24  C   UNL     1       3.881   1.955  -3.540  1.00  0.00     0.012 C 
ENDBRANCH  21  22
ENDBRANCH   9  16
ENDBRANCH   4   7
ENDBRANCH   2   3
ENDBRANCH   1   2
BRANCH   1  25
ATOM     25  C   UNL     1      -3.534   0.313   4.152  1.00  0.00     0.023 C 
BRANCH  25  26
ATOM     26  C   UNL     1      -4.012   1.647   4.726  1.00  0.00     0.116 C 
BRANCH  26  27
ATOM     27  N   UNL     1      -4.091   2.717   3.733  1.00  0.00    -0.352 N 
ATOM     28  C   UNL     1      -4.281   4.071   3.958  1.00  0.00     0.251 C 
ATOM     29  H   UNL     1      -3.998   2.443   2.792  1.00  0.00     0.163 HD
ATOM     30  O   UNL     1      -4.702   4.811   3.088  1.00  0.00    -0.269 OA
BRANCH  28  31
ATOM     31  C   UNL     1      -3.932   4.606   5.286  1.00  0.00     0.039 A 
ATOM     32  C   UNL     1      -4.791   5.458   5.986  1.00  0.00     0.014 A 
ATOM     33  C   UNL     1      -2.729   4.183   5.842  1.00  0.00     0.014 A 
ATOM     34  C   UNL     1      -4.467   5.811   7.295  1.00  0.00     0.010 A 
ATOM     35  C   UNL     1      -2.482   4.414   7.170  1.00  0.00     0.010 A 
ATOM     36  C   UNL     1      -3.318   5.267   7.888  1.00  0.00    -0.014 A 
BRANCH  36  37
ATOM     37  C   UNL     1      -3.023   5.478   9.302  1.00  0.00     0.031 A 
ATOM     38  C   UNL     1      -4.066   4.994  10.251  1.00  0.00     0.074 A 
ATOM     39  C   UNL     1      -1.785   5.814   9.729  1.00  0.00     0.049 A 
ATOM     40  N   UNL     1      -4.751   5.682  11.103  1.00  0.00    -0.248 NA
ATOM     41  C   UNL     1      -4.467   3.578  10.173  1.00  0.00     0.031 C 
ATOM     42  C   UNL     1      -0.566   5.977   8.924  1.00  0.00     0.029 A 
ATOM     43  N   UNL     1      -1.317   5.930  11.000  1.00  0.00    -0.354 N 
ATOM     44  C   UNL     1      -5.530   4.765  11.807  1.00  0.00     0.074 A 
ATOM     45  C   UNL     1      -5.446   3.525  11.078  1.00  0.00     0.031 C 
ATOM     46  C   UNL     1       0.518   5.906   9.726  1.00  0.00     0.029 A 
ATOM     47  C   UNL     1       0.068   5.879  11.105  1.00  0.00     0.049 A 
ATOM     48  H   UNL     1      -1.909   6.041  11.779  1.00  0.00     0.167 HD
ATOM     49  C   UNL     1      -5.976   5.026  13.069  1.00  0.00     0.031 A 
ATOM     50  C   UNL     1       0.797   5.784  12.243  1.00  0.00     0.031 A 
ATOM     51  C   UNL     1      -5.858   6.425  13.393  1.00  0.00     0.049 A 
ATOM     52  C   UNL     1      -0.081   6.185  13.364  1.00  0.00     0.074 A 
ATOM     53  C   UNL     1      -6.353   7.598  12.859  1.00  0.00     0.029 A 
ATOM     54  N   UNL     1      -4.801   6.793  14.191  1.00  0.00    -0.354 N 
ATOM     55  N   UNL     1      -0.529   7.396  13.526  1.00  0.00    -0.248 NA
ATOM     56  C   UNL     1      -0.825   5.144  14.055  1.00  0.00     0.031 C 
ATOM     57  C   UNL     1      -5.274   8.526  12.961  1.00  0.00     0.029 A 
ATOM     58  C   UNL     1      -4.218   7.891  13.618  1.00  0.00     0.049 A 
ATOM     59  H   UNL     1      -4.515   6.349  15.022  1.00  0.00     0.167 HD
ATOM     60  C   UNL     1      -1.840   7.231  13.948  1.00  0.00     0.074 A 
ATOM     61  C   UNL     1      -1.929   5.831  14.362  1.00  0.00     0.031 C 
ATOM     62  C   UNL     1      -2.798   8.158  13.650  1.00  0.00     0.031 A 
BRANCH  49  63
ATOM     63  C   UNL     1      -6.101   3.974  14.152  1.00  0.00    -0.014 A 
ATOM     64  C   UNL     1      -6.530   4.376  15.432  1.00  0.00     0.009 A 
ATOM     65  C   UNL     1      -5.541   2.687  14.057  1.00  0.00     0.009 A 
ATOM     66  C   UNL     1      -6.314   3.577  16.562  1.00  0.00     0.001 A 
ATOM     67  C   UNL     1      -5.364   1.868  15.176  1.00  0.00     0.001 A 
ATOM     68  C   UNL     1      -5.718   2.328  16.435  1.00  0.00     0.000 A 
ENDBRANCH  49  63
BRANCH  50  69
ATOM     69  C   UNL     1       2.108   5.138  12.463  1.00  0.00    -0.014 A 
ATOM     70  C   UNL     1       2.884   5.454  13.589  1.00  0.00     0.009 A 
ATOM     71  C   UNL     1       2.476   4.008  11.709  1.00  0.00     0.009 A 
ATOM     72  C   UNL     1       3.962   4.643  13.971  1.00  0.00     0.001 A 
ATOM     73  C   UNL     1       3.553   3.200  12.089  1.00  0.00     0.001 A 
ATOM     74  C   UNL     1       4.286   3.509  13.230  1.00  0.00     0.000 A 
ENDBRANCH  50  69
BRANCH  62  75
ATOM     75  C   UNL     1      -2.353   9.476  13.062  1.00  0.00    -0.014 A 
ATOM     76  C   UNL     1      -1.678   9.583  11.832  1.00  0.00     0.009 A 
ATOM     77  C   UNL     1      -2.772  10.655  13.693  1.00  0.00     0.009 A 
ATOM     78  C   UNL     1      -1.409  10.836  11.269  1.00  0.00     0.001 A 
ATOM     79  C   UNL     1      -2.523  11.904  13.121  1.00  0.00     0.001 A 
ATOM     80  C   UNL     1      -1.838  11.995  11.911  1.00  0.00     0.000 A 
ENDBRANCH  62  75
ENDBRANCH  36  37
ENDBRANCH  28  31
ENDBRANCH  26  27
ENDBRANCH  25  26
ENDBRANCH   1  25
TORSDOF 14
