REMARK SMILES CC[NH2+][C@@]1(C(=O)NCCCCNC(=O)c2ccc(-c3c4nc(c(-c5ccccc5)c5ccc([nH]5)c(-c5ccccc5)c5nc(c(-c6ccccc6)c6ccc3[nH]6)C=C5)C=C4)cc2)CC[C@@H](Oc2cccc(OC)c2)C1
REMARK SMILES IDX 9 1 8 2 7 3 5 4 6 5 4 7 63 8 75 9 64 10 65 11 3 12 2 15 1 16
REMARK SMILES IDX 66 17 67 18 68 19 74 20 69 21 71 22 70 23 72 24 73 25 10 26
REMARK SMILES IDX 11 27 12 28 13 29 14 31 15 32 16 33 62 34 17 35 61 36 18 37
REMARK SMILES IDX 19 38 20 39 55 40 21 41 60 42 54 43 56 44 22 45 59 46 53 47
REMARK SMILES IDX 52 48 23 50 45 51 30 52 44 53 31 54 34 55 43 56 57 57 32 58
REMARK SMILES IDX 33 59 42 61 58 62 35 63 24 64 25 65 29 66 26 67 28 68 27 69
REMARK SMILES IDX 46 70 47 71 51 72 48 73 50 74 49 75 36 76 37 77 41 78 38 79
REMARK SMILES IDX 40 80 39 81
REMARK H PARENT 7 6 3 13 3 14 12 30 56 49 34 60
REMARK Flexibility Score: inf
ROOT
ATOM      1  C   UNL     1      -0.016   1.287   6.978  1.00  0.00     0.023 C 
ENDROOT
BRANCH   1   2
ATOM      2  C   UNL     1       0.910   2.253   6.242  1.00  0.00     0.116 C 
BRANCH   2   3
ATOM      3  N   UNL     1       1.726   1.587   5.255  1.00  0.00    -0.351 N 
ATOM      4  C   UNL     1       1.611   1.470   3.907  1.00  0.00     0.281 C 
ATOM      5  O   UNL     1       2.604   0.986   3.344  1.00  0.00    -0.268 OA
ATOM      6  H   UNL     1       2.515   1.132   5.630  1.00  0.00     0.163 HD
BRANCH   4   7
ATOM      7  C   UNL     1       0.362   1.953   3.068  1.00  0.00     0.179 C 
ATOM      8  C   UNL     1       0.269   3.493   3.088  1.00  0.00     0.083 C 
ATOM      9  C   UNL     1      -1.003   1.434   3.540  1.00  0.00     0.124 C 
ATOM     10  C   UNL     1      -1.066   3.895   3.706  1.00  0.00     0.052 C 
ATOM     11  C   UNL     1      -1.770   2.610   4.144  1.00  0.00     0.180 C 
BRANCH   7  12
ATOM     12  N   UNL     1       0.615   1.577   1.636  1.00  0.00    -0.334 N 
ATOM     13  H   UNL     1      -0.053   2.083   1.054  1.00  0.00     0.347 HD
ATOM     14  H   UNL     1       1.588   1.821   1.448  1.00  0.00     0.347 HD
BRANCH  12  15
ATOM     15  C   UNL     1       0.489   0.147   1.333  1.00  0.00     0.257 C 
ATOM     16  C   UNL     1       1.114  -0.138  -0.027  1.00  0.00     0.071 C 
ENDBRANCH  12  15
ENDBRANCH   7  12
BRANCH  11  17
ATOM     17  O   UNL     1      -3.196   2.519   3.979  1.00  0.00    -0.490 OA
BRANCH  17  18
ATOM     18  C   UNL     1      -3.690   3.103   2.848  1.00  0.00     0.123 A 
ATOM     19  C   UNL     1      -4.311   4.345   2.958  1.00  0.00     0.047 A 
ATOM     20  C   UNL     1      -3.605   2.458   1.616  1.00  0.00     0.092 A 
ATOM     21  C   UNL     1      -4.771   4.985   1.809  1.00  0.00     0.008 A 
ATOM     22  C   UNL     1      -4.038   3.104   0.461  1.00  0.00     0.122 A 
ATOM     23  C   UNL     1      -4.623   4.369   0.564  1.00  0.00     0.046 A 
BRANCH  22  24
ATOM     24  O   UNL     1      -3.945   2.598  -0.807  1.00  0.00    -0.497 OA
ATOM     25  C   UNL     1      -3.097   1.464  -0.967  1.00  0.00     0.278 C 
ENDBRANCH  22  24
ENDBRANCH  17  18
ENDBRANCH  11  17
ENDBRANCH   4   7
ENDBRANCH   2   3
ENDBRANCH   1   2
BRANCH   1  26
ATOM     26  C   UNL     1       0.588   0.645   8.225  1.00  0.00     0.023 C 
BRANCH  26  27
ATOM     27  C   UNL     1       1.028   1.625   9.305  1.00  0.00     0.116 C 
BRANCH  27  28
ATOM     28  N   UNL     1      -0.009   2.557   9.725  1.00  0.00    -0.352 N 
ATOM     29  C   UNL     1      -0.128   3.189  10.940  1.00  0.00     0.251 C 
ATOM     30  H   UNL     1      -0.707   2.759   9.060  1.00  0.00     0.163 HD
ATOM     31  O   UNL     1      -1.092   3.904  11.190  1.00  0.00    -0.269 OA
BRANCH  29  32
ATOM     32  C   UNL     1       0.906   2.943  11.963  1.00  0.00     0.039 A 
ATOM     33  C   UNL     1       0.513   2.460  13.213  1.00  0.00     0.014 A 
ATOM     34  C   UNL     1       2.259   3.098  11.650  1.00  0.00     0.014 A 
ATOM     35  C   UNL     1       1.486   2.053  14.125  1.00  0.00     0.010 A 
ATOM     36  C   UNL     1       3.223   2.622  12.529  1.00  0.00     0.010 A 
ATOM     37  C   UNL     1       2.845   2.090  13.772  1.00  0.00    -0.014 A 
BRANCH  37  38
ATOM     38  C   UNL     1       3.888   1.565  14.685  1.00  0.00     0.031 A 
ATOM     39  C   UNL     1       4.920   2.491  15.262  1.00  0.00     0.074 A 
ATOM     40  C   UNL     1       3.945   0.243  14.940  1.00  0.00     0.049 A 
ATOM     41  N   UNL     1       5.933   2.213  16.042  1.00  0.00    -0.248 NA
ATOM     42  C   UNL     1       4.818   3.912  14.889  1.00  0.00     0.031 C 
ATOM     43  C   UNL     1       3.036  -0.769  14.396  1.00  0.00     0.029 A 
ATOM     44  N   UNL     1       4.812  -0.477  15.723  1.00  0.00    -0.354 N 
ATOM     45  C   UNL     1       6.597   3.417  16.237  1.00  0.00     0.074 A 
ATOM     46  C   UNL     1       5.905   4.416  15.453  1.00  0.00     0.031 C 
ATOM     47  C   UNL     1       3.372  -1.972  14.889  1.00  0.00     0.029 A 
ATOM     48  C   UNL     1       4.536  -1.822  15.755  1.00  0.00     0.049 A 
ATOM     49  H   UNL     1       5.561  -0.068  16.214  1.00  0.00     0.167 HD
ATOM     50  C   UNL     1       7.674   3.674  17.016  1.00  0.00     0.031 A 
ATOM     51  C   UNL     1       5.151  -2.821  16.415  1.00  0.00     0.031 A 
ATOM     52  C   UNL     1       8.350   2.686  17.812  1.00  0.00     0.049 A 
ATOM     53  C   UNL     1       6.333  -2.508  17.287  1.00  0.00     0.074 A 
ATOM     54  C   UNL     1       9.412   2.859  18.683  1.00  0.00     0.029 A 
ATOM     55  N   UNL     1       8.027   1.339  17.834  1.00  0.00    -0.354 N 
ATOM     56  N   UNL     1       6.905  -1.351  17.517  1.00  0.00    -0.248 NA
ATOM     57  C   UNL     1       6.943  -3.637  18.002  1.00  0.00     0.031 C 
ATOM     58  C   UNL     1       9.754   1.607  19.206  1.00  0.00     0.029 A 
ATOM     59  C   UNL     1       8.878   0.665  18.693  1.00  0.00     0.049 A 
ATOM     60  H   UNL     1       7.300   0.923  17.317  1.00  0.00     0.167 HD
ATOM     61  C   UNL     1       7.927  -1.609  18.421  1.00  0.00     0.074 A 
ATOM     62  C   UNL     1       7.885  -3.028  18.709  1.00  0.00     0.031 C 
ATOM     63  C   UNL     1       8.821  -0.747  18.965  1.00  0.00     0.031 A 
BRANCH  50  64
ATOM     64  C   UNL     1       8.181   5.088  17.040  1.00  0.00    -0.014 A 
ATOM     65  C   UNL     1       7.454   6.107  17.677  1.00  0.00     0.009 A 
ATOM     66  C   UNL     1       9.406   5.403  16.435  1.00  0.00     0.009 A 
ATOM     67  C   UNL     1       7.926   7.421  17.673  1.00  0.00     0.001 A 
ATOM     68  C   UNL     1       9.889   6.713  16.456  1.00  0.00     0.001 A 
ATOM     69  C   UNL     1       9.145   7.722  17.066  1.00  0.00     0.000 A 
ENDBRANCH  50  64
BRANCH  51  70
ATOM     70  C   UNL     1       4.639  -4.211  16.305  1.00  0.00    -0.014 A 
ATOM     71  C   UNL     1       3.965  -4.804  17.384  1.00  0.00     0.009 A 
ATOM     72  C   UNL     1       4.825  -4.954  15.130  1.00  0.00     0.009 A 
ATOM     73  C   UNL     1       3.511  -6.122  17.297  1.00  0.00     0.001 A 
ATOM     74  C   UNL     1       4.348  -6.263  15.037  1.00  0.00     0.001 A 
ATOM     75  C   UNL     1       3.700  -6.849  16.123  1.00  0.00     0.000 A 
ENDBRANCH  51  70
BRANCH  63  76
ATOM     76  C   UNL     1       9.804  -1.314  19.948  1.00  0.00    -0.014 A 
ATOM     77  C   UNL     1      10.881  -2.106  19.522  1.00  0.00     0.009 A 
ATOM     78  C   UNL     1       9.667  -1.023  21.314  1.00  0.00     0.009 A 
ATOM     79  C   UNL     1      11.785  -2.623  20.452  1.00  0.00     0.001 A 
ATOM     80  C   UNL     1      10.586  -1.520  22.238  1.00  0.00     0.001 A 
ATOM     81  C   UNL     1      11.639  -2.326  21.807  1.00  0.00     0.000 A 
ENDBRANCH  63  76
ENDBRANCH  37  38
ENDBRANCH  29  32
ENDBRANCH  27  28
ENDBRANCH  26  27
ENDBRANCH   1  26
TORSDOF 16
