REMARK SMILES O=C(Cn1cnnn1)Nc1cccc(F)c1C(=O)NCCCCNC(=O)c1ccc(-c2c3nc(c(-c4ccccc4)c4ccc([nH]4)c(-c4ccccc4)c4nc(c(-c5ccccc5)c5ccc2[nH]5)C=C4)C=C3)cc1
REMARK SMILES IDX 21 1 20 2 19 3 17 4 18 5 16 7 10 8 11 9 12 10 14 11 13 12
REMARK SMILES IDX 15 13 9 14 1 15 2 16 3 18 4 19 5 20 8 21 6 22 7 23 22 24
REMARK SMILES IDX 23 25 24 26 25 27 26 29 27 30 28 31 74 32 29 33 73 34 30 35
REMARK SMILES IDX 31 36 32 37 67 38 33 39 72 40 66 41 68 42 34 43 71 44 65 45
REMARK SMILES IDX 64 46 35 48 57 49 42 50 56 51 43 52 46 53 55 54 69 55 44 56
REMARK SMILES IDX 45 57 54 59 70 60 47 61 36 62 37 63 41 64 38 65 40 66 39 67
REMARK SMILES IDX 58 68 59 69 63 70 60 71 62 72 61 73 48 74 49 75 53 76 50 77
REMARK SMILES IDX 52 78 51 79
REMARK H PARENT 19 6 9 17 24 28 68 47 46 58
REMARK Flexibility Score: inf
ROOT
ATOM      1  C   UNL     1       5.390   5.061   4.875  1.00  0.00     0.023 C 
ENDROOT
BRANCH   1   2
ATOM      2  C   UNL     1       4.201   5.033   3.913  1.00  0.00     0.116 C 
BRANCH   2   3
ATOM      3  N   UNL     1       4.417   4.259   2.699  1.00  0.00    -0.352 N 
ATOM      4  C   UNL     1       3.752   3.211   2.101  1.00  0.00     0.256 C 
ATOM      5  O   UNL     1       4.258   2.793   1.053  1.00  0.00    -0.269 OA
ATOM      6  H   UNL     1       5.212   4.548   2.195  1.00  0.00     0.163 HD
BRANCH   4   7
ATOM      7  C   UNL     1       2.551   2.487   2.635  1.00  0.00     0.099 A 
ATOM      8  C   UNL     1       2.242   1.186   2.150  1.00  0.00     0.057 A 
ATOM      9  C   UNL     1       1.206   0.437   2.739  1.00  0.00     0.027 A 
ATOM     10  C   UNL     1       0.431   0.972   3.762  1.00  0.00     0.005 A 
ATOM     11  C   UNL     1       1.632   3.051   3.524  1.00  0.00     0.138 A 
ATOM     12  C   UNL     1       0.622   2.296   4.126  1.00  0.00     0.040 A 
ATOM     13  F   UNL     1       1.587   4.371   3.743  1.00  0.00    -0.206 F 
BRANCH   8  14
ATOM     14  N   UNL     1       2.941   0.641   1.037  1.00  0.00    -0.324 N 
ATOM     15  O   UNL     1       1.152  -0.402  -0.005  1.00  0.00    -0.273 OA
ATOM     16  C   UNL     1       2.350  -0.125   0.043  1.00  0.00     0.246 C 
ATOM     17  H   UNL     1       3.907   0.819   0.968  1.00  0.00     0.170 HD
BRANCH  16  18
ATOM     18  C   UNL     1       3.285  -0.639  -1.022  1.00  0.00     0.248 C 
BRANCH  18  19
ATOM     19  N   UNL     1       3.950   0.377  -1.801  1.00  0.00    -0.223 N 
ATOM     20  C   UNL     1       3.679   1.695  -1.977  1.00  0.00     0.246 A 
ATOM     21  N   UNL     1       5.023   0.037  -2.539  1.00  0.00    -0.045 NA
ATOM     22  N   UNL     1       4.571   2.198  -2.800  1.00  0.00    -0.117 NA
ATOM     23  N   UNL     1       5.398   1.157  -3.142  1.00  0.00    -0.024 NA
ENDBRANCH  18  19
ENDBRANCH  16  18
ENDBRANCH   8  14
ENDBRANCH   4   7
ENDBRANCH   2   3
ENDBRANCH   1   2
BRANCH   1  24
ATOM     24  C   UNL     1       6.622   5.880   4.484  1.00  0.00     0.023 C 
BRANCH  24  25
ATOM     25  C   UNL     1       6.368   7.355   4.211  1.00  0.00     0.116 C 
BRANCH  25  26
ATOM     26  N   UNL     1       5.823   8.095   5.354  1.00  0.00    -0.352 N 
ATOM     27  C   UNL     1       5.528   9.446   5.404  1.00  0.00     0.251 C 
ATOM     28  H   UNL     1       5.648   7.575   6.171  1.00  0.00     0.163 HD
ATOM     29  O   UNL     1       5.418  10.044   6.474  1.00  0.00    -0.269 OA
BRANCH  27  30
ATOM     30  C   UNL     1       5.317  10.155   4.134  1.00  0.00     0.039 A 
ATOM     31  C   UNL     1       5.886  11.404   3.860  1.00  0.00     0.014 A 
ATOM     32  C   UNL     1       4.567   9.481   3.176  1.00  0.00     0.014 A 
ATOM     33  C   UNL     1       5.760  11.927   2.574  1.00  0.00     0.010 A 
ATOM     34  C   UNL     1       4.598   9.906   1.879  1.00  0.00     0.010 A 
ATOM     35  C   UNL     1       5.128  11.158   1.585  1.00  0.00    -0.014 A 
BRANCH  35  36
ATOM     36  C   UNL     1       5.096  11.563   0.188  1.00  0.00     0.031 A 
ATOM     37  C   UNL     1       6.431  11.733  -0.442  1.00  0.00     0.074 A 
ATOM     38  C   UNL     1       3.951  11.511  -0.531  1.00  0.00     0.049 A 
ATOM     39  N   UNL     1       6.931  12.824  -0.914  1.00  0.00    -0.248 NA
ATOM     40  C   UNL     1       7.376  10.602  -0.438  1.00  0.00     0.031 C 
ATOM     41  C   UNL     1       2.621  11.071  -0.087  1.00  0.00     0.029 A 
ATOM     42  N   UNL     1       3.765  11.700  -1.863  1.00  0.00    -0.354 N 
ATOM     43  C   UNL     1       8.170  12.486  -1.449  1.00  0.00     0.074 A 
ATOM     44  C   UNL     1       8.466  11.160  -0.971  1.00  0.00     0.031 C 
ATOM     45  C   UNL     1       1.856  10.782  -1.164  1.00  0.00     0.029 A 
ATOM     46  C   UNL     1       2.579  11.168  -2.361  1.00  0.00     0.049 A 
ATOM     47  H   UNL     1       4.415  12.175  -2.429  1.00  0.00     0.167 HD
ATOM     48  C   UNL     1       8.735  13.231  -2.440  1.00  0.00     0.031 A 
ATOM     49  C   UNL     1       2.231  11.025  -3.666  1.00  0.00     0.031 A 
ATOM     50  C   UNL     1       8.041  14.482  -2.616  1.00  0.00     0.049 A 
ATOM     51  C   UNL     1       3.090  11.945  -4.448  1.00  0.00     0.074 A 
ATOM     52  C   UNL     1       7.785  15.569  -1.805  1.00  0.00     0.029 A 
ATOM     53  N   UNL     1       7.121  14.541  -3.638  1.00  0.00    -0.354 N 
ATOM     54  N   UNL     1       2.995  13.241  -4.362  1.00  0.00    -0.248 NA
ATOM     55  C   UNL     1       4.368  11.445  -4.934  1.00  0.00     0.031 C 
ATOM     56  C   UNL     1       6.438  15.931  -2.100  1.00  0.00     0.029 A 
ATOM     57  C   UNL     1       5.981  15.116  -3.138  1.00  0.00     0.049 A 
ATOM     58  H   UNL     1       7.257  14.227  -4.561  1.00  0.00     0.167 HD
ATOM     59  C   UNL     1       4.310  13.681  -4.308  1.00  0.00     0.074 A 
ATOM     60  C   UNL     1       5.109  12.548  -4.778  1.00  0.00     0.031 C 
ATOM     61  C   UNL     1       4.648  14.800  -3.599  1.00  0.00     0.031 A 
BRANCH  48  62
ATOM     62  C   UNL     1       9.626  12.675  -3.521  1.00  0.00    -0.014 A 
ATOM     63  C   UNL     1      10.188  13.569  -4.451  1.00  0.00     0.009 A 
ATOM     64  C   UNL     1       9.699  11.306  -3.833  1.00  0.00     0.009 A 
ATOM     65  C   UNL     1      10.718  13.120  -5.666  1.00  0.00     0.001 A 
ATOM     66  C   UNL     1      10.263  10.851  -5.028  1.00  0.00     0.001 A 
ATOM     67  C   UNL     1      10.745  11.761  -5.958  1.00  0.00     0.000 A 
ENDBRANCH  48  62
BRANCH  49  68
ATOM     68  C   UNL     1       1.379   9.996  -4.303  1.00  0.00    -0.014 A 
ATOM     69  C   UNL     1       0.882  10.169  -5.606  1.00  0.00     0.009 A 
ATOM     70  C   UNL     1       1.270   8.714  -3.733  1.00  0.00     0.009 A 
ATOM     71  C   UNL     1       0.339   9.092  -6.323  1.00  0.00     0.001 A 
ATOM     72  C   UNL     1       0.727   7.639  -4.447  1.00  0.00     0.001 A 
ATOM     73  C   UNL     1       0.276   7.825  -5.749  1.00  0.00     0.000 A 
ENDBRANCH  49  68
BRANCH  61  74
ATOM     74  C   UNL     1       3.527  15.645  -3.036  1.00  0.00    -0.014 A 
ATOM     75  C   UNL     1       2.586  15.161  -2.108  1.00  0.00     0.009 A 
ATOM     76  C   UNL     1       3.519  17.016  -3.327  1.00  0.00     0.009 A 
ATOM     77  C   UNL     1       1.647  16.016  -1.519  1.00  0.00     0.001 A 
ATOM     78  C   UNL     1       2.598  17.874  -2.723  1.00  0.00     0.001 A 
ATOM     79  C   UNL     1       1.657  17.374  -1.825  1.00  0.00     0.000 A 
ENDBRANCH  61  74
ENDBRANCH  35  36
ENDBRANCH  27  30
ENDBRANCH  25  26
ENDBRANCH  24  25
ENDBRANCH   1  24
TORSDOF 14
