REMARK SMILES Cc1cc(C)c2c(c1)C=C(C(=O)NCCCCNC(=O)c1ccc(-c3c4nc(c(-c5ccccc5)c5ccc([nH]5)c(-c5ccccc5)c5nc(c(-c6ccccc6)c6ccc3[nH]6)C=C5)C=C4)cc1)[C@@H](C(F)(F)F)O2
REMARK SMILES IDX 16 1 15 2 14 3 13 4 11 5 12 6 10 8 1 9 2 10 3 11 8 12 4 13
REMARK SMILES IDX 7 14 5 15 6 16 9 17 74 18 69 19 70 20 71 21 72 22 73 23
REMARK SMILES IDX 17 24 18 25 19 26 20 28 21 29 22 30 68 31 23 32 67 33 24 34
REMARK SMILES IDX 25 35 26 36 61 37 27 38 66 39 60 40 62 41 28 42 65 43 59 44
REMARK SMILES IDX 58 45 29 47 51 48 36 49 50 50 37 51 40 52 49 53 63 54 38 55
REMARK SMILES IDX 39 56 48 58 64 59 41 60 30 61 31 62 35 63 32 64 34 65 33 66
REMARK SMILES IDX 52 67 53 68 57 69 54 70 56 71 55 72 42 73 43 74 47 75 44 76
REMARK SMILES IDX 46 77 45 78
REMARK H PARENT 13 7 18 27 62 46 40 57
REMARK Flexibility Score: inf
ROOT
ATOM      1  C   UNL     1       1.596   9.034   6.589  1.00  0.00     0.023 C 
ENDROOT
BRANCH   1   2
ATOM      2  C   UNL     1       1.119   7.615   6.270  1.00  0.00     0.023 C 
BRANCH   2   3
ATOM      3  C   UNL     1       0.061   7.548   5.172  1.00  0.00     0.116 C 
BRANCH   3   4
ATOM      4  N   UNL     1       0.654   7.509   3.848  1.00  0.00    -0.352 N 
ATOM      5  C   UNL     1       0.882   6.573   2.896  1.00  0.00     0.251 C 
ATOM      6  O   UNL     1       1.445   6.990   1.879  1.00  0.00    -0.270 OA
ATOM      7  H   UNL     1       0.976   8.396   3.569  1.00  0.00     0.163 HD
BRANCH   5   8
ATOM      8  C   UNL     1       0.512   5.130   2.998  1.00  0.00     0.067 C 
ATOM      9  C   UNL     1       1.048  -0.156  -0.167  1.00  0.00     0.044 C 
ATOM     10  C   UNL     1       0.676   0.723   0.991  1.00  0.00    -0.050 A 
ATOM     11  C   UNL     1       0.079   0.182   2.137  1.00  0.00     0.010 A 
ATOM     12  C   UNL     1       0.965   2.094   0.949  1.00  0.00     0.015 A 
ATOM     13  C   UNL     1      -0.243   0.996   3.231  1.00  0.00    -0.008 A 
ATOM     14  C   UNL     1       0.649   2.919   2.033  1.00  0.00     0.018 A 
ATOM     15  C   UNL     1      -0.882   0.406   4.456  1.00  0.00     0.048 C 
ATOM     16  C   UNL     1       0.043   2.366   3.163  1.00  0.00     0.130 A 
ATOM     17  C   UNL     1       0.984   4.338   2.018  1.00  0.00     0.025 C 
ATOM     18  O   UNL     1      -0.247   3.117   4.268  1.00  0.00    -0.475 OA
ATOM     19  C   UNL     1      -0.363   4.551   4.073  1.00  0.00     0.314 C 
BRANCH  19  20
ATOM     20  C   UNL     1      -1.848   4.917   3.895  1.00  0.00     0.429 C 
ATOM     21  F   UNL     1      -2.537   4.666   5.037  1.00  0.00    -0.167 F 
ATOM     22  F   UNL     1      -2.029   6.233   3.626  1.00  0.00    -0.167 F 
ATOM     23  F   UNL     1      -2.446   4.226   2.900  1.00  0.00    -0.167 F 
ENDBRANCH  19  20
ENDBRANCH   5   8
ENDBRANCH   3   4
ENDBRANCH   2   3
ENDBRANCH   1   2
BRANCH   1  24
ATOM     24  C   UNL     1       0.494  10.029   6.950  1.00  0.00     0.116 C 
BRANCH  24  25
ATOM     25  N   UNL     1      -0.412   9.555   7.987  1.00  0.00    -0.352 N 
ATOM     26  C   UNL     1      -1.063  10.294   8.944  1.00  0.00     0.251 C 
ATOM     27  H   UNL     1      -0.579   8.585   8.003  1.00  0.00     0.163 HD
ATOM     28  O   UNL     1      -1.746   9.752   9.806  1.00  0.00    -0.269 OA
BRANCH  26  29
ATOM     29  C   UNL     1      -0.885  11.757   8.945  1.00  0.00     0.039 A 
ATOM     30  C   UNL     1      -0.393  12.373  10.097  1.00  0.00     0.014 A 
ATOM     31  C   UNL     1      -1.131  12.496   7.784  1.00  0.00     0.014 A 
ATOM     32  C   UNL     1      -0.074  13.729  10.062  1.00  0.00     0.010 A 
ATOM     33  C   UNL     1      -0.756  13.833   7.734  1.00  0.00     0.010 A 
ATOM     34  C   UNL     1      -0.219  14.458   8.870  1.00  0.00    -0.014 A 
BRANCH  34  35
ATOM     35  C   UNL     1       0.189  15.879   8.794  1.00  0.00     0.031 A 
ATOM     36  C   UNL     1      -0.850  16.946   8.606  1.00  0.00     0.074 A 
ATOM     37  C   UNL     1       1.495  16.202   8.844  1.00  0.00     0.049 A 
ATOM     38  N   UNL     1      -0.689  18.237   8.474  1.00  0.00    -0.248 NA
ATOM     39  C   UNL     1      -2.252  16.501   8.538  1.00  0.00     0.031 C 
ATOM     40  C   UNL     1       2.600  15.252   8.993  1.00  0.00     0.029 A 
ATOM     41  N   UNL     1       2.114  17.425   8.777  1.00  0.00    -0.354 N 
ATOM     42  C   UNL     1      -1.964  18.756   8.297  1.00  0.00     0.074 A 
ATOM     43  C   UNL     1      -2.883  17.639   8.290  1.00  0.00     0.031 C 
ATOM     44  C   UNL     1       3.758  15.931   9.043  1.00  0.00     0.029 A 
ATOM     45  C   UNL     1       3.480  17.356   8.896  1.00  0.00     0.049 A 
ATOM     46  H   UNL     1       1.625  18.270   8.655  1.00  0.00     0.167 HD
ATOM     47  C   UNL     1      -2.340  20.050   8.175  1.00  0.00     0.031 A 
ATOM     48  C   UNL     1       4.405  18.335   8.893  1.00  0.00     0.031 A 
ATOM     49  C   UNL     1      -1.430  21.162   8.196  1.00  0.00     0.049 A 
ATOM     50  C   UNL     1       3.964  19.762   8.737  1.00  0.00     0.074 A 
ATOM     51  C   UNL     1      -1.719  22.513   8.121  1.00  0.00     0.029 A 
ATOM     52  N   UNL     1      -0.053  21.049   8.305  1.00  0.00    -0.354 N 
ATOM     53  N   UNL     1       2.750  20.241   8.613  1.00  0.00    -0.248 NA
ATOM     54  C   UNL     1       5.021  20.784   8.726  1.00  0.00     0.031 C 
ATOM     55  C   UNL     1      -0.511  23.218   8.149  1.00  0.00     0.029 A 
ATOM     56  C   UNL     1       0.524  22.306   8.283  1.00  0.00     0.049 A 
ATOM     57  H   UNL     1       0.440  20.201   8.385  1.00  0.00     0.167 HD
ATOM     58  C   UNL     1       2.894  21.619   8.527  1.00  0.00     0.074 A 
ATOM     59  C   UNL     1       4.311  21.901   8.627  1.00  0.00     0.031 C 
ATOM     60  C   UNL     1       1.936  22.565   8.379  1.00  0.00     0.031 A 
BRANCH  47  61
ATOM     61  C   UNL     1      -3.806  20.327   8.015  1.00  0.00    -0.014 A 
ATOM     62  C   UNL     1      -4.688  20.186   9.099  1.00  0.00     0.009 A 
ATOM     63  C   UNL     1      -4.308  20.761   6.779  1.00  0.00     0.009 A 
ATOM     64  C   UNL     1      -6.050  20.444   8.939  1.00  0.00     0.001 A 
ATOM     65  C   UNL     1      -5.667  21.041   6.629  1.00  0.00     0.001 A 
ATOM     66  C   UNL     1      -6.537  20.875   7.706  1.00  0.00     0.000 A 
ENDBRANCH  47  61
BRANCH  48  67
ATOM     67  C   UNL     1       5.839  17.998   9.076  1.00  0.00    -0.014 A 
ATOM     68  C   UNL     1       6.476  18.271  10.296  1.00  0.00     0.009 A 
ATOM     69  C   UNL     1       6.574  17.394   8.045  1.00  0.00     0.009 A 
ATOM     70  C   UNL     1       7.825  17.959  10.475  1.00  0.00     0.001 A 
ATOM     71  C   UNL     1       7.918  17.064   8.234  1.00  0.00     0.001 A 
ATOM     72  C   UNL     1       8.544  17.352   9.446  1.00  0.00     0.000 A 
ENDBRANCH  48  67
BRANCH  60  73
ATOM     73  C   UNL     1       2.384  23.997   8.331  1.00  0.00    -0.014 A 
ATOM     74  C   UNL     1       2.970  24.529   7.174  1.00  0.00     0.009 A 
ATOM     75  C   UNL     1       2.149  24.837   9.430  1.00  0.00     0.009 A 
ATOM     76  C   UNL     1       3.330  25.877   7.125  1.00  0.00     0.001 A 
ATOM     77  C   UNL     1       2.490  26.189   9.370  1.00  0.00     0.001 A 
ATOM     78  C   UNL     1       3.084  26.706   8.220  1.00  0.00     0.000 A 
ENDBRANCH  60  73
ENDBRANCH  34  35
ENDBRANCH  26  29
ENDBRANCH  24  25
ENDBRANCH   1  24
TORSDOF 12
