REMARK SMILES Cc1ccc(C(=O)NCCCCNC(=O)c2ccc(-c3c4nc(c(-c5ccccc5)c5ccc([nH]5)c(-c5ccccc5)c5nc(c(-c6ccccc6)c6ccc3[nH]6)C=C5)C=C4)cc2)cc1N1C(=O)/C(=C/c2ccc([N+](=O)[O-])cc2)SC1=S
REMARK SMILES IDX 10 1 9 2 8 3 6 4 7 5 5 7 1 8 2 9 3 10 65 11 4 12 64 13 66 14
REMARK SMILES IDX 67 15 81 16 68 17 69 18 80 19 82 20 70 21 71 22 72 23 79 24
REMARK SMILES IDX 73 25 78 26 74 27 75 28 76 29 77 30 11 31 12 32 13 33 14 34
REMARK SMILES IDX 15 36 16 37 17 38 63 39 18 40 62 41 19 42 20 43 21 44 56 45
REMARK SMILES IDX 22 46 61 47 55 48 57 49 23 50 60 51 54 52 53 53 24 55 46 56
REMARK SMILES IDX 31 57 45 58 32 59 35 60 44 61 58 62 33 63 34 64 43 66 59 67
REMARK SMILES IDX 36 68 25 69 26 70 30 71 27 72 29 73 28 74 47 75 48 76 52 77
REMARK SMILES IDX 49 78 51 79 50 80 37 81 38 82 42 83 39 84 41 85 40 86
REMARK H PARENT 8 6 13 35 57 54 35 65
REMARK Flexibility Score: inf
ROOT
ATOM      1  C   UNL     1      -3.526   3.213  -1.436  1.00  0.00     0.023 C 
ENDROOT
BRANCH   1   2
ATOM      2  C   UNL     1      -3.591   2.656  -0.006  1.00  0.00     0.116 C 
BRANCH   2   3
ATOM      3  N   UNL     1      -3.846   1.227   0.031  1.00  0.00    -0.352 N 
ATOM      4  C   UNL     1      -3.070   0.096   0.090  1.00  0.00     0.251 C 
ATOM      5  O   UNL     1      -3.686  -0.969   0.193  1.00  0.00    -0.269 OA
ATOM      6  H   UNL     1      -4.808   1.019   0.008  1.00  0.00     0.163 HD
BRANCH   4   7
ATOM      7  C   UNL     1      -1.577   0.048   0.029  1.00  0.00     0.041 A 
ATOM      8  C   UNL     1       2.741  -0.492  -0.217  1.00  0.00     0.046 C 
ATOM      9  C   UNL     1       1.258  -0.261  -0.140  1.00  0.00    -0.027 A 
ATOM     10  C   UNL     1       0.418  -1.371   0.016  1.00  0.00     0.006 A 
ATOM     11  C   UNL     1       0.663   1.007  -0.220  1.00  0.00     0.054 A 
ATOM     12  C   UNL     1      -0.973  -1.218   0.088  1.00  0.00     0.014 A 
ATOM     13  C   UNL     1      -0.736   1.147  -0.122  1.00  0.00     0.041 A 
BRANCH  11  14
ATOM     14  N   UNL     1       1.414   2.184  -0.478  1.00  0.00    -0.261 N 
ATOM     15  C   UNL     1       2.163   2.765   0.543  1.00  0.00     0.270 C 
ATOM     16  C   UNL     1       1.330   2.881  -1.674  1.00  0.00     0.152 C 
ATOM     17  O   UNL     1       2.369   2.330   1.657  1.00  0.00    -0.268 OA
ATOM     18  C   UNL     1       2.654   4.099   0.082  1.00  0.00     0.081 C 
ATOM     19  S   UNL     1       2.349   4.311  -1.593  1.00  0.00    -0.054 SA
ATOM     20  S   UNL     1       0.449   2.523  -3.050  1.00  0.00    -0.051 S 
ATOM     21  C   UNL     1       3.187   4.995   0.922  1.00  0.00     0.029 C 
BRANCH  21  22
ATOM     22  C   UNL     1       3.716   6.304   0.531  1.00  0.00    -0.024 A 
ATOM     23  C   UNL     1       2.891   7.431   0.413  1.00  0.00     0.015 A 
ATOM     24  C   UNL     1       5.089   6.420   0.284  1.00  0.00     0.015 A 
ATOM     25  C   UNL     1       3.443   8.677   0.092  1.00  0.00     0.086 A 
ATOM     26  C   UNL     1       5.649   7.657  -0.037  1.00  0.00     0.086 A 
ATOM     27  C   UNL     1       4.826   8.787  -0.114  1.00  0.00     0.269 A 
BRANCH  27  28
ATOM     28  N   UNL     1       5.426  10.101  -0.382  1.00  0.00     0.062 N 
ATOM     29  O   UNL     1       4.668  11.079  -0.445  1.00  0.00    -0.258 OA
ATOM     30  O   UNL     1       6.657  10.154  -0.516  1.00  0.00    -0.258 OA
ENDBRANCH  27  28
ENDBRANCH  21  22
ENDBRANCH  11  14
ENDBRANCH   4   7
ENDBRANCH   2   3
ENDBRANCH   1   2
BRANCH   1  31
ATOM     31  C   UNL     1      -4.889   3.429  -2.110  1.00  0.00     0.023 C 
BRANCH  31  32
ATOM     32  C   UNL     1      -5.778   4.452  -1.415  1.00  0.00     0.116 C 
BRANCH  32  33
ATOM     33  N   UNL     1      -5.419   5.850  -1.609  1.00  0.00    -0.352 N 
ATOM     34  C   UNL     1      -5.905   6.991  -0.989  1.00  0.00     0.251 C 
ATOM     35  H   UNL     1      -4.722   6.009  -2.286  1.00  0.00     0.163 HD
ATOM     36  O   UNL     1      -5.564   8.091  -1.420  1.00  0.00    -0.269 OA
BRANCH  34  37
ATOM     37  C   UNL     1      -6.683   6.917   0.281  1.00  0.00     0.039 A 
ATOM     38  C   UNL     1      -6.516   7.953   1.215  1.00  0.00     0.014 A 
ATOM     39  C   UNL     1      -7.335   5.757   0.670  1.00  0.00     0.014 A 
ATOM     40  C   UNL     1      -6.708   7.696   2.569  1.00  0.00     0.010 A 
ATOM     41  C   UNL     1      -7.366   5.440   2.007  1.00  0.00     0.010 A 
ATOM     42  C   UNL     1      -6.988   6.393   2.954  1.00  0.00    -0.014 A 
BRANCH  42  43
ATOM     43  C   UNL     1      -6.895   5.885   4.309  1.00  0.00     0.031 A 
ATOM     44  C   UNL     1      -8.138   5.590   5.041  1.00  0.00     0.074 A 
ATOM     45  C   UNL     1      -5.687   5.487   4.764  1.00  0.00     0.049 A 
ATOM     46  N   UNL     1      -8.192   5.310   6.295  1.00  0.00    -0.248 NA
ATOM     47  C   UNL     1      -9.457   5.650   4.408  1.00  0.00     0.031 C 
ATOM     48  C   UNL     1      -5.388   4.585   5.873  1.00  0.00     0.029 A 
ATOM     49  N   UNL     1      -4.446   6.023   4.415  1.00  0.00    -0.354 N 
ATOM     50  C   UNL     1      -9.455   4.830   6.543  1.00  0.00     0.074 A 
ATOM     51  C   UNL     1     -10.237   5.196   5.392  1.00  0.00     0.031 C 
ATOM     52  C   UNL     1      -4.132   4.814   6.293  1.00  0.00     0.029 A 
ATOM     53  C   UNL     1      -3.659   5.993   5.585  1.00  0.00     0.049 A 
ATOM     54  H   UNL     1      -4.174   6.357   3.529  1.00  0.00     0.167 HD
ATOM     55  C   UNL     1      -9.640   4.023   7.622  1.00  0.00     0.031 A 
ATOM     56  C   UNL     1      -3.291   7.159   6.198  1.00  0.00     0.031 A 
ATOM     57  C   UNL     1      -8.481   4.067   8.512  1.00  0.00     0.049 A 
ATOM     58  C   UNL     1      -3.854   7.297   7.597  1.00  0.00     0.074 A 
ATOM     59  C   UNL     1      -7.439   3.190   8.756  1.00  0.00     0.029 A 
ATOM     60  N   UNL     1      -8.105   5.292   9.058  1.00  0.00    -0.354 N 
ATOM     61  N   UNL     1      -4.916   6.667   8.022  1.00  0.00    -0.248 NA
ATOM     62  C   UNL     1      -3.267   8.154   8.624  1.00  0.00     0.031 C 
ATOM     63  C   UNL     1      -6.375   3.938   9.333  1.00  0.00     0.029 A 
ATOM     64  C   UNL     1      -6.795   5.249   9.490  1.00  0.00     0.049 A 
ATOM     65  H   UNL     1      -8.692   6.079   9.127  1.00  0.00     0.167 HD
ATOM     66  C   UNL     1      -5.141   6.981   9.335  1.00  0.00     0.074 A 
ATOM     67  C   UNL     1      -4.087   7.925   9.666  1.00  0.00     0.031 C 
ATOM     68  C   UNL     1      -6.168   6.438  10.053  1.00  0.00     0.031 A 
BRANCH  55  69
ATOM     69  C   UNL     1     -10.755   3.008   7.739  1.00  0.00    -0.014 A 
ATOM     70  C   UNL     1     -10.762   2.121   8.832  1.00  0.00     0.009 A 
ATOM     71  C   UNL     1     -11.744   2.780   6.763  1.00  0.00     0.009 A 
ATOM     72  C   UNL     1     -11.685   1.068   8.929  1.00  0.00     0.001 A 
ATOM     73  C   UNL     1     -12.685   1.747   6.865  1.00  0.00     0.001 A 
ATOM     74  C   UNL     1     -12.649   0.882   7.946  1.00  0.00     0.000 A 
ENDBRANCH  55  69
BRANCH  56  75
ATOM     75  C   UNL     1      -3.101   8.284   5.233  1.00  0.00    -0.014 A 
ATOM     76  C   UNL     1      -2.074   8.159   4.271  1.00  0.00     0.009 A 
ATOM     77  C   UNL     1      -4.132   9.202   4.992  1.00  0.00     0.009 A 
ATOM     78  C   UNL     1      -2.165   8.810   3.037  1.00  0.00     0.001 A 
ATOM     79  C   UNL     1      -4.201   9.876   3.764  1.00  0.00     0.001 A 
ATOM     80  C   UNL     1      -3.248   9.641   2.772  1.00  0.00     0.000 A 
ENDBRANCH  56  75
BRANCH  68  81
ATOM     81  C   UNL     1      -6.647   6.927  11.398  1.00  0.00    -0.014 A 
ATOM     82  C   UNL     1      -6.444   8.227  11.878  1.00  0.00     0.009 A 
ATOM     83  C   UNL     1      -7.481   6.088  12.171  1.00  0.00     0.009 A 
ATOM     84  C   UNL     1      -6.999   8.649  13.094  1.00  0.00     0.001 A 
ATOM     85  C   UNL     1      -8.076   6.520  13.358  1.00  0.00     0.001 A 
ATOM     86  C   UNL     1      -7.822   7.800  13.828  1.00  0.00     0.000 A 
ENDBRANCH  68  81
ENDBRANCH  42  43
ENDBRANCH  34  37
ENDBRANCH  32  33
ENDBRANCH  31  32
ENDBRANCH   1  31
TORSDOF 14
