REMARK SMILES Cc1ccc(S(=O)(=O)N[C@@H](C)C(=O)Oc2csc(C(=O)NCCCCNC(=O)c3ccc(-c4c5nc(c(-c6ccccc6)c6ccc([nH]6)c(-c6ccccc6)c6nc(c(-c7ccccc7)c7ccc4[nH]7)C=C6)C=C5)cc3)c2C)cc1
REMARK SMILES IDX 19 1 20 2 21 3 18 5 15 6 16 7 77 8 17 9 78 10 14 11 12 12
REMARK SMILES IDX 13 13 10 14 11 15 9 16 6 18 7 19 8 20 5 21 1 22 2 23 3 24
REMARK SMILES IDX 80 25 4 26 79 27 22 28 23 29 24 30 25 31 26 32 27 33 28 35
REMARK SMILES IDX 29 36 30 37 76 38 31 39 75 40 32 41 33 42 34 43 69 44 35 45
REMARK SMILES IDX 74 46 68 47 70 48 36 49 73 50 67 51 66 52 37 54 59 55 44 56
REMARK SMILES IDX 58 57 45 58 48 59 57 60 71 61 46 62 47 63 56 65 72 66 49 67
REMARK SMILES IDX 38 68 39 69 43 70 40 71 42 72 41 73 60 74 61 75 65 76 62 77
REMARK SMILES IDX 64 78 63 79 50 80 51 81 55 82 52 83 54 84 53 85
REMARK H PARENT 21 4 9 17 26 34 70 53 48 64
REMARK Flexibility Score: inf
ROOT
ATOM      1  C   UNL     1      -6.070   8.517  -2.659  1.00  0.00     0.261 C 
ATOM      2  O   UNL     1      -6.901   9.414  -2.458  1.00  0.00    -0.268 OA
ATOM      3  N   UNL     1      -5.115   8.905  -3.567  1.00  0.00    -0.351 N 
ATOM      4  H   UNL     1      -5.271   9.815  -3.909  1.00  0.00     0.163 HD
ENDROOT
BRANCH   1   5
ATOM      5  C   UNL     1      -6.129   7.221  -1.960  1.00  0.00     0.099 A 
ATOM      6  C   UNL     1      -5.976   5.057  -1.041  1.00  0.00     0.145 A 
ATOM      7  C   UNL     1      -6.931   5.587  -0.219  1.00  0.00     0.113 A 
ATOM      8  C   UNL     1      -5.589   5.940  -2.118  1.00  0.00     0.015 A 
ATOM      9  S   UNL     1      -7.230   7.213  -0.597  1.00  0.00    -0.134 S 
ATOM     10  C   UNL     1      -4.759   5.407  -3.226  1.00  0.00     0.050 C 
BRANCH   6  11
ATOM     11  O   UNL     1      -5.577   3.766  -0.903  1.00  0.00    -0.424 OA
BRANCH  11  12
ATOM     12  C   UNL     1      -4.223   3.550  -0.855  1.00  0.00     0.329 C 
ATOM     13  O   UNL     1      -3.376   4.382  -0.542  1.00  0.00    -0.250 OA
BRANCH  12  14
ATOM     14  C   UNL     1      -3.873   2.104  -1.202  1.00  0.00     0.177 C 
ATOM     15  C   UNL     1      -4.593   1.620  -2.452  1.00  0.00     0.038 C 
BRANCH  14  16
ATOM     16  N   UNL     1      -4.129   1.276  -0.023  1.00  0.00    -0.197 NA
ATOM     17  H   UNL     1      -3.770   1.806   0.772  1.00  0.00     0.142 HD
BRANCH  16  18
ATOM     18  S   UNL     1      -3.547  -0.271   0.164  1.00  0.00     0.241 S 
ATOM     19  O   UNL     1      -3.884  -1.008  -1.045  1.00  0.00    -0.207 OA
ATOM     20  O   UNL     1      -3.997  -0.702   1.456  1.00  0.00    -0.207 OA
BRANCH  18  21
ATOM     21  C   UNL     1      -1.780  -0.144   0.227  1.00  0.00     0.082 A 
ATOM     22  C   UNL     1       2.511   0.008   0.020  1.00  0.00     0.044 C 
ATOM     23  C   UNL     1       1.013  -0.035   0.099  1.00  0.00    -0.051 A 
ATOM     24  C   UNL     1       0.345  -1.253  -0.079  1.00  0.00     0.005 A 
ATOM     25  C   UNL     1       0.270   1.121   0.376  1.00  0.00     0.005 A 
ATOM     26  C   UNL     1      -1.047  -1.306  -0.029  1.00  0.00     0.022 A 
ATOM     27  C   UNL     1      -1.125   1.068   0.453  1.00  0.00     0.022 A 
ENDBRANCH  18  21
ENDBRANCH  16  18
ENDBRANCH  14  16
ENDBRANCH  12  14
ENDBRANCH  11  12
ENDBRANCH   6  11
ENDBRANCH   1   5
BRANCH   3  28
ATOM     28  C   UNL     1      -3.937   8.296  -4.140  1.00  0.00     0.116 C 
BRANCH  28  29
ATOM     29  C   UNL     1      -4.260   7.594  -5.470  1.00  0.00     0.023 C 
BRANCH  29  30
ATOM     30  C   UNL     1      -4.248   8.479  -6.710  1.00  0.00     0.023 C 
BRANCH  30  31
ATOM     31  C   UNL     1      -2.851   8.869  -7.149  1.00  0.00     0.116 C 
BRANCH  31  32
ATOM     32  N   UNL     1      -2.158   7.906  -7.995  1.00  0.00    -0.352 N 
ATOM     33  C   UNL     1      -0.852   7.931  -8.464  1.00  0.00     0.251 C 
ATOM     34  H   UNL     1      -2.692   7.127  -8.274  1.00  0.00     0.163 HD
ATOM     35  O   UNL     1      -0.475   7.072  -9.256  1.00  0.00    -0.269 OA
BRANCH  33  36
ATOM     36  C   UNL     1       0.136   8.881  -7.881  1.00  0.00     0.039 A 
ATOM     37  C   UNL     1       1.411   8.379  -7.590  1.00  0.00     0.014 A 
ATOM     38  C   UNL     1      -0.273  10.084  -7.323  1.00  0.00     0.014 A 
ATOM     39  C   UNL     1       2.103   8.885  -6.497  1.00  0.00     0.010 A 
ATOM     40  C   UNL     1       0.313  10.476  -6.145  1.00  0.00     0.010 A 
ATOM     41  C   UNL     1       1.462   9.823  -5.698  1.00  0.00    -0.014 A 
BRANCH  41  42
ATOM     42  C   UNL     1       1.875  10.168  -4.352  1.00  0.00     0.031 A 
ATOM     43  C   UNL     1       2.557  11.449  -4.134  1.00  0.00     0.074 A 
ATOM     44  C   UNL     1       1.491   9.378  -3.326  1.00  0.00     0.049 A 
ATOM     45  N   UNL     1       3.281  11.723  -3.108  1.00  0.00    -0.248 NA
ATOM     46  C   UNL     1       2.515  12.528  -5.117  1.00  0.00     0.031 C 
ATOM     47  C   UNL     1       1.535   9.665  -1.896  1.00  0.00     0.029 A 
ATOM     48  N   UNL     1       1.167   8.022  -3.395  1.00  0.00    -0.354 N 
ATOM     49  C   UNL     1       3.511  13.078  -3.129  1.00  0.00     0.074 A 
ATOM     50  C   UNL     1       3.128  13.507  -4.450  1.00  0.00     0.031 C 
ATOM     51  C   UNL     1       1.531   8.502  -1.222  1.00  0.00     0.029 A 
ATOM     52  C   UNL     1       1.642   7.436  -2.206  1.00  0.00     0.049 A 
ATOM     53  H   UNL     1       0.698   7.565  -4.130  1.00  0.00     0.167 HD
ATOM     54  C   UNL     1       3.834  13.700  -1.961  1.00  0.00     0.031 A 
ATOM     55  C   UNL     1       2.666   6.532  -2.258  1.00  0.00     0.031 A 
ATOM     56  C   UNL     1       4.087  12.720  -0.901  1.00  0.00     0.049 A 
ATOM     57  C   UNL     1       3.927   7.027  -1.576  1.00  0.00     0.074 A 
ATOM     58  C   UNL     1       3.336  12.272   0.173  1.00  0.00     0.029 A 
ATOM     59  N   UNL     1       5.111  11.792  -1.077  1.00  0.00    -0.354 N 
ATOM     60  N   UNL     1       4.170   8.280  -1.300  1.00  0.00    -0.248 NA
ATOM     61  C   UNL     1       5.014   6.147  -1.155  1.00  0.00     0.031 C 
ATOM     62  C   UNL     1       3.854  11.007   0.571  1.00  0.00     0.029 A 
ATOM     63  C   UNL     1       4.943  10.710  -0.232  1.00  0.00     0.049 A 
ATOM     64  H   UNL     1       5.853  11.892  -1.715  1.00  0.00     0.167 HD
ATOM     65  C   UNL     1       5.384   8.392  -0.674  1.00  0.00     0.074 A 
ATOM     66  C   UNL     1       5.871   7.025  -0.602  1.00  0.00     0.031 C 
ATOM     67  C   UNL     1       5.887   9.597  -0.268  1.00  0.00     0.031 A 
BRANCH  54  68
ATOM     68  C   UNL     1       3.615  15.178  -1.717  1.00  0.00    -0.014 A 
ATOM     69  C   UNL     1       3.504  15.650  -0.397  1.00  0.00     0.009 A 
ATOM     70  C   UNL     1       3.422  16.143  -2.722  1.00  0.00     0.009 A 
ATOM     71  C   UNL     1       3.147  16.975  -0.104  1.00  0.00     0.001 A 
ATOM     72  C   UNL     1       3.043  17.464  -2.441  1.00  0.00     0.001 A 
ATOM     73  C   UNL     1       2.896  17.878  -1.129  1.00  0.00     0.000 A 
ENDBRANCH  54  68
BRANCH  55  74
ATOM     74  C   UNL     1       2.614   5.675  -3.482  1.00  0.00    -0.014 A 
ATOM     75  C   UNL     1       1.495   4.826  -3.641  1.00  0.00     0.009 A 
ATOM     76  C   UNL     1       3.380   5.981  -4.615  1.00  0.00     0.009 A 
ATOM     77  C   UNL     1       1.068   4.428  -4.912  1.00  0.00     0.001 A 
ATOM     78  C   UNL     1       2.960   5.557  -5.885  1.00  0.00     0.001 A 
ATOM     79  C   UNL     1       1.782   4.826  -6.037  1.00  0.00     0.000 A 
ENDBRANCH  55  74
BRANCH  67  80
ATOM     80  C   UNL     1       7.303   9.860   0.199  1.00  0.00    -0.014 A 
ATOM     81  C   UNL     1       8.392   9.015  -0.045  1.00  0.00     0.009 A 
ATOM     82  C   UNL     1       7.598  11.100   0.813  1.00  0.00     0.009 A 
ATOM     83  C   UNL     1       9.693   9.367   0.344  1.00  0.00     0.001 A 
ATOM     84  C   UNL     1       8.899  11.481   1.150  1.00  0.00     0.001 A 
ATOM     85  C   UNL     1       9.948  10.604   0.928  1.00  0.00     0.000 A 
ENDBRANCH  67  80
ENDBRANCH  41  42
ENDBRANCH  33  36
ENDBRANCH  31  32
ENDBRANCH  30  31
ENDBRANCH  29  30
ENDBRANCH  28  29
ENDBRANCH   3  28
TORSDOF 17
