REMARK SMILES Cc1ccc(Br)cc1C(=O)N1CCO[C@H](CC(=O)NCCCCNC(=O)c2ccc(-c3c4nc(c(-c5ccccc5)c5ccc([nH]5)c(-c5ccccc5)c5nc(c(-c6ccccc6)c6ccc3[nH]6)C=C5)C=C4)cc2)C1
REMARK SMILES IDX 21 1 20 2 19 3 17 4 18 5 16 7 15 8 11 9 12 10 75 11 13 12
REMARK SMILES IDX 14 13 9 14 10 15 8 16 1 17 2 18 3 19 4 20 7 21 5 22 6 23
REMARK SMILES IDX 22 24 23 25 24 26 25 27 26 29 27 30 28 31 74 32 29 33 73 34
REMARK SMILES IDX 30 35 31 36 32 37 67 38 33 39 72 40 66 41 68 42 34 43 71 44
REMARK SMILES IDX 65 45 64 46 35 48 57 49 42 50 56 51 43 52 46 53 55 54 69 55
REMARK SMILES IDX 44 56 45 57 54 59 70 60 47 61 36 62 37 63 41 64 38 65 40 66
REMARK SMILES IDX 39 67 58 68 59 69 63 70 60 71 62 72 61 73 48 74 49 75 53 76
REMARK SMILES IDX 50 77 52 78 51 79
REMARK H PARENT 19 6 24 28 68 47 46 58
REMARK Flexibility Score: inf
ROOT
ATOM      1  C   UNL     1       9.181   0.256   2.177  1.00  0.00     0.023 C 
ENDROOT
BRANCH   1   2
ATOM      2  C   UNL     1       7.847  -0.466   2.326  1.00  0.00     0.116 C 
BRANCH   2   3
ATOM      3  N   UNL     1       7.170  -0.016   3.524  1.00  0.00    -0.356 N 
ATOM      4  C   UNL     1       6.196   0.932   3.619  1.00  0.00     0.222 C 
ATOM      5  O   UNL     1       5.912   1.396   4.721  1.00  0.00    -0.275 OA
ATOM      6  H   UNL     1       7.445  -0.445   4.367  1.00  0.00     0.163 HD
BRANCH   4   7
ATOM      7  C   UNL     1       5.430   1.306   2.379  1.00  0.00     0.133 C 
BRANCH   7   8
ATOM      8  C   UNL     1       6.000   2.490   1.582  1.00  0.00     0.147 C 
ATOM      9  N   UNL     1       4.186   2.381  -0.027  1.00  0.00    -0.334 N 
ATOM     10  C   UNL     1       5.060   2.018  -1.133  1.00  0.00     0.148 C 
ATOM     11  C   UNL     1       4.846   3.268   0.936  1.00  0.00     0.152 C 
ATOM     12  C   UNL     1       6.424   1.498  -0.629  1.00  0.00     0.182 C 
ATOM     13  O   UNL     1       6.953   2.131   0.553  1.00  0.00    -0.374 OA
BRANCH   9  14
ATOM     14  C   UNL     1       2.803   2.311   0.002  1.00  0.00     0.254 C 
ATOM     15  O   UNL     1       2.176   3.301   0.394  1.00  0.00    -0.269 OA
BRANCH  14  16
ATOM     16  C   UNL     1       2.005   1.044  -0.254  1.00  0.00     0.044 A 
ATOM     17  C   UNL     1       3.834  -0.810  -0.256  1.00  0.00     0.045 C 
ATOM     18  C   UNL     1       2.430  -0.305  -0.272  1.00  0.00    -0.038 A 
ATOM     19  C   UNL     1       1.466  -1.343  -0.307  1.00  0.00     0.005 A 
ATOM     20  C   UNL     1       0.103  -1.079  -0.293  1.00  0.00     0.016 A 
ATOM     21  C   UNL     1       0.607   1.277  -0.277  1.00  0.00     0.029 A 
ATOM     22  C   UNL     1      -0.322   0.236  -0.283  1.00  0.00     0.018 A 
ATOM     23  Br  UNL     1      -2.172   0.619  -0.225  1.00  0.00    -0.051 Br
ENDBRANCH  14  16
ENDBRANCH   9  14
ENDBRANCH   7   8
ENDBRANCH   4   7
ENDBRANCH   2   3
ENDBRANCH   1   2
BRANCH   1  24
ATOM     24  C   UNL     1      10.216  -0.175   3.219  1.00  0.00     0.023 C 
BRANCH  24  25
ATOM     25  C   UNL     1      10.546  -1.662   3.198  1.00  0.00     0.116 C 
BRANCH  25  26
ATOM     26  N   UNL     1      11.072  -2.100   1.916  1.00  0.00    -0.352 N 
ATOM     27  C   UNL     1      12.122  -2.947   1.661  1.00  0.00     0.251 C 
ATOM     28  H   UNL     1      10.613  -1.740   1.123  1.00  0.00     0.163 HD
ATOM     29  O   UNL     1      12.538  -3.091   0.519  1.00  0.00    -0.269 OA
BRANCH  27  30
ATOM     30  C   UNL     1      12.767  -3.658   2.784  1.00  0.00     0.039 A 
ATOM     31  C   UNL     1      14.161  -3.666   2.857  1.00  0.00     0.014 A 
ATOM     32  C   UNL     1      12.004  -4.290   3.770  1.00  0.00     0.014 A 
ATOM     33  C   UNL     1      14.788  -4.263   3.950  1.00  0.00     0.010 A 
ATOM     34  C   UNL     1      12.628  -4.812   4.899  1.00  0.00     0.010 A 
ATOM     35  C   UNL     1      14.026  -4.809   4.998  1.00  0.00    -0.014 A 
BRANCH  35  36
ATOM     36  C   UNL     1      14.692  -5.360   6.205  1.00  0.00     0.031 A 
ATOM     37  C   UNL     1      14.575  -6.820   6.545  1.00  0.00     0.074 A 
ATOM     38  C   UNL     1      15.385  -4.533   7.012  1.00  0.00     0.049 A 
ATOM     39  N   UNL     1      15.120  -7.481   7.536  1.00  0.00    -0.248 NA
ATOM     40  C   UNL     1      13.718  -7.642   5.676  1.00  0.00     0.031 C 
ATOM     41  C   UNL     1      15.530  -3.088   6.821  1.00  0.00     0.029 A 
ATOM     42  N   UNL     1      16.107  -4.792   8.149  1.00  0.00    -0.354 N 
ATOM     43  C   UNL     1      14.670  -8.789   7.411  1.00  0.00     0.074 A 
ATOM     44  C   UNL     1      13.760  -8.817   6.288  1.00  0.00     0.031 C 
ATOM     45  C   UNL     1      16.332  -2.597   7.779  1.00  0.00     0.029 A 
ATOM     46  C   UNL     1      16.725  -3.681   8.672  1.00  0.00     0.049 A 
ATOM     47  H   UNL     1      16.177  -5.687   8.552  1.00  0.00     0.167 HD
ATOM     48  C   UNL     1      15.002  -9.875   8.149  1.00  0.00     0.031 A 
ATOM     49  C   UNL     1      17.525  -3.551   9.746  1.00  0.00     0.031 A 
ATOM     50  C   UNL     1      15.905  -9.847   9.270  1.00  0.00     0.049 A 
ATOM     51  C   UNL     1      17.866  -4.770  10.557  1.00  0.00     0.074 A 
ATOM     52  C   UNL     1      16.346 -10.902  10.049  1.00  0.00     0.029 A 
ATOM     53  N   UNL     1      16.500  -8.701   9.776  1.00  0.00    -0.354 N 
ATOM     54  N   UNL     1      17.499  -6.015  10.375  1.00  0.00    -0.248 NA
ATOM     55  C   UNL     1      18.746  -4.564  11.715  1.00  0.00     0.031 C 
ATOM     56  C   UNL     1      17.159 -10.387  11.064  1.00  0.00     0.029 A 
ATOM     57  C   UNL     1      17.280  -9.020  10.876  1.00  0.00     0.049 A 
ATOM     58  H   UNL     1      16.385  -7.795   9.408  1.00  0.00     0.167 HD
ATOM     59  C   UNL     1      18.123  -6.744  11.379  1.00  0.00     0.074 A 
ATOM     60  C   UNL     1      18.913  -5.805  12.149  1.00  0.00     0.031 C 
ATOM     61  C   UNL     1      18.049  -8.072  11.641  1.00  0.00     0.031 A 
BRANCH  48  62
ATOM     62  C   UNL     1      14.375 -11.189   7.768  1.00  0.00    -0.014 A 
ATOM     63  C   UNL     1      14.714 -11.837   6.569  1.00  0.00     0.009 A 
ATOM     64  C   UNL     1      13.459 -11.805   8.634  1.00  0.00     0.009 A 
ATOM     65  C   UNL     1      14.120 -13.055   6.228  1.00  0.00     0.001 A 
ATOM     66  C   UNL     1      12.892 -13.038   8.307  1.00  0.00     0.001 A 
ATOM     67  C   UNL     1      13.214 -13.657   7.100  1.00  0.00     0.000 A 
ENDBRANCH  48  62
BRANCH  49  68
ATOM     68  C   UNL     1      18.079  -2.219  10.108  1.00  0.00    -0.014 A 
ATOM     69  C   UNL     1      19.452  -1.957   9.977  1.00  0.00     0.009 A 
ATOM     70  C   UNL     1      17.240  -1.206  10.597  1.00  0.00     0.009 A 
ATOM     71  C   UNL     1      19.977  -0.720  10.359  1.00  0.00     0.001 A 
ATOM     72  C   UNL     1      17.762   0.041  10.946  1.00  0.00     0.001 A 
ATOM     73  C   UNL     1      19.131   0.279  10.838  1.00  0.00     0.000 A 
ENDBRANCH  49  68
BRANCH  61  74
ATOM     74  C   UNL     1      18.866  -8.586  12.795  1.00  0.00    -0.014 A 
ATOM     75  C   UNL     1      18.541  -8.265  14.123  1.00  0.00     0.009 A 
ATOM     76  C   UNL     1      19.971  -9.416  12.549  1.00  0.00     0.009 A 
ATOM     77  C   UNL     1      19.335  -8.724  15.175  1.00  0.00     0.001 A 
ATOM     78  C   UNL     1      20.742  -9.902  13.605  1.00  0.00     0.001 A 
ATOM     79  C   UNL     1      20.432  -9.544  14.916  1.00  0.00     0.000 A 
ENDBRANCH  61  74
ENDBRANCH  35  36
ENDBRANCH  27  30
ENDBRANCH  25  26
ENDBRANCH  24  25
ENDBRANCH   1  24
TORSDOF 14
