REMARK SMILES COc1ccc(CCNC(=O)c2cccnc2C(=O)NCCCCNC(=O)c2ccc(-c3c4nc(c(-c5ccccc5)c5ccc([nH]5)c(-c5ccccc5)c5nc(c(-c6ccccc6)c6ccc3[nH]6)C=C5)C=C4)cc2)cc1OC
REMARK SMILES IDX 21 1 20 2 18 3 19 4 17 6 12 7 13 8 14 9 16 10 15 11 10 12
REMARK SMILES IDX 9 13 11 15 8 16 7 17 6 18 3 19 4 20 77 21 5 22 76 23 2 24
REMARK SMILES IDX 1 25 78 26 79 27 22 28 23 29 24 30 25 31 26 32 27 34 28 35
REMARK SMILES IDX 29 36 75 37 30 38 74 39 31 40 32 41 33 42 68 43 34 44 73 45
REMARK SMILES IDX 67 46 69 47 35 48 72 49 66 50 65 51 36 53 58 54 43 55 57 56
REMARK SMILES IDX 44 57 47 58 56 59 70 60 45 61 46 62 55 64 71 65 48 66 37 67
REMARK SMILES IDX 38 68 42 69 39 70 41 71 40 72 59 73 60 74 64 75 61 76 63 77
REMARK SMILES IDX 62 78 49 79 50 80 54 81 51 82 53 83 52 84
REMARK H PARENT 20 5 9 14 25 33 69 52 47 63
REMARK Flexibility Score: inf
ROOT
ATOM      1  C   UNL     1      -2.393   3.490  -7.872  1.00  0.00     0.116 C 
ENDROOT
BRANCH   1   2
ATOM      2  N   UNL     1      -1.972   4.827  -8.193  1.00  0.00    -0.351 N 
ATOM      3  C   UNL     1      -0.876   5.409  -8.764  1.00  0.00     0.270 C 
ATOM      4  O   UNL     1      -0.968   6.647  -8.774  1.00  0.00    -0.267 OA
ATOM      5  H   UNL     1      -2.647   5.495  -7.934  1.00  0.00     0.163 HD
BRANCH   3   6
ATOM      6  C   UNL     1       0.364   4.788  -9.384  1.00  0.00     0.140 A 
ATOM      7  C   UNL     1       0.976   3.545  -9.240  1.00  0.00     0.071 A 
ATOM      8  C   UNL     1       2.174   3.292  -9.949  1.00  0.00     0.018 A 
ATOM      9  C   UNL     1       2.766   4.273 -10.732  1.00  0.00     0.021 A 
ATOM     10  N   UNL     1       0.971   5.744 -10.172  1.00  0.00    -0.250 NA
ATOM     11  C   UNL     1       2.127   5.485 -10.810  1.00  0.00     0.112 A 
BRANCH   7  12
ATOM     12  C   UNL     1       0.505   2.375  -8.498  1.00  0.00     0.253 C 
ATOM     13  N   UNL     1       1.102   1.995  -7.320  1.00  0.00    -0.352 N 
ATOM     14  H   UNL     1       0.670   1.240  -6.860  1.00  0.00     0.163 HD
ATOM     15  O   UNL     1      -0.319   1.633  -9.023  1.00  0.00    -0.269 OA
BRANCH  13  16
ATOM     16  C   UNL     1       2.274   2.537  -6.645  1.00  0.00     0.121 C 
BRANCH  16  17
ATOM     17  C   UNL     1       1.979   3.074  -5.243  1.00  0.00     0.057 C 
BRANCH  17  18
ATOM     18  C   UNL     1       1.721   2.025  -4.184  1.00  0.00    -0.042 A 
ATOM     19  C   UNL     1       1.240   0.237  -2.056  1.00  0.00     0.160 A 
ATOM     20  C   UNL     1       0.184   0.708  -2.844  1.00  0.00     0.051 A 
ATOM     21  C   UNL     1       2.555   0.604  -2.366  1.00  0.00     0.160 A 
ATOM     22  C   UNL     1       0.424   1.604  -3.888  1.00  0.00     0.008 A 
ATOM     23  C   UNL     1       2.780   1.489  -3.435  1.00  0.00     0.054 A 
BRANCH  19  24
ATOM     24  O   UNL     1       0.967  -0.630  -1.031  1.00  0.00    -0.493 OA
ATOM     25  C   UNL     1       0.125  -0.044  -0.037  1.00  0.00     0.278 C 
ENDBRANCH  19  24
BRANCH  21  26
ATOM     26  O   UNL     1       3.713   0.218  -1.743  1.00  0.00    -0.493 OA
ATOM     27  C   UNL     1       3.613  -0.423  -0.480  1.00  0.00     0.278 C 
ENDBRANCH  21  26
ENDBRANCH  17  18
ENDBRANCH  16  17
ENDBRANCH  13  16
ENDBRANCH   7  12
ENDBRANCH   3   6
ENDBRANCH   1   2
BRANCH   1  28
ATOM     28  C   UNL     1      -1.900   3.111  -6.479  1.00  0.00     0.023 C 
BRANCH  28  29
ATOM     29  C   UNL     1      -2.973   3.209  -5.394  1.00  0.00     0.023 C 
BRANCH  29  30
ATOM     30  C   UNL     1      -4.074   2.164  -5.524  1.00  0.00     0.116 C 
BRANCH  30  31
ATOM     31  N   UNL     1      -3.587   0.793  -5.454  1.00  0.00    -0.352 N 
ATOM     32  C   UNL     1      -4.235  -0.317  -4.961  1.00  0.00     0.251 C 
ATOM     33  H   UNL     1      -2.680   0.640  -5.804  1.00  0.00     0.163 HD
ATOM     34  O   UNL     1      -3.665  -1.394  -4.882  1.00  0.00    -0.269 OA
BRANCH  32  35
ATOM     35  C   UNL     1      -5.622  -0.166  -4.473  1.00  0.00     0.039 A 
ATOM     36  C   UNL     1      -5.937  -0.626  -3.194  1.00  0.00     0.014 A 
ATOM     37  C   UNL     1      -6.577   0.496  -5.248  1.00  0.00     0.014 A 
ATOM     38  C   UNL     1      -7.191  -0.340  -2.654  1.00  0.00     0.010 A 
ATOM     39  C   UNL     1      -7.793   0.850  -4.679  1.00  0.00     0.010 A 
ATOM     40  C   UNL     1      -8.110   0.443  -3.374  1.00  0.00    -0.014 A 
BRANCH  40  41
ATOM     41  C   UNL     1      -9.399   0.864  -2.774  1.00  0.00     0.031 A 
ATOM     42  C   UNL     1     -10.697   0.419  -3.389  1.00  0.00     0.074 A 
ATOM     43  C   UNL     1      -9.400   1.718  -1.731  1.00  0.00     0.049 A 
ATOM     44  N   UNL     1     -11.920   0.746  -3.057  1.00  0.00    -0.248 NA
ATOM     45  C   UNL     1     -10.610  -0.483  -4.550  1.00  0.00     0.031 C 
ATOM     46  C   UNL     1      -8.209   2.277  -1.087  1.00  0.00     0.029 A 
ATOM     47  N   UNL     1     -10.444   2.276  -1.037  1.00  0.00    -0.354 N 
ATOM     48  C   UNL     1     -12.741   0.117  -3.984  1.00  0.00     0.074 A 
ATOM     49  C   UNL     1     -11.880  -0.577  -4.915  1.00  0.00     0.031 C 
ATOM     50  C   UNL     1      -8.589   3.079  -0.078  1.00  0.00     0.029 A 
ATOM     51  C   UNL     1     -10.046   3.118  -0.026  1.00  0.00     0.049 A 
ATOM     52  H   UNL     1     -11.389   2.091  -1.243  1.00  0.00     0.167 HD
ATOM     53  C   UNL     1     -14.093   0.103  -4.043  1.00  0.00     0.031 A 
ATOM     54  C   UNL     1     -10.774   3.843   0.844  1.00  0.00     0.031 A 
ATOM     55  C   UNL     1     -14.951   0.758  -3.094  1.00  0.00     0.049 A 
ATOM     56  C   UNL     1     -12.275   3.773   0.781  1.00  0.00     0.074 A 
ATOM     57  C   UNL     1     -16.332   0.726  -3.018  1.00  0.00     0.029 A 
ATOM     58  N   UNL     1     -14.508   1.558  -2.054  1.00  0.00    -0.354 N 
ATOM     59  N   UNL     1     -13.035   3.098  -0.046  1.00  0.00    -0.248 NA
ATOM     60  C   UNL     1     -13.016   4.554   1.782  1.00  0.00     0.031 C 
ATOM     61  C   UNL     1     -16.728   1.540  -1.952  1.00  0.00     0.029 A 
ATOM     62  C   UNL     1     -15.591   2.041  -1.340  1.00  0.00     0.049 A 
ATOM     63  H   UNL     1     -13.565   1.753  -1.852  1.00  0.00     0.167 HD
ATOM     64  C   UNL     1     -14.341   3.352   0.351  1.00  0.00     0.074 A 
ATOM     65  C   UNL     1     -14.270   4.227   1.502  1.00  0.00     0.031 C 
ATOM     66  C   UNL     1     -15.499   2.902  -0.192  1.00  0.00     0.031 A 
BRANCH  53  67
ATOM     67  C   UNL     1     -14.732  -0.653  -5.172  1.00  0.00    -0.014 A 
ATOM     68  C   UNL     1     -14.728  -2.057  -5.200  1.00  0.00     0.009 A 
ATOM     69  C   UNL     1     -15.391   0.047  -6.195  1.00  0.00     0.009 A 
ATOM     70  C   UNL     1     -15.348  -2.743  -6.246  1.00  0.00     0.001 A 
ATOM     71  C   UNL     1     -16.032  -0.643  -7.225  1.00  0.00     0.001 A 
ATOM     72  C   UNL     1     -16.004  -2.037  -7.253  1.00  0.00     0.000 A 
ENDBRANCH  53  67
BRANCH  54  73
ATOM     73  C   UNL     1     -10.102   4.691   1.862  1.00  0.00    -0.014 A 
ATOM     74  C   UNL     1     -10.132   4.332   3.219  1.00  0.00     0.009 A 
ATOM     75  C   UNL     1      -9.453   5.877   1.488  1.00  0.00     0.009 A 
ATOM     76  C   UNL     1      -9.556   5.162   4.183  1.00  0.00     0.001 A 
ATOM     77  C   UNL     1      -8.853   6.691   2.451  1.00  0.00     0.001 A 
ATOM     78  C   UNL     1      -8.915   6.339   3.799  1.00  0.00     0.000 A 
ENDBRANCH  54  73
BRANCH  66  79
ATOM     79  C   UNL     1     -16.776   3.319   0.476  1.00  0.00    -0.014 A 
ATOM     80  C   UNL     1     -17.270   4.626   0.348  1.00  0.00     0.009 A 
ATOM     81  C   UNL     1     -17.516   2.377   1.207  1.00  0.00     0.009 A 
ATOM     82  C   UNL     1     -18.468   4.989   0.966  1.00  0.00     0.001 A 
ATOM     83  C   UNL     1     -18.726   2.736   1.801  1.00  0.00     0.001 A 
ATOM     84  C   UNL     1     -19.197   4.043   1.687  1.00  0.00     0.000 A 
ENDBRANCH  66  79
ENDBRANCH  40  41
ENDBRANCH  32  35
ENDBRANCH  30  31
ENDBRANCH  29  30
ENDBRANCH  28  29
ENDBRANCH   1  28
TORSDOF 17
