REMARK SMILES O=C(COc1ccc(N2C[C@@H](C(=O)NCCCCNC(=O)c3ccc(-c4c5nc(c(-c6ccccc6)c6ccc([nH]6)c(-c6ccccc6)c6nc(c(-c7ccccc7)c7ccc4[nH]7)C=C6)C=C5)cc3)CC2=O)cc1)Nc1ccc(Cl)cc1Cl
REMARK SMILES IDX 15 1 14 2 12 3 13 4 11 6 9 7 10 8 71 9 70 10 72 11 8 12 5 13
REMARK SMILES IDX 6 14 74 15 7 16 73 17 4 18 3 19 2 20 1 21 75 22 76 24 77 25
REMARK SMILES IDX 82 26 78 27 81 28 83 29 79 30 80 31 16 32 17 33 18 34 19 35
REMARK SMILES IDX 20 36 21 38 22 39 23 40 69 41 24 42 68 43 25 44 26 45 27 46
REMARK SMILES IDX 62 47 28 48 67 49 61 50 63 51 29 52 66 53 60 54 59 55 30 57
REMARK SMILES IDX 52 58 37 59 51 60 38 61 41 62 50 63 64 64 39 65 40 66 49 68
REMARK SMILES IDX 65 69 42 70 31 71 32 72 36 73 33 74 35 75 34 76 53 77 54 78
REMARK SMILES IDX 58 79 55 80 57 81 56 82 43 83 44 84 48 85 45 86 47 87 46 88
REMARK H PARENT 14 5 75 23 19 37 63 56 41 67
REMARK Flexibility Score: inf
ROOT
ATOM      1  C   UNL     1      -1.771  -7.122   1.851  1.00  0.00     0.116 C 
ENDROOT
BRANCH   1   2
ATOM      2  N   UNL     1      -1.409  -8.173   2.785  1.00  0.00    -0.356 N 
ATOM      3  C   UNL     1      -0.214  -8.737   3.095  1.00  0.00     0.225 C 
ATOM      4  O   UNL     1      -0.217  -9.623   3.954  1.00  0.00    -0.275 OA
ATOM      5  H   UNL     1      -2.171  -8.544   3.287  1.00  0.00     0.163 HD
BRANCH   3   6
ATOM      6  C   UNL     1       1.094  -8.311   2.462  1.00  0.00     0.107 C 
ATOM      7  N   UNL     1       1.861  -6.257   1.596  1.00  0.00    -0.312 N 
ATOM      8  C   UNL     1       1.498  -6.895   2.836  1.00  0.00     0.139 C 
ATOM      9  C   UNL     1       1.624  -7.063   0.484  1.00  0.00     0.227 C 
ATOM     10  C   UNL     1       1.120  -8.399   0.946  1.00  0.00     0.116 C 
ATOM     11  O   UNL     1       1.802  -6.798  -0.699  1.00  0.00    -0.274 OA
BRANCH   7  12
ATOM     12  C   UNL     1       2.327  -4.923   1.534  1.00  0.00     0.044 A 
ATOM     13  C   UNL     1       3.330  -2.300   1.300  1.00  0.00     0.120 A 
ATOM     14  C   UNL     1       3.680  -3.087   2.394  1.00  0.00     0.048 A 
ATOM     15  C   UNL     1       2.478  -2.819   0.330  1.00  0.00     0.048 A 
ATOM     16  C   UNL     1       3.154  -4.383   2.529  1.00  0.00     0.030 A 
ATOM     17  C   UNL     1       1.988  -4.118   0.445  1.00  0.00     0.030 A 
BRANCH  13  18
ATOM     18  O   UNL     1       3.954  -1.092   1.133  1.00  0.00    -0.484 OA
BRANCH  18  19
ATOM     19  C   UNL     1       3.068   0.024   1.242  1.00  0.00     0.329 C 
BRANCH  19  20
ATOM     20  C   UNL     1       2.169   0.266   0.025  1.00  0.00     0.262 C 
ATOM     21  O   UNL     1       0.960   0.426   0.156  1.00  0.00    -0.271 OA
ATOM     22  N   UNL     1       2.861   0.167  -1.177  1.00  0.00    -0.322 N 
ATOM     23  H   UNL     1       3.840   0.073  -1.133  1.00  0.00     0.170 HD
BRANCH  22  24
ATOM     24  C   UNL     1       2.263   0.191  -2.459  1.00  0.00     0.060 A 
ATOM     25  C   UNL     1       2.776  -0.734  -3.384  1.00  0.00     0.029 A 
ATOM     26  C   UNL     1       1.207   1.030  -2.862  1.00  0.00     0.066 A 
ATOM     27  C   UNL     1       2.190  -0.888  -4.643  1.00  0.00     0.023 A 
ATOM     28  C   UNL     1       0.617   0.867  -4.122  1.00  0.00     0.043 A 
ATOM     29  Cl  UNL     1       0.701   2.418  -1.960  1.00  0.00    -0.082 Cl
ATOM     30  C   UNL     1       1.100  -0.100  -4.998  1.00  0.00     0.042 A 
ATOM     31  Cl  UNL     1       0.368  -0.300  -6.542  1.00  0.00    -0.084 Cl
ENDBRANCH  22  24
ENDBRANCH  19  20
ENDBRANCH  18  19
ENDBRANCH  13  18
ENDBRANCH   7  12
ENDBRANCH   3   6
ENDBRANCH   1   2
BRANCH   1  32
ATOM     32  C   UNL     1      -2.637  -7.648   0.706  1.00  0.00     0.023 C 
BRANCH  32  33
ATOM     33  C   UNL     1      -4.005  -8.188   1.128  1.00  0.00     0.023 C 
BRANCH  33  34
ATOM     34  C   UNL     1      -4.872  -7.215   1.916  1.00  0.00     0.116 C 
BRANCH  34  35
ATOM     35  N   UNL     1      -5.161  -5.991   1.185  1.00  0.00    -0.352 N 
ATOM     36  C   UNL     1      -6.365  -5.353   1.004  1.00  0.00     0.251 C 
ATOM     37  H   UNL     1      -4.385  -5.559   0.760  1.00  0.00     0.163 HD
ATOM     38  O   UNL     1      -6.449  -4.402   0.235  1.00  0.00    -0.269 OA
BRANCH  36  39
ATOM     39  C   UNL     1      -7.567  -5.836   1.716  1.00  0.00     0.039 A 
ATOM     40  C   UNL     1      -8.764  -5.963   1.007  1.00  0.00     0.014 A 
ATOM     41  C   UNL     1      -7.513  -6.172   3.071  1.00  0.00     0.014 A 
ATOM     42  C   UNL     1      -9.891  -6.488   1.643  1.00  0.00     0.010 A 
ATOM     43  C   UNL     1      -8.610  -6.775   3.678  1.00  0.00     0.010 A 
ATOM     44  C   UNL     1      -9.814  -6.931   2.974  1.00  0.00    -0.014 A 
BRANCH  44  45
ATOM     45  C   UNL     1     -10.984  -7.547   3.649  1.00  0.00     0.031 A 
ATOM     46  C   UNL     1     -11.592  -6.887   4.857  1.00  0.00     0.074 A 
ATOM     47  C   UNL     1     -11.466  -8.727   3.212  1.00  0.00     0.049 A 
ATOM     48  N   UNL     1     -12.586  -7.293   5.608  1.00  0.00    -0.248 NA
ATOM     49  C   UNL     1     -10.989  -5.618   5.297  1.00  0.00     0.031 C 
ATOM     50  C   UNL     1     -10.943  -9.490   2.076  1.00  0.00     0.029 A 
ATOM     51  N   UNL     1     -12.506  -9.494   3.675  1.00  0.00    -0.354 N 
ATOM     52  C   UNL     1     -12.713  -6.342   6.612  1.00  0.00     0.074 A 
ATOM     53  C   UNL     1     -11.661  -5.370   6.411  1.00  0.00     0.031 C 
ATOM     54  C   UNL     1     -11.686 -10.596   1.910  1.00  0.00     0.029 A 
ATOM     55  C   UNL     1     -12.706 -10.645   2.952  1.00  0.00     0.049 A 
ATOM     56  H   UNL     1     -13.057  -9.242   4.451  1.00  0.00     0.167 HD
ATOM     57  C   UNL     1     -13.635  -6.268   7.601  1.00  0.00     0.031 A 
ATOM     58  C   UNL     1     -13.608 -11.633   3.112  1.00  0.00     0.031 A 
ATOM     59  C   UNL     1     -14.687  -7.230   7.797  1.00  0.00     0.049 A 
ATOM     60  C   UNL     1     -14.608 -11.539   4.232  1.00  0.00     0.074 A 
ATOM     61  C   UNL     1     -15.703  -7.215   8.736  1.00  0.00     0.029 A 
ATOM     62  N   UNL     1     -14.855  -8.381   7.043  1.00  0.00    -0.354 N 
ATOM     63  N   UNL     1     -14.759 -10.595   5.130  1.00  0.00    -0.248 NA
ATOM     64  C   UNL     1     -15.572 -12.642   4.349  1.00  0.00     0.031 C 
ATOM     65  C   UNL     1     -16.450  -8.388   8.589  1.00  0.00     0.029 A 
ATOM     66  C   UNL     1     -15.942  -9.098   7.513  1.00  0.00     0.049 A 
ATOM     67  H   UNL     1     -14.286  -8.648   6.285  1.00  0.00     0.167 HD
ATOM     68  C   UNL     1     -15.855 -10.973   5.895  1.00  0.00     0.074 A 
ATOM     69  C   UNL     1     -16.339 -12.223   5.346  1.00  0.00     0.031 C 
ATOM     70  C   UNL     1     -16.413 -10.340   6.956  1.00  0.00     0.031 A 
BRANCH  57  71
ATOM     71  C   UNL     1     -13.537  -5.109   8.555  1.00  0.00    -0.014 A 
ATOM     72  C   UNL     1     -13.802  -3.794   8.138  1.00  0.00     0.009 A 
ATOM     73  C   UNL     1     -13.207  -5.338   9.900  1.00  0.00     0.009 A 
ATOM     74  C   UNL     1     -13.697  -2.731   9.037  1.00  0.00     0.001 A 
ATOM     75  C   UNL     1     -13.136  -4.277  10.805  1.00  0.00     0.001 A 
ATOM     76  C   UNL     1     -13.370  -2.974  10.370  1.00  0.00     0.000 A 
ENDBRANCH  57  71
BRANCH  58  77
ATOM     77  C   UNL     1     -13.621 -12.792   2.181  1.00  0.00    -0.014 A 
ATOM     78  C   UNL     1     -14.684 -12.975   1.284  1.00  0.00     0.009 A 
ATOM     79  C   UNL     1     -12.578 -13.732   2.194  1.00  0.00     0.009 A 
ATOM     80  C   UNL     1     -14.720 -14.091   0.444  1.00  0.00     0.001 A 
ATOM     81  C   UNL     1     -12.600 -14.829   1.330  1.00  0.00     0.001 A 
ATOM     82  C   UNL     1     -13.676 -15.014   0.464  1.00  0.00     0.000 A 
ENDBRANCH  58  77
BRANCH  70  83
ATOM     83  C   UNL     1     -17.640 -10.962   7.564  1.00  0.00    -0.014 A 
ATOM     84  C   UNL     1     -17.573 -12.158   8.295  1.00  0.00     0.009 A 
ATOM     85  C   UNL     1     -18.880 -10.316   7.431  1.00  0.00     0.009 A 
ATOM     86  C   UNL     1     -18.730 -12.714   8.847  1.00  0.00     0.001 A 
ATOM     87  C   UNL     1     -20.028 -10.855   8.014  1.00  0.00     0.001 A 
ATOM     88  C   UNL     1     -19.954 -12.059   8.711  1.00  0.00     0.000 A 
ENDBRANCH  70  83
ENDBRANCH  44  45
ENDBRANCH  36  39
ENDBRANCH  34  35
ENDBRANCH  33  34
ENDBRANCH  32  33
ENDBRANCH   1  32
TORSDOF 16
