REMARK SMILES COc1nc(-c2ccccc2)nc(C)c1CC(=O)NCCCCNC(=O)c1ccc(-c2c3nc(c(-c4ccccc4)c4ccc([nH]4)c(-c4ccccc4)c4nc(c(-c5ccccc5)c5ccc2[nH]5)C=C4)C=C3)cc1
REMARK SMILES IDX 21 1 20 2 19 3 17 4 18 5 16 7 15 8 3 9 4 10 5 11 13 12 12 13
REMARK SMILES IDX 14 14 2 15 1 16 6 17 7 18 11 19 8 20 10 21 9 22 22 23 23 24
REMARK SMILES IDX 24 25 25 26 26 28 27 29 28 30 74 31 29 32 73 33 30 34 31 35
REMARK SMILES IDX 32 36 67 37 33 38 72 39 66 40 68 41 34 42 71 43 65 44 64 45
REMARK SMILES IDX 35 47 57 48 42 49 56 50 43 51 46 52 55 53 69 54 44 55 45 56
REMARK SMILES IDX 54 58 70 59 47 60 36 61 37 62 41 63 38 64 40 65 39 66 58 67
REMARK SMILES IDX 59 68 63 69 60 70 62 71 61 72 48 73 49 74 53 75 50 76 52 77
REMARK SMILES IDX 51 78
REMARK H PARENT 19 6 24 27 68 46 46 57
REMARK Flexibility Score: inf
ROOT
ATOM      1  C   UNL     1       1.791  -1.129  -3.899  1.00  0.00     0.023 C 
ENDROOT
BRANCH   1   2
ATOM      2  C   UNL     1       3.201  -0.989  -3.323  1.00  0.00     0.116 C 
BRANCH   2   3
ATOM      3  N   UNL     1       3.244  -0.132  -2.156  1.00  0.00    -0.356 N 
ATOM      4  C   UNL     1       3.359  -0.443  -0.833  1.00  0.00     0.224 C 
ATOM      5  O   UNL     1       3.464   0.500  -0.043  1.00  0.00    -0.275 OA
ATOM      6  H   UNL     1       3.180   0.831  -2.349  1.00  0.00     0.163 HD
BRANCH   4   7
ATOM      7  C   UNL     1       3.434  -1.885  -0.344  1.00  0.00     0.143 C 
BRANCH   7   8
ATOM      8  C   UNL     1       2.288  -2.761  -0.769  1.00  0.00     0.045 A 
ATOM      9  C   UNL     1       0.986  -2.447  -0.395  1.00  0.00     0.220 A 
ATOM     10  N   UNL     1      -0.122  -3.082  -0.819  1.00  0.00    -0.193 NA
ATOM     11  C   UNL     1       0.101  -4.137  -1.616  1.00  0.00     0.163 A 
ATOM     12  C   UNL     1       2.403  -3.888  -1.567  1.00  0.00     0.049 A 
ATOM     13  N   UNL     1       1.320  -4.572  -1.988  1.00  0.00    -0.233 NA
ATOM     14  C   UNL     1       3.696  -4.461  -2.068  1.00  0.00     0.067 C 
BRANCH   9  15
ATOM     15  O   UNL     1       0.821  -1.516   0.605  1.00  0.00    -0.481 OA
ATOM     16  C   UNL     1       0.206  -0.325   0.129  1.00  0.00     0.280 C 
ENDBRANCH   9  15
BRANCH  11  17
ATOM     17  C   UNL     1      -1.036  -4.885  -2.167  1.00  0.00     0.019 A 
ATOM     18  C   UNL     1      -1.028  -6.294  -2.171  1.00  0.00     0.012 A 
ATOM     19  C   UNL     1      -2.127  -4.236  -2.767  1.00  0.00     0.012 A 
ATOM     20  C   UNL     1      -2.064  -7.027  -2.756  1.00  0.00     0.001 A 
ATOM     21  C   UNL     1      -3.158  -4.968  -3.368  1.00  0.00     0.001 A 
ATOM     22  C   UNL     1      -3.126  -6.362  -3.361  1.00  0.00     0.000 A 
ENDBRANCH  11  17
ENDBRANCH   7   8
ENDBRANCH   4   7
ENDBRANCH   2   3
ENDBRANCH   1   2
BRANCH   1  23
ATOM     23  C   UNL     1       1.229   0.138  -4.549  1.00  0.00     0.023 C 
BRANCH  23  24
ATOM     24  C   UNL     1       2.095   0.760  -5.639  1.00  0.00     0.116 C 
BRANCH  24  25
ATOM     25  N   UNL     1       2.425  -0.160  -6.716  1.00  0.00    -0.352 N 
ATOM     26  C   UNL     1       2.504   0.079  -8.069  1.00  0.00     0.251 C 
ATOM     27  H   UNL     1       2.618  -1.085  -6.438  1.00  0.00     0.163 HD
ATOM     28  O   UNL     1       2.712  -0.840  -8.848  1.00  0.00    -0.269 OA
BRANCH  26  29
ATOM     29  C   UNL     1       2.289   1.450  -8.581  1.00  0.00     0.039 A 
ATOM     30  C   UNL     1       1.394   1.634  -9.639  1.00  0.00     0.014 A 
ATOM     31  C   UNL     1       2.932   2.547  -8.003  1.00  0.00     0.014 A 
ATOM     32  C   UNL     1       1.077   2.927 -10.057  1.00  0.00     0.010 A 
ATOM     33  C   UNL     1       2.566   3.837  -8.377  1.00  0.00     0.010 A 
ATOM     34  C   UNL     1       1.622   4.040  -9.396  1.00  0.00    -0.014 A 
BRANCH  34  35
ATOM     35  C   UNL     1       1.179   5.419  -9.720  1.00  0.00     0.031 A 
ATOM     36  C   UNL     1       2.141   6.417 -10.296  1.00  0.00     0.074 A 
ATOM     37  C   UNL     1      -0.081   5.793  -9.419  1.00  0.00     0.049 A 
ATOM     38  N   UNL     1       1.948   7.681 -10.576  1.00  0.00    -0.248 NA
ATOM     39  C   UNL     1       3.505   5.940 -10.573  1.00  0.00     0.031 C 
ATOM     40  C   UNL     1      -1.102   4.931  -8.819  1.00  0.00     0.029 A 
ATOM     41  N   UNL     1      -0.714   7.002  -9.568  1.00  0.00    -0.354 N 
ATOM     42  C   UNL     1       3.165   8.153 -11.050  1.00  0.00     0.074 A 
ATOM     43  C   UNL     1       4.102   7.053 -10.977  1.00  0.00     0.031 C 
ATOM     44  C   UNL     1      -2.238   5.632  -8.673  1.00  0.00     0.029 A 
ATOM     45  C   UNL     1      -2.015   7.000  -9.126  1.00  0.00     0.049 A 
ATOM     46  H   UNL     1      -0.277   7.795  -9.954  1.00  0.00     0.167 HD
ATOM     47  C   UNL     1       3.472   9.387 -11.517  1.00  0.00     0.031 A 
ATOM     48  C   UNL     1      -2.925   7.991  -9.079  1.00  0.00     0.031 A 
ATOM     49  C   UNL     1       2.540  10.482 -11.591  1.00  0.00     0.049 A 
ATOM     50  C   UNL     1      -2.551   9.358  -9.579  1.00  0.00     0.074 A 
ATOM     51  C   UNL     1       2.743  11.752 -12.103  1.00  0.00     0.029 A 
ATOM     52  N   UNL     1       1.233  10.440 -11.132  1.00  0.00    -0.354 N 
ATOM     53  N   UNL     1      -1.415   9.768 -10.090  1.00  0.00    -0.248 NA
ATOM     54  C   UNL     1      -3.588  10.396  -9.501  1.00  0.00     0.031 C 
ATOM     55  C   UNL     1       1.575  12.495 -11.905  1.00  0.00     0.029 A 
ATOM     56  C   UNL     1       0.627  11.671 -11.321  1.00  0.00     0.049 A 
ATOM     57  H   UNL     1       0.800   9.652 -10.731  1.00  0.00     0.167 HD
ATOM     58  C   UNL     1      -1.608  11.104 -10.414  1.00  0.00     0.074 A 
ATOM     59  C   UNL     1      -2.975  11.429 -10.061  1.00  0.00     0.031 C 
ATOM     60  C   UNL     1      -0.731  11.983 -10.957  1.00  0.00     0.031 A 
BRANCH  47  61
ATOM     61  C   UNL     1       4.883   9.622 -11.977  1.00  0.00    -0.014 A 
ATOM     62  C   UNL     1       5.371   9.036 -13.156  1.00  0.00     0.009 A 
ATOM     63  C   UNL     1       5.724  10.475 -11.244  1.00  0.00     0.009 A 
ATOM     64  C   UNL     1       6.683   9.272 -13.573  1.00  0.00     0.001 A 
ATOM     65  C   UNL     1       7.026  10.731 -11.679  1.00  0.00     0.001 A 
ATOM     66  C   UNL     1       7.507  10.123 -12.837  1.00  0.00     0.000 A 
ENDBRANCH  47  61
BRANCH  48  67
ATOM     67  C   UNL     1      -4.285   7.728  -8.541  1.00  0.00    -0.014 A 
ATOM     68  C   UNL     1      -5.397   7.710  -9.397  1.00  0.00     0.009 A 
ATOM     69  C   UNL     1      -4.479   7.500  -7.170  1.00  0.00     0.009 A 
ATOM     70  C   UNL     1      -6.679   7.495  -8.886  1.00  0.00     0.001 A 
ATOM     71  C   UNL     1      -5.759   7.257  -6.666  1.00  0.00     0.001 A 
ATOM     72  C   UNL     1      -6.859   7.264  -7.523  1.00  0.00     0.000 A 
ENDBRANCH  48  67
BRANCH  60  73
ATOM     73  C   UNL     1      -1.232  13.375 -11.222  1.00  0.00    -0.014 A 
ATOM     74  C   UNL     1      -1.470  14.276 -10.172  1.00  0.00     0.009 A 
ATOM     75  C   UNL     1      -1.436  13.801 -12.544  1.00  0.00     0.009 A 
ATOM     76  C   UNL     1      -1.935  15.565 -10.440  1.00  0.00     0.001 A 
ATOM     77  C   UNL     1      -1.874  15.099 -12.810  1.00  0.00     0.001 A 
ATOM     78  C   UNL     1      -2.132  15.976 -11.758  1.00  0.00     0.000 A 
ENDBRANCH  60  73
ENDBRANCH  34  35
ENDBRANCH  26  29
ENDBRANCH  24  25
ENDBRANCH  23  24
ENDBRANCH   1  23
TORSDOF 14
