REMARK SMILES Cc1c(Cl)cccc1NC(=O)C[C@](C)(C(=O)NCCCCNC(=O)c1ccc(-c2c3nc(c(-c4ccccc4)c4ccc([nH]4)c(-c4ccccc4)c4nc(c(-c5ccccc5)c5ccc2[nH]5)C=C4)C=C3)cc1)c1ccccc1
REMARK SMILES IDX 19 1 18 2 17 3 15 4 16 5 13 7 14 8 12 9 10 10 9 11 11 13
REMARK SMILES IDX 8 14 1 15 2 16 3 17 4 18 5 19 7 20 6 21 73 22 74 23 78 24
REMARK SMILES IDX 75 25 77 26 76 27 20 28 21 29 22 30 23 31 24 33 25 34 26 35
REMARK SMILES IDX 72 36 27 37 71 38 28 39 29 40 30 41 65 42 31 43 70 44 64 45
REMARK SMILES IDX 66 46 32 47 69 48 63 49 62 50 33 52 55 53 40 54 54 55 41 56
REMARK SMILES IDX 44 57 53 58 67 59 42 60 43 61 52 63 68 64 45 65 34 66 35 67
REMARK SMILES IDX 39 68 36 69 38 70 37 71 56 72 57 73 61 74 58 75 60 76 59 77
REMARK SMILES IDX 46 78 47 79 51 80 48 81 50 82 49 83
REMARK H PARENT 17 6 9 12 22 32 66 51 44 62
REMARK Flexibility Score: inf
ROOT
ATOM      1  C   UNL     1      -4.895  -1.811   3.370  1.00  0.00     0.023 C 
ENDROOT
BRANCH   1   2
ATOM      2  C   UNL     1      -4.412  -2.062   1.732  1.00  0.00     0.116 C 
BRANCH   2   3
ATOM      3  N   UNL     1      -5.205  -1.379  -0.079  1.00  0.00    -0.355 N 
ATOM      4  C   UNL     1      -5.203  -0.556  -1.256  1.00  0.00     0.230 C 
ATOM      5  O   UNL     1      -6.165  -0.884  -1.976  1.00  0.00    -0.274 OA
ATOM      6  H   UNL     1      -6.027  -1.911  -0.178  1.00  0.00     0.163 HD
BRANCH   4   7
ATOM      7  C   UNL     1      -4.252   0.683  -1.702  1.00  0.00     0.080 C 
ATOM      8  C   UNL     1      -4.579   1.877  -0.725  1.00  0.00     0.027 C 
BRANCH   7   9
ATOM      9  C   UNL     1      -2.713   0.380  -1.807  1.00  0.00     0.121 C 
BRANCH   9  10
ATOM     10  C   UNL     1      -2.246  -1.038  -2.079  1.00  0.00     0.225 C 
ATOM     11  N   UNL     1      -2.365  -2.010  -1.130  1.00  0.00    -0.326 N 
ATOM     12  H   UNL     1      -1.772  -2.794  -1.192  1.00  0.00     0.169 HD
ATOM     13  O   UNL     1      -1.707  -1.336  -3.147  1.00  0.00    -0.275 OA
BRANCH  11  14
ATOM     14  C   UNL     1      -3.277  -1.956  -0.080  1.00  0.00     0.045 A 
ATOM     15  C   UNL     1      -4.053  -4.699  -0.487  1.00  0.00     0.048 C 
ATOM     16  C   UNL     1      -4.469  -3.319  -0.065  1.00  0.00    -0.009 A 
ATOM     17  C   UNL     1      -6.048  -3.108   0.780  1.00  0.00     0.046 A 
ATOM     18  Cl  UNL     1      -7.158  -4.416   0.906  1.00  0.00    -0.084 Cl
ATOM     19  C   UNL     1      -6.494  -1.521   1.502  1.00  0.00     0.021 A 
ATOM     20  C   UNL     1      -3.659  -0.376   0.768  1.00  0.00     0.026 A 
ATOM     21  C   UNL     1      -5.296  -0.157   1.525  1.00  0.00     0.004 A 
ENDBRANCH  11  14
ENDBRANCH   9  10
ENDBRANCH   7   9
BRANCH   7  22
ATOM     22  C   UNL     1      -4.579   1.356  -3.099  1.00  0.00    -0.032 A 
ATOM     23  C   UNL     1      -4.081   2.672  -3.338  1.00  0.00     0.005 A 
ATOM     24  C   UNL     1      -5.326   0.777  -4.126  1.00  0.00     0.005 A 
ATOM     25  C   UNL     1      -4.433   3.418  -4.458  1.00  0.00     0.000 A 
ATOM     26  C   UNL     1      -5.665   1.522  -5.267  1.00  0.00     0.000 A 
ATOM     27  C   UNL     1      -5.245   2.844  -5.420  1.00  0.00     0.000 A 
ENDBRANCH   7  22
ENDBRANCH   4   7
ENDBRANCH   2   3
ENDBRANCH   1   2
BRANCH   1  28
ATOM     28  C   UNL     1      -5.571  -3.009   4.037  1.00  0.00     0.023 C 
BRANCH  28  29
ATOM     29  C   UNL     1      -4.807  -4.308   3.918  1.00  0.00     0.116 C 
BRANCH  29  30
ATOM     30  N   UNL     1      -3.511  -4.246   4.579  1.00  0.00    -0.352 N 
ATOM     31  C   UNL     1      -2.989  -5.233   5.379  1.00  0.00     0.251 C 
ATOM     32  H   UNL     1      -2.968  -3.436   4.442  1.00  0.00     0.163 HD
ATOM     33  O   UNL     1      -1.996  -5.073   6.070  1.00  0.00    -0.269 OA
BRANCH  31  34
ATOM     34  C   UNL     1      -3.728  -6.503   5.357  1.00  0.00     0.039 A 
ATOM     35  C   UNL     1      -4.484  -6.861   6.471  1.00  0.00     0.014 A 
ATOM     36  C   UNL     1      -3.893  -7.135   4.118  1.00  0.00     0.014 A 
ATOM     37  C   UNL     1      -5.419  -7.883   6.340  1.00  0.00     0.010 A 
ATOM     38  C   UNL     1      -4.906  -8.068   3.969  1.00  0.00     0.010 A 
ATOM     39  C   UNL     1      -5.642  -8.486   5.088  1.00  0.00    -0.014 A 
BRANCH  39  40
ATOM     40  C   UNL     1      -6.569  -9.634   4.965  1.00  0.00     0.031 A 
ATOM     41  C   UNL     1      -6.011 -10.975   4.568  1.00  0.00     0.074 A 
ATOM     42  C   UNL     1      -7.880  -9.487   5.231  1.00  0.00     0.049 A 
ATOM     43  N   UNL     1      -6.624 -12.125   4.461  1.00  0.00    -0.248 NA
ATOM     44  C   UNL     1      -4.578 -11.030   4.224  1.00  0.00     0.031 C 
ATOM     45  C   UNL     1      -8.541  -8.232   5.595  1.00  0.00     0.029 A 
ATOM     46  N   UNL     1      -8.890 -10.415   5.260  1.00  0.00    -0.354 N 
ATOM     47  C   UNL     1      -5.655 -13.025   4.037  1.00  0.00     0.074 A 
ATOM     48  C   UNL     1      -4.439 -12.281   3.823  1.00  0.00     0.031 C 
ATOM     49  C   UNL     1      -9.833  -8.480   5.868  1.00  0.00     0.029 A 
ATOM     50  C   UNL     1     -10.101  -9.898   5.654  1.00  0.00     0.049 A 
ATOM     51  H   UNL     1      -8.760 -11.361   5.021  1.00  0.00     0.167 HD
ATOM     52  C   UNL     1      -5.755 -14.364   3.876  1.00  0.00     0.031 A 
ATOM     53  C   UNL     1     -11.291 -10.507   5.826  1.00  0.00     0.031 A 
ATOM     54  C   UNL     1      -6.965 -15.103   4.093  1.00  0.00     0.049 A 
ATOM     55  C   UNL     1     -11.388 -11.990   5.588  1.00  0.00     0.074 A 
ATOM     56  C   UNL     1      -7.170 -16.466   3.991  1.00  0.00     0.029 A 
ATOM     57  N   UNL     1      -8.178 -14.537   4.451  1.00  0.00    -0.354 N 
ATOM     58  N   UNL     1     -10.445 -12.841   5.257  1.00  0.00    -0.248 NA
ATOM     59  C   UNL     1     -12.714 -12.600   5.758  1.00  0.00     0.031 C 
ATOM     60  C   UNL     1      -8.526 -16.717   4.215  1.00  0.00     0.029 A 
ATOM     61  C   UNL     1      -9.146 -15.520   4.539  1.00  0.00     0.049 A 
ATOM     62  H   UNL     1      -8.328 -13.578   4.617  1.00  0.00     0.167 HD
ATOM     63  C   UNL     1     -11.057 -14.087   5.212  1.00  0.00     0.074 A 
ATOM     64  C   UNL     1     -12.446 -13.884   5.572  1.00  0.00     0.031 C 
ATOM     65  C   UNL     1     -10.522 -15.294   4.899  1.00  0.00     0.031 A 
BRANCH  52  66
ATOM     66  C   UNL     1      -4.521 -15.100   3.431  1.00  0.00    -0.014 A 
ATOM     67  C   UNL     1      -3.393 -15.209   4.263  1.00  0.00     0.009 A 
ATOM     68  C   UNL     1      -4.492 -15.708   2.168  1.00  0.00     0.009 A 
ATOM     69  C   UNL     1      -2.249 -15.877   3.821  1.00  0.00     0.001 A 
ATOM     70  C   UNL     1      -3.361 -16.408   1.744  1.00  0.00     0.001 A 
ATOM     71  C   UNL     1      -2.238 -16.483   2.566  1.00  0.00     0.000 A 
ENDBRANCH  52  66
BRANCH  53  72
ATOM     72  C   UNL     1     -12.485  -9.724   6.248  1.00  0.00    -0.014 A 
ATOM     73  C   UNL     1     -13.095  -9.955   7.491  1.00  0.00     0.009 A 
ATOM     74  C   UNL     1     -13.042  -8.760   5.393  1.00  0.00     0.009 A 
ATOM     75  C   UNL     1     -14.257  -9.266   7.850  1.00  0.00     0.001 A 
ATOM     76  C   UNL     1     -14.181  -8.046   5.770  1.00  0.00     0.001 A 
ATOM     77  C   UNL     1     -14.796  -8.310   6.992  1.00  0.00     0.000 A 
ENDBRANCH  53  72
BRANCH  65  78
ATOM     78  C   UNL     1     -11.429 -16.492   4.974  1.00  0.00    -0.014 A 
ATOM     79  C   UNL     1     -12.474 -16.680   4.058  1.00  0.00     0.009 A 
ATOM     80  C   UNL     1     -11.197 -17.472   5.953  1.00  0.00     0.009 A 
ATOM     81  C   UNL     1     -13.296 -17.806   4.148  1.00  0.00     0.001 A 
ATOM     82  C   UNL     1     -11.994 -18.614   6.016  1.00  0.00     0.001 A 
ATOM     83  C   UNL     1     -13.051 -18.774   5.122  1.00  0.00     0.000 A 
ENDBRANCH  65  78
ENDBRANCH  39  40
ENDBRANCH  31  34
ENDBRANCH  29  30
ENDBRANCH  28  29
ENDBRANCH   1  28
TORSDOF 15
