REMARK SMILES CC1=C(C(=O)NCCCCNC(=O)c2ccc(-c3c4nc(c(-c5ccccc5)c5ccc([nH]5)c(-c5ccccc5)c5nc(c(-c6ccccc6)c6ccc3[nH]6)C=C5)C=C4)cc2)[C@H](c2ccc(Cl)cc2)n2ncnc2N1
REMARK SMILES IDX 9 1 8 2 7 3 6 4 4 5 5 6 3 8 1 9 2 10 75 11 62 12 74 13 70 15
REMARK SMILES IDX 73 16 71 17 72 18 63 19 64 20 69 21 65 22 68 23 66 24 67 25
REMARK SMILES IDX 10 26 11 27 12 28 13 30 14 31 15 32 61 33 16 34 60 35 17 36
REMARK SMILES IDX 18 37 19 38 54 39 20 40 59 41 53 42 55 43 21 44 58 45 52 46
REMARK SMILES IDX 51 47 22 49 44 50 29 51 43 52 30 53 33 54 42 55 56 56 31 57
REMARK SMILES IDX 32 58 41 60 57 61 34 62 23 63 24 64 28 65 25 66 27 67 26 68
REMARK SMILES IDX 45 69 46 70 50 71 47 72 49 73 48 74 35 75 36 76 40 77 37 78
REMARK SMILES IDX 39 79 38 80
REMARK H PARENT 6 7 75 14 11 29 55 48 33 59
REMARK Flexibility Score: inf
ROOT
ATOM      1  C   UNL     1      -0.114   3.115  -2.289  1.00  0.00     0.023 C 
ENDROOT
BRANCH   1   2
ATOM      2  C   UNL     1       0.421   1.882  -1.548  1.00  0.00     0.023 C 
BRANCH   2   3
ATOM      3  C   UNL     1      -0.157   1.671  -0.141  1.00  0.00     0.116 C 
BRANCH   3   4
ATOM      4  N   UNL     1      -1.272   0.758  -0.186  1.00  0.00    -0.352 N 
ATOM      5  C   UNL     1      -1.456  -0.571  -0.072  1.00  0.00     0.251 C 
ATOM      6  O   UNL     1      -2.606  -0.914  -0.382  1.00  0.00    -0.270 OA
ATOM      7  H   UNL     1      -2.122   1.230  -0.339  1.00  0.00     0.163 HD
BRANCH   5   8
ATOM      8  C   UNL     1      -0.503  -1.640   0.409  1.00  0.00     0.065 C 
ATOM      9  C   UNL     1       1.897  -0.706   0.170  1.00  0.00     0.065 C 
ATOM     10  C   UNL     1       0.859  -1.751   0.464  1.00  0.00     0.026 C 
ATOM     11  N   UNL     1       1.449  -2.995   0.721  1.00  0.00    -0.328 N 
ATOM     12  C   UNL     1      -1.343  -2.904   0.830  1.00  0.00     0.179 C 
ATOM     13  C   UNL     1       0.788  -4.157   0.609  1.00  0.00     0.226 A 
ATOM     14  H   UNL     1       2.393  -3.018   0.997  1.00  0.00     0.169 HD
ATOM     15  N   UNL     1      -0.572  -4.125   0.568  1.00  0.00    -0.219 N 
ATOM     16  N   UNL     1       1.205  -5.391   0.505  1.00  0.00    -0.200 NA
ATOM     17  N   UNL     1      -1.089  -5.357   0.379  1.00  0.00    -0.157 NA
ATOM     18  C   UNL     1       0.033  -6.088   0.347  1.00  0.00     0.248 A 
BRANCH  12  19
ATOM     19  C   UNL     1      -1.808  -2.836   2.307  1.00  0.00    -0.018 A 
ATOM     20  C   UNL     1      -1.320  -3.706   3.304  1.00  0.00     0.008 A 
ATOM     21  C   UNL     1      -2.777  -1.890   2.697  1.00  0.00     0.008 A 
ATOM     22  C   UNL     1      -1.780  -3.637   4.624  1.00  0.00     0.021 A 
ATOM     23  C   UNL     1      -3.224  -1.808   4.021  1.00  0.00     0.021 A 
ATOM     24  C   UNL     1      -2.726  -2.686   4.978  1.00  0.00     0.041 A 
ATOM     25  Cl  UNL     1      -3.290  -2.598   6.601  1.00  0.00    -0.084 Cl
ENDBRANCH  12  19
ENDBRANCH   5   8
ENDBRANCH   3   4
ENDBRANCH   2   3
ENDBRANCH   1   2
BRANCH   1  26
ATOM     26  C   UNL     1       0.301   4.444  -1.667  1.00  0.00     0.116 C 
BRANCH  26  27
ATOM     27  N   UNL     1       1.750   4.638  -1.641  1.00  0.00    -0.352 N 
ATOM     28  C   UNL     1       2.455   5.601  -0.941  1.00  0.00     0.251 C 
ATOM     29  H   UNL     1       2.284   4.013  -2.184  1.00  0.00     0.163 HD
ATOM     30  O   UNL     1       3.572   5.949  -1.276  1.00  0.00    -0.269 OA
BRANCH  28  31
ATOM     31  C   UNL     1       1.820   6.170   0.259  1.00  0.00     0.039 A 
ATOM     32  C   UNL     1       1.783   7.547   0.493  1.00  0.00     0.014 A 
ATOM     33  C   UNL     1       1.197   5.271   1.123  1.00  0.00     0.014 A 
ATOM     34  C   UNL     1       1.039   8.018   1.572  1.00  0.00     0.010 A 
ATOM     35  C   UNL     1       0.352   5.743   2.093  1.00  0.00     0.010 A 
ATOM     36  C   UNL     1       0.311   7.109   2.357  1.00  0.00    -0.014 A 
BRANCH  36  37
ATOM     37  C   UNL     1      -0.632   7.565   3.373  1.00  0.00     0.031 A 
ATOM     38  C   UNL     1      -1.690   8.472   2.851  1.00  0.00     0.074 A 
ATOM     39  C   UNL     1      -0.685   7.027   4.612  1.00  0.00     0.049 A 
ATOM     40  N   UNL     1      -1.830   9.730   3.099  1.00  0.00    -0.248 NA
ATOM     41  C   UNL     1      -2.610   7.965   1.817  1.00  0.00     0.031 C 
ATOM     42  C   UNL     1       0.106   5.911   5.150  1.00  0.00     0.029 A 
ATOM     43  N   UNL     1      -1.550   7.287   5.630  1.00  0.00    -0.354 N 
ATOM     44  C   UNL     1      -2.986  10.127   2.433  1.00  0.00     0.074 A 
ATOM     45  C   UNL     1      -3.305   9.064   1.516  1.00  0.00     0.031 C 
ATOM     46  C   UNL     1      -0.469   5.446   6.283  1.00  0.00     0.029 A 
ATOM     47  C   UNL     1      -1.557   6.333   6.646  1.00  0.00     0.049 A 
ATOM     48  H   UNL     1      -2.124   8.086   5.647  1.00  0.00     0.167 HD
ATOM     49  C   UNL     1      -3.736  11.167   2.896  1.00  0.00     0.031 A 
ATOM     50  C   UNL     1      -2.401   6.277   7.708  1.00  0.00     0.031 A 
ATOM     51  C   UNL     1      -3.016  11.923   3.892  1.00  0.00     0.049 A 
ATOM     52  C   UNL     1      -2.983   7.625   7.868  1.00  0.00     0.074 A 
ATOM     53  C   UNL     1      -1.853  12.663   3.915  1.00  0.00     0.029 A 
ATOM     54  N   UNL     1      -3.306  11.617   5.200  1.00  0.00    -0.354 N 
ATOM     55  N   UNL     1      -2.288   8.661   8.234  1.00  0.00    -0.248 NA
ATOM     56  C   UNL     1      -4.238   7.917   7.197  1.00  0.00     0.031 C 
ATOM     57  C   UNL     1      -1.264  12.383   5.185  1.00  0.00     0.029 A 
ATOM     58  C   UNL     1      -2.135  11.561   5.904  1.00  0.00     0.049 A 
ATOM     59  H   UNL     1      -4.206  11.465   5.568  1.00  0.00     0.167 HD
ATOM     60  C   UNL     1      -2.761   9.691   7.438  1.00  0.00     0.074 A 
ATOM     61  C   UNL     1      -4.040   9.208   6.917  1.00  0.00     0.031 C 
ATOM     62  C   UNL     1      -1.929  10.704   7.051  1.00  0.00     0.031 A 
BRANCH  49  63
ATOM     63  C   UNL     1      -5.247  11.215   2.824  1.00  0.00    -0.014 A 
ATOM     64  C   UNL     1      -5.905  12.329   3.382  1.00  0.00     0.009 A 
ATOM     65  C   UNL     1      -6.049  10.102   2.516  1.00  0.00     0.009 A 
ATOM     66  C   UNL     1      -7.268  12.289   3.700  1.00  0.00     0.001 A 
ATOM     67  C   UNL     1      -7.419  10.073   2.796  1.00  0.00     0.001 A 
ATOM     68  C   UNL     1      -8.022  11.156   3.418  1.00  0.00     0.000 A 
ENDBRANCH  49  63
BRANCH  50  69
ATOM     69  C   UNL     1      -2.922   5.125   8.476  1.00  0.00    -0.014 A 
ATOM     70  C   UNL     1      -3.471   5.308   9.757  1.00  0.00     0.009 A 
ATOM     71  C   UNL     1      -3.170   3.904   7.826  1.00  0.00     0.009 A 
ATOM     72  C   UNL     1      -4.284   4.327  10.342  1.00  0.00     0.001 A 
ATOM     73  C   UNL     1      -3.983   2.924   8.411  1.00  0.00     0.001 A 
ATOM     74  C   UNL     1      -4.555   3.144   9.661  1.00  0.00     0.000 A 
ENDBRANCH  50  69
BRANCH  62  75
ATOM     75  C   UNL     1      -0.587  10.803   7.737  1.00  0.00    -0.014 A 
ATOM     76  C   UNL     1       0.404   9.805   7.667  1.00  0.00     0.009 A 
ATOM     77  C   UNL     1      -0.270  12.007   8.380  1.00  0.00     0.009 A 
ATOM     78  C   UNL     1       1.659   9.999   8.254  1.00  0.00     0.001 A 
ATOM     79  C   UNL     1       0.989  12.209   8.947  1.00  0.00     0.001 A 
ATOM     80  C   UNL     1       1.952  11.204   8.891  1.00  0.00     0.000 A 
ENDBRANCH  62  75
ENDBRANCH  36  37
ENDBRANCH  28  31
ENDBRANCH  26  27
ENDBRANCH   1  26
TORSDOF 12
