REMARK SMILES O=C(NCCCCNC(=O)c1cc(F)c(OCc2ccc(Br)cc2)c(F)c1)c1ccc(-c2c3nc(c(-c4ccccc4)c4ccc([nH]4)c(-c4ccccc4)c4nc(c(-c5ccccc5)c5ccc2[nH]5)C=C4)C=C3)cc1
REMARK SMILES IDX 6 1 5 2 4 3 3 4 1 5 2 6 28 8 29 9 75 10 30 11 74 12 31 13
REMARK SMILES IDX 32 14 33 15 68 16 34 17 73 18 67 19 69 20 35 21 72 22 66 23
REMARK SMILES IDX 65 24 36 26 58 27 43 28 57 29 44 30 47 31 56 32 70 33 45 34
REMARK SMILES IDX 46 35 55 37 71 38 48 39 37 40 38 41 42 42 39 43 41 44 40 45
REMARK SMILES IDX 59 46 60 47 64 48 61 49 63 50 62 51 49 52 50 53 54 54 51 55
REMARK SMILES IDX 53 56 52 57 7 58 8 59 9 60 10 62 11 63 12 64 27 65 13 66
REMARK SMILES IDX 25 67 14 68 15 69 26 70 16 71 17 72 18 73 19 74 24 75 20 76
REMARK SMILES IDX 23 77 21 78 22 79
REMARK H PARENT 3 7 69 25 47 36 8 61
REMARK Flexibility Score: inf
ROOT
ATOM      1  C   UNL     1       4.576  -2.989   2.521  1.00  0.00     0.023 C 
ENDROOT
BRANCH   1   2
ATOM      2  C   UNL     1       5.022  -1.579   2.135  1.00  0.00     0.023 C 
BRANCH   2   3
ATOM      3  C   UNL     1       4.690  -1.155   0.709  1.00  0.00     0.116 C 
BRANCH   3   4
ATOM      4  N   UNL     1       3.260  -1.100   0.450  1.00  0.00    -0.352 N 
ATOM      5  O   UNL     1       1.270  -0.161  -0.040  1.00  0.00    -0.269 OA
ATOM      6  C   UNL     1       2.493  -0.058  -0.015  1.00  0.00     0.251 C 
ATOM      7  H   UNL     1       2.768  -1.933   0.635  1.00  0.00     0.163 HD
BRANCH   6   8
ATOM      8  C   UNL     1       3.133   1.201  -0.455  1.00  0.00     0.039 A 
ATOM      9  C   UNL     1       4.263   1.188  -1.278  1.00  0.00     0.014 A 
ATOM     10  C   UNL     1       2.581   2.418  -0.045  1.00  0.00     0.014 A 
ATOM     11  C   UNL     1       4.921   2.380  -1.570  1.00  0.00     0.010 A 
ATOM     12  C   UNL     1       3.199   3.619  -0.404  1.00  0.00     0.010 A 
ATOM     13  C   UNL     1       4.394   3.608  -1.140  1.00  0.00    -0.014 A 
BRANCH  13  14
ATOM     14  C   UNL     1       5.082   4.873  -1.498  1.00  0.00     0.031 A 
ATOM     15  C   UNL     1       5.696   5.747  -0.439  1.00  0.00     0.074 A 
ATOM     16  C   UNL     1       5.159   5.233  -2.793  1.00  0.00     0.049 A 
ATOM     17  N   UNL     1       6.321   6.891  -0.576  1.00  0.00    -0.248 NA
ATOM     18  C   UNL     1       5.591   5.283   0.953  1.00  0.00     0.031 C 
ATOM     19  C   UNL     1       4.605   4.471  -3.915  1.00  0.00     0.029 A 
ATOM     20  N   UNL     1       5.739   6.325  -3.386  1.00  0.00    -0.354 N 
ATOM     21  C   UNL     1       6.663   7.293   0.709  1.00  0.00     0.074 A 
ATOM     22  C   UNL     1       6.158   6.283   1.615  1.00  0.00     0.031 C 
ATOM     23  C   UNL     1       4.901   5.101  -5.061  1.00  0.00     0.029 A 
ATOM     24  C   UNL     1       5.611   6.337  -4.753  1.00  0.00     0.049 A 
ATOM     25  H   UNL     1       6.202   7.031  -2.880  1.00  0.00     0.167 HD
ATOM     26  C   UNL     1       7.340   8.401   1.099  1.00  0.00     0.031 A 
ATOM     27  C   UNL     1       6.002   7.250  -5.660  1.00  0.00     0.031 A 
ATOM     28  C   UNL     1       7.841   9.407   0.199  1.00  0.00     0.049 A 
ATOM     29  C   UNL     1       6.715   8.486  -5.200  1.00  0.00     0.074 A 
ATOM     30  C   UNL     1       8.566  10.548   0.499  1.00  0.00     0.029 A 
ATOM     31  N   UNL     1       7.664   9.396  -1.176  1.00  0.00    -0.354 N 
ATOM     32  N   UNL     1       7.058   8.835  -3.984  1.00  0.00    -0.248 NA
ATOM     33  C   UNL     1       7.097   9.454  -6.237  1.00  0.00     0.031 C 
ATOM     34  C   UNL     1       8.784  11.253  -0.690  1.00  0.00     0.029 A 
ATOM     35  C   UNL     1       8.244  10.523  -1.736  1.00  0.00     0.049 A 
ATOM     36  H   UNL     1       7.196   8.691  -1.679  1.00  0.00     0.167 HD
ATOM     37  C   UNL     1       7.713  10.052  -4.111  1.00  0.00     0.074 A 
ATOM     38  C   UNL     1       7.732  10.373  -5.524  1.00  0.00     0.031 C 
ATOM     39  C   UNL     1       8.251  10.832  -3.142  1.00  0.00     0.031 A 
BRANCH  26  40
ATOM     40  C   UNL     1       7.550   8.600   2.575  1.00  0.00    -0.014 A 
ATOM     41  C   UNL     1       8.456   7.808   3.298  1.00  0.00     0.009 A 
ATOM     42  C   UNL     1       6.856   9.619   3.245  1.00  0.00     0.009 A 
ATOM     43  C   UNL     1       8.635   8.011   4.669  1.00  0.00     0.001 A 
ATOM     44  C   UNL     1       7.056   9.837   4.609  1.00  0.00     0.001 A 
ATOM     45  C   UNL     1       7.938   9.027   5.322  1.00  0.00     0.000 A 
ENDBRANCH  26  40
BRANCH  27  46
ATOM     46  C   UNL     1       5.712   7.022  -7.099  1.00  0.00    -0.014 A 
ATOM     47  C   UNL     1       6.744   6.701  -7.992  1.00  0.00     0.009 A 
ATOM     48  C   UNL     1       4.395   7.098  -7.578  1.00  0.00     0.009 A 
ATOM     49  C   UNL     1       6.463   6.474  -9.341  1.00  0.00     0.001 A 
ATOM     50  C   UNL     1       4.113   6.843  -8.921  1.00  0.00     0.001 A 
ATOM     51  C   UNL     1       5.148   6.538  -9.803  1.00  0.00     0.000 A 
ENDBRANCH  27  46
BRANCH  39  52
ATOM     52  C   UNL     1       8.935  12.094  -3.583  1.00  0.00    -0.014 A 
ATOM     53  C   UNL     1       8.201  13.207  -4.021  1.00  0.00     0.009 A 
ATOM     54  C   UNL     1      10.335  12.180  -3.527  1.00  0.00     0.009 A 
ATOM     55  C   UNL     1       8.859  14.372  -4.422  1.00  0.00     0.001 A 
ATOM     56  C   UNL     1      10.988  13.354  -3.904  1.00  0.00     0.001 A 
ATOM     57  C   UNL     1      10.250  14.445  -4.359  1.00  0.00     0.000 A 
ENDBRANCH  39  52
ENDBRANCH  13  14
ENDBRANCH   6   8
ENDBRANCH   3   4
ENDBRANCH   2   3
ENDBRANCH   1   2
BRANCH   1  58
ATOM     58  C   UNL     1       5.044  -4.103   1.586  1.00  0.00     0.116 C 
BRANCH  58  59
ATOM     59  N   UNL     1       6.495  -4.183   1.486  1.00  0.00    -0.352 N 
ATOM     60  C   UNL     1       7.328  -5.236   1.770  1.00  0.00     0.251 C 
ATOM     61  H   UNL     1       6.942  -3.365   1.168  1.00  0.00     0.163 HD
ATOM     62  O   UNL     1       8.547  -5.113   1.734  1.00  0.00    -0.269 OA
BRANCH  60  63
ATOM     63  C   UNL     1       6.735  -6.523   2.164  1.00  0.00     0.045 A 
ATOM     64  C   UNL     1       5.894  -7.209   1.288  1.00  0.00     0.057 A 
ATOM     65  C   UNL     1       6.970  -7.000   3.450  1.00  0.00     0.057 A 
ATOM     66  C   UNL     1       5.180  -8.309   1.754  1.00  0.00     0.168 A 
ATOM     67  C   UNL     1       6.247  -8.101   3.893  1.00  0.00     0.168 A 
ATOM     68  F   UNL     1       4.331  -8.897   0.900  1.00  0.00    -0.203 F 
ATOM     69  C   UNL     1       5.295  -8.730   3.080  1.00  0.00     0.191 A 
ATOM     70  F   UNL     1       6.413  -8.502   5.162  1.00  0.00    -0.203 F 
BRANCH  69  71
ATOM     71  O   UNL     1       4.502  -9.639   3.724  1.00  0.00    -0.483 OA
BRANCH  71  72
ATOM     72  C   UNL     1       3.256 -10.029   3.140  1.00  0.00     0.265 C 
BRANCH  72  73
ATOM     73  C   UNL     1       2.134  -8.999   3.121  1.00  0.00    -0.011 A 
ATOM     74  C   UNL     1       0.858  -9.423   2.708  1.00  0.00     0.008 A 
ATOM     75  C   UNL     1       2.299  -7.647   3.462  1.00  0.00     0.008 A 
ATOM     76  C   UNL     1      -0.207  -8.522   2.608  1.00  0.00     0.016 A 
ATOM     77  C   UNL     1       1.244  -6.738   3.337  1.00  0.00     0.016 A 
ATOM     78  C   UNL     1      -0.003  -7.179   2.908  1.00  0.00     0.017 A 
ATOM     79  Br  UNL     1      -1.425  -5.947   2.731  1.00  0.00    -0.051 Br
ENDBRANCH  72  73
ENDBRANCH  71  72
ENDBRANCH  69  71
ENDBRANCH  60  63
ENDBRANCH  58  59
ENDBRANCH   1  58
TORSDOF 14
