REMARK SMILES Cc1ccc(C(=O)NCCCCNC(=O)c2ccc(-c3c4nc(c(-c5ccccc5)c5ccc([nH]5)c(-c5ccccc5)c5nc(c(-c6ccccc6)c6ccc3[nH]6)C=C5)C=C4)cc2)c2c1N[C@H](c1ccccc1F)[C@H]1CC=C[C@@H]21
REMARK SMILES IDX 11 1 10 2 9 3 8 4 6 5 7 6 5 8 1 9 2 10 3 11 65 12 4 13 64 14
REMARK SMILES IDX 66 15 79 16 67 17 75 19 78 20 76 21 77 22 68 23 69 24 73 25
REMARK SMILES IDX 70 26 72 27 74 28 71 29 12 30 13 31 14 32 15 34 16 35 17 36
REMARK SMILES IDX 63 37 18 38 62 39 19 40 20 41 21 42 56 43 22 44 61 45 55 46
REMARK SMILES IDX 57 47 23 48 60 49 54 50 53 51 24 53 46 54 31 55 45 56 32 57
REMARK SMILES IDX 35 58 44 59 58 60 33 61 34 62 43 64 59 65 36 66 25 67 26 68
REMARK SMILES IDX 30 69 27 70 29 71 28 72 47 73 48 74 52 75 49 76 51 77 50 78
REMARK SMILES IDX 37 79 38 80 42 81 39 82 41 83 40 84
REMARK H PARENT 8 7 66 18 13 33 57 52 35 63
REMARK Flexibility Score: inf
ROOT
ATOM      1  C   UNL     1      -4.889   5.081   2.693  1.00  0.00     0.023 C 
ENDROOT
BRANCH   1   2
ATOM      2  C   UNL     1      -4.132   4.030   1.875  1.00  0.00     0.023 C 
BRANCH   2   3
ATOM      3  C   UNL     1      -3.357   4.596   0.678  1.00  0.00     0.116 C 
BRANCH   3   4
ATOM      4  N   UNL     1      -2.207   5.344   1.140  1.00  0.00    -0.352 N 
ATOM      5  C   UNL     1      -0.909   5.009   1.437  1.00  0.00     0.251 C 
ATOM      6  O   UNL     1      -0.274   5.903   1.995  1.00  0.00    -0.269 OA
ATOM      7  H   UNL     1      -2.397   6.301   1.270  1.00  0.00     0.163 HD
BRANCH   5   8
ATOM      8  C   UNL     1      -0.271   3.679   1.110  1.00  0.00     0.045 A 
ATOM      9  C   UNL     1       1.352  -0.203   0.046  1.00  0.00     0.046 C 
ATOM     10  C   UNL     1       0.865   1.157   0.472  1.00  0.00    -0.028 A 
ATOM     11  C   UNL     1      -0.502   1.286   0.708  1.00  0.00     0.006 A 
ATOM     12  C   UNL     1       1.705   2.274   0.653  1.00  0.00     0.042 A 
ATOM     13  C   UNL     1      -1.047   2.517   1.054  1.00  0.00     0.014 A 
ATOM     14  C   UNL     1       1.139   3.551   0.924  1.00  0.00    -0.005 A 
ATOM     15  N   UNL     1       3.073   2.118   0.529  1.00  0.00    -0.377 N 
ATOM     16  C   UNL     1       2.077   4.732   1.099  1.00  0.00     0.050 C 
ATOM     17  C   UNL     1       3.969   3.235   0.293  1.00  0.00     0.117 C 
ATOM     18  H   UNL     1       3.455   1.213   0.605  1.00  0.00     0.161 HD
ATOM     19  C   UNL     1       3.582   4.403   1.210  1.00  0.00     0.031 C 
ATOM     20  C   UNL     1       2.071   5.744  -0.018  1.00  0.00    -0.023 C 
ATOM     21  C   UNL     1       4.272   5.710   0.775  1.00  0.00     0.034 C 
ATOM     22  C   UNL     1       3.279   6.298  -0.178  1.00  0.00    -0.030 C 
BRANCH  17  23
ATOM     23  C   UNL     1       5.396   2.705   0.387  1.00  0.00     0.010 A 
ATOM     24  C   UNL     1       5.859   1.860  -0.644  1.00  0.00     0.009 A 
ATOM     25  C   UNL     1       6.271   2.960   1.449  1.00  0.00     0.128 A 
ATOM     26  C   UNL     1       7.140   1.302  -0.606  1.00  0.00     0.001 A 
ATOM     27  C   UNL     1       7.551   2.408   1.490  1.00  0.00     0.039 A 
ATOM     28  F   UNL     1       5.917   3.749   2.471  1.00  0.00    -0.207 F 
ATOM     29  C   UNL     1       7.987   1.577   0.463  1.00  0.00     0.003 A 
ENDBRANCH  17  23
ENDBRANCH   5   8
ENDBRANCH   3   4
ENDBRANCH   2   3
ENDBRANCH   1   2
BRANCH   1  30
ATOM     30  C   UNL     1      -5.980   5.819   1.931  1.00  0.00     0.116 C 
BRANCH  30  31
ATOM     31  N   UNL     1      -6.982   4.926   1.371  1.00  0.00    -0.352 N 
ATOM     32  C   UNL     1      -8.315   5.182   1.165  1.00  0.00     0.251 C 
ATOM     33  H   UNL     1      -6.667   4.030   1.109  1.00  0.00     0.163 HD
ATOM     34  O   UNL     1      -9.076   4.314   0.764  1.00  0.00    -0.269 OA
BRANCH  32  35
ATOM     35  C   UNL     1      -8.817   6.530   1.482  1.00  0.00     0.039 A 
ATOM     36  C   UNL     1      -9.802   6.663   2.462  1.00  0.00     0.014 A 
ATOM     37  C   UNL     1      -8.257   7.651   0.862  1.00  0.00     0.014 A 
ATOM     38  C   UNL     1     -10.193   7.938   2.864  1.00  0.00     0.010 A 
ATOM     39  C   UNL     1      -8.620   8.921   1.293  1.00  0.00     0.010 A 
ATOM     40  C   UNL     1      -9.586   9.071   2.299  1.00  0.00    -0.014 A 
BRANCH  40  41
ATOM     41  C   UNL     1      -9.959  10.427   2.756  1.00  0.00     0.031 A 
ATOM     42  C   UNL     1     -10.782  11.312   1.871  1.00  0.00     0.074 A 
ATOM     43  C   UNL     1      -9.530  10.864   3.954  1.00  0.00     0.049 A 
ATOM     44  N   UNL     1     -11.211  12.526   2.098  1.00  0.00    -0.248 NA
ATOM     45  C   UNL     1     -11.165  10.768   0.558  1.00  0.00     0.031 C 
ATOM     46  C   UNL     1      -8.702  10.099   4.889  1.00  0.00     0.029 A 
ATOM     47  N   UNL     1      -9.740  12.059   4.593  1.00  0.00    -0.354 N 
ATOM     48  C   UNL     1     -11.913  12.892   0.958  1.00  0.00     0.074 A 
ATOM     49  C   UNL     1     -11.820  11.790   0.025  1.00  0.00     0.031 C 
ATOM     50  C   UNL     1      -8.499  10.834   5.995  1.00  0.00     0.029 A 
ATOM     51  C   UNL     1      -9.164  12.125   5.837  1.00  0.00     0.049 A 
ATOM     52  H   UNL     1     -10.254  12.800   4.197  1.00  0.00     0.167 HD
ATOM     53  C   UNL     1     -12.592  14.036   0.721  1.00  0.00     0.031 A 
ATOM     54  C   UNL     1      -9.178  13.112   6.753  1.00  0.00     0.031 A 
ATOM     55  C   UNL     1     -12.695  15.124   1.651  1.00  0.00     0.049 A 
ATOM     56  C   UNL     1      -9.923  14.381   6.458  1.00  0.00     0.074 A 
ATOM     57  C   UNL     1     -13.398  16.308   1.514  1.00  0.00     0.029 A 
ATOM     58  N   UNL     1     -12.079  15.160   2.891  1.00  0.00    -0.354 N 
ATOM     59  N   UNL     1     -10.617  14.696   5.392  1.00  0.00    -0.248 NA
ATOM     60  C   UNL     1      -9.894  15.427   7.491  1.00  0.00     0.031 C 
ATOM     61  C   UNL     1     -13.184  17.074   2.663  1.00  0.00     0.029 A 
ATOM     62  C   UNL     1     -12.375  16.352   3.526  1.00  0.00     0.049 A 
ATOM     63  H   UNL     1     -11.516  14.444   3.265  1.00  0.00     0.167 HD
ATOM     64  C   UNL     1     -11.121  15.967   5.631  1.00  0.00     0.074 A 
ATOM     65  C   UNL     1     -10.656  16.366   6.944  1.00  0.00     0.031 C 
ATOM     66  C   UNL     1     -11.904  16.730   4.832  1.00  0.00     0.031 A 
BRANCH  53  67
ATOM     67  C   UNL     1     -13.293  14.162  -0.598  1.00  0.00    -0.014 A 
ATOM     68  C   UNL     1     -14.499  13.486  -0.834  1.00  0.00     0.009 A 
ATOM     69  C   UNL     1     -12.772  15.004  -1.592  1.00  0.00     0.009 A 
ATOM     70  C   UNL     1     -15.165  13.638  -2.051  1.00  0.00     0.001 A 
ATOM     71  C   UNL     1     -13.450  15.166  -2.801  1.00  0.00     0.001 A 
ATOM     72  C   UNL     1     -14.642  14.481  -3.031  1.00  0.00     0.000 A 
ENDBRANCH  53  67
BRANCH  54  73
ATOM     73  C   UNL     1      -8.494  12.909   8.053  1.00  0.00    -0.014 A 
ATOM     74  C   UNL     1      -9.239  12.581   9.195  1.00  0.00     0.009 A 
ATOM     75  C   UNL     1      -7.097  12.993   8.148  1.00  0.00     0.009 A 
ATOM     76  C   UNL     1      -8.596  12.345  10.412  1.00  0.00     0.001 A 
ATOM     77  C   UNL     1      -6.457  12.742   9.364  1.00  0.00     0.001 A 
ATOM     78  C   UNL     1      -7.207  12.421  10.495  1.00  0.00     0.000 A 
ENDBRANCH  54  73
BRANCH  66  79
ATOM     79  C   UNL     1     -12.330  18.072   5.345  1.00  0.00    -0.014 A 
ATOM     80  C   UNL     1     -11.473  19.177   5.253  1.00  0.00     0.009 A 
ATOM     81  C   UNL     1     -13.642  18.255   5.806  1.00  0.00     0.009 A 
ATOM     82  C   UNL     1     -11.925  20.447   5.615  1.00  0.00     0.001 A 
ATOM     83  C   UNL     1     -14.096  19.528   6.153  1.00  0.00     0.001 A 
ATOM     84  C   UNL     1     -13.237  20.623   6.055  1.00  0.00     0.000 A 
ENDBRANCH  66  79
ENDBRANCH  40  41
ENDBRANCH  32  35
ENDBRANCH  30  31
ENDBRANCH   1  30
TORSDOF 12
