REMARK SMILES CSc1ncccc1C(=O)N1CSC[C@H]1C(=O)NCCCCNC(=O)c1ccc(-c2c3nc(c(-c4ccccc4)c4ccc([nH]4)c(-c4ccccc4)c4nc(c(-c5ccccc5)c5ccc2[nH]5)C=C4)C=C3)cc1
REMARK SMILES IDX 20 1 19 2 18 3 16 4 17 5 15 7 11 8 12 9 13 10 14 11 9 12
REMARK SMILES IDX 10 13 8 14 3 15 4 16 5 17 7 18 6 19 2 20 1 21 21 22 22 23
REMARK SMILES IDX 23 24 24 25 25 27 26 28 27 29 73 30 28 31 72 32 29 33 30 34
REMARK SMILES IDX 31 35 66 36 32 37 71 38 65 39 67 40 33 41 70 42 64 43 63 44
REMARK SMILES IDX 34 46 56 47 41 48 55 49 42 50 45 51 54 52 68 53 43 54 44 55
REMARK SMILES IDX 53 57 69 58 46 59 35 60 36 61 40 62 37 63 39 64 38 65 57 66
REMARK SMILES IDX 58 67 62 68 59 69 61 70 60 71 47 72 48 73 52 74 49 75 51 76
REMARK SMILES IDX 50 77
REMARK H PARENT 18 6 23 26 67 45 45 56
REMARK Flexibility Score: inf
ROOT
ATOM      1  C   UNL     1       1.298  -6.526   3.530  1.00  0.00     0.023 C 
ENDROOT
BRANCH   1   2
ATOM      2  C   UNL     1       0.068  -7.417   3.411  1.00  0.00     0.116 C 
BRANCH   2   3
ATOM      3  N   UNL     1      -1.165  -6.665   3.429  1.00  0.00    -0.354 N 
ATOM      4  C   UNL     1      -2.023  -6.348   2.418  1.00  0.00     0.243 C 
ATOM      5  O   UNL     1      -3.152  -5.980   2.763  1.00  0.00    -0.273 OA
ATOM      6  H   UNL     1      -1.428  -6.326   4.315  1.00  0.00     0.163 HD
BRANCH   4   7
ATOM      7  C   UNL     1      -1.711  -6.614   0.927  1.00  0.00     0.185 C 
ATOM      8  N   UNL     1      -0.472  -6.035   0.374  1.00  0.00    -0.316 N 
ATOM      9  C   UNL     1       0.539  -7.001  -0.001  1.00  0.00     0.190 C 
ATOM     10  S   UNL     1      -0.343  -8.517  -0.407  1.00  0.00    -0.138 SA
ATOM     11  C   UNL     1      -1.787  -8.111   0.618  1.00  0.00     0.106 C 
BRANCH   8  12
ATOM     12  C   UNL     1      -0.485  -4.665   0.094  1.00  0.00     0.257 C 
ATOM     13  O   UNL     1      -1.342  -3.931   0.579  1.00  0.00    -0.269 OA
BRANCH  12  14
ATOM     14  C   UNL     1       0.438  -4.084  -0.915  1.00  0.00     0.072 A 
ATOM     15  C   UNL     1       1.068  -2.844  -0.762  1.00  0.00     0.108 A 
ATOM     16  N   UNL     1       1.848  -2.308  -1.744  1.00  0.00    -0.249 NA
ATOM     17  C   UNL     1       1.966  -2.973  -2.911  1.00  0.00     0.112 A 
ATOM     18  C   UNL     1       0.544  -4.717  -2.165  1.00  0.00     0.018 A 
ATOM     19  C   UNL     1       1.337  -4.172  -3.167  1.00  0.00     0.021 A 
BRANCH  15  20
ATOM     20  S   UNL     1       0.975  -1.843   0.718  1.00  0.00    -0.109 SA
ATOM     21  C   UNL     1       1.162  -0.188  -0.013  1.00  0.00     0.092 C 
ENDBRANCH  15  20
ENDBRANCH  12  14
ENDBRANCH   8  12
ENDBRANCH   4   7
ENDBRANCH   2   3
ENDBRANCH   1   2
BRANCH   1  22
ATOM     22  C   UNL     1       1.585  -6.027   4.946  1.00  0.00     0.023 C 
BRANCH  22  23
ATOM     23  C   UNL     1       1.737  -7.116   6.005  1.00  0.00     0.116 C 
BRANCH  23  24
ATOM     24  N   UNL     1       2.733  -8.123   5.671  1.00  0.00    -0.352 N 
ATOM     25  C   UNL     1       3.541  -8.839   6.521  1.00  0.00     0.251 C 
ATOM     26  H   UNL     1       2.842  -8.316   4.712  1.00  0.00     0.163 HD
ATOM     27  O   UNL     1       4.405  -9.587   6.073  1.00  0.00    -0.269 OA
BRANCH  25  28
ATOM     28  C   UNL     1       3.391  -8.670   7.980  1.00  0.00     0.039 A 
ATOM     29  C   UNL     1       4.532  -8.437   8.751  1.00  0.00     0.014 A 
ATOM     30  C   UNL     1       2.129  -8.710   8.579  1.00  0.00     0.014 A 
ATOM     31  C   UNL     1       4.399  -8.181  10.117  1.00  0.00     0.010 A 
ATOM     32  C   UNL     1       1.993  -8.381   9.924  1.00  0.00     0.010 A 
ATOM     33  C   UNL     1       3.126  -8.117  10.707  1.00  0.00    -0.014 A 
BRANCH  33  34
ATOM     34  C   UNL     1       2.967  -7.775  12.142  1.00  0.00     0.031 A 
ATOM     35  C   UNL     1       2.397  -8.780  13.103  1.00  0.00     0.074 A 
ATOM     36  C   UNL     1       3.287  -6.538  12.569  1.00  0.00     0.049 A 
ATOM     37  N   UNL     1       2.173  -8.659  14.387  1.00  0.00    -0.248 NA
ATOM     38  C   UNL     1       2.002 -10.084  12.545  1.00  0.00     0.031 C 
ATOM     39  C   UNL     1       3.797  -5.454  11.726  1.00  0.00     0.029 A 
ATOM     40  N   UNL     1       3.229  -5.984  13.823  1.00  0.00    -0.354 N 
ATOM     41  C   UNL     1       1.598  -9.859  14.784  1.00  0.00     0.074 A 
ATOM     42  C   UNL     1       1.458 -10.675  13.598  1.00  0.00     0.031 C 
ATOM     43  C   UNL     1       4.036  -4.377  12.492  1.00  0.00     0.029 A 
ATOM     44  C   UNL     1       3.666  -4.682  13.871  1.00  0.00     0.049 A 
ATOM     45  H   UNL     1       2.905  -6.473  14.614  1.00  0.00     0.167 HD
ATOM     46  C   UNL     1       1.239 -10.257  16.028  1.00  0.00     0.031 A 
ATOM     47  C   UNL     1       3.762  -3.831  14.909  1.00  0.00     0.031 A 
ATOM     48  C   UNL     1       1.389  -9.451  17.209  1.00  0.00     0.049 A 
ATOM     49  C   UNL     1       3.365  -4.299  16.281  1.00  0.00     0.074 A 
ATOM     50  C   UNL     1       1.113  -9.787  18.523  1.00  0.00     0.029 A 
ATOM     51  N   UNL     1       1.851  -8.144  17.218  1.00  0.00    -0.354 N 
ATOM     52  N   UNL     1       2.903  -5.468  16.654  1.00  0.00    -0.248 NA
ATOM     53  C   UNL     1       3.523  -3.335  17.378  1.00  0.00     0.031 C 
ATOM     54  C   UNL     1       1.363  -8.665  19.322  1.00  0.00     0.029 A 
ATOM     55  C   UNL     1       1.849  -7.651  18.512  1.00  0.00     0.049 A 
ATOM     56  H   UNL     1       2.139  -7.641  16.422  1.00  0.00     0.167 HD
ATOM     57  C   UNL     1       2.741  -5.389  18.031  1.00  0.00     0.074 A 
ATOM     58  C   UNL     1       3.172  -4.064  18.428  1.00  0.00     0.031 C 
ATOM     59  C   UNL     1       2.278  -6.330  18.890  1.00  0.00     0.031 A 
BRANCH  46  60
ATOM     60  C   UNL     1       0.643 -11.631  16.168  1.00  0.00    -0.014 A 
ATOM     61  C   UNL     1       1.422 -12.785  15.981  1.00  0.00     0.009 A 
ATOM     62  C   UNL     1      -0.708 -11.774  16.516  1.00  0.00     0.009 A 
ATOM     63  C   UNL     1       0.849 -14.053  16.101  1.00  0.00     0.001 A 
ATOM     64  C   UNL     1      -1.271 -13.043  16.666  1.00  0.00     0.001 A 
ATOM     65  C   UNL     1      -0.495 -14.181  16.448  1.00  0.00     0.000 A 
ENDBRANCH  46  60
BRANCH  47  66
ATOM     66  C   UNL     1       4.282  -2.455  14.697  1.00  0.00    -0.014 A 
ATOM     67  C   UNL     1       5.547  -2.089  15.184  1.00  0.00     0.009 A 
ATOM     68  C   UNL     1       3.517  -1.499  14.011  1.00  0.00     0.009 A 
ATOM     69  C   UNL     1       6.022  -0.787  15.013  1.00  0.00     0.001 A 
ATOM     70  C   UNL     1       4.007  -0.206  13.816  1.00  0.00     0.001 A 
ATOM     71  C   UNL     1       5.254   0.152  14.325  1.00  0.00     0.000 A 
ENDBRANCH  47  66
BRANCH  59  72
ATOM     72  C   UNL     1       2.249  -5.970  20.349  1.00  0.00    -0.014 A 
ATOM     73  C   UNL     1       1.317  -5.051  20.857  1.00  0.00     0.009 A 
ATOM     74  C   UNL     1       3.149  -6.586  21.232  1.00  0.00     0.009 A 
ATOM     75  C   UNL     1       1.314  -4.729  22.215  1.00  0.00     0.001 A 
ATOM     76  C   UNL     1       3.123  -6.284  22.594  1.00  0.00     0.001 A 
ATOM     77  C   UNL     1       2.213  -5.348  23.083  1.00  0.00     0.000 A 
ENDBRANCH  59  72
ENDBRANCH  33  34
ENDBRANCH  25  28
ENDBRANCH  23  24
ENDBRANCH  22  23
ENDBRANCH   1  22
TORSDOF 14
