REMARK SMILES C[C@@H](C(=O)[C@H](C)[C@@H](C)C(=O)NCCCCNC(=O)c1ccc(-c2c3nc(c(-c4ccccc4)c4ccc([nH]4)c(-c4ccccc4)c4nc(c(-c5ccccc5)c5ccc2[nH]5)C=C4)C=C3)cc1)c1ccccc1
REMARK SMILES IDX 12 1 11 2 9 3 10 4 7 6 8 7 5 8 6 9 3 10 4 11 2 12 1 13 67 14
REMARK SMILES IDX 68 15 72 16 69 17 71 18 70 19 13 20 14 21 15 22 16 23 17 24
REMARK SMILES IDX 18 26 19 27 20 28 66 29 21 30 65 31 22 32 23 33 24 34 59 35
REMARK SMILES IDX 25 36 64 37 58 38 60 39 26 40 63 41 57 42 56 43 27 45 49 46
REMARK SMILES IDX 34 47 48 48 35 49 38 50 47 51 61 52 36 53 37 54 46 56 62 57
REMARK SMILES IDX 39 58 28 59 29 60 33 61 30 62 32 63 31 64 50 65 51 66 55 67
REMARK SMILES IDX 52 68 54 69 53 70 40 71 41 72 45 73 42 74 44 75 43 76
REMARK H PARENT 11 5 16 25 60 44 38 55
REMARK Flexibility Score: inf
ROOT
ATOM      1  C   UNL     1       4.108   0.767   4.558  1.00  0.00     0.116 C 
ENDROOT
BRANCH   1   2
ATOM      2  N   UNL     1       4.834   0.619   3.309  1.00  0.00    -0.356 N 
ATOM      3  C   UNL     1       4.404   0.384   2.043  1.00  0.00     0.223 C 
ATOM      4  O   UNL     1       5.260   0.217   1.169  1.00  0.00    -0.275 OA
ATOM      5  H   UNL     1       5.811   0.703   3.397  1.00  0.00     0.163 HD
BRANCH   3   6
ATOM      6  C   UNL     1       2.923   0.328   1.671  1.00  0.00     0.085 C 
ATOM      7  C   UNL     1       2.263   1.696   1.858  1.00  0.00     0.019 C 
BRANCH   6   8
ATOM      8  C   UNL     1       2.198  -0.855   2.335  1.00  0.00     0.066 C 
ATOM      9  C   UNL     1       0.683  -0.864   2.143  1.00  0.00     0.017 C 
BRANCH   8  10
ATOM     10  C   UNL     1       2.806  -2.223   1.986  1.00  0.00     0.143 C 
ATOM     11  O   UNL     1       3.037  -2.999   2.921  1.00  0.00    -0.299 OA
BRANCH  10  12
ATOM     12  C   UNL     1       3.096  -2.599   0.518  1.00  0.00     0.083 C 
ATOM     13  C   UNL     1       1.840  -2.551  -0.354  1.00  0.00     0.021 C 
BRANCH  12  14
ATOM     14  C   UNL     1       3.779  -3.960   0.402  1.00  0.00    -0.038 A 
ATOM     15  C   UNL     1       3.071  -5.159   0.590  1.00  0.00     0.004 A 
ATOM     16  C   UNL     1       5.154  -4.029   0.131  1.00  0.00     0.004 A 
ATOM     17  C   UNL     1       3.719  -6.392   0.496  1.00  0.00     0.000 A 
ATOM     18  C   UNL     1       5.800  -5.264   0.038  1.00  0.00     0.000 A 
ATOM     19  C   UNL     1       5.082  -6.444   0.219  1.00  0.00     0.000 A 
ENDBRANCH  12  14
ENDBRANCH  10  12
ENDBRANCH   8  10
ENDBRANCH   6   8
ENDBRANCH   3   6
ENDBRANCH   1   2
BRANCH   1  20
ATOM     20  C   UNL     1       4.286  -0.449   5.465  1.00  0.00     0.023 C 
BRANCH  20  21
ATOM     21  C   UNL     1       5.682  -0.596   6.070  1.00  0.00     0.023 C 
BRANCH  21  22
ATOM     22  C   UNL     1       6.180   0.614   6.852  1.00  0.00     0.116 C 
BRANCH  22  23
ATOM     23  N   UNL     1       5.283   1.017   7.925  1.00  0.00    -0.352 N 
ATOM     24  C   UNL     1       5.595   1.431   9.197  1.00  0.00     0.251 C 
ATOM     25  H   UNL     1       4.322   0.990   7.710  1.00  0.00     0.163 HD
ATOM     26  O   UNL     1       4.709   1.635  10.021  1.00  0.00    -0.269 OA
BRANCH  24  27
ATOM     27  C   UNL     1       7.012   1.591   9.578  1.00  0.00     0.039 A 
ATOM     28  C   UNL     1       7.464   0.997  10.758  1.00  0.00     0.014 A 
ATOM     29  C   UNL     1       7.897   2.288   8.752  1.00  0.00     0.014 A 
ATOM     30  C   UNL     1       8.822   1.041  11.075  1.00  0.00     0.010 A 
ATOM     31  C   UNL     1       9.259   2.267   9.030  1.00  0.00     0.010 A 
ATOM     32  C   UNL     1       9.735   1.642  10.193  1.00  0.00    -0.014 A 
BRANCH  32  33
ATOM     33  C   UNL     1      11.194   1.623  10.464  1.00  0.00     0.031 A 
ATOM     34  C   UNL     1      11.935   2.909  10.695  1.00  0.00     0.074 A 
ATOM     35  C   UNL     1      11.862   0.454  10.434  1.00  0.00     0.049 A 
ATOM     36  N   UNL     1      13.216   3.101  10.883  1.00  0.00    -0.248 NA
ATOM     37  C   UNL     1      11.137   4.146  10.685  1.00  0.00     0.031 C 
ATOM     38  C   UNL     1      11.266  -0.860  10.178  1.00  0.00     0.029 A 
ATOM     39  N   UNL     1      13.195   0.183  10.614  1.00  0.00    -0.354 N 
ATOM     40  C   UNL     1      13.379   4.476  10.996  1.00  0.00     0.074 A 
ATOM     41  C   UNL     1      12.075   5.074  10.805  1.00  0.00     0.031 C 
ATOM     42  C   UNL     1      12.225  -1.798  10.244  1.00  0.00     0.029 A 
ATOM     43  C   UNL     1      13.506  -1.151  10.506  1.00  0.00     0.049 A 
ATOM     44  H   UNL     1      13.866   0.879  10.802  1.00  0.00     0.167 HD
ATOM     45  C   UNL     1      14.507   5.178  11.256  1.00  0.00     0.031 A 
ATOM     46  C   UNL     1      14.691  -1.782  10.601  1.00  0.00     0.031 A 
ATOM     47  C   UNL     1      15.801   4.584  11.458  1.00  0.00     0.049 A 
ATOM     48  C   UNL     1      15.931  -0.979  10.880  1.00  0.00     0.074 A 
ATOM     49  C   UNL     1      16.994   5.206  11.783  1.00  0.00     0.029 A 
ATOM     50  N   UNL     1      16.071   3.228  11.351  1.00  0.00    -0.354 N 
ATOM     51  N   UNL     1      16.056   0.315  11.053  1.00  0.00    -0.248 NA
ATOM     52  C   UNL     1      17.192  -1.727  10.988  1.00  0.00     0.031 C 
ATOM     53  C   UNL     1      17.996   4.231  11.825  1.00  0.00     0.029 A 
ATOM     54  C   UNL     1      17.416   2.997  11.582  1.00  0.00     0.049 A 
ATOM     55  H   UNL     1      15.405   2.534  11.143  1.00  0.00     0.167 HD
ATOM     56  C   UNL     1      17.402   0.532  11.318  1.00  0.00     0.074 A 
ATOM     57  C   UNL     1      18.049  -0.764  11.298  1.00  0.00     0.031 C 
ATOM     58  C   UNL     1      18.044   1.701  11.557  1.00  0.00     0.031 A 
BRANCH  45  59
ATOM     59  C   UNL     1      14.386   6.675  11.331  1.00  0.00    -0.014 A 
ATOM     60  C   UNL     1      13.717   7.298  12.396  1.00  0.00     0.009 A 
ATOM     61  C   UNL     1      14.975   7.474  10.339  1.00  0.00     0.009 A 
ATOM     62  C   UNL     1      13.607   8.689  12.446  1.00  0.00     0.001 A 
ATOM     63  C   UNL     1      14.889   8.866  10.407  1.00  0.00     0.001 A 
ATOM     64  C   UNL     1      14.196   9.471  11.454  1.00  0.00     0.000 A 
ENDBRANCH  45  59
BRANCH  46  65
ATOM     65  C   UNL     1      14.764  -3.258  10.448  1.00  0.00    -0.014 A 
ATOM     66  C   UNL     1      15.035  -4.075  11.556  1.00  0.00     0.009 A 
ATOM     67  C   UNL     1      14.568  -3.858   9.194  1.00  0.00     0.009 A 
ATOM     68  C   UNL     1      15.137  -5.460  11.407  1.00  0.00     0.001 A 
ATOM     69  C   UNL     1      14.642  -5.246   9.054  1.00  0.00     0.001 A 
ATOM     70  C   UNL     1      14.936  -6.045  10.157  1.00  0.00     0.000 A 
ENDBRANCH  46  65
BRANCH  58  71
ATOM     71  C   UNL     1      19.516   1.628  11.852  1.00  0.00    -0.014 A 
ATOM     72  C   UNL     1      20.449   1.344  10.843  1.00  0.00     0.009 A 
ATOM     73  C   UNL     1      19.976   1.890  13.152  1.00  0.00     0.009 A 
ATOM     74  C   UNL     1      21.812   1.291  11.139  1.00  0.00     0.001 A 
ATOM     75  C   UNL     1      21.341   1.864  13.439  1.00  0.00     0.001 A 
ATOM     76  C   UNL     1      22.258   1.556  12.434  1.00  0.00     0.000 A 
ENDBRANCH  58  71
ENDBRANCH  32  33
ENDBRANCH  24  27
ENDBRANCH  22  23
ENDBRANCH  21  22
ENDBRANCH  20  21
ENDBRANCH   1  20
TORSDOF 15
