REMARK SMILES CO[C@H]1C[C@@H](C(=O)NCCCCNC(=O)c2ccc(-c3c4nc(c(-c5ccccc5)c5ccc([nH]5)c(-c5ccccc5)c5nc(c(-c6ccccc6)c6ccc3[nH]6)C=C5)C=C4)cc2)N(C(=O)Nc2cc(C)cc(F)c2)C1
REMARK SMILES IDX 10 1 9 2 8 3 6 4 7 5 5 7 3 8 4 9 76 10 64 11 2 12 1 13 65 14
REMARK SMILES IDX 66 15 67 16 68 18 69 19 75 20 70 21 73 22 71 23 72 24 74 25
REMARK SMILES IDX 11 26 12 27 13 28 14 29 15 31 16 32 17 33 63 34 18 35 62 36
REMARK SMILES IDX 19 37 20 38 21 39 56 40 22 41 61 42 55 43 57 44 23 45 60 46
REMARK SMILES IDX 54 47 53 48 24 50 46 51 31 52 45 53 32 54 35 55 44 56 58 57
REMARK SMILES IDX 33 58 34 59 43 61 59 62 36 63 25 64 26 65 30 66 27 67 29 68
REMARK SMILES IDX 28 69 47 70 48 71 52 72 49 73 51 74 50 75 37 76 38 77 42 78
REMARK SMILES IDX 39 79 41 80 40 81
REMARK H PARENT 8 6 67 17 13 30 57 49 35 60
REMARK Flexibility Score: inf
ROOT
ATOM      1  C   UNL     1       1.457   7.087   2.413  1.00  0.00     0.023 C 
ENDROOT
BRANCH   1   2
ATOM      2  C   UNL     1       0.793   5.723   2.176  1.00  0.00     0.116 C 
BRANCH   2   3
ATOM      3  N   UNL     1      -0.361   5.756   1.292  1.00  0.00    -0.354 N 
ATOM      4  C   UNL     1      -0.647   5.098   0.133  1.00  0.00     0.242 C 
ATOM      5  O   UNL     1      -1.815   5.177  -0.270  1.00  0.00    -0.273 OA
ATOM      6  H   UNL     1      -1.072   6.370   1.587  1.00  0.00     0.163 HD
BRANCH   4   7
ATOM      7  C   UNL     1       0.321   4.115  -0.540  1.00  0.00     0.179 C 
ATOM      8  C   UNL     1       1.417   2.052   0.152  1.00  0.00     0.140 C 
ATOM      9  C   UNL     1       0.139   2.845   0.306  1.00  0.00     0.069 C 
ATOM     10  C   UNL     1       2.468   3.139  -0.088  1.00  0.00     0.154 C 
ATOM     11  N   UNL     1       1.776   4.322  -0.619  1.00  0.00    -0.310 N 
BRANCH   8  12
ATOM     12  O   UNL     1       1.722   1.330   1.345  1.00  0.00    -0.380 OA
ATOM     13  C   UNL     1       0.832   0.252   1.610  1.00  0.00     0.195 C 
ENDBRANCH   8  12
BRANCH  11  14
ATOM     14  C   UNL     1       2.530   5.126  -1.441  1.00  0.00     0.322 C 
ATOM     15  O   UNL     1       3.755   4.965  -1.522  1.00  0.00    -0.248 OA
ATOM     16  N   UNL     1       1.999   5.991  -2.339  1.00  0.00    -0.308 N 
ATOM     17  H   UNL     1       2.476   5.981  -3.200  1.00  0.00     0.171 HD
BRANCH  16  18
ATOM     18  C   UNL     1       0.931   6.896  -2.330  1.00  0.00     0.046 A 
ATOM     19  C   UNL     1       0.455   7.401  -3.545  1.00  0.00     0.029 A 
ATOM     20  C   UNL     1       0.403   7.407  -1.163  1.00  0.00     0.065 A 
ATOM     21  C   UNL     1      -0.658   8.262  -3.580  1.00  0.00    -0.046 A 
ATOM     22  C   UNL     1      -0.735   8.205  -1.188  1.00  0.00     0.125 A 
ATOM     23  C   UNL     1      -1.138   8.856  -4.869  1.00  0.00     0.044 C 
ATOM     24  C   UNL     1      -1.282   8.622  -2.385  1.00  0.00     0.042 A 
ATOM     25  F   UNL     1      -1.318   8.573  -0.039  1.00  0.00    -0.207 F 
ENDBRANCH  16  18
ENDBRANCH  11  14
ENDBRANCH   4   7
ENDBRANCH   2   3
ENDBRANCH   1   2
BRANCH   1  26
ATOM     26  C   UNL     1       0.529   8.278   2.665  1.00  0.00     0.023 C 
BRANCH  26  27
ATOM     27  C   UNL     1      -0.559   8.067   3.705  1.00  0.00     0.116 C 
BRANCH  27  28
ATOM     28  N   UNL     1      -0.018   7.861   5.034  1.00  0.00    -0.352 N 
ATOM     29  C   UNL     1      -0.404   8.447   6.216  1.00  0.00     0.251 C 
ATOM     30  H   UNL     1       0.722   7.216   5.099  1.00  0.00     0.163 HD
ATOM     31  O   UNL     1       0.260   8.290   7.230  1.00  0.00    -0.269 OA
BRANCH  29  32
ATOM     32  C   UNL     1      -1.615   9.299   6.245  1.00  0.00     0.039 A 
ATOM     33  C   UNL     1      -1.547  10.540   6.883  1.00  0.00     0.014 A 
ATOM     34  C   UNL     1      -2.804   8.883   5.639  1.00  0.00     0.014 A 
ATOM     35  C   UNL     1      -2.656  11.389   6.867  1.00  0.00     0.010 A 
ATOM     36  C   UNL     1      -3.882   9.759   5.560  1.00  0.00     0.010 A 
ATOM     37  C   UNL     1      -3.821  11.019   6.176  1.00  0.00    -0.014 A 
BRANCH  37  38
ATOM     38  C   UNL     1      -4.991  11.930   6.089  1.00  0.00     0.031 A 
ATOM     39  C   UNL     1      -6.305  11.530   6.703  1.00  0.00     0.074 A 
ATOM     40  C   UNL     1      -4.893  13.083   5.400  1.00  0.00     0.049 A 
ATOM     41  N   UNL     1      -7.460  12.144   6.657  1.00  0.00    -0.248 NA
ATOM     42  C   UNL     1      -6.329  10.259   7.446  1.00  0.00     0.031 C 
ATOM     43  C   UNL     1      -3.684  13.574   4.735  1.00  0.00     0.029 A 
ATOM     44  N   UNL     1      -5.833  14.048   5.134  1.00  0.00    -0.354 N 
ATOM     45  C   UNL     1      -8.349  11.327   7.345  1.00  0.00     0.074 A 
ATOM     46  C   UNL     1      -7.612  10.152   7.756  1.00  0.00     0.031 C 
ATOM     47  C   UNL     1      -3.950  14.757   4.158  1.00  0.00     0.029 A 
ATOM     48  C   UNL     1      -5.357  15.085   4.369  1.00  0.00     0.049 A 
ATOM     49  H   UNL     1      -6.760  14.002   5.462  1.00  0.00     0.167 HD
ATOM     50  C   UNL     1      -9.656  11.543   7.624  1.00  0.00     0.031 A 
ATOM     51  C   UNL     1      -5.985  16.170   3.877  1.00  0.00     0.031 A 
ATOM     52  C   UNL     1     -10.387  12.714   7.219  1.00  0.00     0.049 A 
ATOM     53  C   UNL     1      -7.447  16.368   4.171  1.00  0.00     0.074 A 
ATOM     54  C   UNL     1     -11.700  13.049   7.497  1.00  0.00     0.029 A 
ATOM     55  N   UNL     1      -9.867  13.740   6.445  1.00  0.00    -0.354 N 
ATOM     56  N   UNL     1      -8.258  15.618   4.876  1.00  0.00    -0.248 NA
ATOM     57  C   UNL     1      -8.077  17.570   3.607  1.00  0.00     0.031 C 
ATOM     58  C   UNL     1     -11.993  14.248   6.841  1.00  0.00     0.029 A 
ATOM     59  C   UNL     1     -10.842  14.694   6.211  1.00  0.00     0.049 A 
ATOM     60  H   UNL     1      -8.942  13.783   6.111  1.00  0.00     0.167 HD
ATOM     61  C   UNL     1      -9.483  16.271   4.868  1.00  0.00     0.074 A 
ATOM     62  C   UNL     1      -9.306  17.486   4.098  1.00  0.00     0.031 C 
ATOM     63  C   UNL     1     -10.650  15.900   5.448  1.00  0.00     0.031 A 
BRANCH  50  64
ATOM     64  C   UNL     1     -10.386  10.477   8.396  1.00  0.00    -0.014 A 
ATOM     65  C   UNL     1     -10.097  10.227   9.747  1.00  0.00     0.009 A 
ATOM     66  C   UNL     1     -11.403   9.737   7.772  1.00  0.00     0.009 A 
ATOM     67  C   UNL     1     -10.783   9.232  10.445  1.00  0.00     0.001 A 
ATOM     68  C   UNL     1     -12.109   8.765   8.482  1.00  0.00     0.001 A 
ATOM     69  C   UNL     1     -11.792   8.505   9.815  1.00  0.00     0.000 A 
ENDBRANCH  50  64
BRANCH  51  70
ATOM     70  C   UNL     1      -5.236  17.158   3.056  1.00  0.00    -0.014 A 
ATOM     71  C   UNL     1      -4.976  18.445   3.552  1.00  0.00     0.009 A 
ATOM     72  C   UNL     1      -4.788  16.825   1.768  1.00  0.00     0.009 A 
ATOM     73  C   UNL     1      -4.308  19.386   2.764  1.00  0.00     0.001 A 
ATOM     74  C   UNL     1      -4.093  17.758   0.995  1.00  0.00     0.001 A 
ATOM     75  C   UNL     1      -3.863  19.041   1.489  1.00  0.00     0.000 A 
ENDBRANCH  51  70
BRANCH  63  76
ATOM     76  C   UNL     1     -11.819  16.837   5.314  1.00  0.00    -0.014 A 
ATOM     77  C   UNL     1     -12.493  16.998   4.094  1.00  0.00     0.009 A 
ATOM     78  C   UNL     1     -12.284  17.526   6.445  1.00  0.00     0.009 A 
ATOM     79  C   UNL     1     -13.593  17.854   4.004  1.00  0.00     0.001 A 
ATOM     80  C   UNL     1     -13.403  18.356   6.359  1.00  0.00     0.001 A 
ATOM     81  C   UNL     1     -14.051  18.526   5.137  1.00  0.00     0.000 A 
ENDBRANCH  63  76
ENDBRANCH  37  38
ENDBRANCH  29  32
ENDBRANCH  27  28
ENDBRANCH  26  27
ENDBRANCH   1  26
TORSDOF 14
