REMARK SMILES CC[C@](C)([NH3+])C(=O)N1CC[NH+]([C@H](C)C(=O)NCCCCNC(=O)c2ccc(-c3c4nc(c(-c5ccccc5)c5ccc([nH]5)c(-c5ccccc5)c5nc(c(-c6ccccc6)c6ccc3[nH]6)C=C5)C=C4)cc2)CC1
REMARK SMILES IDX 18 1 17 2 16 3 14 4 15 5 12 7 13 8 11 9 6 10 7 11 8 12 9 13
REMARK SMILES IDX 73 14 10 15 72 16 3 18 4 19 2 20 1 21 5 22 19 26 20 27 21 28
REMARK SMILES IDX 22 29 23 31 24 32 25 33 71 34 26 35 70 36 27 37 28 38 29 39
REMARK SMILES IDX 64 40 30 41 69 42 63 43 65 44 31 45 68 46 62 47 61 48 32 50
REMARK SMILES IDX 54 51 39 52 53 53 40 54 43 55 52 56 66 57 41 58 42 59 51 61
REMARK SMILES IDX 67 62 44 63 33 64 34 65 38 66 35 67 37 68 36 69 55 70 56 71
REMARK SMILES IDX 60 72 57 73 59 74 58 75 45 76 46 77 50 78 47 79 49 80 48 81
REMARK H PARENT 16 6 11 17 5 23 5 24 5 25 21 30 65 49 43 60
REMARK Flexibility Score: inf
ROOT
ATOM      1  C   UNL     1       5.305   4.966   2.051  1.00  0.00     0.023 C 
ENDROOT
BRANCH   1   2
ATOM      2  C   UNL     1       5.555   3.786   2.979  1.00  0.00     0.116 C 
BRANCH   2   3
ATOM      3  N   UNL     1       6.197   4.142   4.228  1.00  0.00    -0.351 N 
ATOM      4  C   UNL     1       6.080   3.586   5.472  1.00  0.00     0.278 C 
ATOM      5  O   UNL     1       6.925   3.927   6.307  1.00  0.00    -0.268 OA
ATOM      6  H   UNL     1       6.816   4.905   4.172  1.00  0.00     0.163 HD
BRANCH   4   7
ATOM      7  C   UNL     1       4.945   2.597   5.848  1.00  0.00     0.271 C 
ATOM      8  C   UNL     1       3.552   3.112   5.466  1.00  0.00     0.086 C 
BRANCH   7   9
ATOM      9  N   UNL     1       5.261   1.165   5.567  1.00  0.00    -0.322 N 
ATOM     10  C   UNL     1       4.246  -1.772   2.974  1.00  0.00     0.283 C 
ATOM     11  O   UNL     1       4.935  -1.912   1.951  1.00  0.00    -0.268 OA
ATOM     12  N   UNL     1       4.862  -1.317   4.128  1.00  0.00    -0.326 N 
ATOM     13  C   UNL     1       6.133  -0.611   3.991  1.00  0.00     0.181 C 
ATOM     14  C   UNL     1       4.356  -1.212   5.493  1.00  0.00     0.181 C 
ATOM     15  C   UNL     1       5.865   0.886   4.251  1.00  0.00     0.284 C 
ATOM     16  C   UNL     1       4.117   0.267   5.861  1.00  0.00     0.284 C 
ATOM     17  H   UNL     1       6.009   0.950   6.227  1.00  0.00     0.348 HD
BRANCH  10  18
ATOM     18  C   UNL     1       2.684  -1.886   2.821  1.00  0.00     0.171 C 
ATOM     19  C   UNL     1       2.410  -2.840   1.637  1.00  0.00     0.090 C 
BRANCH  18  20
ATOM     20  C   UNL     1       2.148  -0.457   2.529  1.00  0.00     0.075 C 
ATOM     21  C   UNL     1       0.769  -0.382   1.883  1.00  0.00     0.011 C 
ENDBRANCH  18  20
BRANCH  18  22
ATOM     22  N   UNL     1       1.999  -2.467   3.995  1.00  0.00    -0.345 N 
ATOM     23  H   UNL     1       2.363  -3.404   4.172  1.00  0.00     0.345 HD
ATOM     24  H   UNL     1       0.997  -2.521   3.812  1.00  0.00     0.345 HD
ATOM     25  H   UNL     1       2.165  -1.879   4.811  1.00  0.00     0.345 HD
ENDBRANCH  18  22
ENDBRANCH  10  18
ENDBRANCH   7   9
ENDBRANCH   4   7
ENDBRANCH   2   3
ENDBRANCH   1   2
BRANCH   1  26
ATOM     26  C   UNL     1       6.559   5.654   1.518  1.00  0.00     0.023 C 
BRANCH  26  27
ATOM     27  C   UNL     1       7.632   4.732   0.948  1.00  0.00     0.116 C 
BRANCH  27  28
ATOM     28  N   UNL     1       7.157   3.884  -0.137  1.00  0.00    -0.352 N 
ATOM     29  C   UNL     1       7.638   3.749  -1.420  1.00  0.00     0.251 C 
ATOM     30  H   UNL     1       6.378   3.323   0.079  1.00  0.00     0.163 HD
ATOM     31  O   UNL     1       7.044   3.055  -2.235  1.00  0.00    -0.269 OA
BRANCH  29  32
ATOM     32  C   UNL     1       8.851   4.490  -1.824  1.00  0.00     0.039 A 
ATOM     33  C   UNL     1       8.816   5.247  -2.998  1.00  0.00     0.014 A 
ATOM     34  C   UNL     1       9.995   4.479  -1.024  1.00  0.00     0.014 A 
ATOM     35  C   UNL     1       9.895   6.073  -3.317  1.00  0.00     0.010 A 
ATOM     36  C   UNL     1      11.032   5.364  -1.298  1.00  0.00     0.010 A 
ATOM     37  C   UNL     1      10.989   6.177  -2.441  1.00  0.00    -0.014 A 
BRANCH  37  38
ATOM     38  C   UNL     1      12.089   7.142  -2.690  1.00  0.00     0.031 A 
ATOM     39  C   UNL     1      13.491   6.648  -2.913  1.00  0.00     0.074 A 
ATOM     40  C   UNL     1      11.842   8.466  -2.634  1.00  0.00     0.049 A 
ATOM     41  N   UNL     1      14.595   7.336  -3.061  1.00  0.00    -0.248 NA
ATOM     42  C   UNL     1      13.682   5.189  -2.942  1.00  0.00     0.031 C 
ATOM     43  C   UNL     1      10.536   9.079  -2.378  1.00  0.00     0.029 A 
ATOM     44  N   UNL     1      12.687   9.538  -2.780  1.00  0.00    -0.354 N 
ATOM     45  C   UNL     1      15.610   6.396  -3.175  1.00  0.00     0.074 A 
ATOM     46  C   UNL     1      15.000   5.092  -3.033  1.00  0.00     0.031 C 
ATOM     47  C   UNL     1      10.663  10.415  -2.413  1.00  0.00     0.029 A 
ATOM     48  C   UNL     1      12.062  10.755  -2.652  1.00  0.00     0.049 A 
ATOM     49  H   UNL     1      13.651   9.444  -2.958  1.00  0.00     0.167 HD
ATOM     50  C   UNL     1      16.930   6.596  -3.399  1.00  0.00     0.031 A 
ATOM     51  C   UNL     1      12.559  12.004  -2.715  1.00  0.00     0.031 A 
ATOM     52  C   UNL     1      17.537   7.889  -3.562  1.00  0.00     0.049 A 
ATOM     53  C   UNL     1      14.027  12.201  -2.969  1.00  0.00     0.074 A 
ATOM     54  C   UNL     1      18.855   8.192  -3.855  1.00  0.00     0.029 A 
ATOM     55  N   UNL     1      16.864   9.095  -3.447  1.00  0.00    -0.354 N 
ATOM     56  N   UNL     1      14.962  11.300  -3.142  1.00  0.00    -0.248 NA
ATOM     57  C   UNL     1      14.504  13.589  -3.046  1.00  0.00     0.031 C 
ATOM     58  C   UNL     1      18.988   9.584  -3.877  1.00  0.00     0.029 A 
ATOM     59  C   UNL     1      17.743  10.146  -3.646  1.00  0.00     0.049 A 
ATOM     60  H   UNL     1      15.903   9.190  -3.254  1.00  0.00     0.167 HD
ATOM     61  C   UNL     1      16.132  12.010  -3.376  1.00  0.00     0.074 A 
ATOM     62  C   UNL     1      15.786  13.415  -3.336  1.00  0.00     0.031 C 
ATOM     63  C   UNL     1      17.382  11.539  -3.605  1.00  0.00     0.031 A 
BRANCH  50  64
ATOM     64  C   UNL     1      17.808   5.378  -3.478  1.00  0.00    -0.014 A 
ATOM     65  C   UNL     1      17.735   4.500  -4.571  1.00  0.00     0.009 A 
ATOM     66  C   UNL     1      18.736   5.119  -2.458  1.00  0.00     0.009 A 
ATOM     67  C   UNL     1      18.546   3.365  -4.621  1.00  0.00     0.001 A 
ATOM     68  C   UNL     1      19.567   3.999  -2.526  1.00  0.00     0.001 A 
ATOM     69  C   UNL     1      19.464   3.118  -3.601  1.00  0.00     0.000 A 
ENDBRANCH  50  64
BRANCH  51  70
ATOM     70  C   UNL     1      11.656  13.174  -2.555  1.00  0.00    -0.014 A 
ATOM     71  C   UNL     1      11.336  13.978  -3.660  1.00  0.00     0.009 A 
ATOM     72  C   UNL     1      11.118  13.499  -1.300  1.00  0.00     0.009 A 
ATOM     73  C   UNL     1      10.516  15.098  -3.507  1.00  0.00     0.001 A 
ATOM     74  C   UNL     1      10.277  14.604  -1.156  1.00  0.00     0.001 A 
ATOM     75  C   UNL     1       9.984  15.408  -2.256  1.00  0.00     0.000 A 
ENDBRANCH  51  70
BRANCH  63  76
ATOM     76  C   UNL     1      18.460  12.551  -3.867  1.00  0.00    -0.014 A 
ATOM     77  C   UNL     1      18.988  13.337  -2.832  1.00  0.00     0.009 A 
ATOM     78  C   UNL     1      18.983  12.686  -5.163  1.00  0.00     0.009 A 
ATOM     79  C   UNL     1      20.000  14.262  -3.097  1.00  0.00     0.001 A 
ATOM     80  C   UNL     1      20.013  13.593  -5.418  1.00  0.00     0.001 A 
ATOM     81  C   UNL     1      20.515  14.385  -4.387  1.00  0.00     0.000 A 
ENDBRANCH  63  76
ENDBRANCH  37  38
ENDBRANCH  29  32
ENDBRANCH  27  28
ENDBRANCH  26  27
ENDBRANCH   1  26
TORSDOF 15
