REMARK SMILES CCC[N@H+](CC)[C@H]1CC[C@]([NH2+]C)(C(=O)NCCCCNC(=O)c2ccc(-c3c4nc(c(-c5ccccc5)c5ccc([nH]5)c(-c5ccccc5)c5nc(c(-c6ccccc6)c6ccc3[nH]6)C=C5)C=C4)cc2)C1
REMARK SMILES IDX 17 1 16 2 15 3 13 4 14 5 10 7 7 8 8 9 71 10 9 11 4 12 3 14
REMARK SMILES IDX 2 15 1 16 5 17 6 18 11 19 12 20 18 23 19 24 20 25 21 26
REMARK SMILES IDX 22 28 23 29 24 30 70 31 25 32 69 33 26 34 27 35 28 36 63 37
REMARK SMILES IDX 29 38 68 39 62 40 64 41 30 42 67 43 61 44 60 45 31 47 53 48
REMARK SMILES IDX 38 49 52 50 39 51 42 52 51 53 65 54 40 55 41 56 50 58 66 59
REMARK SMILES IDX 43 60 32 61 33 62 37 63 34 64 36 65 35 66 54 67 55 68 59 69
REMARK SMILES IDX 56 70 58 71 57 72 44 73 45 74 49 75 46 76 48 77 47 78
REMARK H PARENT 15 6 4 13 11 21 11 22 20 27 64 46 42 57
REMARK Flexibility Score: inf
ROOT
ATOM      1  C   UNL     1      -2.586   1.598  -0.254  1.00  0.00     0.023 C 
ENDROOT
BRANCH   1   2
ATOM      2  C   UNL     1      -1.236   1.773  -0.957  1.00  0.00     0.116 C 
BRANCH   2   3
ATOM      3  N   UNL     1      -0.673   3.063  -0.621  1.00  0.00    -0.351 N 
ATOM      4  C   UNL     1      -0.002   3.491   0.487  1.00  0.00     0.281 C 
ATOM      5  O   UNL     1      -0.064   4.711   0.690  1.00  0.00    -0.268 OA
ATOM      6  H   UNL     1      -0.797   3.753  -1.313  1.00  0.00     0.163 HD
BRANCH   4   7
ATOM      7  C   UNL     1       0.920   2.568   1.356  1.00  0.00     0.181 C 
ATOM      8  C   UNL     1       1.136   0.521   2.752  1.00  0.00     0.191 C 
ATOM      9  C   UNL     1       0.661   1.678   3.658  1.00  0.00     0.072 C 
ATOM     10  C   UNL     1       0.620   1.062   1.410  1.00  0.00     0.144 C 
ATOM     11  C   UNL     1       0.745   2.970   2.843  1.00  0.00     0.085 C 
BRANCH   8  12
ATOM     12  N   UNL     1       2.591   0.168   2.848  1.00  0.00    -0.333 N 
ATOM     13  H   UNL     1       3.146   0.998   2.636  1.00  0.00     0.348 HD
BRANCH  12  14
ATOM     14  C   UNL     1       2.961  -0.916   1.886  1.00  0.00     0.262 C 
BRANCH  14  15
ATOM     15  C   UNL     1       3.516  -0.494   0.516  1.00  0.00     0.058 C 
ATOM     16  C   UNL     1       4.813   0.298   0.569  1.00  0.00     0.010 C 
ENDBRANCH  14  15
ENDBRANCH  12  14
BRANCH  12  17
ATOM     17  C   UNL     1       2.832  -0.358   4.230  1.00  0.00     0.258 C 
ATOM     18  C   UNL     1       4.300  -0.508   4.620  1.00  0.00     0.071 C 
ENDBRANCH  12  17
ENDBRANCH   8  12
BRANCH   7  19
ATOM     19  N   UNL     1       2.345   2.847   1.041  1.00  0.00    -0.336 N 
ATOM     20  C   UNL     1       2.669   2.992  -0.365  1.00  0.00     0.331 C 
ATOM     21  H   UNL     1       2.903   2.078   1.412  1.00  0.00     0.346 HD
ATOM     22  H   UNL     1       2.548   3.752   1.465  1.00  0.00     0.346 HD
ENDBRANCH   7  19
ENDBRANCH   4   7
ENDBRANCH   2   3
ENDBRANCH   1   2
BRANCH   1  23
ATOM     23  C   UNL     1      -3.741   2.299  -0.975  1.00  0.00     0.023 C 
BRANCH  23  24
ATOM     24  C   UNL     1      -4.033   1.756  -2.369  1.00  0.00     0.116 C 
BRANCH  24  25
ATOM     25  N   UNL     1      -4.331   0.332  -2.380  1.00  0.00    -0.352 N 
ATOM     26  C   UNL     1      -5.106  -0.362  -3.279  1.00  0.00     0.251 C 
ATOM     27  H   UNL     1      -3.929  -0.200  -1.655  1.00  0.00     0.163 HD
ATOM     28  O   UNL     1      -5.360  -1.544  -3.114  1.00  0.00    -0.269 OA
BRANCH  26  29
ATOM     29  C   UNL     1      -5.665   0.374  -4.429  1.00  0.00     0.039 A 
ATOM     30  C   UNL     1      -7.046   0.360  -4.627  1.00  0.00     0.014 A 
ATOM     31  C   UNL     1      -4.830   1.130  -5.255  1.00  0.00     0.014 A 
ATOM     32  C   UNL     1      -7.601   1.163  -5.624  1.00  0.00     0.010 A 
ATOM     33  C   UNL     1      -5.390   1.978  -6.202  1.00  0.00     0.010 A 
ATOM     34  C   UNL     1      -6.780   2.004  -6.393  1.00  0.00    -0.014 A 
BRANCH  34  35
ATOM     35  C   UNL     1      -7.357   2.918  -7.406  1.00  0.00     0.031 A 
ATOM     36  C   UNL     1      -7.039   2.720  -8.861  1.00  0.00     0.074 A 
ATOM     37  C   UNL     1      -8.113   3.961  -7.011  1.00  0.00     0.049 A 
ATOM     38  N   UNL     1      -7.391   3.450  -9.889  1.00  0.00    -0.248 NA
ATOM     39  C   UNL     1      -6.194   1.564  -9.205  1.00  0.00     0.031 C 
ATOM     40  C   UNL     1      -8.457   4.285  -5.624  1.00  0.00     0.029 A 
ATOM     41  N   UNL     1      -8.723   4.948  -7.742  1.00  0.00    -0.354 N 
ATOM     42  C   UNL     1      -6.802   2.850 -10.994  1.00  0.00     0.074 A 
ATOM     43  C   UNL     1      -6.028   1.728 -10.509  1.00  0.00     0.031 C 
ATOM     44  C   UNL     1      -9.236   5.379  -5.608  1.00  0.00     0.029 A 
ATOM     45  C   UNL     1      -9.416   5.854  -6.976  1.00  0.00     0.049 A 
ATOM     46  H   UNL     1      -8.670   5.002  -8.724  1.00  0.00     0.167 HD
ATOM     47  C   UNL     1      -6.914   3.187 -12.300  1.00  0.00     0.031 A 
ATOM     48  C   UNL     1     -10.112   6.948  -7.337  1.00  0.00     0.031 A 
ATOM     49  C   UNL     1      -7.694   4.293 -12.784  1.00  0.00     0.049 A 
ATOM     50  C   UNL     1     -10.213   7.304  -8.794  1.00  0.00     0.074 A 
ATOM     51  C   UNL     1      -7.904   4.692 -14.093  1.00  0.00     0.029 A 
ATOM     52  N   UNL     1      -8.396   5.174 -11.978  1.00  0.00    -0.354 N 
ATOM     53  N   UNL     1      -9.700   6.690  -9.832  1.00  0.00    -0.248 NA
ATOM     54  C   UNL     1     -11.002   8.498  -9.129  1.00  0.00     0.031 C 
ATOM     55  C   UNL     1      -8.704   5.839 -14.076  1.00  0.00     0.029 A 
ATOM     56  C   UNL     1      -9.030   6.123 -12.759  1.00  0.00     0.049 A 
ATOM     57  H   UNL     1      -8.437   5.131 -10.995  1.00  0.00     0.167 HD
ATOM     58  C   UNL     1     -10.128   7.404 -10.944  1.00  0.00     0.074 A 
ATOM     59  C   UNL     1     -10.956   8.487 -10.454  1.00  0.00     0.031 C 
ATOM     60  C   UNL     1      -9.858   7.186 -12.253  1.00  0.00     0.031 A 
BRANCH  47  61
ATOM     61  C   UNL     1      -6.178   2.341 -13.299  1.00  0.00    -0.014 A 
ATOM     62  C   UNL     1      -6.604   1.035 -13.592  1.00  0.00     0.009 A 
ATOM     63  C   UNL     1      -5.074   2.866 -13.987  1.00  0.00     0.009 A 
ATOM     64  C   UNL     1      -5.921   0.263 -14.533  1.00  0.00     0.001 A 
ATOM     65  C   UNL     1      -4.410   2.101 -14.947  1.00  0.00     0.001 A 
ATOM     66  C   UNL     1      -4.829   0.798 -15.214  1.00  0.00     0.000 A 
ENDBRANCH  47  61
BRANCH  48  67
ATOM     67  C   UNL     1     -10.782   7.786  -6.308  1.00  0.00    -0.014 A 
ATOM     68  C   UNL     1     -12.182   7.815  -6.213  1.00  0.00     0.009 A 
ATOM     69  C   UNL     1     -10.027   8.584  -5.435  1.00  0.00     0.009 A 
ATOM     70  C   UNL     1     -12.812   8.654  -5.291  1.00  0.00     0.001 A 
ATOM     71  C   UNL     1     -10.659   9.399  -4.493  1.00  0.00     0.001 A 
ATOM     72  C   UNL     1     -12.051   9.443  -4.431  1.00  0.00     0.000 A 
ENDBRANCH  48  67
BRANCH  60  73
ATOM     73  C   UNL     1     -10.499   8.109 -13.249  1.00  0.00    -0.014 A 
ATOM     74  C   UNL     1     -10.056   9.431 -13.408  1.00  0.00     0.009 A 
ATOM     75  C   UNL     1     -11.535   7.633 -14.068  1.00  0.00     0.009 A 
ATOM     76  C   UNL     1     -10.661  10.268 -14.347  1.00  0.00     0.001 A 
ATOM     77  C   UNL     1     -12.119   8.463 -15.025  1.00  0.00     0.001 A 
ATOM     78  C   UNL     1     -11.687   9.782 -15.158  1.00  0.00     0.000 A 
ENDBRANCH  60  73
ENDBRANCH  34  35
ENDBRANCH  26  29
ENDBRANCH  24  25
ENDBRANCH  23  24
ENDBRANCH   1  23
TORSDOF 16
