REMARK SMILES O=Cc1cn(-c2ccc(Cl)cc2)nc1C(=O)NCCCCNC(=O)c1ccc(-c2c3nc(c(-c4ccccc4)c4ccc([nH]4)c(-c4ccccc4)c4nc(c(-c5ccccc5)c5ccc2[nH]5)C=C4)C=C3)cc1
REMARK SMILES IDX 20 1 19 2 18 3 17 4 15 5 16 6 14 8 3 9 4 10 5 11 13 12 2 13
REMARK SMILES IDX 1 14 6 15 7 16 12 17 8 18 11 19 9 20 10 21 21 22 22 23 23 24
REMARK SMILES IDX 24 26 25 27 26 28 72 29 27 30 71 31 28 32 29 33 30 34 65 35
REMARK SMILES IDX 31 36 70 37 64 38 66 39 32 40 69 41 63 42 62 43 33 45 55 46
REMARK SMILES IDX 40 47 54 48 41 49 44 50 53 51 67 52 42 53 43 54 52 56 68 57
REMARK SMILES IDX 45 58 34 59 35 60 39 61 36 62 38 63 37 64 56 65 57 66 61 67
REMARK SMILES IDX 58 68 60 69 59 70 46 71 47 72 51 73 48 74 50 75 49 76
REMARK H PARENT 17 7 22 25 66 44 44 55
REMARK Flexibility Score: inf
ROOT
ATOM      1  C   UNL     1       1.796  -2.985   3.326  1.00  0.00     0.023 C 
ENDROOT
BRANCH   1   2
ATOM      2  C   UNL     1       1.454  -2.404   1.953  1.00  0.00     0.023 C 
BRANCH   2   3
ATOM      3  C   UNL     1       2.418  -1.413   1.306  1.00  0.00     0.116 C 
BRANCH   3   4
ATOM      4  N   UNL     1       3.682  -1.944   0.842  1.00  0.00    -0.351 N 
ATOM      5  C   UNL     1       4.333  -1.817  -0.373  1.00  0.00     0.272 C 
ATOM      6  O   UNL     1       5.418  -2.401  -0.460  1.00  0.00    -0.267 OA
ATOM      7  H   UNL     1       4.161  -2.490   1.506  1.00  0.00     0.163 HD
BRANCH   5   8
ATOM      8  C   UNL     1       3.782  -1.031  -1.509  1.00  0.00     0.161 A 
ATOM      9  C   UNL     1       3.017   0.176  -1.537  1.00  0.00     0.066 A 
ATOM     10  C   UNL     1       2.818   0.447  -2.869  1.00  0.00     0.127 A 
ATOM     11  N   UNL     1       3.538  -0.472  -3.577  1.00  0.00    -0.239 N 
ATOM     12  N   UNL     1       4.016  -1.450  -2.779  1.00  0.00    -0.162 NA
BRANCH   9  13
ATOM     13  C   UNL     1       2.513   1.034  -0.495  1.00  0.00     0.264 C 
ATOM     14  O   UNL     1       1.405   1.556  -0.542  1.00  0.00    -0.298 OA
ENDBRANCH   9  13
BRANCH  11  15
ATOM     15  C   UNL     1       3.787  -0.412  -4.970  1.00  0.00     0.065 A 
ATOM     16  C   UNL     1       3.876   0.845  -5.593  1.00  0.00     0.030 A 
ATOM     17  C   UNL     1       3.914  -1.581  -5.725  1.00  0.00     0.030 A 
ATOM     18  C   UNL     1       4.062   0.932  -6.972  1.00  0.00     0.023 A 
ATOM     19  C   UNL     1       4.052  -1.486  -7.116  1.00  0.00     0.023 A 
ATOM     20  C   UNL     1       4.125  -0.233  -7.731  1.00  0.00     0.041 A 
ATOM     21  Cl  UNL     1       4.284  -0.120  -9.440  1.00  0.00    -0.084 Cl
ENDBRANCH  11  15
ENDBRANCH   5   8
ENDBRANCH   3   4
ENDBRANCH   2   3
ENDBRANCH   1   2
BRANCH   1  22
ATOM     22  C   UNL     1       2.130  -1.973   4.409  1.00  0.00     0.116 C 
BRANCH  22  23
ATOM     23  N   UNL     1       1.057  -1.026   4.726  1.00  0.00    -0.352 N 
ATOM     24  C   UNL     1       1.064  -0.039   5.711  1.00  0.00     0.251 C 
ATOM     25  H   UNL     1       0.239  -1.095   4.183  1.00  0.00     0.163 HD
ATOM     26  O   UNL     1       0.035   0.452   6.133  1.00  0.00    -0.269 OA
BRANCH  24  27
ATOM     27  C   UNL     1       2.375   0.411   6.222  1.00  0.00     0.039 A 
ATOM     28  C   UNL     1       2.622   0.659   7.575  1.00  0.00     0.014 A 
ATOM     29  C   UNL     1       3.394   0.515   5.285  1.00  0.00     0.014 A 
ATOM     30  C   UNL     1       3.933   0.927   7.975  1.00  0.00     0.010 A 
ATOM     31  C   UNL     1       4.691   0.535   5.704  1.00  0.00     0.010 A 
ATOM     32  C   UNL     1       4.965   0.842   7.028  1.00  0.00    -0.014 A 
BRANCH  32  33
ATOM     33  C   UNL     1       6.369   0.984   7.383  1.00  0.00     0.031 A 
ATOM     34  C   UNL     1       6.844   0.032   8.417  1.00  0.00     0.074 A 
ATOM     35  C   UNL     1       7.231   1.727   6.652  1.00  0.00     0.049 A 
ATOM     36  N   UNL     1       7.197   0.304   9.627  1.00  0.00    -0.248 NA
ATOM     37  C   UNL     1       6.796  -1.409   8.117  1.00  0.00     0.031 C 
ATOM     38  C   UNL     1       6.988   2.449   5.394  1.00  0.00     0.029 A 
ATOM     39  N   UNL     1       8.569   1.886   6.821  1.00  0.00    -0.354 N 
ATOM     40  C   UNL     1       7.619  -0.899  10.182  1.00  0.00     0.074 A 
ATOM     41  C   UNL     1       7.167  -1.934   9.286  1.00  0.00     0.031 C 
ATOM     42  C   UNL     1       8.168   2.743   4.801  1.00  0.00     0.029 A 
ATOM     43  C   UNL     1       9.239   2.400   5.716  1.00  0.00     0.049 A 
ATOM     44  H   UNL     1       9.029   1.655   7.660  1.00  0.00     0.167 HD
ATOM     45  C   UNL     1       8.538  -0.926  11.188  1.00  0.00     0.031 A 
ATOM     46  C   UNL     1      10.583   2.506   5.565  1.00  0.00     0.031 A 
ATOM     47  C   UNL     1       8.724   0.383  11.768  1.00  0.00     0.049 A 
ATOM     48  C   UNL     1      11.179   2.425   6.918  1.00  0.00     0.074 A 
ATOM     49  C   UNL     1       7.895   1.306  12.373  1.00  0.00     0.029 A 
ATOM     50  N   UNL     1       9.843   1.084  11.380  1.00  0.00    -0.354 N 
ATOM     51  N   UNL     1      11.017   3.344   7.826  1.00  0.00    -0.248 NA
ATOM     52  C   UNL     1      11.559   1.113   7.415  1.00  0.00     0.031 C 
ATOM     53  C   UNL     1       8.323   2.569  11.864  1.00  0.00     0.029 A 
ATOM     54  C   UNL     1       9.438   2.352  11.052  1.00  0.00     0.049 A 
ATOM     55  H   UNL     1      10.764   0.739  11.345  1.00  0.00     0.167 HD
ATOM     56  C   UNL     1      10.821   2.640   9.004  1.00  0.00     0.074 A 
ATOM     57  C   UNL     1      11.265   1.276   8.709  1.00  0.00     0.031 C 
ATOM     58  C   UNL     1      10.047   3.147  10.009  1.00  0.00     0.031 A 
BRANCH  45  59
ATOM     59  C   UNL     1       9.572  -2.015  11.350  1.00  0.00    -0.014 A 
ATOM     60  C   UNL     1      10.466  -1.934  12.433  1.00  0.00     0.009 A 
ATOM     61  C   UNL     1       9.888  -2.945  10.341  1.00  0.00     0.009 A 
ATOM     62  C   UNL     1      11.654  -2.675  12.456  1.00  0.00     0.001 A 
ATOM     63  C   UNL     1      11.051  -3.718  10.381  1.00  0.00     0.001 A 
ATOM     64  C   UNL     1      11.951  -3.559  11.424  1.00  0.00     0.000 A 
ENDBRANCH  45  59
BRANCH  46  65
ATOM     65  C   UNL     1      11.415   2.416   4.345  1.00  0.00    -0.014 A 
ATOM     66  C   UNL     1      12.752   2.847   4.365  1.00  0.00     0.009 A 
ATOM     67  C   UNL     1      10.997   1.632   3.255  1.00  0.00     0.009 A 
ATOM     68  C   UNL     1      13.652   2.457   3.364  1.00  0.00     0.001 A 
ATOM     69  C   UNL     1      11.895   1.246   2.253  1.00  0.00     0.001 A 
ATOM     70  C   UNL     1      13.227   1.641   2.318  1.00  0.00     0.000 A 
ENDBRANCH  46  65
BRANCH  58  71
ATOM     71  C   UNL     1       9.589   4.583   9.897  1.00  0.00    -0.014 A 
ATOM     72  C   UNL     1       8.801   5.066   8.835  1.00  0.00     0.009 A 
ATOM     73  C   UNL     1       9.841   5.442  10.976  1.00  0.00     0.009 A 
ATOM     74  C   UNL     1       8.313   6.378   8.841  1.00  0.00     0.001 A 
ATOM     75  C   UNL     1       9.337   6.745  10.992  1.00  0.00     0.001 A 
ATOM     76  C   UNL     1       8.579   7.215   9.922  1.00  0.00     0.000 A 
ENDBRANCH  58  71
ENDBRANCH  32  33
ENDBRANCH  24  27
ENDBRANCH  22  23
ENDBRANCH   1  22
TORSDOF 13
