REMARK SMILES O=C(NCCCCNC(=O)c1ccc2c(c1)[C@@H]1C=CC[C@@H]1[C@H](c1ccncc1)N2)c1ccc(-c2c3nc(c(-c4ccccc4)c4ccc([nH]4)c(-c4ccccc4)c4nc(c(-c5ccccc5)c5ccc2[nH]5)C=C4)C=C3)cc1
REMARK SMILES IDX 5 1 4 2 3 3 1 4 2 5 30 7 31 8 77 9 32 10 76 11 33 12 34 13
REMARK SMILES IDX 35 14 70 15 36 16 75 17 69 18 71 19 37 20 74 21 68 22 67 23
REMARK SMILES IDX 38 25 60 26 45 27 59 28 46 29 49 30 58 31 72 32 47 33 48 34
REMARK SMILES IDX 57 36 73 37 50 38 39 39 40 40 44 41 41 42 43 43 42 44 61 45
REMARK SMILES IDX 62 46 66 47 63 48 65 49 64 50 51 51 52 52 56 53 53 54 55 55
REMARK SMILES IDX 54 56 6 57 7 58 8 59 9 60 10 62 11 63 12 64 16 65 13 66
REMARK SMILES IDX 15 67 14 68 17 69 29 70 18 71 21 72 22 73 19 75 20 76 23 77
REMARK SMILES IDX 24 78 28 79 25 80 27 81 26 82
REMARK H PARENT 3 6 71 24 49 35 8 61 29 74
REMARK Flexibility Score: inf
ROOT
ATOM      1  C   UNL     1       4.927   0.150   2.435  1.00  0.00     0.023 C 
ENDROOT
BRANCH   1   2
ATOM      2  C   UNL     1       4.585  -0.520   1.109  1.00  0.00     0.116 C 
BRANCH   2   3
ATOM      3  N   UNL     1       3.153  -0.662   0.903  1.00  0.00    -0.352 N 
ATOM      4  O   UNL     1       1.133  -0.242  -0.005  1.00  0.00    -0.269 OA
ATOM      5  C   UNL     1       2.354  -0.140  -0.084  1.00  0.00     0.251 C 
ATOM      6  H   UNL     1       2.686  -1.214   1.572  1.00  0.00     0.163 HD
BRANCH   5   7
ATOM      7  C   UNL     1       2.959   0.567  -1.232  1.00  0.00     0.039 A 
ATOM      8  C   UNL     1       4.052   0.028  -1.916  1.00  0.00     0.014 A 
ATOM      9  C   UNL     1       2.405   1.783  -1.641  1.00  0.00     0.014 A 
ATOM     10  C   UNL     1       4.670   0.763  -2.924  1.00  0.00     0.010 A 
ATOM     11  C   UNL     1       2.982   2.486  -2.699  1.00  0.00     0.010 A 
ATOM     12  C   UNL     1       4.136   1.995  -3.330  1.00  0.00    -0.014 A 
BRANCH  12  13
ATOM     13  C   UNL     1       4.753   2.742  -4.452  1.00  0.00     0.031 A 
ATOM     14  C   UNL     1       5.396   4.080  -4.227  1.00  0.00     0.074 A 
ATOM     15  C   UNL     1       4.700   2.217  -5.691  1.00  0.00     0.049 A 
ATOM     16  N   UNL     1       5.918   4.900  -5.104  1.00  0.00    -0.248 NA
ATOM     17  C   UNL     1       5.451   4.564  -2.840  1.00  0.00     0.031 C 
ATOM     18  C   UNL     1       4.097   0.928  -6.036  1.00  0.00     0.029 A 
ATOM     19  N   UNL     1       5.149   2.709  -6.889  1.00  0.00    -0.354 N 
ATOM     20  C   UNL     1       6.339   6.008  -4.381  1.00  0.00     0.074 A 
ATOM     21  C   UNL     1       5.996   5.763  -2.996  1.00  0.00     0.031 C 
ATOM     22  C   UNL     1       4.220   0.728  -7.356  1.00  0.00     0.029 A 
ATOM     23  C   UNL     1       4.857   1.895  -7.955  1.00  0.00     0.049 A 
ATOM     24  H   UNL     1       5.633   3.562  -6.977  1.00  0.00     0.167 HD
ATOM     25  C   UNL     1       6.954   7.128  -4.832  1.00  0.00     0.031 A 
ATOM     26  C   UNL     1       5.046   2.078  -9.274  1.00  0.00     0.031 A 
ATOM     27  C   UNL     1       7.291   7.368  -6.211  1.00  0.00     0.049 A 
ATOM     28  C   UNL     1       5.696   3.340  -9.756  1.00  0.00     0.074 A 
ATOM     29  C   UNL     1       7.960   8.449  -6.760  1.00  0.00     0.029 A 
ATOM     30  N   UNL     1       6.973   6.520  -7.261  1.00  0.00    -0.354 N 
ATOM     31  N   UNL     1       6.131   4.359  -9.055  1.00  0.00    -0.248 NA
ATOM     32  C   UNL     1       5.884   3.478 -11.206  1.00  0.00     0.031 C 
ATOM     33  C   UNL     1       7.999   8.280  -8.148  1.00  0.00     0.029 A 
ATOM     34  C   UNL     1       7.403   7.068  -8.458  1.00  0.00     0.049 A 
ATOM     35  H   UNL     1       6.510   5.656  -7.169  1.00  0.00     0.167 HD
ATOM     36  C   UNL     1       6.661   5.252  -9.976  1.00  0.00     0.074 A 
ATOM     37  C   UNL     1       6.500   4.650 -11.285  1.00  0.00     0.031 C 
ATOM     38  C   UNL     1       7.232   6.460  -9.753  1.00  0.00     0.031 A 
BRANCH  25  39
ATOM     39  C   UNL     1       7.266   8.198  -3.824  1.00  0.00    -0.014 A 
ATOM     40  C   UNL     1       8.280   8.033  -2.868  1.00  0.00     0.009 A 
ATOM     41  C   UNL     1       6.547   9.404  -3.848  1.00  0.00     0.009 A 
ATOM     42  C   UNL     1       8.538   9.036  -1.930  1.00  0.00     0.001 A 
ATOM     43  C   UNL     1       6.824  10.415  -2.927  1.00  0.00     0.001 A 
ATOM     44  C   UNL     1       7.812  10.226  -1.962  1.00  0.00     0.000 A 
ENDBRANCH  25  39
BRANCH  26  45
ATOM     45  C   UNL     1       4.580   1.034 -10.221  1.00  0.00    -0.014 A 
ATOM     46  C   UNL     1       5.497   0.187 -10.859  1.00  0.00     0.009 A 
ATOM     47  C   UNL     1       3.206   0.841 -10.438  1.00  0.00     0.009 A 
ATOM     48  C   UNL     1       5.045  -0.832 -11.701  1.00  0.00     0.001 A 
ATOM     49  C   UNL     1       2.757  -0.194 -11.259  1.00  0.00     0.001 A 
ATOM     50  C   UNL     1       3.677  -1.027 -11.894  1.00  0.00     0.000 A 
ENDBRANCH  26  45
BRANCH  38  51
ATOM     51  C   UNL     1       7.753   7.205 -10.947  1.00  0.00    -0.014 A 
ATOM     52  C   UNL     1       6.883   7.863 -11.830  1.00  0.00     0.009 A 
ATOM     53  C   UNL     1       9.138   7.300 -11.155  1.00  0.00     0.009 A 
ATOM     54  C   UNL     1       7.392   8.588 -12.909  1.00  0.00     0.001 A 
ATOM     55  C   UNL     1       9.644   8.045 -12.221  1.00  0.00     0.001 A 
ATOM     56  C   UNL     1       8.770   8.684 -13.100  1.00  0.00     0.000 A 
ENDBRANCH  38  51
ENDBRANCH  12  13
ENDBRANCH   5   7
ENDBRANCH   2   3
ENDBRANCH   1   2
BRANCH   1  57
ATOM     57  C   UNL     1       4.456  -0.595   3.681  1.00  0.00     0.023 C 
BRANCH  57  58
ATOM     58  C   UNL     1       4.865  -2.062   3.762  1.00  0.00     0.116 C 
BRANCH  58  59
ATOM     59  N   UNL     1       6.308  -2.251   3.748  1.00  0.00    -0.352 N 
ATOM     60  C   UNL     1       7.082  -3.017   4.588  1.00  0.00     0.251 C 
ATOM     61  H   UNL     1       6.796  -1.765   3.044  1.00  0.00     0.163 HD
ATOM     62  O   UNL     1       8.306  -2.972   4.519  1.00  0.00    -0.269 OA
BRANCH  60  63
ATOM     63  C   UNL     1       6.427  -3.876   5.594  1.00  0.00     0.040 A 
ATOM     64  C   UNL     1       6.806  -3.768   6.930  1.00  0.00     0.016 A 
ATOM     65  C   UNL     1       5.404  -4.750   5.223  1.00  0.00     0.020 A 
ATOM     66  C   UNL     1       6.124  -4.511   7.897  1.00  0.00     0.027 A 
ATOM     67  C   UNL     1       4.666  -5.433   6.201  1.00  0.00    -0.017 A 
ATOM     68  C   UNL     1       5.065  -5.362   7.546  1.00  0.00     0.038 A 
ATOM     69  C   UNL     1       3.435  -6.209   5.792  1.00  0.00     0.049 C 
ATOM     70  N   UNL     1       4.375  -6.037   8.545  1.00  0.00    -0.378 N 
ATOM     71  C   UNL     1       2.421  -5.345   5.077  1.00  0.00    -0.023 C 
ATOM     72  C   UNL     1       2.591  -6.706   6.978  1.00  0.00     0.031 C 
ATOM     73  C   UNL     1       3.455  -7.104   8.176  1.00  0.00     0.114 C 
ATOM     74  H   UNL     1       4.507  -5.798   9.491  1.00  0.00     0.161 HD
ATOM     75  C   UNL     1       1.396  -5.008   5.870  1.00  0.00    -0.030 C 
ATOM     76  C   UNL     1       1.550  -5.602   7.234  1.00  0.00     0.034 C 
BRANCH  73  77
ATOM     77  C   UNL     1       2.609  -7.567   9.353  1.00  0.00    -0.022 A 
ATOM     78  C   UNL     1       1.909  -8.779   9.257  1.00  0.00     0.026 A 
ATOM     79  C   UNL     1       2.462  -6.827  10.531  1.00  0.00     0.026 A 
ATOM     80  C   UNL     1       1.117  -9.189  10.318  1.00  0.00     0.111 A 
ATOM     81  C   UNL     1       1.658  -7.328  11.545  1.00  0.00     0.111 A 
ATOM     82  N   UNL     1       0.982  -8.492  11.463  1.00  0.00    -0.265 NA
ENDBRANCH  73  77
ENDBRANCH  60  63
ENDBRANCH  58  59
ENDBRANCH  57  58
ENDBRANCH   1  57
TORSDOF 12
