REMARK SMILES CC[C@@H]1CCCN1C(=O)N1CC[C@@H](C(=O)NCCCCNC(=O)c2ccc(-c3c4nc(c(-c5ccccc5)c5ccc([nH]5)c(-c5ccccc5)c5nc(c(-c6ccccc6)c6ccc3[nH]6)C=C5)C=C4)cc2)[C@@H]1C
REMARK SMILES IDX 18 1 17 2 16 3 14 4 15 5 13 7 10 8 11 9 72 10 12 11 73 12
REMARK SMILES IDX 8 13 9 14 7 15 3 16 4 17 5 18 6 19 2 20 1 21 19 22 20 23
REMARK SMILES IDX 21 24 22 25 23 27 24 28 25 29 71 30 26 31 70 32 27 33 28 34
REMARK SMILES IDX 29 35 64 36 30 37 69 38 63 39 65 40 31 41 68 42 62 43 61 44
REMARK SMILES IDX 32 46 54 47 39 48 53 49 40 50 43 51 52 52 66 53 41 54 42 55
REMARK SMILES IDX 51 57 67 58 44 59 33 60 34 61 38 62 35 63 37 64 36 65 55 66
REMARK SMILES IDX 56 67 60 68 57 69 59 70 58 71 45 72 46 73 50 74 47 75 49 76
REMARK SMILES IDX 48 77
REMARK H PARENT 16 6 21 26 65 45 43 56
REMARK Flexibility Score: inf
ROOT
ATOM      1  C   UNL     1      -4.973   0.237   3.541  1.00  0.00     0.023 C 
ENDROOT
BRANCH   1   2
ATOM      2  C   UNL     1      -5.184   1.393   2.566  1.00  0.00     0.116 C 
BRANCH   2   3
ATOM      3  N   UNL     1      -4.580   2.636   3.010  1.00  0.00    -0.356 N 
ATOM      4  C   UNL     1      -3.556   3.356   2.465  1.00  0.00     0.225 C 
ATOM      5  O   UNL     1      -3.322   4.470   2.931  1.00  0.00    -0.275 OA
ATOM      6  H   UNL     1      -4.969   3.018   3.829  1.00  0.00     0.163 HD
BRANCH   4   7
ATOM      7  C   UNL     1      -2.672   2.713   1.419  1.00  0.00     0.102 C 
ATOM      8  N   UNL     1      -0.718   3.356   0.286  1.00  0.00    -0.321 N 
ATOM      9  C   UNL     1      -0.303   3.057   1.640  1.00  0.00     0.122 C 
ATOM     10  C   UNL     1      -2.131   3.708   0.368  1.00  0.00     0.096 C 
ATOM     11  C   UNL     1      -1.421   2.158   2.134  1.00  0.00     0.037 C 
ATOM     12  C   UNL     1      -2.852   3.589  -0.970  1.00  0.00     0.032 C 
BRANCH   8  13
ATOM     13  C   UNL     1       0.132   4.013  -0.563  1.00  0.00     0.320 C 
ATOM     14  O   UNL     1       0.009   5.220  -0.775  1.00  0.00    -0.248 OA
BRANCH  13  15
ATOM     15  N   UNL     1       1.091   3.250  -1.202  1.00  0.00    -0.322 N 
ATOM     16  C   UNL     1       1.189   1.792  -1.427  1.00  0.00     0.086 C 
ATOM     17  C   UNL     1       2.611   1.649  -1.982  1.00  0.00     0.027 C 
ATOM     18  C   UNL     1       2.763   2.877  -2.860  1.00  0.00     0.024 C 
ATOM     19  C   UNL     1       1.990   3.951  -2.111  1.00  0.00     0.122 C 
BRANCH  16  20
ATOM     20  C   UNL     1       0.940   0.847  -0.254  1.00  0.00     0.022 C 
ATOM     21  C   UNL     1       1.298  -0.611  -0.500  1.00  0.00     0.006 C 
ENDBRANCH  16  20
ENDBRANCH  13  15
ENDBRANCH   8  13
ENDBRANCH   4   7
ENDBRANCH   2   3
ENDBRANCH   1   2
BRANCH   1  22
ATOM     22  C   UNL     1      -5.549   0.452   4.941  1.00  0.00     0.023 C 
BRANCH  22  23
ATOM     23  C   UNL     1      -7.004   0.904   4.994  1.00  0.00     0.116 C 
BRANCH  23  24
ATOM     24  N   UNL     1      -7.927  -0.047   4.397  1.00  0.00    -0.352 N 
ATOM     25  C   UNL     1      -9.123  -0.523   4.888  1.00  0.00     0.251 C 
ATOM     26  H   UNL     1      -7.660  -0.401   3.518  1.00  0.00     0.163 HD
ATOM     27  O   UNL     1      -9.720  -1.413   4.302  1.00  0.00    -0.269 OA
BRANCH  25  28
ATOM     28  C   UNL     1      -9.662   0.023   6.155  1.00  0.00     0.039 A 
ATOM     29  C   UNL     1     -10.115  -0.866   7.133  1.00  0.00     0.014 A 
ATOM     30  C   UNL     1      -9.697   1.400   6.387  1.00  0.00     0.014 A 
ATOM     31  C   UNL     1     -10.531  -0.377   8.374  1.00  0.00     0.010 A 
ATOM     32  C   UNL     1     -10.038   1.879   7.649  1.00  0.00     0.010 A 
ATOM     33  C   UNL     1     -10.456   0.996   8.658  1.00  0.00    -0.014 A 
BRANCH  33  34
ATOM     34  C   UNL     1     -10.811   1.534   9.997  1.00  0.00     0.031 A 
ATOM     35  C   UNL     1     -11.958   2.497  10.141  1.00  0.00     0.074 A 
ATOM     36  C   UNL     1     -10.066   1.210  11.073  1.00  0.00     0.049 A 
ATOM     37  N   UNL     1     -12.358   3.154  11.201  1.00  0.00    -0.248 NA
ATOM     38  C   UNL     1     -12.746   2.778   8.929  1.00  0.00     0.031 C 
ATOM     39  C   UNL     1      -8.910   0.310  11.068  1.00  0.00     0.029 A 
ATOM     40  N   UNL     1     -10.163   1.615  12.382  1.00  0.00    -0.354 N 
ATOM     41  C   UNL     1     -13.434   3.926  10.783  1.00  0.00     0.074 A 
ATOM     42  C   UNL     1     -13.589   3.703   9.362  1.00  0.00     0.031 C 
ATOM     43  C   UNL     1      -8.417   0.220  12.315  1.00  0.00     0.029 A 
ATOM     44  C   UNL     1      -9.188   1.089  13.197  1.00  0.00     0.049 A 
ATOM     45  H   UNL     1     -10.864   2.225  12.706  1.00  0.00     0.167 HD
ATOM     46  C   UNL     1     -14.239   4.729  11.518  1.00  0.00     0.031 A 
ATOM     47  C   UNL     1      -8.933   1.297  14.503  1.00  0.00     0.031 A 
ATOM     48  C   UNL     1     -14.091   4.953  12.930  1.00  0.00     0.049 A 
ATOM     49  C   UNL     1      -9.818   2.231  15.286  1.00  0.00     0.074 A 
ATOM     50  C   UNL     1     -14.871   5.734  13.765  1.00  0.00     0.029 A 
ATOM     51  N   UNL     1     -13.099   4.391  13.718  1.00  0.00    -0.354 N 
ATOM     52  N   UNL     1     -10.861   2.914  14.883  1.00  0.00    -0.248 NA
ATOM     53  C   UNL     1      -9.495   2.410  16.709  1.00  0.00     0.031 C 
ATOM     54  C   UNL     1     -14.324   5.681  15.050  1.00  0.00     0.029 A 
ATOM     55  C   UNL     1     -13.240   4.819  15.027  1.00  0.00     0.049 A 
ATOM     56  H   UNL     1     -12.398   3.780  13.394  1.00  0.00     0.167 HD
ATOM     57  C   UNL     1     -11.339   3.573  16.009  1.00  0.00     0.074 A 
ATOM     58  C   UNL     1     -10.483   3.195  17.113  1.00  0.00     0.031 C 
ATOM     59  C   UNL     1     -12.393   4.418  16.119  1.00  0.00     0.031 A 
BRANCH  46  60
ATOM     60  C   UNL     1     -15.367   5.421  10.804  1.00  0.00    -0.014 A 
ATOM     61  C   UNL     1     -16.475   4.697  10.334  1.00  0.00     0.009 A 
ATOM     62  C   UNL     1     -15.352   6.816  10.648  1.00  0.00     0.009 A 
ATOM     63  C   UNL     1     -17.530   5.352   9.696  1.00  0.00     0.001 A 
ATOM     64  C   UNL     1     -16.422   7.471  10.037  1.00  0.00     0.001 A 
ATOM     65  C   UNL     1     -17.506   6.739   9.555  1.00  0.00     0.000 A 
ENDBRANCH  46  60
BRANCH  47  66
ATOM     66  C   UNL     1      -7.783   0.624  15.165  1.00  0.00    -0.014 A 
ATOM     67  C   UNL     1      -7.994  -0.340  16.164  1.00  0.00     0.009 A 
ATOM     68  C   UNL     1      -6.465   0.977  14.836  1.00  0.00     0.009 A 
ATOM     69  C   UNL     1      -6.913  -0.900  16.850  1.00  0.00     0.001 A 
ATOM     70  C   UNL     1      -5.385   0.390  15.498  1.00  0.00     0.001 A 
ATOM     71  C   UNL     1      -5.610  -0.536  16.515  1.00  0.00     0.000 A 
ENDBRANCH  47  66
BRANCH  59  72
ATOM     72  C   UNL     1     -12.719   4.944  17.489  1.00  0.00    -0.014 A 
ATOM     73  C   UNL     1     -11.906   5.895  18.123  1.00  0.00     0.009 A 
ATOM     74  C   UNL     1     -13.890   4.513  18.132  1.00  0.00     0.009 A 
ATOM     75  C   UNL     1     -12.242   6.378  19.390  1.00  0.00     0.001 A 
ATOM     76  C   UNL     1     -14.241   5.021  19.383  1.00  0.00     0.001 A 
ATOM     77  C   UNL     1     -13.412   5.946  20.015  1.00  0.00     0.000 A 
ENDBRANCH  59  72
ENDBRANCH  33  34
ENDBRANCH  25  28
ENDBRANCH  23  24
ENDBRANCH  22  23
ENDBRANCH   1  22
TORSDOF 14
