REMARK SMILES C[C@@H](C(=O)NCCCCNC(=O)c1ccc(-c2c3nc(c(-c4ccccc4)c4ccc([nH]4)c(-c4ccccc4)c4nc(c(-c5ccccc5)c5ccc2[nH]5)C=C4)C=C3)cc1)[C@@H](C)C(=O)c1cccc(Cl)c1
REMARK SMILES IDX 7 1 6 2 5 3 3 4 4 5 2 7 1 8 61 9 62 10 63 11 64 12 65 13
REMARK SMILES IDX 66 14 71 15 67 16 69 17 68 18 70 19 8 20 9 21 10 22 11 23
REMARK SMILES IDX 12 25 13 26 14 27 60 28 15 29 59 30 16 31 17 32 18 33 53 34
REMARK SMILES IDX 19 35 58 36 52 37 54 38 20 39 57 40 51 41 50 42 21 44 43 45
REMARK SMILES IDX 28 46 42 47 29 48 32 49 41 50 55 51 30 52 31 53 40 55 56 56
REMARK SMILES IDX 33 57 22 58 23 59 27 60 24 61 26 62 25 63 44 64 45 65 49 66
REMARK SMILES IDX 46 67 48 68 47 69 34 70 35 71 39 72 36 73 38 74 37 75
REMARK H PARENT 5 6 10 24 54 43 32 54
REMARK Flexibility Score: inf
ROOT
ATOM      1  C   UNL     1       4.303  -0.719   0.859  1.00  0.00     0.023 C 
ENDROOT
BRANCH   1   2
ATOM      2  C   UNL     1       3.453  -1.657  -0.001  1.00  0.00     0.116 C 
BRANCH   2   3
ATOM      3  N   UNL     1       2.396  -2.277   0.775  1.00  0.00    -0.356 N 
ATOM      4  C   UNL     1       1.057  -2.029   0.802  1.00  0.00     0.223 C 
ATOM      5  O   UNL     1       0.391  -2.611   1.655  1.00  0.00    -0.275 OA
ATOM      6  H   UNL     1       2.695  -2.993   1.382  1.00  0.00     0.163 HD
BRANCH   4   7
ATOM      7  C   UNL     1       0.436  -1.062  -0.206  1.00  0.00     0.086 C 
ATOM      8  C   UNL     1       0.687   0.375   0.266  1.00  0.00     0.019 C 
BRANCH   7   9
ATOM      9  C   UNL     1      -1.077  -1.330  -0.393  1.00  0.00     0.070 C 
ATOM     10  C   UNL     1      -1.696  -0.465  -1.497  1.00  0.00     0.017 C 
BRANCH   9  11
ATOM     11  C   UNL     1      -1.498  -2.790  -0.626  1.00  0.00     0.166 C 
ATOM     12  O   UNL     1      -2.299  -3.351   0.121  1.00  0.00    -0.294 OA
BRANCH  11  13
ATOM     13  C   UNL     1      -1.130  -3.501  -1.879  1.00  0.00     0.019 A 
ATOM     14  C   UNL     1      -2.174  -4.075  -2.621  1.00  0.00     0.012 A 
ATOM     15  C   UNL     1       0.187  -3.645  -2.312  1.00  0.00     0.032 A 
ATOM     16  C   UNL     1      -1.905  -4.753  -3.810  1.00  0.00     0.002 A 
ATOM     17  C   UNL     1       0.447  -4.321  -3.506  1.00  0.00     0.041 A 
ATOM     18  C   UNL     1      -0.591  -4.869  -4.259  1.00  0.00     0.020 A 
ATOM     19  Cl  UNL     1       2.072  -4.482  -4.049  1.00  0.00    -0.084 Cl
ENDBRANCH  11  13
ENDBRANCH   9  11
ENDBRANCH   7   9
ENDBRANCH   4   7
ENDBRANCH   2   3
ENDBRANCH   1   2
BRANCH   1  20
ATOM     20  C   UNL     1       5.086  -1.398   1.987  1.00  0.00     0.023 C 
BRANCH  20  21
ATOM     21  C   UNL     1       6.046  -2.501   1.554  1.00  0.00     0.116 C 
BRANCH  21  22
ATOM     22  N   UNL     1       7.019  -2.053   0.573  1.00  0.00    -0.352 N 
ATOM     23  C   UNL     1       8.361  -2.318   0.479  1.00  0.00     0.251 C 
ATOM     24  H   UNL     1       6.660  -1.469  -0.134  1.00  0.00     0.163 HD
ATOM     25  O   UNL     1       9.032  -1.735  -0.373  1.00  0.00    -0.269 OA
BRANCH  23  26
ATOM     26  C   UNL     1       9.020  -3.266   1.405  1.00  0.00     0.039 A 
ATOM     27  C   UNL     1      10.286  -2.936   1.897  1.00  0.00     0.014 A 
ATOM     28  C   UNL     1       8.427  -4.479   1.769  1.00  0.00     0.014 A 
ATOM     29  C   UNL     1      10.931  -3.791   2.793  1.00  0.00     0.010 A 
ATOM     30  C   UNL     1       9.042  -5.300   2.715  1.00  0.00     0.010 A 
ATOM     31  C   UNL     1      10.300  -4.966   3.234  1.00  0.00    -0.014 A 
BRANCH  31  32
ATOM     32  C   UNL     1      10.954  -5.831   4.248  1.00  0.00     0.031 A 
ATOM     33  C   UNL     1      11.418  -7.218   3.896  1.00  0.00     0.074 A 
ATOM     34  C   UNL     1      11.115  -5.369   5.503  1.00  0.00     0.049 A 
ATOM     35  N   UNL     1      12.047  -8.090   4.644  1.00  0.00    -0.248 NA
ATOM     36  C   UNL     1      11.121  -7.696   2.537  1.00  0.00     0.031 C 
ATOM     37  C   UNL     1      10.657  -4.065   5.990  1.00  0.00     0.029 A 
ATOM     38  N   UNL     1      11.714  -5.941   6.597  1.00  0.00    -0.354 N 
ATOM     39  C   UNL     1      12.220  -9.215   3.849  1.00  0.00     0.074 A 
ATOM     40  C   UNL     1      11.582  -8.938   2.580  1.00  0.00     0.031 C 
ATOM     41  C   UNL     1      11.023  -3.924   7.275  1.00  0.00     0.029 A 
ATOM     42  C   UNL     1      11.717  -5.132   7.707  1.00  0.00     0.049 A 
ATOM     43  H   UNL     1      12.104  -6.845   6.587  1.00  0.00     0.167 HD
ATOM     44  C   UNL     1      12.872 -10.368   4.138  1.00  0.00     0.031 A 
ATOM     45  C   UNL     1      12.232  -5.334   8.934  1.00  0.00     0.031 A 
ATOM     46  C   UNL     1      13.507 -10.650   5.398  1.00  0.00     0.049 A 
ATOM     47  C   UNL     1      12.966  -6.612   9.223  1.00  0.00     0.074 A 
ATOM     48  C   UNL     1      14.223 -11.774   5.771  1.00  0.00     0.029 A 
ATOM     49  N   UNL     1      13.502  -9.798   6.491  1.00  0.00    -0.354 N 
ATOM     50  N   UNL     1      13.182  -7.637   8.434  1.00  0.00    -0.248 NA
ATOM     51  C   UNL     1      13.544  -6.751  10.567  1.00  0.00     0.031 C 
ATOM     52  C   UNL     1      14.620 -11.618   7.105  1.00  0.00     0.029 A 
ATOM     53  C   UNL     1      14.191 -10.376   7.544  1.00  0.00     0.049 A 
ATOM     54  H   UNL     1      13.072  -8.913   6.515  1.00  0.00     0.167 HD
ATOM     55  C   UNL     1      13.935  -8.534   9.180  1.00  0.00     0.074 A 
ATOM     56  C   UNL     1      14.161  -7.920  10.472  1.00  0.00     0.031 C 
ATOM     57  C   UNL     1      14.396  -9.759   8.828  1.00  0.00     0.031 A 
BRANCH  44  58
ATOM     58  C   UNL     1      12.935 -11.411   3.058  1.00  0.00    -0.014 A 
ATOM     59  C   UNL     1      13.740 -11.226   1.922  1.00  0.00     0.009 A 
ATOM     60  C   UNL     1      12.213 -12.607   3.190  1.00  0.00     0.009 A 
ATOM     61  C   UNL     1      13.795 -12.203   0.926  1.00  0.00     0.001 A 
ATOM     62  C   UNL     1      12.291 -13.594   2.205  1.00  0.00     0.001 A 
ATOM     63  C   UNL     1      13.075 -13.387   1.070  1.00  0.00     0.000 A 
ENDBRANCH  44  58
BRANCH  45  64
ATOM     64  C   UNL     1      12.098  -4.286   9.977  1.00  0.00    -0.014 A 
ATOM     65  C   UNL     1      13.211  -3.534  10.382  1.00  0.00     0.009 A 
ATOM     66  C   UNL     1      10.855  -4.037  10.579  1.00  0.00     0.009 A 
ATOM     67  C   UNL     1      13.089  -2.575  11.390  1.00  0.00     0.001 A 
ATOM     68  C   UNL     1      10.730  -3.058  11.567  1.00  0.00     0.001 A 
ATOM     69  C   UNL     1      11.848  -2.335  11.978  1.00  0.00     0.000 A 
ENDBRANCH  45  64
BRANCH  57  70
ATOM     70  C   UNL     1      15.202 -10.502   9.855  1.00  0.00    -0.014 A 
ATOM     71  C   UNL     1      14.595 -11.057  10.992  1.00  0.00     0.009 A 
ATOM     72  C   UNL     1      16.585 -10.656   9.677  1.00  0.00     0.009 A 
ATOM     73  C   UNL     1      15.364 -11.715  11.953  1.00  0.00     0.001 A 
ATOM     74  C   UNL     1      17.348 -11.339  10.626  1.00  0.00     0.001 A 
ATOM     75  C   UNL     1      16.739 -11.857  11.768  1.00  0.00     0.000 A 
ENDBRANCH  57  70
ENDBRANCH  31  32
ENDBRANCH  23  26
ENDBRANCH  21  22
ENDBRANCH  20  21
ENDBRANCH   1  20
TORSDOF 14
