REMARK SMILES CN1C(=O)C[C@@H](C(=O)NCCCCNC(=O)c2ccc(-c3c4nc(c(-c5ccccc5)c5ccc([nH]5)c(-c5ccccc5)c5nc(c(-c6ccccc6)c6ccc3[nH]6)C=C5)C=C4)cc2)C12CCN(C(=O)c1cccc3ccccc13)CC2
REMARK SMILES IDX 12 1 11 2 10 3 9 4 7 5 8 6 6 8 1 9 2 10 3 11 65 12 4 13 5 14
REMARK SMILES IDX 66 15 82 16 67 17 81 18 68 19 69 20 70 21 71 22 72 23 80 24
REMARK SMILES IDX 73 25 75 26 79 27 74 28 76 29 78 30 77 31 13 32 14 33 15 34
REMARK SMILES IDX 16 36 17 37 18 38 64 39 19 40 63 41 20 42 21 43 22 44 57 45
REMARK SMILES IDX 23 46 62 47 56 48 58 49 24 50 61 51 55 52 54 53 25 55 47 56
REMARK SMILES IDX 32 57 46 58 33 59 36 60 45 61 59 62 34 63 35 64 44 66 60 67
REMARK SMILES IDX 37 68 26 69 27 70 31 71 28 72 30 73 29 74 48 75 49 76 53 77
REMARK SMILES IDX 50 78 52 79 51 80 38 81 39 82 43 83 40 84 42 85 41 86
REMARK H PARENT 9 7 14 35 58 54 36 65
REMARK Flexibility Score: inf
ROOT
ATOM      1  C   UNL     1       3.129  -2.439  -4.299  1.00  0.00     0.023 C 
ENDROOT
BRANCH   1   2
ATOM      2  C   UNL     1       2.573  -1.520  -3.220  1.00  0.00     0.023 C 
BRANCH   2   3
ATOM      3  C   UNL     1       2.149  -0.139  -3.731  1.00  0.00     0.116 C 
BRANCH   3   4
ATOM      4  N   UNL     1       1.002  -0.144  -4.626  1.00  0.00    -0.356 N 
ATOM      5  C   UNL     1      -0.263   0.342  -4.521  1.00  0.00     0.226 C 
ATOM      6  O   UNL     1      -0.969   0.239  -5.532  1.00  0.00    -0.275 OA
ATOM      7  H   UNL     1       1.179  -0.593  -5.484  1.00  0.00     0.163 HD
BRANCH   5   8
ATOM      8  C   UNL     1      -0.879   0.946  -3.253  1.00  0.00     0.113 C 
ATOM      9  C   UNL     1       0.748  -0.046  -0.020  1.00  0.00     0.147 C 
ATOM     10  N   UNL     1       0.221   0.545  -1.235  1.00  0.00    -0.339 N 
ATOM     11  C   UNL     1       0.585   1.844  -1.591  1.00  0.00     0.223 C 
ATOM     12  C   UNL     1      -0.933   0.041  -1.998  1.00  0.00     0.058 C 
ATOM     13  O   UNL     1       1.406   2.545  -1.032  1.00  0.00    -0.275 OA
ATOM     14  C   UNL     1      -0.177   2.233  -2.827  1.00  0.00     0.116 C 
ATOM     15  C   UNL     1      -0.869  -1.459  -2.358  1.00  0.00     0.051 C 
ATOM     16  C   UNL     1      -2.217   0.270  -1.145  1.00  0.00     0.051 C 
ATOM     17  C   UNL     1      -2.138  -1.959  -3.043  1.00  0.00     0.122 C 
ATOM     18  C   UNL     1      -3.469  -0.417  -1.704  1.00  0.00     0.122 C 
ATOM     19  N   UNL     1      -3.207  -1.804  -2.089  1.00  0.00    -0.338 N 
ATOM     20  C   UNL     1      -3.816  -2.853  -1.411  1.00  0.00     0.254 C 
ATOM     21  O   UNL     1      -4.474  -2.676  -0.386  1.00  0.00    -0.269 OA
BRANCH  20  22
ATOM     22  C   UNL     1      -3.845  -4.230  -1.985  1.00  0.00     0.047 A 
ATOM     23  C   UNL     1      -5.097  -4.577  -2.521  1.00  0.00     0.014 A 
ATOM     24  C   UNL     1      -2.831  -5.219  -1.815  1.00  0.00    -0.006 A 
ATOM     25  C   UNL     1      -5.396  -5.902  -2.814  1.00  0.00     0.001 A 
ATOM     26  C   UNL     1      -3.180  -6.572  -2.071  1.00  0.00    -0.018 A 
ATOM     27  C   UNL     1      -1.492  -4.976  -1.424  1.00  0.00     0.009 A 
ATOM     28  C   UNL     1      -4.459  -6.894  -2.545  1.00  0.00     0.009 A 
ATOM     29  C   UNL     1      -2.249  -7.602  -1.854  1.00  0.00     0.009 A 
ATOM     30  C   UNL     1      -0.544  -6.001  -1.327  1.00  0.00     0.001 A 
ATOM     31  C   UNL     1      -0.931  -7.319  -1.508  1.00  0.00     0.001 A 
ENDBRANCH  20  22
ENDBRANCH   5   8
ENDBRANCH   3   4
ENDBRANCH   2   3
ENDBRANCH   1   2
BRANCH   1  32
ATOM     32  C   UNL     1       4.344  -1.860  -5.004  1.00  0.00     0.116 C 
BRANCH  32  33
ATOM     33  N   UNL     1       5.394  -1.474  -4.065  1.00  0.00    -0.352 N 
ATOM     34  C   UNL     1       6.709  -1.865  -4.041  1.00  0.00     0.251 C 
ATOM     35  H   UNL     1       5.121  -0.850  -3.354  1.00  0.00     0.163 HD
ATOM     36  O   UNL     1       7.426  -1.627  -3.078  1.00  0.00    -0.269 OA
BRANCH  34  37
ATOM     37  C   UNL     1       7.223  -2.610  -5.200  1.00  0.00     0.039 A 
ATOM     38  C   UNL     1       7.854  -3.837  -4.998  1.00  0.00     0.014 A 
ATOM     39  C   UNL     1       6.958  -2.135  -6.486  1.00  0.00     0.014 A 
ATOM     40  C   UNL     1       8.137  -4.639  -6.101  1.00  0.00     0.010 A 
ATOM     41  C   UNL     1       7.149  -2.976  -7.569  1.00  0.00     0.010 A 
ATOM     42  C   UNL     1       7.733  -4.239  -7.385  1.00  0.00    -0.014 A 
BRANCH  42  43
ATOM     43  C   UNL     1       7.885  -5.128  -8.560  1.00  0.00     0.031 A 
ATOM     44  C   UNL     1       8.733  -4.690  -9.719  1.00  0.00     0.074 A 
ATOM     45  C   UNL     1       7.178  -6.274  -8.622  1.00  0.00     0.049 A 
ATOM     46  N   UNL     1       8.900  -5.266 -10.881  1.00  0.00    -0.248 NA
ATOM     47  C   UNL     1       9.465  -3.421  -9.564  1.00  0.00     0.031 C 
ATOM     48  C   UNL     1       6.283  -6.781  -7.578  1.00  0.00     0.029 A 
ATOM     49  N   UNL     1       7.090  -7.214  -9.617  1.00  0.00    -0.354 N 
ATOM     50  C   UNL     1       9.733  -4.420 -11.601  1.00  0.00     0.074 A 
ATOM     51  C   UNL     1       9.998  -3.269 -10.767  1.00  0.00     0.031 C 
ATOM     52  C   UNL     1       5.753  -7.947  -7.981  1.00  0.00     0.029 A 
ATOM     53  C   UNL     1       6.227  -8.244  -9.328  1.00  0.00     0.049 A 
ATOM     54  H   UNL     1       7.597  -7.156 -10.460  1.00  0.00     0.167 HD
ATOM     55  C   UNL     1      10.243  -4.595 -12.841  1.00  0.00     0.031 A 
ATOM     56  C   UNL     1       5.843  -9.297 -10.074  1.00  0.00     0.031 A 
ATOM     57  C   UNL     1       9.985  -5.747 -13.660  1.00  0.00     0.049 A 
ATOM     58  C   UNL     1       6.411  -9.456 -11.458  1.00  0.00     0.074 A 
ATOM     59  C   UNL     1      10.515  -6.055 -14.901  1.00  0.00     0.029 A 
ATOM     60  N   UNL     1       9.119  -6.776 -13.325  1.00  0.00    -0.354 N 
ATOM     61  N   UNL     1       7.268  -8.692 -12.091  1.00  0.00    -0.248 NA
ATOM     62  C   UNL     1       5.962 -10.624 -12.227  1.00  0.00     0.031 C 
ATOM     63  C   UNL     1       9.916  -7.236 -15.347  1.00  0.00     0.029 A 
ATOM     64  C   UNL     1       9.066  -7.699 -14.355  1.00  0.00     0.049 A 
ATOM     65  H   UNL     1       8.616  -6.840 -12.481  1.00  0.00     0.167 HD
ATOM     66  C   UNL     1       7.478  -9.299 -13.323  1.00  0.00     0.074 A 
ATOM     67  C   UNL     1       6.677 -10.505 -13.337  1.00  0.00     0.031 C 
ATOM     68  C   UNL     1       8.260  -8.892 -14.352  1.00  0.00     0.031 A 
BRANCH  55  69
ATOM     69  C   UNL     1      11.121  -3.508 -13.394  1.00  0.00    -0.014 A 
ATOM     70  C   UNL     1      12.400  -3.263 -12.872  1.00  0.00     0.009 A 
ATOM     71  C   UNL     1      10.678  -2.750 -14.490  1.00  0.00     0.009 A 
ATOM     72  C   UNL     1      13.207  -2.261 -13.416  1.00  0.00     0.001 A 
ATOM     73  C   UNL     1      11.498  -1.771 -15.052  1.00  0.00     0.001 A 
ATOM     74  C   UNL     1      12.758  -1.522 -14.510  1.00  0.00     0.000 A 
ENDBRANCH  55  69
BRANCH  56  75
ATOM     75  C   UNL     1       4.858 -10.276  -9.540  1.00  0.00    -0.014 A 
ATOM     76  C   UNL     1       5.242 -11.595  -9.253  1.00  0.00     0.009 A 
ATOM     77  C   UNL     1       3.521  -9.902  -9.336  1.00  0.00     0.009 A 
ATOM     78  C   UNL     1       4.300 -12.526  -8.807  1.00  0.00     0.001 A 
ATOM     79  C   UNL     1       2.589 -10.825  -8.857  1.00  0.00     0.001 A 
ATOM     80  C   UNL     1       2.976 -12.139  -8.606  1.00  0.00     0.000 A 
ENDBRANCH  56  75
BRANCH  68  81
ATOM     81  C   UNL     1       8.308  -9.772 -15.570  1.00  0.00    -0.014 A 
ATOM     82  C   UNL     1       7.212  -9.872 -16.440  1.00  0.00     0.009 A 
ATOM     83  C   UNL     1       9.488 -10.468 -15.877  1.00  0.00     0.009 A 
ATOM     84  C   UNL     1       7.286 -10.678 -17.577  1.00  0.00     0.001 A 
ATOM     85  C   UNL     1       9.570 -11.246 -17.033  1.00  0.00     0.001 A 
ATOM     86  C   UNL     1       8.466 -11.357 -17.876  1.00  0.00     0.000 A 
ENDBRANCH  68  81
ENDBRANCH  42  43
ENDBRANCH  34  37
ENDBRANCH  32  33
ENDBRANCH   1  32
TORSDOF 12
