REMARK SMILES COc1ccc(C(=O)NCCCCNC(=O)c2ccc(-c3c4nc(c(-c5ccccc5)c5ccc([nH]5)c(-c5ccccc5)c5nc(c(-c6ccccc6)c6ccc3[nH]6)C=C5)C=C4)cc2)cc1C(F)(F)F
REMARK SMILES IDX 12 1 11 2 10 3 9 4 7 5 8 6 6 8 3 9 4 10 66 11 5 12 65 13
REMARK SMILES IDX 2 14 1 15 67 16 68 17 69 18 70 19 13 20 14 21 15 22 16 24
REMARK SMILES IDX 17 25 18 26 64 27 19 28 63 29 20 30 21 31 22 32 57 33 23 34
REMARK SMILES IDX 62 35 56 36 58 37 24 38 61 39 55 40 54 41 25 43 47 44 32 45
REMARK SMILES IDX 46 46 33 47 36 48 45 49 59 50 34 51 35 52 44 54 60 55 37 56
REMARK SMILES IDX 26 57 27 58 31 59 28 60 30 61 29 62 48 63 49 64 53 65 50 66
REMARK SMILES IDX 52 67 51 68 38 69 39 70 43 71 40 72 42 73 41 74
REMARK H PARENT 9 7 14 23 58 42 36 53
REMARK Flexibility Score: inf
ROOT
ATOM      1  C   UNL     1       6.372  -1.226   7.008  1.00  0.00     0.023 C 
ENDROOT
BRANCH   1   2
ATOM      2  C   UNL     1       5.490  -1.081   5.764  1.00  0.00     0.023 C 
BRANCH   2   3
ATOM      3  C   UNL     1       4.350  -2.101   5.698  1.00  0.00     0.116 C 
BRANCH   3   4
ATOM      4  N   UNL     1       3.238  -1.662   6.519  1.00  0.00    -0.352 N 
ATOM      5  C   UNL     1       2.090  -0.966   6.234  1.00  0.00     0.251 C 
ATOM      6  O   UNL     1       1.328  -0.727   7.172  1.00  0.00    -0.269 OA
ATOM      7  H   UNL     1       3.323  -1.912   7.467  1.00  0.00     0.163 HD
BRANCH   5   8
ATOM      8  C   UNL     1       1.696  -0.546   4.857  1.00  0.00     0.040 A 
ATOM      9  C   UNL     1       0.801   0.135   2.237  1.00  0.00     0.131 A 
ATOM     10  C   UNL     1      -0.081   0.052   3.333  1.00  0.00     0.048 A 
ATOM     11  C   UNL     1       2.159  -0.110   2.452  1.00  0.00     0.098 A 
ATOM     12  C   UNL     1       0.348  -0.309   4.614  1.00  0.00     0.017 A 
ATOM     13  C   UNL     1       2.577  -0.368   3.791  1.00  0.00     0.030 A 
BRANCH   9  14
ATOM     14  O   UNL     1       0.129   0.541   1.125  1.00  0.00    -0.496 OA
ATOM     15  C   UNL     1       0.562   0.180  -0.171  1.00  0.00     0.278 C 
ENDBRANCH   9  14
BRANCH  11  16
ATOM     16  C   UNL     1       3.307  -0.156   1.472  1.00  0.00     0.419 C 
ATOM     17  F   UNL     1       4.237   0.809   1.727  1.00  0.00    -0.166 F 
ATOM     18  F   UNL     1       3.990  -1.339   1.592  1.00  0.00    -0.166 F 
ATOM     19  F   UNL     1       3.031  -0.057   0.152  1.00  0.00    -0.166 F 
ENDBRANCH  11  16
ENDBRANCH   5   8
ENDBRANCH   3   4
ENDBRANCH   2   3
ENDBRANCH   1   2
BRANCH   1  20
ATOM     20  C   UNL     1       7.116  -2.553   7.106  1.00  0.00     0.116 C 
BRANCH  20  21
ATOM     21  N   UNL     1       7.971  -2.813   5.959  1.00  0.00    -0.352 N 
ATOM     22  C   UNL     1       9.163  -3.491   5.914  1.00  0.00     0.251 C 
ATOM     23  H   UNL     1       7.652  -2.455   5.099  1.00  0.00     0.163 HD
ATOM     24  O   UNL     1       9.822  -3.514   4.879  1.00  0.00    -0.269 OA
BRANCH  22  25
ATOM     25  C   UNL     1       9.670  -4.159   7.130  1.00  0.00     0.039 A 
ATOM     26  C   UNL     1      11.010  -3.983   7.476  1.00  0.00     0.014 A 
ATOM     27  C   UNL     1       8.831  -4.940   7.930  1.00  0.00     0.014 A 
ATOM     28  C   UNL     1      11.496  -4.549   8.655  1.00  0.00     0.010 A 
ATOM     29  C   UNL     1       9.296  -5.435   9.145  1.00  0.00     0.010 A 
ATOM     30  C   UNL     1      10.635  -5.252   9.515  1.00  0.00    -0.014 A 
BRANCH  30  31
ATOM     31  C   UNL     1      11.137  -5.789  10.805  1.00  0.00     0.031 A 
ATOM     32  C   UNL     1      11.163  -7.271  11.060  1.00  0.00     0.074 A 
ATOM     33  C   UNL     1      11.548  -4.931  11.760  1.00  0.00     0.049 A 
ATOM     34  N   UNL     1      11.615  -7.918  12.105  1.00  0.00    -0.248 NA
ATOM     35  C   UNL     1      10.588  -8.142  10.022  1.00  0.00     0.031 C 
ATOM     36  C   UNL     1      11.514  -3.469  11.659  1.00  0.00     0.029 A 
ATOM     37  N   UNL     1      12.085  -5.164  13.001  1.00  0.00    -0.354 N 
ATOM     38  C   UNL     1      11.367  -9.262  11.856  1.00  0.00     0.074 A 
ATOM     39  C   UNL     1      10.679  -9.337  10.586  1.00  0.00     0.031 C 
ATOM     40  C   UNL     1      12.051  -2.939  12.769  1.00  0.00     0.029 A 
ATOM     41  C   UNL     1      12.433  -4.017  13.674  1.00  0.00     0.049 A 
ATOM     42  H   UNL     1      12.209  -6.066  13.374  1.00  0.00     0.167 HD
ATOM     43  C   UNL     1      11.700 -10.339  12.606  1.00  0.00     0.031 A 
ATOM     44  C   UNL     1      13.002  -3.853  14.883  1.00  0.00     0.031 A 
ATOM     45  C   UNL     1      12.397 -10.264  13.863  1.00  0.00     0.049 A 
ATOM     46  C   UNL     1      13.370  -5.069  15.688  1.00  0.00     0.074 A 
ATOM     47  C   UNL     1      12.849 -11.301  14.660  1.00  0.00     0.029 A 
ATOM     48  N   UNL     1      12.736  -9.086  14.508  1.00  0.00    -0.354 N 
ATOM     49  N   UNL     1      13.226  -6.337  15.386  1.00  0.00    -0.248 NA
ATOM     50  C   UNL     1      13.999  -4.827  16.993  1.00  0.00     0.031 C 
ATOM     51  C   UNL     1      13.404 -10.751  15.819  1.00  0.00     0.029 A 
ATOM     52  C   UNL     1      13.360  -9.370  15.712  1.00  0.00     0.049 A 
ATOM     53  H   UNL     1      12.559  -8.181  14.164  1.00  0.00     0.167 HD
ATOM     54  C   UNL     1      13.773  -7.042  16.450  1.00  0.00     0.074 A 
ATOM     55  C   UNL     1      14.276  -6.061  17.389  1.00  0.00     0.031 C 
ATOM     56  C   UNL     1      13.851  -8.383  16.637  1.00  0.00     0.031 A 
BRANCH  43  57
ATOM     57  C   UNL     1      11.306 -11.698  12.094  1.00  0.00    -0.014 A 
ATOM     58  C   UNL     1      11.924 -12.263  10.966  1.00  0.00     0.009 A 
ATOM     59  C   UNL     1      10.343 -12.448  12.786  1.00  0.00     0.009 A 
ATOM     60  C   UNL     1      11.562 -13.538  10.525  1.00  0.00     0.001 A 
ATOM     61  C   UNL     1      10.005 -13.735  12.361  1.00  0.00     0.001 A 
ATOM     62  C   UNL     1      10.609 -14.275  11.227  1.00  0.00     0.000 A 
ENDBRANCH  43  57
BRANCH  44  63
ATOM     63  C   UNL     1      13.278  -2.488  15.407  1.00  0.00    -0.014 A 
ATOM     64  C   UNL     1      14.598  -2.041  15.580  1.00  0.00     0.009 A 
ATOM     65  C   UNL     1      12.223  -1.639  15.773  1.00  0.00     0.009 A 
ATOM     66  C   UNL     1      14.854  -0.791  16.150  1.00  0.00     0.001 A 
ATOM     67  C   UNL     1      12.482  -0.375  16.309  1.00  0.00     0.001 A 
ATOM     68  C   UNL     1      13.796   0.041  16.511  1.00  0.00     0.000 A 
ENDBRANCH  44  63
BRANCH  56  69
ATOM     69  C   UNL     1      14.538  -8.859  17.888  1.00  0.00    -0.014 A 
ATOM     70  C   UNL     1      13.967  -8.668  19.156  1.00  0.00     0.009 A 
ATOM     71  C   UNL     1      15.774  -9.518  17.791  1.00  0.00     0.009 A 
ATOM     72  C   UNL     1      14.645  -9.080  20.305  1.00  0.00     0.001 A 
ATOM     73  C   UNL     1      16.432  -9.961  18.939  1.00  0.00     0.001 A 
ATOM     74  C   UNL     1      15.875  -9.729  20.195  1.00  0.00     0.000 A 
ENDBRANCH  56  69
ENDBRANCH  30  31
ENDBRANCH  22  25
ENDBRANCH  20  21
ENDBRANCH   1  20
TORSDOF 13
