REMARK SMILES C[C@@H](Oc1ccc(-c2ccccc2)cc1)C(=O)N1CCC[C@H](C(=O)NCCCCNC(=O)c2ccc(-c3c4nc(c(-c5ccccc5)c5ccc([nH]5)c(-c5ccccc5)c5nc(c(-c6ccccc6)c6ccc3[nH]6)C=C5)C=C4)cc2)C1
REMARK SMILES IDX 26 1 25 2 23 3 24 4 22 6 18 7 19 8 81 9 20 10 21 11 16 12
REMARK SMILES IDX 17 13 2 14 1 15 3 16 4 17 5 18 15 19 6 20 14 21 7 22 8 23
REMARK SMILES IDX 9 24 13 25 10 26 12 27 11 28 27 29 28 30 29 31 30 32 31 33
REMARK SMILES IDX 32 35 33 36 34 37 80 38 35 39 79 40 36 41 37 42 38 43 73 44
REMARK SMILES IDX 39 45 78 46 72 47 74 48 40 49 77 50 71 51 70 52 41 54 63 55
REMARK SMILES IDX 48 56 62 57 49 58 52 59 61 60 75 61 50 62 51 63 60 65 76 66
REMARK SMILES IDX 53 67 42 68 43 69 47 70 44 71 46 72 45 73 64 74 65 75 69 76
REMARK SMILES IDX 66 77 68 78 67 79 54 80 55 81 59 82 56 83 58 84 57 85
REMARK H PARENT 25 5 30 34 74 53 52 64
REMARK Flexibility Score: inf
ROOT
ATOM      1  C   UNL     1      -3.619   0.432   0.700  1.00  0.00     0.116 C 
ENDROOT
BRANCH   1   2
ATOM      2  N   UNL     1      -3.514  -1.005   0.602  1.00  0.00    -0.356 N 
ATOM      3  C   UNL     1      -3.016  -1.807  -0.373  1.00  0.00     0.224 C 
ATOM      4  O   UNL     1      -2.887  -3.001  -0.075  1.00  0.00    -0.275 OA
ATOM      5  H   UNL     1      -3.866  -1.490   1.383  1.00  0.00     0.163 HD
BRANCH   3   6
ATOM      6  C   UNL     1      -2.621  -1.344  -1.783  1.00  0.00     0.098 C 
ATOM      7  N   UNL     1      -1.538   0.901  -1.789  1.00  0.00    -0.339 N 
ATOM      8  C   UNL     1      -2.514   1.444  -2.731  1.00  0.00     0.119 C 
ATOM      9  C   UNL     1      -1.322  -0.536  -1.864  1.00  0.00     0.133 C 
ATOM     10  C   UNL     1      -3.862   0.733  -2.695  1.00  0.00     0.022 C 
ATOM     11  C   UNL     1      -3.764  -0.788  -2.635  1.00  0.00     0.017 C 
BRANCH   7  12
ATOM     12  C   UNL     1      -0.858   1.779  -0.947  1.00  0.00     0.263 C 
ATOM     13  O   UNL     1      -1.404   2.817  -0.554  1.00  0.00    -0.271 OA
BRANCH  12  14
ATOM     14  C   UNL     1       0.610   1.505  -0.558  1.00  0.00     0.259 C 
ATOM     15  C   UNL     1       0.835   0.352   0.414  1.00  0.00     0.064 C 
BRANCH  14  16
ATOM     16  O   UNL     1       1.298   1.284  -1.796  1.00  0.00    -0.481 OA
BRANCH  16  17
ATOM     17  C   UNL     1       2.600   1.692  -1.763  1.00  0.00     0.120 A 
ATOM     18  C   UNL     1       2.952   3.013  -2.032  1.00  0.00     0.047 A 
ATOM     19  C   UNL     1       3.576   0.715  -1.617  1.00  0.00     0.047 A 
ATOM     20  C   UNL     1       4.304   3.351  -2.180  1.00  0.00     0.012 A 
ATOM     21  C   UNL     1       4.918   1.057  -1.756  1.00  0.00     0.012 A 
ATOM     22  C   UNL     1       5.306   2.370  -2.077  1.00  0.00    -0.018 A 
BRANCH  22  23
ATOM     23  C   UNL     1       6.719   2.659  -2.376  1.00  0.00    -0.018 A 
ATOM     24  C   UNL     1       7.423   3.693  -1.744  1.00  0.00     0.009 A 
ATOM     25  C   UNL     1       7.409   1.870  -3.317  1.00  0.00     0.009 A 
ATOM     26  C   UNL     1       8.776   3.914  -2.028  1.00  0.00     0.001 A 
ATOM     27  C   UNL     1       8.757   2.088  -3.600  1.00  0.00     0.001 A 
ATOM     28  C   UNL     1       9.442   3.109  -2.951  1.00  0.00     0.000 A 
ENDBRANCH  22  23
ENDBRANCH  16  17
ENDBRANCH  14  16
ENDBRANCH  12  14
ENDBRANCH   7  12
ENDBRANCH   3   6
ENDBRANCH   1   2
BRANCH   1  29
ATOM     29  C   UNL     1      -5.057   0.937   0.777  1.00  0.00     0.023 C 
BRANCH  29  30
ATOM     30  C   UNL     1      -5.539   1.266   2.185  1.00  0.00     0.023 C 
BRANCH  30  31
ATOM     31  C   UNL     1      -4.700   2.291   2.942  1.00  0.00     0.116 C 
BRANCH  31  32
ATOM     32  N   UNL     1      -4.544   3.573   2.268  1.00  0.00    -0.352 N 
ATOM     33  C   UNL     1      -4.520   4.831   2.837  1.00  0.00     0.251 C 
ATOM     34  H   UNL     1      -4.443   3.538   1.289  1.00  0.00     0.163 HD
ATOM     35  O   UNL     1      -4.463   5.840   2.156  1.00  0.00    -0.269 OA
BRANCH  33  36
ATOM     36  C   UNL     1      -4.617   4.932   4.310  1.00  0.00     0.039 A 
ATOM     37  C   UNL     1      -5.622   5.722   4.870  1.00  0.00     0.014 A 
ATOM     38  C   UNL     1      -3.778   4.165   5.122  1.00  0.00     0.014 A 
ATOM     39  C   UNL     1      -5.849   5.666   6.246  1.00  0.00     0.010 A 
ATOM     40  C   UNL     1      -4.062   4.044   6.476  1.00  0.00     0.010 A 
ATOM     41  C   UNL     1      -5.105   4.787   7.051  1.00  0.00    -0.014 A 
BRANCH  41  42
ATOM     42  C   UNL     1      -5.408   4.617   8.495  1.00  0.00     0.031 A 
ATOM     43  C   UNL     1      -4.375   4.970   9.528  1.00  0.00     0.074 A 
ATOM     44  C   UNL     1      -6.580   4.071   8.874  1.00  0.00     0.049 A 
ATOM     45  N   UNL     1      -4.428   4.834  10.829  1.00  0.00    -0.248 NA
ATOM     46  C   UNL     1      -3.101   5.517   9.032  1.00  0.00     0.031 C 
ATOM     47  C   UNL     1      -7.645   3.626   7.970  1.00  0.00     0.029 A 
ATOM     48  N   UNL     1      -7.071   3.790  10.125  1.00  0.00    -0.354 N 
ATOM     49  C   UNL     1      -3.191   5.252  11.300  1.00  0.00     0.074 A 
ATOM     50  C   UNL     1      -2.390   5.596  10.146  1.00  0.00     0.031 C 
ATOM     51  C   UNL     1      -8.674   3.162   8.698  1.00  0.00     0.029 A 
ATOM     52  C   UNL     1      -8.331   3.243  10.114  1.00  0.00     0.049 A 
ATOM     53  H   UNL     1      -6.567   3.965  10.952  1.00  0.00     0.167 HD
ATOM     54  C   UNL     1      -2.764   5.363  12.580  1.00  0.00     0.031 A 
ATOM     55  C   UNL     1      -9.123   2.854  11.130  1.00  0.00     0.031 A 
ATOM     56  C   UNL     1      -3.566   5.050  13.731  1.00  0.00     0.049 A 
ATOM     57  C   UNL     1      -8.637   3.012  12.544  1.00  0.00     0.074 A 
ATOM     58  C   UNL     1      -3.249   5.197  15.069  1.00  0.00     0.029 A 
ATOM     59  N   UNL     1      -4.849   4.528  13.676  1.00  0.00    -0.354 N 
ATOM     60  N   UNL     1      -7.492   3.481  12.976  1.00  0.00    -0.248 NA
ATOM     61  C   UNL     1      -9.561   2.598  13.610  1.00  0.00     0.031 C 
ATOM     62  C   UNL     1      -4.328   4.729  15.827  1.00  0.00     0.029 A 
ATOM     63  C   UNL     1      -5.332   4.333  14.959  1.00  0.00     0.049 A 
ATOM     64  H   UNL     1      -5.343   4.327  12.849  1.00  0.00     0.167 HD
ATOM     65  C   UNL     1      -7.567   3.445  14.362  1.00  0.00     0.074 A 
ATOM     66  C   UNL     1      -8.875   2.921  14.698  1.00  0.00     0.031 C 
ATOM     67  C   UNL     1      -6.636   3.813  15.274  1.00  0.00     0.031 A 
BRANCH  54  68
ATOM     68  C   UNL     1      -1.359   5.852  12.795  1.00  0.00    -0.014 A 
ATOM     69  C   UNL     1      -1.007   7.186  12.534  1.00  0.00     0.009 A 
ATOM     70  C   UNL     1      -0.380   4.973  13.281  1.00  0.00     0.009 A 
ATOM     71  C   UNL     1       0.308   7.619  12.715  1.00  0.00     0.001 A 
ATOM     72  C   UNL     1       0.928   5.416  13.489  1.00  0.00     0.001 A 
ATOM     73  C   UNL     1       1.273   6.735  13.195  1.00  0.00     0.000 A 
ENDBRANCH  54  68
BRANCH  55  74
ATOM     74  C   UNL     1     -10.477   2.307  10.854  1.00  0.00    -0.014 A 
ATOM     75  C   UNL     1     -11.620   3.070  11.136  1.00  0.00     0.009 A 
ATOM     76  C   UNL     1     -10.634   1.021  10.315  1.00  0.00     0.009 A 
ATOM     77  C   UNL     1     -12.895   2.547  10.910  1.00  0.00     0.001 A 
ATOM     78  C   UNL     1     -11.911   0.510  10.066  1.00  0.00     0.001 A 
ATOM     79  C   UNL     1     -13.039   1.269  10.372  1.00  0.00     0.000 A 
ENDBRANCH  55  74
BRANCH  67  80
ATOM     80  C   UNL     1      -7.012   3.694  16.723  1.00  0.00    -0.014 A 
ATOM     81  C   UNL     1      -7.079   2.443  17.357  1.00  0.00     0.009 A 
ATOM     82  C   UNL     1      -7.260   4.854  17.473  1.00  0.00     0.009 A 
ATOM     83  C   UNL     1      -7.417   2.356  18.708  1.00  0.00     0.001 A 
ATOM     84  C   UNL     1      -7.573   4.765  18.830  1.00  0.00     0.001 A 
ATOM     85  C   UNL     1      -7.659   3.516  19.444  1.00  0.00     0.000 A 
ENDBRANCH  67  80
ENDBRANCH  41  42
ENDBRANCH  33  36
ENDBRANCH  31  32
ENDBRANCH  30  31
ENDBRANCH  29  30
ENDBRANCH   1  29
TORSDOF 16
