REMARK SMILES CCn1ncc(-c2cc(C(F)(F)F)nc(-n3ccc(C(=O)NCCCCNC(=O)c4ccc(-c5c6nc(c(-c7ccccc7)c7ccc([nH]7)c(-c7ccccc7)c7nc(c(-c8ccccc8)c8ccc5[nH]8)C=C7)C=C6)cc4)n3)n2)c1C
REMARK SMILES IDX 24 1 23 2 22 3 20 4 21 5 19 7 16 8 17 9 78 10 18 11 15 12
REMARK SMILES IDX 7 13 8 14 79 15 9 16 14 17 6 18 3 19 4 20 80 21 5 22 81 23
REMARK SMILES IDX 2 24 1 25 10 26 11 27 12 28 13 29 25 30 26 31 27 32 28 33
REMARK SMILES IDX 29 35 30 36 31 37 77 38 32 39 76 40 33 41 34 42 35 43 70 44
REMARK SMILES IDX 36 45 75 46 69 47 71 48 37 49 74 50 68 51 67 52 38 54 60 55
REMARK SMILES IDX 45 56 59 57 46 58 49 59 58 60 72 61 47 62 48 63 57 65 73 66
REMARK SMILES IDX 50 67 39 68 40 69 44 70 41 71 43 72 42 73 61 74 62 75 66 76
REMARK SMILES IDX 63 77 65 78 64 79 51 80 52 81 56 82 53 83 55 84 54 85
REMARK H PARENT 22 6 27 34 71 53 49 64
REMARK Flexibility Score: inf
ROOT
ATOM      1  C   UNL     1       8.199   4.497   5.511  1.00  0.00     0.023 C 
ENDROOT
BRANCH   1   2
ATOM      2  C   UNL     1       8.027   3.064   4.990  1.00  0.00     0.116 C 
BRANCH   2   3
ATOM      3  N   UNL     1       8.986   2.127   5.557  1.00  0.00    -0.351 N 
ATOM      4  C   UNL     1       8.811   1.064   6.423  1.00  0.00     0.271 C 
ATOM      5  O   UNL     1       9.825   0.483   6.816  1.00  0.00    -0.267 OA
ATOM      6  H   UNL     1       9.918   2.276   5.276  1.00  0.00     0.163 HD
BRANCH   4   7
ATOM      7  C   UNL     1       7.476   0.688   6.919  1.00  0.00     0.150 A 
ATOM      8  N   UNL     1       5.346   0.664   7.148  1.00  0.00    -0.205 N 
ATOM      9  C   UNL     1       5.838   0.090   8.299  1.00  0.00     0.119 A 
ATOM     10  N   UNL     1       6.332   0.879   6.239  1.00  0.00    -0.160 NA
ATOM     11  C   UNL     1       7.204   0.041   8.156  1.00  0.00     0.056 A 
BRANCH   8  12
ATOM     12  C   UNL     1       4.002   1.106   6.919  1.00  0.00     0.251 A 
ATOM     13  C   UNL     1       2.318   1.641   5.463  1.00  0.00     0.080 A 
ATOM     14  C   UNL     1       1.538   2.142   6.482  1.00  0.00     0.062 A 
ATOM     15  N   UNL     1       3.565   1.179   5.650  1.00  0.00    -0.211 NA
ATOM     16  C   UNL     1       2.064   2.058   7.759  1.00  0.00     0.150 A 
ATOM     17  N   UNL     1       3.276   1.487   7.995  1.00  0.00    -0.207 NA
BRANCH  13  18
ATOM     18  C   UNL     1       1.768   1.490   4.133  1.00  0.00     0.041 A 
ATOM     19  N   UNL     1       0.980   0.558   2.303  1.00  0.00    -0.269 N 
ATOM     20  N   UNL     1       0.639   1.861   2.194  1.00  0.00    -0.181 NA
ATOM     21  C   UNL     1       1.661   0.276   3.466  1.00  0.00     0.045 A 
ATOM     22  C   UNL     1       1.133   2.423   3.296  1.00  0.00     0.145 A 
ATOM     23  C   UNL     1       2.125  -1.075   3.888  1.00  0.00     0.067 C 
BRANCH  19  24
ATOM     24  C   UNL     1       0.509  -0.353   1.274  1.00  0.00     0.141 C 
ATOM     25  C   UNL     1       1.072  -0.040  -0.102  1.00  0.00     0.029 C 
ENDBRANCH  19  24
ENDBRANCH  13  18
BRANCH  16  26
ATOM     26  C   UNL     1       1.295   2.661   8.925  1.00  0.00     0.433 C 
ATOM     27  F   UNL     1       1.181   1.818   9.988  1.00  0.00    -0.165 F 
ATOM     28  F   UNL     1       1.878   3.798   9.401  1.00  0.00    -0.165 F 
ATOM     29  F   UNL     1       0.017   3.016   8.599  1.00  0.00    -0.165 F 
ENDBRANCH  16  26
ENDBRANCH   8  12
ENDBRANCH   4   7
ENDBRANCH   2   3
ENDBRANCH   1   2
BRANCH   1  30
ATOM     30  C   UNL     1       9.493   5.228   5.123  1.00  0.00     0.023 C 
BRANCH  30  31
ATOM     31  C   UNL     1       9.733   5.364   3.627  1.00  0.00     0.116 C 
BRANCH  31  32
ATOM     32  N   UNL     1       8.720   6.163   2.928  1.00  0.00    -0.352 N 
ATOM     33  C   UNL     1       8.652   6.439   1.573  1.00  0.00     0.251 C 
ATOM     34  H   UNL     1       8.006   6.547   3.487  1.00  0.00     0.163 HD
ATOM     35  O   UNL     1       8.018   7.406   1.146  1.00  0.00    -0.269 OA
BRANCH  33  36
ATOM     36  C   UNL     1       9.339   5.534   0.640  1.00  0.00     0.039 A 
ATOM     37  C   UNL     1      10.050   5.980  -0.479  1.00  0.00     0.014 A 
ATOM     38  C   UNL     1       9.291   4.181   0.956  1.00  0.00     0.014 A 
ATOM     39  C   UNL     1      10.770   5.048  -1.227  1.00  0.00     0.010 A 
ATOM     40  C   UNL     1      10.169   3.320   0.369  1.00  0.00     0.010 A 
ATOM     41  C   UNL     1      10.832   3.718  -0.781  1.00  0.00    -0.014 A 
BRANCH  41  42
ATOM     42  C   UNL     1      11.660   2.710  -1.426  1.00  0.00     0.031 A 
ATOM     43  C   UNL     1      13.104   3.047  -1.456  1.00  0.00     0.074 A 
ATOM     44  C   UNL     1      11.190   1.475  -1.717  1.00  0.00     0.049 A 
ATOM     45  N   UNL     1      13.813   3.353  -2.489  1.00  0.00    -0.248 NA
ATOM     46  C   UNL     1      13.812   3.217  -0.175  1.00  0.00     0.031 C 
ATOM     47  C   UNL     1       9.861   0.915  -1.420  1.00  0.00     0.029 A 
ATOM     48  N   UNL     1      11.846   0.402  -2.233  1.00  0.00    -0.354 N 
ATOM     49  C   UNL     1      15.110   3.534  -2.020  1.00  0.00     0.074 A 
ATOM     50  C   UNL     1      15.007   3.645  -0.588  1.00  0.00     0.031 C 
ATOM     51  C   UNL     1       9.893  -0.432  -1.540  1.00  0.00     0.029 A 
ATOM     52  C   UNL     1      11.178  -0.811  -2.094  1.00  0.00     0.049 A 
ATOM     53  H   UNL     1      12.724   0.478  -2.672  1.00  0.00     0.167 HD
ATOM     54  C   UNL     1      16.183   3.286  -2.822  1.00  0.00     0.031 A 
ATOM     55  C   UNL     1      11.649  -2.044  -2.406  1.00  0.00     0.031 A 
ATOM     56  C   UNL     1      15.778   3.133  -4.198  1.00  0.00     0.049 A 
ATOM     57  C   UNL     1      12.785  -1.851  -3.333  1.00  0.00     0.074 A 
ATOM     58  C   UNL     1      15.183   3.941  -5.144  1.00  0.00     0.029 A 
ATOM     59  N   UNL     1      15.605   1.839  -4.628  1.00  0.00    -0.354 N 
ATOM     60  N   UNL     1      12.649  -1.371  -4.535  1.00  0.00    -0.248 NA
ATOM     61  C   UNL     1      14.121  -1.757  -2.770  1.00  0.00     0.031 C 
ATOM     62  C   UNL     1      14.304   3.078  -5.864  1.00  0.00     0.029 A 
ATOM     63  C   UNL     1      14.465   1.776  -5.383  1.00  0.00     0.049 A 
ATOM     64  H   UNL     1      16.202   1.082  -4.427  1.00  0.00     0.167 HD
ATOM     65  C   UNL     1      13.727  -0.513  -4.691  1.00  0.00     0.074 A 
ATOM     66  C   UNL     1      14.661  -0.888  -3.630  1.00  0.00     0.031 C 
ATOM     67  C   UNL     1      13.623   0.601  -5.476  1.00  0.00     0.031 A 
BRANCH  54  68
ATOM     68  C   UNL     1      17.491   2.713  -2.325  1.00  0.00    -0.014 A 
ATOM     69  C   UNL     1      18.518   2.487  -3.261  1.00  0.00     0.009 A 
ATOM     70  C   UNL     1      17.654   2.121  -1.059  1.00  0.00     0.009 A 
ATOM     71  C   UNL     1      19.599   1.646  -2.973  1.00  0.00     0.001 A 
ATOM     72  C   UNL     1      18.753   1.312  -0.753  1.00  0.00     0.001 A 
ATOM     73  C   UNL     1      19.710   1.050  -1.721  1.00  0.00     0.000 A 
ENDBRANCH  54  68
BRANCH  55  74
ATOM     74  C   UNL     1      11.362  -3.354  -1.785  1.00  0.00    -0.014 A 
ATOM     75  C   UNL     1      11.578  -4.555  -2.482  1.00  0.00     0.009 A 
ATOM     76  C   UNL     1      11.149  -3.433  -0.397  1.00  0.00     0.009 A 
ATOM     77  C   UNL     1      11.613  -5.785  -1.807  1.00  0.00     0.001 A 
ATOM     78  C   UNL     1      11.189  -4.660   0.277  1.00  0.00     0.001 A 
ATOM     79  C   UNL     1      11.434  -5.835  -0.426  1.00  0.00     0.000 A 
ENDBRANCH  55  74
BRANCH  67  80
ATOM     80  C   UNL     1      12.405   0.715  -6.365  1.00  0.00    -0.014 A 
ATOM     81  C   UNL     1      11.089   0.811  -5.878  1.00  0.00     0.009 A 
ATOM     82  C   UNL     1      12.614   0.866  -7.744  1.00  0.00     0.009 A 
ATOM     83  C   UNL     1      10.014   1.021  -6.751  1.00  0.00     0.001 A 
ATOM     84  C   UNL     1      11.545   1.098  -8.611  1.00  0.00     0.001 A 
ATOM     85  C   UNL     1      10.245   1.169  -8.117  1.00  0.00     0.000 A 
ENDBRANCH  67  80
ENDBRANCH  41  42
ENDBRANCH  33  36
ENDBRANCH  31  32
ENDBRANCH  30  31
ENDBRANCH   1  30
TORSDOF 15
