REMARK SMILES CC(C)[C@@H](CNC(=O)[C@@H]1CC[C@@H]2CCCC[C@@H]2[NH2+]1)C(=O)NCCCCNC(=O)c1ccc(-c2c3nc(c(-c4ccccc4)c4ccc([nH]4)c(-c4ccccc4)c4nc(c(-c5ccccc5)c5ccc2[nH]5)C=C4)C=C3)cc1
REMARK SMILES IDX 23 1 22 2 21 3 19 4 20 5 4 7 2 8 1 9 3 10 5 11 6 12 7 13
REMARK SMILES IDX 8 15 9 16 10 17 18 18 11 19 17 20 12 23 16 24 13 25 15 26
REMARK SMILES IDX 14 27 24 28 25 29 26 30 27 31 28 33 29 34 30 35 76 36 31 37
REMARK SMILES IDX 75 38 32 39 33 40 34 41 69 42 35 43 74 44 68 45 70 46 36 47
REMARK SMILES IDX 73 48 67 49 66 50 37 52 59 53 44 54 58 55 45 56 48 57 57 58
REMARK SMILES IDX 71 59 46 60 47 61 56 63 72 64 49 65 38 66 39 67 43 68 40 69
REMARK SMILES IDX 42 70 41 71 60 72 61 73 65 74 62 75 64 76 63 77 50 78 51 79
REMARK SMILES IDX 55 80 52 81 54 82 53 83
REMARK H PARENT 21 6 6 14 18 21 18 22 26 32 70 51 48 62
REMARK Flexibility Score: inf
ROOT
ATOM      1  C   UNL     1       1.296   4.031   2.405  1.00  0.00     0.023 C 
ENDROOT
BRANCH   1   2
ATOM      2  C   UNL     1      -0.028   3.272   2.408  1.00  0.00     0.116 C 
BRANCH   2   3
ATOM      3  N   UNL     1      -0.869   3.608   1.273  1.00  0.00    -0.356 N 
ATOM      4  C   UNL     1      -1.340   2.860   0.240  1.00  0.00     0.225 C 
ATOM      5  O   UNL     1      -2.143   3.407  -0.524  1.00  0.00    -0.275 OA
ATOM      6  H   UNL     1      -1.149   4.552   1.246  1.00  0.00     0.163 HD
BRANCH   4   7
ATOM      7  C   UNL     1      -0.941   1.404  -0.003  1.00  0.00     0.100 C 
BRANCH   7   8
ATOM      8  C   UNL     1       0.595   1.199  -0.110  1.00  0.00    -0.003 C 
ATOM      9  C   UNL     1       0.999  -0.263  -0.312  1.00  0.00     0.008 C 
ATOM     10  C   UNL     1       1.161   2.037  -1.270  1.00  0.00     0.008 C 
ENDBRANCH   7   8
BRANCH   7  11
ATOM     11  C   UNL     1      -1.763   0.424   0.864  1.00  0.00     0.129 C 
BRANCH  11  12
ATOM     12  N   UNL     1      -1.507   0.465   2.288  1.00  0.00    -0.350 N 
ATOM     13  C   UNL     1      -2.322   0.702   3.353  1.00  0.00     0.278 C 
ATOM     14  H   UNL     1      -0.570   0.290   2.532  1.00  0.00     0.163 HD
ATOM     15  O   UNL     1      -1.815   0.464   4.458  1.00  0.00    -0.268 OA
BRANCH  13  16
ATOM     16  C   UNL     1      -3.824   1.112   3.226  1.00  0.00     0.272 C 
ATOM     17  C   UNL     1      -4.210   2.255   2.283  1.00  0.00     0.076 C 
ATOM     18  N   UNL     1      -4.421   1.299   4.581  1.00  0.00    -0.333 N 
ATOM     19  C   UNL     1      -4.027   3.640   2.880  1.00  0.00     0.016 C 
ATOM     20  C   UNL     1      -4.322   2.649   5.166  1.00  0.00     0.186 C 
ATOM     21  H   UNL     1      -3.955   0.652   5.217  1.00  0.00     0.347 HD
ATOM     22  H   UNL     1      -5.420   1.131   4.460  1.00  0.00     0.347 HD
ATOM     23  C   UNL     1      -4.804   3.735   4.191  1.00  0.00     0.048 C 
ATOM     24  C   UNL     1      -2.929   2.949   5.742  1.00  0.00     0.065 C 
ATOM     25  C   UNL     1      -4.699   5.128   4.818  1.00  0.00     0.010 C 
ATOM     26  C   UNL     1      -2.758   4.376   6.250  1.00  0.00     0.006 C 
ATOM     27  C   UNL     1      -3.290   5.439   5.291  1.00  0.00     0.001 C 
ENDBRANCH  13  16
ENDBRANCH  11  12
ENDBRANCH   7  11
ENDBRANCH   4   7
ENDBRANCH   2   3
ENDBRANCH   1   2
BRANCH   1  28
ATOM     28  C   UNL     1       1.194   5.515   2.766  1.00  0.00     0.023 C 
BRANCH  28  29
ATOM     29  C   UNL     1       0.577   5.822   4.128  1.00  0.00     0.116 C 
BRANCH  29  30
ATOM     30  N   UNL     1       1.284   5.228   5.253  1.00  0.00    -0.352 N 
ATOM     31  C   UNL     1       1.486   5.742   6.515  1.00  0.00     0.251 C 
ATOM     32  H   UNL     1       1.671   4.338   5.090  1.00  0.00     0.163 HD
ATOM     33  O   UNL     1       2.188   5.141   7.324  1.00  0.00    -0.269 OA
BRANCH  31  34
ATOM     34  C   UNL     1       0.871   7.034   6.895  1.00  0.00     0.039 A 
ATOM     35  C   UNL     1       1.630   8.013   7.533  1.00  0.00     0.014 A 
ATOM     36  C   UNL     1      -0.468   7.285   6.603  1.00  0.00     0.014 A 
ATOM     37  C   UNL     1       1.060   9.265   7.792  1.00  0.00     0.010 A 
ATOM     38  C   UNL     1      -1.023   8.541   6.806  1.00  0.00     0.010 A 
ATOM     39  C   UNL     1      -0.258   9.552   7.389  1.00  0.00    -0.014 A 
BRANCH  39  40
ATOM     40  C   UNL     1      -0.812  10.926   7.451  1.00  0.00     0.031 A 
ATOM     41  C   UNL     1      -2.021  11.250   8.283  1.00  0.00     0.074 A 
ATOM     42  C   UNL     1      -0.277  11.864   6.646  1.00  0.00     0.049 A 
ATOM     43  N   UNL     1      -2.614  12.405   8.452  1.00  0.00    -0.248 NA
ATOM     44  C   UNL     1      -2.670  10.133   8.988  1.00  0.00     0.031 C 
ATOM     45  C   UNL     1       0.823  11.642   5.704  1.00  0.00     0.029 A 
ATOM     46  N   UNL     1      -0.589  13.190   6.485  1.00  0.00    -0.354 N 
ATOM     47  C   UNL     1      -3.702  12.156   9.278  1.00  0.00     0.074 A 
ATOM     48  C   UNL     1      -3.725  10.730   9.524  1.00  0.00     0.031 C 
ATOM     49  C   UNL     1       1.127  12.801   5.102  1.00  0.00     0.029 A 
ATOM     50  C   UNL     1       0.223  13.837   5.586  1.00  0.00     0.049 A 
ATOM     51  H   UNL     1      -1.323  13.634   6.967  1.00  0.00     0.167 HD
ATOM     52  C   UNL     1      -4.587  13.038   9.803  1.00  0.00     0.031 A 
ATOM     53  C   UNL     1       0.246  15.126   5.199  1.00  0.00     0.031 A 
ATOM     54  C   UNL     1      -4.564  14.454   9.544  1.00  0.00     0.049 A 
ATOM     55  C   UNL     1      -0.729  16.089   5.811  1.00  0.00     0.074 A 
ATOM     56  C   UNL     1      -5.359  15.445  10.094  1.00  0.00     0.029 A 
ATOM     57  N   UNL     1      -3.710  15.079   8.648  1.00  0.00    -0.354 N 
ATOM     58  N   UNL     1      -1.668  15.862   6.697  1.00  0.00    -0.248 NA
ATOM     59  C   UNL     1      -0.627  17.491   5.385  1.00  0.00     0.031 C 
ATOM     60  C   UNL     1      -5.029  16.660   9.484  1.00  0.00     0.029 A 
ATOM     61  C   UNL     1      -3.981  16.437   8.605  1.00  0.00     0.049 A 
ATOM     62  H   UNL     1      -3.014  14.625   8.120  1.00  0.00     0.167 HD
ATOM     63  C   UNL     1      -2.252  17.095   6.954  1.00  0.00     0.074 A 
ATOM     64  C   UNL     1      -1.547  18.068   6.145  1.00  0.00     0.031 C 
ATOM     65  C   UNL     1      -3.279  17.394   7.787  1.00  0.00     0.031 A 
BRANCH  52  66
ATOM     66  C   UNL     1      -5.655  12.496  10.716  1.00  0.00    -0.014 A 
ATOM     67  C   UNL     1      -5.334  11.959  11.974  1.00  0.00     0.009 A 
ATOM     68  C   UNL     1      -7.006  12.565  10.338  1.00  0.00     0.009 A 
ATOM     69  C   UNL     1      -6.336  11.466  12.813  1.00  0.00     0.001 A 
ATOM     70  C   UNL     1      -8.008  12.102  11.193  1.00  0.00     0.001 A 
ATOM     71  C   UNL     1      -7.672  11.543  12.425  1.00  0.00     0.000 A 
ENDBRANCH  52  66
BRANCH  53  72
ATOM     72  C   UNL     1       1.260  15.582   4.214  1.00  0.00    -0.014 A 
ATOM     73  C   UNL     1       2.326  16.401   4.618  1.00  0.00     0.009 A 
ATOM     74  C   UNL     1       1.183  15.182   2.871  1.00  0.00     0.009 A 
ATOM     75  C   UNL     1       3.277  16.832   3.691  1.00  0.00     0.001 A 
ATOM     76  C   UNL     1       2.153  15.589   1.953  1.00  0.00     0.001 A 
ATOM     77  C   UNL     1       3.193  16.422   2.362  1.00  0.00     0.000 A 
ENDBRANCH  53  72
BRANCH  65  78
ATOM     78  C   UNL     1      -3.683  18.839   7.886  1.00  0.00    -0.014 A 
ATOM     79  C   UNL     1      -4.330  19.493   6.826  1.00  0.00     0.009 A 
ATOM     80  C   UNL     1      -3.442  19.545   9.075  1.00  0.00     0.009 A 
ATOM     81  C   UNL     1      -4.693  20.836   6.942  1.00  0.00     0.001 A 
ATOM     82  C   UNL     1      -3.837  20.878   9.201  1.00  0.00     0.001 A 
ATOM     83  C   UNL     1      -4.452  21.525   8.131  1.00  0.00     0.000 A 
ENDBRANCH  65  78
ENDBRANCH  39  40
ENDBRANCH  31  34
ENDBRANCH  29  30
ENDBRANCH  28  29
ENDBRANCH   1  28
TORSDOF 15
