REMARK SMILES Cc1ccccc1/[NH+]=C1\S[C@@H](CC(=O)Nc2ccc(C(=O)NCCCCNC(=O)c3ccc(-c4c5nc(c(-c6ccccc6)c6ccc([nH]6)c(-c6ccccc6)c6nc(c(-c7ccccc7)c7ccc4[nH]7)C=C6)C=C5)cc3)cc2)C(=O)N1C
REMARK SMILES IDX 23 1 22 2 20 3 21 4 19 6 16 7 17 8 79 9 18 10 78 11 15 12
REMARK SMILES IDX 13 13 14 14 12 16 11 17 8 18 9 19 10 21 82 22 80 23 83 24
REMARK SMILES IDX 81 25 7 26 1 27 2 28 3 29 4 30 6 31 5 32 24 33 25 34 26 35
REMARK SMILES IDX 27 36 28 37 29 39 30 40 31 41 77 42 32 43 76 44 33 45 34 46
REMARK SMILES IDX 35 47 70 48 36 49 75 50 69 51 71 52 37 53 74 54 68 55 67 56
REMARK SMILES IDX 38 58 60 59 45 60 59 61 46 62 49 63 58 64 72 65 47 66 48 67
REMARK SMILES IDX 57 69 73 70 50 71 39 72 40 73 44 74 41 75 43 76 42 77 61 78
REMARK SMILES IDX 62 79 66 80 63 81 65 82 64 83 51 84 52 85 56 86 53 87 55 88
REMARK SMILES IDX 54 89
REMARK H PARENT 22 5 15 15 8 20 27 38 71 57 49 68
REMARK Flexibility Score: inf
ROOT
ATOM      1  C   UNL     1       2.799   5.605  -2.784  1.00  0.00     0.116 C 
ENDROOT
BRANCH   1   2
ATOM      2  N   UNL     1       3.941   6.289  -3.387  1.00  0.00    -0.352 N 
ATOM      3  C   UNL     1       5.307   6.213  -3.205  1.00  0.00     0.251 C 
ATOM      4  O   UNL     1       6.021   6.760  -4.046  1.00  0.00    -0.269 OA
ATOM      5  H   UNL     1       3.679   6.946  -4.072  1.00  0.00     0.163 HD
BRANCH   3   6
ATOM      6  C   UNL     1       5.966   5.515  -2.066  1.00  0.00     0.039 A 
ATOM      7  C   UNL     1       7.258   4.115   0.015  1.00  0.00     0.041 A 
ATOM      8  C   UNL     1       5.960   4.587   0.147  1.00  0.00     0.027 A 
ATOM      9  C   UNL     1       7.994   4.514  -1.088  1.00  0.00     0.027 A 
ATOM     10  C   UNL     1       5.306   5.251  -0.880  1.00  0.00     0.016 A 
ATOM     11  C   UNL     1       7.341   5.200  -2.132  1.00  0.00     0.016 A 
BRANCH   7  12
ATOM     12  N   UNL     1       7.789   3.269   1.000  1.00  0.00    -0.326 N 
ATOM     13  C   UNL     1       7.139   2.193   1.577  1.00  0.00     0.226 C 
ATOM     14  O   UNL     1       7.549   1.691   2.623  1.00  0.00    -0.275 OA
ATOM     15  H   UNL     1       8.705   3.457   1.307  1.00  0.00     0.169 HD
BRANCH  13  16
ATOM     16  C   UNL     1       6.048   1.513   0.763  1.00  0.00     0.128 C 
BRANCH  16  17
ATOM     17  C   UNL     1       4.656   1.518   1.354  1.00  0.00     0.183 C 
ATOM     18  N   UNL     1       1.060   1.656   1.392  1.00  0.00    -0.234 N 
ATOM     19  C   UNL     1       2.243   1.990   1.025  1.00  0.00     0.319 C 
ATOM     20  H   UNL     1       0.618   2.298   1.993  1.00  0.00     0.313 HD
ATOM     21  S   UNL     1       3.420   1.230   0.016  1.00  0.00    -0.022 SA
ATOM     22  N   UNL     1       2.854   3.078   1.556  1.00  0.00    -0.193 N 
ATOM     23  C   UNL     1       4.130   2.797   2.007  1.00  0.00     0.324 C 
ATOM     24  C   UNL     1       2.187   4.329   1.846  1.00  0.00     0.301 C 
ATOM     25  O   UNL     1       4.708   3.423   2.869  1.00  0.00    -0.245 OA
BRANCH  18  26
ATOM     26  C   UNL     1       0.294   0.522   1.075  1.00  0.00     0.128 A 
ATOM     27  C   UNL     1       2.083  -1.353   0.933  1.00  0.00     0.049 C 
ATOM     28  C   UNL     1       0.691  -0.805   0.819  1.00  0.00    -0.004 A 
ATOM     29  C   UNL     1      -0.284  -1.758   0.444  1.00  0.00     0.008 A 
ATOM     30  C   UNL     1      -1.640  -1.453   0.437  1.00  0.00     0.001 A 
ATOM     31  C   UNL     1      -1.091   0.776   1.129  1.00  0.00     0.052 A 
ATOM     32  C   UNL     1      -2.049  -0.187   0.812  1.00  0.00     0.004 A 
ENDBRANCH  18  26
ENDBRANCH  16  17
ENDBRANCH  13  16
ENDBRANCH   7  12
ENDBRANCH   3   6
ENDBRANCH   1   2
BRANCH   1  33
ATOM     33  C   UNL     1       2.027   6.459  -1.756  1.00  0.00     0.023 C 
BRANCH  33  34
ATOM     34  C   UNL     1       1.231   7.641  -2.322  1.00  0.00     0.023 C 
BRANCH  34  35
ATOM     35  C   UNL     1       0.032   7.244  -3.174  1.00  0.00     0.116 C 
BRANCH  35  36
ATOM     36  N   UNL     1      -1.287   7.405  -2.564  1.00  0.00    -0.352 N 
ATOM     37  C   UNL     1      -2.531   7.075  -3.096  1.00  0.00     0.251 C 
ATOM     38  H   UNL     1      -1.298   7.798  -1.661  1.00  0.00     0.163 HD
ATOM     39  O   UNL     1      -3.555   7.278  -2.452  1.00  0.00    -0.269 OA
BRANCH  37  40
ATOM     40  C   UNL     1      -2.597   6.329  -4.381  1.00  0.00     0.039 A 
ATOM     41  C   UNL     1      -3.365   5.161  -4.416  1.00  0.00     0.014 A 
ATOM     42  C   UNL     1      -1.663   6.578  -5.378  1.00  0.00     0.014 A 
ATOM     43  C   UNL     1      -2.943   4.106  -5.219  1.00  0.00     0.010 A 
ATOM     44  C   UNL     1      -1.154   5.502  -6.068  1.00  0.00     0.010 A 
ATOM     45  C   UNL     1      -1.750   4.250  -5.926  1.00  0.00    -0.014 A 
BRANCH  45  46
ATOM     46  C   UNL     1      -1.075   3.154  -6.597  1.00  0.00     0.031 A 
ATOM     47  C   UNL     1      -1.400   2.909  -8.001  1.00  0.00     0.074 A 
ATOM     48  C   UNL     1      -0.130   2.427  -5.965  1.00  0.00     0.049 A 
ATOM     49  N   UNL     1      -1.361   1.759  -8.573  1.00  0.00    -0.248 NA
ATOM     50  C   UNL     1      -1.844   3.988  -8.875  1.00  0.00     0.031 C 
ATOM     51  C   UNL     1       0.731   1.377  -6.500  1.00  0.00     0.029 A 
ATOM     52  N   UNL     1       0.036   2.326  -4.590  1.00  0.00    -0.354 N 
ATOM     53  C   UNL     1      -1.402   1.999  -9.925  1.00  0.00     0.074 A 
ATOM     54  C   UNL     1      -1.838   3.369 -10.056  1.00  0.00     0.031 C 
ATOM     55  C   UNL     1       1.046   0.531  -5.501  1.00  0.00     0.029 A 
ATOM     56  C   UNL     1       0.307   0.967  -4.329  1.00  0.00     0.049 A 
ATOM     57  H   UNL     1      -0.024   3.055  -3.931  1.00  0.00     0.167 HD
ATOM     58  C   UNL     1      -0.859   1.078 -10.769  1.00  0.00     0.031 A 
ATOM     59  C   UNL     1      -0.591   0.227  -3.612  1.00  0.00     0.031 A 
ATOM     60  C   UNL     1      -0.466  -0.136 -10.048  1.00  0.00     0.049 A 
ATOM     61  C   UNL     1      -1.152  -0.919  -4.420  1.00  0.00     0.074 A 
ATOM     62  C   UNL     1       0.755  -0.602  -9.587  1.00  0.00     0.029 A 
ATOM     63  N   UNL     1      -1.442  -0.872  -9.377  1.00  0.00    -0.354 N 
ATOM     64  N   UNL     1      -1.154  -0.935  -5.726  1.00  0.00    -0.248 NA
ATOM     65  C   UNL     1      -1.733  -2.131  -3.848  1.00  0.00     0.031 C 
ATOM     66  C   UNL     1       0.501  -1.528  -8.539  1.00  0.00     0.029 A 
ATOM     67  C   UNL     1      -0.869  -1.653  -8.391  1.00  0.00     0.049 A 
ATOM     68  H   UNL     1      -2.406  -0.840  -9.578  1.00  0.00     0.167 HD
ATOM     69  C   UNL     1      -1.653  -2.127  -6.170  1.00  0.00     0.074 A 
ATOM     70  C   UNL     1      -2.025  -2.837  -4.957  1.00  0.00     0.031 C 
ATOM     71  C   UNL     1      -1.699  -2.450  -7.495  1.00  0.00     0.031 A 
BRANCH  58  72
ATOM     72  C   UNL     1      -0.372   1.451 -12.150  1.00  0.00    -0.014 A 
ATOM     73  C   UNL     1       0.714   0.758 -12.714  1.00  0.00     0.009 A 
ATOM     74  C   UNL     1      -0.881   2.515 -12.915  1.00  0.00     0.009 A 
ATOM     75  C   UNL     1       1.309   1.160 -13.918  1.00  0.00     0.001 A 
ATOM     76  C   UNL     1      -0.268   2.950 -14.099  1.00  0.00     0.001 A 
ATOM     77  C   UNL     1       0.834   2.274 -14.598  1.00  0.00     0.000 A 
ENDBRANCH  58  72
BRANCH  59  78
ATOM     78  C   UNL     1      -1.322   1.074  -2.618  1.00  0.00    -0.014 A 
ATOM     79  C   UNL     1      -0.512   1.884  -1.784  1.00  0.00     0.009 A 
ATOM     80  C   UNL     1      -2.671   1.411  -2.746  1.00  0.00     0.009 A 
ATOM     81  C   UNL     1      -0.973   3.094  -1.265  1.00  0.00     0.001 A 
ATOM     82  C   UNL     1      -3.148   2.599  -2.167  1.00  0.00     0.001 A 
ATOM     83  C   UNL     1      -2.290   3.465  -1.481  1.00  0.00     0.000 A 
ENDBRANCH  59  78
BRANCH  71  84
ATOM     84  C   UNL     1      -2.448  -3.624  -8.060  1.00  0.00    -0.014 A 
ATOM     85  C   UNL     1      -3.578  -4.187  -7.452  1.00  0.00     0.009 A 
ATOM     86  C   UNL     1      -2.094  -4.114  -9.335  1.00  0.00     0.009 A 
ATOM     87  C   UNL     1      -4.276  -5.239  -8.056  1.00  0.00     0.001 A 
ATOM     88  C   UNL     1      -2.817  -5.128  -9.963  1.00  0.00     0.001 A 
ATOM     89  C   UNL     1      -3.899  -5.705  -9.312  1.00  0.00     0.000 A 
ENDBRANCH  71  84
ENDBRANCH  45  46
ENDBRANCH  37  40
ENDBRANCH  35  36
ENDBRANCH  34  35
ENDBRANCH  33  34
ENDBRANCH   1  33
TORSDOF 15
