REMARK SMILES C[C@@H]1[C@@H](C(=O)NCCCCNC(=O)c2ccc(-c3c4nc(c(-c5ccccc5)c5ccc([nH]5)c(-c5ccccc5)c5nc(c(-c6ccccc6)c6ccc3[nH]6)C=C5)C=C4)cc2)CCN1C(=O)N1CCC[C@H]2CCC[C@@H]21
REMARK SMILES IDX 8 1 7 2 6 3 4 4 5 5 3 7 1 8 2 9 64 10 62 11 63 12 65 13
REMARK SMILES IDX 66 14 67 15 68 16 75 17 69 18 71 19 74 20 70 21 72 22 73 23
REMARK SMILES IDX 9 24 10 25 11 26 12 27 13 29 14 30 15 31 61 32 16 33 60 34
REMARK SMILES IDX 17 35 18 36 19 37 54 38 20 39 59 40 53 41 55 42 21 43 58 44
REMARK SMILES IDX 52 45 51 46 22 48 44 49 29 50 43 51 30 52 33 53 42 54 56 55
REMARK SMILES IDX 31 56 32 57 41 59 57 60 34 61 23 62 24 63 28 64 25 65 27 66
REMARK SMILES IDX 26 67 45 68 46 69 50 70 47 71 49 72 48 73 35 74 36 75 40 76
REMARK SMILES IDX 37 77 39 78 38 79
REMARK H PARENT 6 6 11 28 55 47 33 58
REMARK Flexibility Score: inf
ROOT
ATOM      1  C   UNL     1      -2.799   4.314  -1.170  1.00  0.00     0.023 C 
ENDROOT
BRANCH   1   2
ATOM      2  C   UNL     1      -2.462   2.879  -0.784  1.00  0.00     0.116 C 
BRANCH   2   3
ATOM      3  N   UNL     1      -1.761   2.141  -1.817  1.00  0.00    -0.356 N 
ATOM      4  C   UNL     1      -0.794   1.182  -1.676  1.00  0.00     0.225 C 
ATOM      5  O   UNL     1      -0.371   0.641  -2.697  1.00  0.00    -0.275 OA
ATOM      6  H   UNL     1      -2.015   2.359  -2.743  1.00  0.00     0.163 HD
BRANCH   4   7
ATOM      7  C   UNL     1      -0.225   0.911  -0.288  1.00  0.00     0.102 C 
ATOM      8  C   UNL     1       1.914   0.219   0.775  1.00  0.00     0.032 C 
ATOM      9  C   UNL     1       0.878  -0.176  -0.287  1.00  0.00     0.096 C 
ATOM     10  N   UNL     1       0.157  -1.425   0.037  1.00  0.00    -0.321 N 
ATOM     11  C   UNL     1      -1.234   0.355   0.720  1.00  0.00     0.037 C 
ATOM     12  C   UNL     1      -1.188  -1.140   0.489  1.00  0.00     0.122 C 
BRANCH  10  13
ATOM     13  C   UNL     1       0.382  -2.703  -0.456  1.00  0.00     0.320 C 
ATOM     14  O   UNL     1      -0.487  -3.574  -0.410  1.00  0.00    -0.248 OA
BRANCH  13  15
ATOM     15  N   UNL     1       1.566  -2.907  -1.112  1.00  0.00    -0.321 N 
ATOM     16  C   UNL     1       2.847  -2.863  -0.423  1.00  0.00     0.121 C 
ATOM     17  C   UNL     1       1.630  -3.618  -2.374  1.00  0.00     0.090 C 
ATOM     18  C   UNL     1       3.894  -2.141  -1.278  1.00  0.00     0.022 C 
ATOM     19  C   UNL     1       2.535  -2.793  -3.293  1.00  0.00     0.012 C 
ATOM     20  C   UNL     1       0.380  -3.785  -3.230  1.00  0.00     0.025 C 
ATOM     21  C   UNL     1       3.946  -2.695  -2.715  1.00  0.00     0.007 C 
ATOM     22  C   UNL     1       2.381  -3.482  -4.638  1.00  0.00     0.006 C 
ATOM     23  C   UNL     1       0.921  -3.956  -4.657  1.00  0.00     0.002 C 
ENDBRANCH  13  15
ENDBRANCH  10  13
ENDBRANCH   4   7
ENDBRANCH   2   3
ENDBRANCH   1   2
BRANCH   1  24
ATOM     24  C   UNL     1      -3.680   4.475  -2.407  1.00  0.00     0.023 C 
BRANCH  24  25
ATOM     25  C   UNL     1      -4.959   3.647  -2.417  1.00  0.00     0.116 C 
BRANCH  25  26
ATOM     26  N   UNL     1      -5.862   3.974  -1.325  1.00  0.00    -0.352 N 
ATOM     27  C   UNL     1      -7.156   4.443  -1.360  1.00  0.00     0.251 C 
ATOM     28  H   UNL     1      -5.492   3.841  -0.423  1.00  0.00     0.163 HD
ATOM     29  O   UNL     1      -7.709   4.794  -0.325  1.00  0.00    -0.269 OA
BRANCH  27  30
ATOM     30  C   UNL     1      -7.869   4.556  -2.652  1.00  0.00     0.039 A 
ATOM     31  C   UNL     1      -8.598   5.717  -2.923  1.00  0.00     0.014 A 
ATOM     32  C   UNL     1      -7.815   3.529  -3.596  1.00  0.00     0.014 A 
ATOM     33  C   UNL     1      -9.205   5.879  -4.170  1.00  0.00     0.010 A 
ATOM     34  C   UNL     1      -8.339   3.731  -4.869  1.00  0.00     0.010 A 
ATOM     35  C   UNL     1      -9.046   4.905  -5.169  1.00  0.00    -0.014 A 
BRANCH  35  36
ATOM     36  C   UNL     1      -9.619   5.085  -6.528  1.00  0.00     0.031 A 
ATOM     37  C   UNL     1     -10.651   4.119  -7.046  1.00  0.00     0.074 A 
ATOM     38  C   UNL     1      -9.168   6.075  -7.324  1.00  0.00     0.049 A 
ATOM     39  N   UNL     1     -11.221   4.070  -8.224  1.00  0.00    -0.248 NA
ATOM     40  C   UNL     1     -11.079   3.051  -6.128  1.00  0.00     0.031 C 
ATOM     41  C   UNL     1      -8.145   7.058  -6.961  1.00  0.00     0.029 A 
ATOM     42  N   UNL     1      -9.511   6.414  -8.609  1.00  0.00    -0.354 N 
ATOM     43  C   UNL     1     -12.055   2.959  -8.193  1.00  0.00     0.074 A 
ATOM     44  C   UNL     1     -11.874   2.330  -6.904  1.00  0.00     0.031 C 
ATOM     45  C   UNL     1      -7.969   7.907  -7.986  1.00  0.00     0.029 A 
ATOM     46  C   UNL     1      -8.829   7.504  -9.093  1.00  0.00     0.049 A 
ATOM     47  H   UNL     1     -10.183   5.922  -9.135  1.00  0.00     0.167 HD
ATOM     48  C   UNL     1     -12.914   2.513  -9.141  1.00  0.00     0.031 A 
ATOM     49  C   UNL     1      -8.884   8.108 -10.296  1.00  0.00     0.031 A 
ATOM     50  C   UNL     1     -13.101   3.140 -10.421  1.00  0.00     0.049 A 
ATOM     51  C   UNL     1      -9.827   7.580 -11.342  1.00  0.00     0.074 A 
ATOM     52  C   UNL     1     -13.981   2.793 -11.431  1.00  0.00     0.029 A 
ATOM     53  N   UNL     1     -12.391   4.243 -10.870  1.00  0.00    -0.354 N 
ATOM     54  N   UNL     1     -10.656   6.567 -11.273  1.00  0.00    -0.248 NA
ATOM     55  C   UNL     1      -9.850   8.290 -12.628  1.00  0.00     0.031 C 
ATOM     56  C   UNL     1     -13.764   3.652 -12.514  1.00  0.00     0.029 A 
ATOM     57  C   UNL     1     -12.797   4.576 -12.152  1.00  0.00     0.049 A 
ATOM     58  H   UNL     1     -11.700   4.720 -10.354  1.00  0.00     0.167 HD
ATOM     59  C   UNL     1     -11.325   6.541 -12.490  1.00  0.00     0.074 A 
ATOM     60  C   UNL     1     -10.813   7.647 -13.273  1.00  0.00     0.031 C 
ATOM     61  C   UNL     1     -12.282   5.681 -12.919  1.00  0.00     0.031 A 
BRANCH  48  62
ATOM     62  C   UNL     1     -13.709   1.275  -8.824  1.00  0.00    -0.014 A 
ATOM     63  C   UNL     1     -14.706   1.280  -7.835  1.00  0.00     0.009 A 
ATOM     64  C   UNL     1     -13.472   0.091  -9.539  1.00  0.00     0.009 A 
ATOM     65  C   UNL     1     -15.417   0.116  -7.537  1.00  0.00     0.001 A 
ATOM     66  C   UNL     1     -14.208  -1.064  -9.264  1.00  0.00     0.001 A 
ATOM     67  C   UNL     1     -15.170  -1.054  -8.255  1.00  0.00     0.000 A 
ENDBRANCH  48  62
BRANCH  49  68
ATOM     68  C   UNL     1      -8.036   9.298 -10.573  1.00  0.00    -0.014 A 
ATOM     69  C   UNL     1      -8.617  10.568 -10.719  1.00  0.00     0.009 A 
ATOM     70  C   UNL     1      -6.644   9.172 -10.704  1.00  0.00     0.009 A 
ATOM     71  C   UNL     1      -7.826  11.679 -11.020  1.00  0.00     0.001 A 
ATOM     72  C   UNL     1      -5.853  10.291 -10.972  1.00  0.00     0.001 A 
ATOM     73  C   UNL     1      -6.445  11.541 -11.141  1.00  0.00     0.000 A 
ENDBRANCH  49  68
BRANCH  61  74
ATOM     74  C   UNL     1     -12.878   5.933 -14.277  1.00  0.00    -0.014 A 
ATOM     75  C   UNL     1     -12.145   5.716 -15.454  1.00  0.00     0.009 A 
ATOM     76  C   UNL     1     -14.213   6.357 -14.376  1.00  0.00     0.009 A 
ATOM     77  C   UNL     1     -12.727   5.956 -16.701  1.00  0.00     0.001 A 
ATOM     78  C   UNL     1     -14.802   6.564 -15.623  1.00  0.00     0.001 A 
ATOM     79  C   UNL     1     -14.055   6.374 -16.785  1.00  0.00     0.000 A 
ENDBRANCH  61  74
ENDBRANCH  35  36
ENDBRANCH  27  30
ENDBRANCH  25  26
ENDBRANCH  24  25
ENDBRANCH   1  24
TORSDOF 13
