REMARK SMILES C[C@@H]1C[C@H]([N@@H+](C)Cc2ccc(C(=O)NCCCCNC(=O)c3ccc(-c4c5nc(c(-c6ccccc6)c6ccc([nH]6)c(-c6ccccc6)c6nc(c(-c7ccccc7)c7ccc4[nH]7)C=C6)C=C5)cc3)cc2)CS1
REMARK SMILES IDX 16 1 15 2 14 3 12 4 13 5 11 7 8 8 9 9 71 10 10 11 70 12 7 13
REMARK SMILES IDX 5 14 6 15 4 17 1 18 2 19 3 20 73 21 72 22 17 23 18 24 19 25
REMARK SMILES IDX 20 26 21 28 22 29 23 30 69 31 24 32 68 33 25 34 26 35 27 36
REMARK SMILES IDX 62 37 28 38 67 39 61 40 63 41 29 42 66 43 60 44 59 45 30 47
REMARK SMILES IDX 52 48 37 49 51 50 38 51 41 52 50 53 64 54 39 55 40 56 49 58
REMARK SMILES IDX 65 59 42 60 31 61 32 62 36 63 33 64 35 65 34 66 53 67 54 68
REMARK SMILES IDX 58 69 55 70 57 71 56 72 43 73 44 74 48 75 45 76 47 77 46 78
REMARK H PARENT 14 6 5 16 19 27 63 46 41 57
REMARK Flexibility Score: inf
ROOT
ATOM      1  C   UNL     1       2.501  -0.622   7.836  1.00  0.00     0.023 C 
ENDROOT
BRANCH   1   2
ATOM      2  C   UNL     1       3.918  -1.107   7.520  1.00  0.00     0.116 C 
BRANCH   2   3
ATOM      3  N   UNL     1       3.942  -2.068   6.440  1.00  0.00    -0.352 N 
ATOM      4  C   UNL     1       4.061  -1.980   5.078  1.00  0.00     0.251 C 
ATOM      5  O   UNL     1       4.104  -3.058   4.478  1.00  0.00    -0.269 OA
ATOM      6  H   UNL     1       3.853  -2.997   6.755  1.00  0.00     0.163 HD
BRANCH   4   7
ATOM      7  C   UNL     1       4.102  -0.712   4.285  1.00  0.00     0.039 A 
ATOM      8  C   UNL     1       3.808   1.544   2.584  1.00  0.00     0.006 A 
ATOM      9  C   UNL     1       3.955   0.261   2.048  1.00  0.00     0.010 A 
ATOM     10  C   UNL     1       4.010   1.697   3.955  1.00  0.00     0.010 A 
ATOM     11  C   UNL     1       4.092  -0.850   2.887  1.00  0.00     0.014 A 
ATOM     12  C   UNL     1       4.109   0.584   4.797  1.00  0.00     0.014 A 
BRANCH   8  13
ATOM     13  C   UNL     1       3.416   2.701   1.695  1.00  0.00     0.299 C 
BRANCH  13  14
ATOM     14  N   UNL     1       2.241   3.499   2.081  1.00  0.00    -0.330 N 
ATOM     15  C   UNL     1       2.474   4.455   3.156  1.00  0.00     0.333 C 
ATOM     16  H   UNL     1       2.152   4.021   1.210  1.00  0.00     0.348 HD
BRANCH  14  17
ATOM     17  C   UNL     1       0.904   2.873   2.145  1.00  0.00     0.195 C 
ATOM     18  C   UNL     1       0.846   0.041  -0.216  1.00  0.00     0.019 C 
ATOM     19  C   UNL     1       0.095   0.827   0.849  1.00  0.00     0.049 C 
ATOM     20  C   UNL     1       0.399   2.325   0.798  1.00  0.00     0.080 C 
ATOM     21  S   UNL     1       0.492   0.228   2.507  1.00  0.00    -0.152 SA
ATOM     22  C   UNL     1       0.591   1.862   3.258  1.00  0.00     0.134 C 
ENDBRANCH  14  17
ENDBRANCH  13  14
ENDBRANCH   8  13
ENDBRANCH   4   7
ENDBRANCH   2   3
ENDBRANCH   1   2
BRANCH   1  23
ATOM     23  C   UNL     1       1.805  -1.429   8.942  1.00  0.00     0.023 C 
BRANCH  23  24
ATOM     24  C   UNL     1       2.501  -1.385  10.301  1.00  0.00     0.116 C 
BRANCH  24  25
ATOM     25  N   UNL     1       2.650  -0.044  10.841  1.00  0.00    -0.352 N 
ATOM     26  C   UNL     1       2.935   0.315  12.141  1.00  0.00     0.251 C 
ATOM     27  H   UNL     1       2.533   0.697  10.203  1.00  0.00     0.163 HD
ATOM     28  O   UNL     1       2.922   1.485  12.486  1.00  0.00    -0.269 OA
BRANCH  26  29
ATOM     29  C   UNL     1       3.201  -0.753  13.130  1.00  0.00     0.039 A 
ATOM     30  C   UNL     1       2.455  -0.773  14.310  1.00  0.00     0.014 A 
ATOM     31  C   UNL     1       4.145  -1.749  12.872  1.00  0.00     0.014 A 
ATOM     32  C   UNL     1       2.609  -1.835  15.203  1.00  0.00     0.010 A 
ATOM     33  C   UNL     1       4.245  -2.843  13.726  1.00  0.00     0.010 A 
ATOM     34  C   UNL     1       3.479  -2.897  14.900  1.00  0.00    -0.014 A 
BRANCH  34  35
ATOM     35  C   UNL     1       3.587  -4.071  15.801  1.00  0.00     0.031 A 
ATOM     36  C   UNL     1       4.875  -4.364  16.518  1.00  0.00     0.074 A 
ATOM     37  C   UNL     1       2.535  -4.903  15.936  1.00  0.00     0.049 A 
ATOM     38  N   UNL     1       5.151  -5.336  17.351  1.00  0.00    -0.248 NA
ATOM     39  C   UNL     1       6.008  -3.465  16.246  1.00  0.00     0.031 C 
ATOM     40  C   UNL     1       1.250  -4.764  15.247  1.00  0.00     0.029 A 
ATOM     41  N   UNL     1       2.381  -6.031  16.702  1.00  0.00    -0.354 N 
ATOM     42  C   UNL     1       6.489  -5.173  17.689  1.00  0.00     0.074 A 
ATOM     43  C   UNL     1       6.982  -4.044  16.932  1.00  0.00     0.031 C 
ATOM     44  C   UNL     1       0.427  -5.746  15.651  1.00  0.00     0.029 A 
ATOM     45  C   UNL     1       1.133  -6.597  16.603  1.00  0.00     0.049 A 
ATOM     46  H   UNL     1       3.097  -6.399  17.268  1.00  0.00     0.167 HD
ATOM     47  C   UNL     1       7.234  -5.883  18.568  1.00  0.00     0.031 A 
ATOM     48  C   UNL     1       0.612  -7.674  17.220  1.00  0.00     0.031 A 
ATOM     49  C   UNL     1       6.741  -6.998  19.332  1.00  0.00     0.049 A 
ATOM     50  C   UNL     1       1.452  -8.432  18.209  1.00  0.00     0.074 A 
ATOM     51  C   UNL     1       7.401  -7.745  20.292  1.00  0.00     0.029 A 
ATOM     52  N   UNL     1       5.464  -7.524  19.221  1.00  0.00    -0.354 N 
ATOM     53  N   UNL     1       2.690  -8.213  18.580  1.00  0.00    -0.248 NA
ATOM     54  C   UNL     1       0.814  -9.574  18.878  1.00  0.00     0.031 C 
ATOM     55  C   UNL     1       6.534  -8.751  20.734  1.00  0.00     0.029 A 
ATOM     56  C   UNL     1       5.320  -8.596  20.085  1.00  0.00     0.049 A 
ATOM     57  H   UNL     1       4.764  -7.186  18.617  1.00  0.00     0.167 HD
ATOM     58  C   UNL     1       2.968  -9.168  19.550  1.00  0.00     0.074 A 
ATOM     59  C   UNL     1       1.766  -9.958  19.717  1.00  0.00     0.031 C 
ATOM     60  C   UNL     1       4.115  -9.369  20.242  1.00  0.00     0.031 A 
BRANCH  47  61
ATOM     61  C   UNL     1       8.667  -5.468  18.750  1.00  0.00    -0.014 A 
ATOM     62  C   UNL     1       8.998  -4.266  19.396  1.00  0.00     0.009 A 
ATOM     63  C   UNL     1       9.701  -6.299  18.292  1.00  0.00     0.009 A 
ATOM     64  C   UNL     1      10.333  -3.886  19.546  1.00  0.00     0.001 A 
ATOM     65  C   UNL     1      11.036  -5.930  18.468  1.00  0.00     0.001 A 
ATOM     66  C   UNL     1      11.351  -4.720  19.085  1.00  0.00     0.000 A 
ENDBRANCH  47  61
BRANCH  48  67
ATOM     67  C   UNL     1      -0.794  -8.074  16.955  1.00  0.00    -0.014 A 
ATOM     68  C   UNL     1      -1.783  -7.877  17.931  1.00  0.00     0.009 A 
ATOM     69  C   UNL     1      -1.155  -8.656  15.731  1.00  0.00     0.009 A 
ATOM     70  C   UNL     1      -3.100  -8.280  17.697  1.00  0.00     0.001 A 
ATOM     71  C   UNL     1      -2.478  -9.033  15.489  1.00  0.00     0.001 A 
ATOM     72  C   UNL     1      -3.446  -8.854  16.475  1.00  0.00     0.000 A 
ENDBRANCH  48  67
BRANCH  60  73
ATOM     73  C   UNL     1       4.111 -10.459  21.275  1.00  0.00    -0.014 A 
ATOM     74  C   UNL     1       4.122 -11.814  20.909  1.00  0.00     0.009 A 
ATOM     75  C   UNL     1       4.131 -10.121  22.638  1.00  0.00     0.009 A 
ATOM     76  C   UNL     1       4.119 -12.809  21.888  1.00  0.00     0.001 A 
ATOM     77  C   UNL     1       4.156 -11.118  23.614  1.00  0.00     0.001 A 
ATOM     78  C   UNL     1       4.140 -12.460  23.239  1.00  0.00     0.000 A 
ENDBRANCH  60  73
ENDBRANCH  34  35
ENDBRANCH  26  29
ENDBRANCH  24  25
ENDBRANCH  23  24
ENDBRANCH   1  23
TORSDOF 14
