REMARK SMILES O=C(NCCCCNC(=O)[C@@H]1[C@@H](C(=O)NCc2ccccc2OCc2ccccc2)[C@@H]2C=C[C@H]1C2)c1ccc(-c2c3nc(c(-c4ccccc4)c4ccc([nH]4)c(-c4ccccc4)c4nc(c(-c5ccccc5)c5ccc2[nH]5)C=C4)C=C3)cc1
REMARK SMILES IDX 8 1 9 2 10 3 7 5 6 6 5 7 4 8 3 9 1 10 2 11 36 13 37 14 83 15
REMARK SMILES IDX 38 16 82 17 39 18 40 19 41 20 76 21 42 22 81 23 75 24 77 25
REMARK SMILES IDX 43 26 80 27 74 28 73 29 44 31 66 32 51 33 65 34 52 35 55 36
REMARK SMILES IDX 64 37 78 38 53 39 54 40 63 42 79 43 56 44 45 45 46 46 50 47
REMARK SMILES IDX 47 48 49 49 48 50 67 51 68 52 72 53 69 54 71 55 70 56 57 57
REMARK SMILES IDX 58 58 62 59 59 60 61 61 60 62 11 63 12 64 34 65 31 66 33 67
REMARK SMILES IDX 35 68 32 69 13 70 14 71 15 72 16 74 17 75 18 76 22 77 19 78
REMARK SMILES IDX 21 79 20 80 23 81 24 82 25 83 26 84 30 85 27 86 29 87 28 88
REMARK H PARENT 8 4 3 12 77 30 55 41 15 73
REMARK Flexibility Score: inf
ROOT
ATOM      1  N   UNL     1       6.577  -1.351  -3.758  1.00  0.00    -0.356 N 
ATOM      2  C   UNL     1       7.481  -1.595  -4.755  1.00  0.00     0.224 C 
ATOM      3  O   UNL     1       8.596  -2.008  -4.455  1.00  0.00    -0.275 OA
ATOM      4  H   UNL     1       6.939  -1.361  -2.842  1.00  0.00     0.163 HD
ENDROOT
BRANCH   1   5
ATOM      5  C   UNL     1       5.154  -1.080  -3.872  1.00  0.00     0.116 C 
BRANCH   5   6
ATOM      6  C   UNL     1       4.347  -2.114  -3.096  1.00  0.00     0.023 C 
BRANCH   6   7
ATOM      7  C   UNL     1       4.642  -2.121  -1.599  1.00  0.00     0.023 C 
BRANCH   7   8
ATOM      8  C   UNL     1       4.470  -0.766  -0.931  1.00  0.00     0.116 C 
BRANCH   8   9
ATOM      9  N   UNL     1       3.084  -0.323  -0.940  1.00  0.00    -0.352 N 
ATOM     10  O   UNL     1       1.119   0.236   0.036  1.00  0.00    -0.269 OA
ATOM     11  C   UNL     1       2.319   0.063   0.138  1.00  0.00     0.251 C 
ATOM     12  H   UNL     1       2.642  -0.297  -1.819  1.00  0.00     0.163 HD
BRANCH  11  13
ATOM     13  C   UNL     1       3.005   0.240   1.433  1.00  0.00     0.039 A 
ATOM     14  C   UNL     1       4.160   1.024   1.495  1.00  0.00     0.014 A 
ATOM     15  C   UNL     1       2.542  -0.446   2.556  1.00  0.00     0.014 A 
ATOM     16  C   UNL     1       4.930   1.012   2.648  1.00  0.00     0.010 A 
ATOM     17  C   UNL     1       3.271  -0.379   3.745  1.00  0.00     0.010 A 
ATOM     18  C   UNL     1       4.482   0.330   3.792  1.00  0.00    -0.014 A 
BRANCH  18  19
ATOM     19  C   UNL     1       5.258   0.452   5.048  1.00  0.00     0.031 A 
ATOM     20  C   UNL     1       5.915  -0.736   5.689  1.00  0.00     0.074 A 
ATOM     21  C   UNL     1       5.378   1.676   5.598  1.00  0.00     0.049 A 
ATOM     22  N   UNL     1       6.631  -0.783   6.784  1.00  0.00    -0.248 NA
ATOM     23  C   UNL     1       5.744  -2.038   5.026  1.00  0.00     0.031 C 
ATOM     24  C   UNL     1       4.776   2.902   5.064  1.00  0.00     0.029 A 
ATOM     25  N   UNL     1       6.060   2.098   6.708  1.00  0.00    -0.354 N 
ATOM     26  C   UNL     1       6.975  -2.118   6.957  1.00  0.00     0.074 A 
ATOM     27  C   UNL     1       6.376  -2.852   5.863  1.00  0.00     0.031 C 
ATOM     28  C   UNL     1       5.158   3.943   5.816  1.00  0.00     0.029 A 
ATOM     29  C   UNL     1       5.967   3.451   6.923  1.00  0.00     0.049 A 
ATOM     30  H   UNL     1       6.566   1.491   7.295  1.00  0.00     0.167 HD
ATOM     31  C   UNL     1       7.721  -2.676   7.941  1.00  0.00     0.031 A 
ATOM     32  C   UNL     1       6.457   4.215   7.914  1.00  0.00     0.031 A 
ATOM     33  C   UNL     1       8.316  -1.937   9.025  1.00  0.00     0.049 A 
ATOM     34  C   UNL     1       7.259   3.565   9.000  1.00  0.00     0.074 A 
ATOM     35  C   UNL     1       9.118  -2.408  10.051  1.00  0.00     0.029 A 
ATOM     36  N   UNL     1       8.171  -0.573   9.227  1.00  0.00    -0.354 N 
ATOM     37  N   UNL     1       7.597   2.306   9.132  1.00  0.00    -0.248 NA
ATOM     38  C   UNL     1       7.745   4.442  10.072  1.00  0.00     0.031 C 
ATOM     39  C   UNL     1       9.414  -1.337  10.902  1.00  0.00     0.029 A 
ATOM     40  C   UNL     1       8.845  -0.190  10.375  1.00  0.00     0.049 A 
ATOM     41  H   UNL     1       7.664   0.034   8.641  1.00  0.00     0.167 HD
ATOM     42  C   UNL     1       8.347   2.239  10.297  1.00  0.00     0.074 A 
ATOM     43  C   UNL     1       8.434   3.589  10.818  1.00  0.00     0.031 C 
ATOM     44  C   UNL     1       8.910   1.156  10.885  1.00  0.00     0.031 A 
BRANCH  31  45
ATOM     45  C   UNL     1       7.914  -4.167   7.913  1.00  0.00    -0.014 A 
ATOM     46  C   UNL     1       8.752  -4.781   6.969  1.00  0.00     0.009 A 
ATOM     47  C   UNL     1       7.290  -4.965   8.886  1.00  0.00     0.009 A 
ATOM     48  C   UNL     1       8.939  -6.166   6.984  1.00  0.00     0.001 A 
ATOM     49  C   UNL     1       7.499  -6.346   8.914  1.00  0.00     0.001 A 
ATOM     50  C   UNL     1       8.318  -6.946   7.959  1.00  0.00     0.000 A 
ENDBRANCH  31  45
BRANCH  32  51
ATOM     51  C   UNL     1       6.177   5.672   7.924  1.00  0.00    -0.014 A 
ATOM     52  C   UNL     1       7.198   6.599   7.673  1.00  0.00     0.009 A 
ATOM     53  C   UNL     1       4.873   6.141   8.155  1.00  0.00     0.009 A 
ATOM     54  C   UNL     1       6.922   7.968   7.671  1.00  0.00     0.001 A 
ATOM     55  C   UNL     1       4.594   7.507   8.121  1.00  0.00     0.001 A 
ATOM     56  C   UNL     1       5.620   8.420   7.888  1.00  0.00     0.000 A 
ENDBRANCH  32  51
BRANCH  44  57
ATOM     57  C   UNL     1       9.688   1.399  12.146  1.00  0.00    -0.014 A 
ATOM     58  C   UNL     1       9.039   1.703  13.352  1.00  0.00     0.009 A 
ATOM     59  C   UNL     1      11.088   1.302  12.128  1.00  0.00     0.009 A 
ATOM     60  C   UNL     1       9.782   1.942  14.510  1.00  0.00     0.001 A 
ATOM     61  C   UNL     1      11.825   1.513  13.294  1.00  0.00     0.001 A 
ATOM     62  C   UNL     1      11.172   1.843  14.481  1.00  0.00     0.000 A 
ENDBRANCH  44  57
ENDBRANCH  18  19
ENDBRANCH  11  13
ENDBRANCH   8   9
ENDBRANCH   7   8
ENDBRANCH   6   7
ENDBRANCH   5   6
ENDBRANCH   1   5
BRANCH   2  63
ATOM     63  C   UNL     1       7.033  -1.287  -6.167  1.00  0.00     0.098 C 
ATOM     64  C   UNL     1       8.018  -1.669  -7.300  1.00  0.00     0.098 C 
ATOM     65  C   UNL     1       6.924   0.263  -6.310  1.00  0.00     0.025 C 
ATOM     66  C   UNL     1       8.285  -0.302  -7.989  1.00  0.00     0.025 C 
ATOM     67  C   UNL     1       8.261   0.921  -6.041  1.00  0.00    -0.027 C 
ATOM     68  C   UNL     1       6.942   0.400  -7.818  1.00  0.00     0.017 C 
ATOM     69  C   UNL     1       9.080   0.574  -7.045  1.00  0.00    -0.027 C 
BRANCH  64  70
ATOM     70  C   UNL     1       7.649  -2.723  -8.355  1.00  0.00     0.224 C 
ATOM     71  O   UNL     1       8.583  -3.346  -8.885  1.00  0.00    -0.275 OA
ATOM     72  N   UNL     1       6.431  -2.993  -8.880  1.00  0.00    -0.352 N 
ATOM     73  H   UNL     1       6.497  -3.492  -9.727  1.00  0.00     0.163 HD
BRANCH  72  74
ATOM     74  C   UNL     1       5.051  -2.732  -8.510  1.00  0.00     0.155 C 
BRANCH  74  75
ATOM     75  C   UNL     1       4.049  -2.668  -9.655  1.00  0.00     0.013 A 
ATOM     76  C   UNL     1       2.714  -3.036  -9.402  1.00  0.00     0.009 A 
ATOM     77  C   UNL     1       4.317  -2.040 -10.885  1.00  0.00     0.124 A 
ATOM     78  C   UNL     1       1.706  -2.809 -10.348  1.00  0.00     0.001 A 
ATOM     79  C   UNL     1       3.326  -1.862 -11.857  1.00  0.00     0.047 A 
ATOM     80  C   UNL     1       2.013  -2.233 -11.579  1.00  0.00     0.004 A 
BRANCH  77  81
ATOM     81  O   UNL     1       5.575  -1.608 -11.131  1.00  0.00    -0.489 OA
BRANCH  81  82
ATOM     82  C   UNL     1       5.832  -0.198 -11.107  1.00  0.00     0.265 C 
BRANCH  82  83
ATOM     83  C   UNL     1       5.023   0.891 -10.391  1.00  0.00    -0.011 A 
ATOM     84  C   UNL     1       3.940   0.702  -9.521  1.00  0.00     0.007 A 
ATOM     85  C   UNL     1       5.537   2.199 -10.488  1.00  0.00     0.007 A 
ATOM     86  C   UNL     1       3.439   1.742  -8.730  1.00  0.00     0.000 A 
ATOM     87  C   UNL     1       5.037   3.243  -9.704  1.00  0.00     0.000 A 
ATOM     88  C   UNL     1       3.998   3.009  -8.810  1.00  0.00     0.000 A 
ENDBRANCH  82  83
ENDBRANCH  81  82
ENDBRANCH  77  81
ENDBRANCH  74  75
ENDBRANCH  72  74
ENDBRANCH  64  70
ENDBRANCH   2  63
TORSDOF 17
