REMARK SMILES O=C(NCCCCNC(=O)[C@H](NC(=O)c1ccc(Br)nc1)c1ccccc1)c1ccc(-c2c3nc(c(-c4ccccc4)c4ccc([nH]4)c(-c4ccccc4)c4nc(c(-c5ccccc5)c5ccc2[nH]5)C=C4)C=C3)cc1
REMARK SMILES IDX 5 1 4 2 3 3 1 4 2 5 28 7 29 8 75 9 30 10 74 11 31 12 32 13
REMARK SMILES IDX 33 14 68 15 34 16 73 17 67 18 69 19 35 20 72 21 66 22 65 23
REMARK SMILES IDX 36 25 58 26 43 27 57 28 44 29 47 30 56 31 70 32 45 33 46 34
REMARK SMILES IDX 55 36 71 37 48 38 37 39 38 40 42 41 39 42 41 43 40 44 59 45
REMARK SMILES IDX 60 46 64 47 61 48 63 49 62 50 49 51 50 52 54 53 51 54 53 55
REMARK SMILES IDX 52 56 6 57 7 58 8 59 9 60 10 62 11 63 22 64 23 65 27 66
REMARK SMILES IDX 24 67 26 68 25 69 12 70 13 71 14 73 15 74 16 75 21 76 17 77
REMARK SMILES IDX 20 78 18 79 19 80
REMARK H PARENT 3 6 69 24 47 35 8 61 12 72
REMARK Flexibility Score: inf
ROOT
ATOM      1  C   UNL     1       4.629   6.315  -9.131  1.00  0.00     0.023 C 
ENDROOT
BRANCH   1   2
ATOM      2  C   UNL     1       3.159   6.696  -9.049  1.00  0.00     0.116 C 
BRANCH   2   3
ATOM      3  N   UNL     1       2.913   8.127  -9.108  1.00  0.00    -0.352 N 
ATOM      4  O   UNL     1       1.984  10.037  -9.879  1.00  0.00    -0.269 OA
ATOM      5  C   UNL     1       2.015   8.817  -9.897  1.00  0.00     0.251 C 
ATOM      6  H   UNL     1       3.460   8.679  -8.503  1.00  0.00     0.163 HD
BRANCH   5   7
ATOM      7  C   UNL     1       1.120   8.060 -10.803  1.00  0.00     0.039 A 
ATOM      8  C   UNL     1       0.441   6.931 -10.347  1.00  0.00     0.014 A 
ATOM      9  C   UNL     1       1.002   8.460 -12.138  1.00  0.00     0.014 A 
ATOM     10  C   UNL     1      -0.198   6.102 -11.258  1.00  0.00     0.010 A 
ATOM     11  C   UNL     1       0.265   7.678 -13.035  1.00  0.00     0.010 A 
ATOM     12  C   UNL     1      -0.306   6.469 -12.611  1.00  0.00    -0.014 A 
BRANCH  12  13
ATOM     13  C   UNL     1      -1.075   5.587 -13.526  1.00  0.00     0.031 A 
ATOM     14  C   UNL     1      -0.421   4.873 -14.677  1.00  0.00     0.074 A 
ATOM     15  C   UNL     1      -2.377   5.370 -13.251  1.00  0.00     0.049 A 
ATOM     16  N   UNL     1      -0.942   3.995 -15.499  1.00  0.00    -0.248 NA
ATOM     17  C   UNL     1       0.990   5.184 -14.951  1.00  0.00     0.031 C 
ATOM     18  C   UNL     1      -3.127   6.017 -12.169  1.00  0.00     0.029 A 
ATOM     19  N   UNL     1      -3.286   4.517 -13.820  1.00  0.00    -0.354 N 
ATOM     20  C   UNL     1       0.067   3.661 -16.393  1.00  0.00     0.074 A 
ATOM     21  C   UNL     1       1.227   4.446 -16.029  1.00  0.00     0.031 C 
ATOM     22  C   UNL     1      -4.353   5.481 -12.103  1.00  0.00     0.029 A 
ATOM     23  C   UNL     1      -4.498   4.503 -13.174  1.00  0.00     0.049 A 
ATOM     24  H   UNL     1      -3.089   3.968 -14.613  1.00  0.00     0.167 HD
ATOM     25  C   UNL     1       0.031   2.776 -17.419  1.00  0.00     0.031 A 
ATOM     26  C   UNL     1      -5.610   3.787 -13.414  1.00  0.00     0.031 A 
ATOM     27  C   UNL     1      -1.123   1.993 -17.781  1.00  0.00     0.049 A 
ATOM     28  C   UNL     1      -5.617   2.812 -14.551  1.00  0.00     0.074 A 
ATOM     29  C   UNL     1      -1.254   1.070 -18.805  1.00  0.00     0.029 A 
ATOM     30  N   UNL     1      -2.344   2.037 -17.127  1.00  0.00    -0.354 N 
ATOM     31  N   UNL     1      -4.648   2.506 -15.379  1.00  0.00    -0.248 NA
ATOM     32  C   UNL     1      -6.871   2.087 -14.789  1.00  0.00     0.031 C 
ATOM     33  C   UNL     1      -2.565   0.582 -18.793  1.00  0.00     0.029 A 
ATOM     34  C   UNL     1      -3.237   1.168 -17.733  1.00  0.00     0.049 A 
ATOM     35  H   UNL     1      -2.547   2.603 -16.347  1.00  0.00     0.167 HD
ATOM     36  C   UNL     1      -5.176   1.554 -16.239  1.00  0.00     0.074 A 
ATOM     37  C   UNL     1      -6.537   1.306 -15.806  1.00  0.00     0.031 C 
ATOM     38  C   UNL     1      -4.592   0.950 -17.301  1.00  0.00     0.031 A 
BRANCH  25  39
ATOM     39  C   UNL     1       1.277   2.616 -18.246  1.00  0.00    -0.014 A 
ATOM     40  C   UNL     1       2.386   1.909 -17.756  1.00  0.00     0.009 A 
ATOM     41  C   UNL     1       1.317   3.121 -19.555  1.00  0.00     0.009 A 
ATOM     42  C   UNL     1       3.519   1.730 -18.555  1.00  0.00     0.001 A 
ATOM     43  C   UNL     1       2.442   2.921 -20.358  1.00  0.00     0.001 A 
ATOM     44  C   UNL     1       3.544   2.231 -19.856  1.00  0.00     0.000 A 
ENDBRANCH  25  39
BRANCH  26  45
ATOM     45  C   UNL     1      -6.812   3.985 -12.565  1.00  0.00    -0.014 A 
ATOM     46  C   UNL     1      -7.234   2.988 -11.674  1.00  0.00     0.009 A 
ATOM     47  C   UNL     1      -7.532   5.188 -12.632  1.00  0.00     0.009 A 
ATOM     48  C   UNL     1      -8.367   3.185 -10.881  1.00  0.00     0.001 A 
ATOM     49  C   UNL     1      -8.646   5.394 -11.817  1.00  0.00     0.001 A 
ATOM     50  C   UNL     1      -9.067   4.389 -10.949  1.00  0.00     0.000 A 
ENDBRANCH  26  45
BRANCH  38  51
ATOM     51  C   UNL     1      -5.434  -0.034 -18.059  1.00  0.00    -0.014 A 
ATOM     52  C   UNL     1      -6.474   0.401 -18.895  1.00  0.00     0.009 A 
ATOM     53  C   UNL     1      -5.187  -1.409 -17.934  1.00  0.00     0.009 A 
ATOM     54  C   UNL     1      -7.279  -0.526 -19.559  1.00  0.00     0.001 A 
ATOM     55  C   UNL     1      -5.978  -2.332 -18.619  1.00  0.00     0.001 A 
ATOM     56  C   UNL     1      -7.029  -1.891 -19.421  1.00  0.00     0.000 A 
ENDBRANCH  38  51
ENDBRANCH  12  13
ENDBRANCH   5   7
ENDBRANCH   2   3
ENDBRANCH   1   2
BRANCH   1  57
ATOM     57  C   UNL     1       5.506   6.802  -7.984  1.00  0.00     0.023 C 
BRANCH  57  58
ATOM     58  C   UNL     1       4.953   6.572  -6.582  1.00  0.00     0.116 C 
BRANCH  58  59
ATOM     59  N   UNL     1       4.566   5.199  -6.314  1.00  0.00    -0.354 N 
ATOM     60  C   UNL     1       4.877   4.424  -5.224  1.00  0.00     0.247 C 
ATOM     61  H   UNL     1       4.010   4.767  -7.002  1.00  0.00     0.163 HD
ATOM     62  O   UNL     1       4.182   3.428  -5.012  1.00  0.00    -0.272 OA
BRANCH  60  63
ATOM     63  C   UNL     1       6.072   4.837  -4.314  1.00  0.00     0.202 C 
BRANCH  63  64
ATOM     64  C   UNL     1       5.557   5.832  -3.276  1.00  0.00    -0.016 A 
ATOM     65  C   UNL     1       6.010   7.159  -3.247  1.00  0.00     0.006 A 
ATOM     66  C   UNL     1       4.560   5.440  -2.364  1.00  0.00     0.006 A 
ATOM     67  C   UNL     1       5.429   8.086  -2.379  1.00  0.00     0.000 A 
ATOM     68  C   UNL     1       3.995   6.364  -1.486  1.00  0.00     0.000 A 
ATOM     69  C   UNL     1       4.418   7.690  -1.506  1.00  0.00     0.000 A 
ENDBRANCH  63  64
BRANCH  63  70
ATOM     70  N   UNL     1       6.761   3.746  -3.618  1.00  0.00    -0.336 N 
ATOM     71  C   UNL     1       7.278   2.567  -4.082  1.00  0.00     0.253 C 
ATOM     72  H   UNL     1       6.870   3.885  -2.650  1.00  0.00     0.165 HD
ATOM     73  O   UNL     1       8.077   1.934  -3.398  1.00  0.00    -0.269 OA
BRANCH  71  74
ATOM     74  C   UNL     1       6.798   1.968  -5.334  1.00  0.00     0.058 A 
ATOM     75  C   UNL     1       7.002   2.529  -6.591  1.00  0.00     0.018 A 
ATOM     76  C   UNL     1       6.103   0.768  -5.244  1.00  0.00     0.126 A 
ATOM     77  C   UNL     1       6.441   1.896  -7.703  1.00  0.00     0.037 A 
ATOM     78  N   UNL     1       5.564   0.127  -6.310  1.00  0.00    -0.249 NA
ATOM     79  C   UNL     1       5.727   0.716  -7.513  1.00  0.00     0.106 A 
ATOM     80  Br  UNL     1       4.922  -0.119  -9.013  1.00  0.00    -0.029 Br
ENDBRANCH  71  74
ENDBRANCH  63  70
ENDBRANCH  60  63
ENDBRANCH  58  59
ENDBRANCH  57  58
ENDBRANCH   1  57
TORSDOF 14
