REMARK SMILES Cc1onc(-c2ccccc2Cl)c1C(=O)N1CCCC[C@@H]1C(=O)NCCCCNC(=O)c1ccc(-c2c3nc(c(-c4ccccc4)c4ccc([nH]4)c(-c4ccccc4)c4nc(c(-c5ccccc5)c5ccc2[nH]5)C=C4)C=C3)cc1
REMARK SMILES IDX 26 1 25 2 24 3 22 4 23 5 21 7 16 8 17 9 18 10 20 11 19 12
REMARK SMILES IDX 14 13 15 14 13 15 1 16 2 17 3 18 4 19 5 20 6 21 7 22 11 23
REMARK SMILES IDX 8 24 10 25 12 26 9 27 27 28 28 29 29 30 30 31 31 33 32 34
REMARK SMILES IDX 33 35 79 36 34 37 78 38 35 39 36 40 37 41 72 42 38 43 77 44
REMARK SMILES IDX 71 45 73 46 39 47 76 48 70 49 69 50 40 52 62 53 47 54 61 55
REMARK SMILES IDX 48 56 51 57 60 58 74 59 49 60 50 61 59 63 75 64 52 65 41 66
REMARK SMILES IDX 42 67 46 68 43 69 45 70 44 71 63 72 64 73 68 74 65 75 67 76
REMARK SMILES IDX 66 77 53 78 54 79 58 80 55 81 57 82 56 83
REMARK H PARENT 24 6 29 32 73 51 51 62
REMARK Flexibility Score: inf
ROOT
ATOM      1  C   UNL     1       0.534  -4.880   3.826  1.00  0.00     0.023 C 
ENDROOT
BRANCH   1   2
ATOM      2  C   UNL     1       0.289  -3.994   2.602  1.00  0.00     0.116 C 
BRANCH   2   3
ATOM      3  N   UNL     1       0.789  -2.648   2.818  1.00  0.00    -0.354 N 
ATOM      4  C   UNL     1       1.819  -1.984   2.225  1.00  0.00     0.242 C 
ATOM      5  O   UNL     1       2.198  -0.928   2.740  1.00  0.00    -0.273 OA
ATOM      6  H   UNL     1       0.305  -2.133   3.503  1.00  0.00     0.163 HD
BRANCH   4   7
ATOM      7  C   UNL     1       2.584  -2.575   1.022  1.00  0.00     0.174 C 
ATOM      8  N   UNL     1       1.729  -3.054  -0.091  1.00  0.00    -0.326 N 
ATOM      9  C   UNL     1       2.370  -3.943  -1.060  1.00  0.00     0.120 C 
ATOM     10  C   UNL     1       3.088  -5.108  -0.410  1.00  0.00     0.022 C 
ATOM     11  C   UNL     1       3.508  -3.683   1.597  1.00  0.00     0.035 C 
ATOM     12  C   UNL     1       4.142  -4.589   0.551  1.00  0.00     0.004 C 
BRANCH   8  13
ATOM     13  C   UNL     1       0.514  -2.497  -0.533  1.00  0.00     0.260 C 
ATOM     14  O   UNL     1      -0.244  -3.191  -1.213  1.00  0.00    -0.269 OA
BRANCH  13  15
ATOM     15  C   UNL     1       0.125  -1.127  -0.243  1.00  0.00     0.110 A 
ATOM     16  C   UNL     1       2.289   0.382  -0.520  1.00  0.00     0.092 C 
ATOM     17  C   UNL     1       0.880   0.031  -0.268  1.00  0.00     0.147 A 
ATOM     18  O   UNL     1       0.071   1.105  -0.066  1.00  0.00    -0.360 OA
ATOM     19  N   UNL     1      -1.236   0.698   0.040  1.00  0.00    -0.079 NA
ATOM     20  C   UNL     1      -1.218  -0.636  -0.077  1.00  0.00     0.128 A 
BRANCH  20  21
ATOM     21  C   UNL     1      -2.467  -1.385  -0.037  1.00  0.00     0.023 A 
ATOM     22  C   UNL     1      -3.132  -1.683  -1.238  1.00  0.00     0.012 A 
ATOM     23  C   UNL     1      -3.031  -1.812   1.172  1.00  0.00     0.050 A 
ATOM     24  C   UNL     1      -4.307  -2.439  -1.230  1.00  0.00     0.001 A 
ATOM     25  C   UNL     1      -4.186  -2.602   1.174  1.00  0.00     0.021 A 
ATOM     26  Cl  UNL     1      -2.375  -1.346   2.702  1.00  0.00    -0.084 Cl
ATOM     27  C   UNL     1      -4.821  -2.919  -0.027  1.00  0.00     0.002 A 
ENDBRANCH  20  21
ENDBRANCH  13  15
ENDBRANCH   8  13
ENDBRANCH   4   7
ENDBRANCH   2   3
ENDBRANCH   1   2
BRANCH   1  28
ATOM     28  C   UNL     1      -0.233  -4.476   5.089  1.00  0.00     0.023 C 
BRANCH  28  29
ATOM     29  C   UNL     1      -1.747  -4.391   4.941  1.00  0.00     0.116 C 
BRANCH  29  30
ATOM     30  N   UNL     1      -2.362  -5.616   4.463  1.00  0.00    -0.352 N 
ATOM     31  C   UNL     1      -3.613  -6.110   4.736  1.00  0.00     0.251 C 
ATOM     32  H   UNL     1      -1.807  -6.165   3.864  1.00  0.00     0.163 HD
ATOM     33  O   UNL     1      -3.953  -7.201   4.286  1.00  0.00    -0.269 OA
BRANCH  31  34
ATOM     34  C   UNL     1      -4.536  -5.357   5.613  1.00  0.00     0.039 A 
ATOM     35  C   UNL     1      -5.187  -6.055   6.634  1.00  0.00     0.014 A 
ATOM     36  C   UNL     1      -4.761  -3.987   5.448  1.00  0.00     0.014 A 
ATOM     37  C   UNL     1      -6.012  -5.369   7.525  1.00  0.00     0.010 A 
ATOM     38  C   UNL     1      -5.539  -3.292   6.374  1.00  0.00     0.010 A 
ATOM     39  C   UNL     1      -6.169  -3.976   7.423  1.00  0.00    -0.014 A 
BRANCH  39  40
ATOM     40  C   UNL     1      -6.964  -3.241   8.438  1.00  0.00     0.031 A 
ATOM     41  C   UNL     1      -8.266  -2.587   8.074  1.00  0.00     0.074 A 
ATOM     42  C   UNL     1      -6.499  -3.156   9.700  1.00  0.00     0.049 A 
ATOM     43  N   UNL     1      -9.124  -1.973   8.851  1.00  0.00    -0.248 NA
ATOM     44  C   UNL     1      -8.650  -2.610   6.654  1.00  0.00     0.031 C 
ATOM     45  C   UNL     1      -5.224  -3.703  10.171  1.00  0.00     0.029 A 
ATOM     46  N   UNL     1      -7.052  -2.589  10.821  1.00  0.00    -0.354 N 
ATOM     47  C   UNL     1     -10.147  -1.540   8.017  1.00  0.00     0.074 A 
ATOM     48  C   UNL     1      -9.778  -1.914   6.668  1.00  0.00     0.031 C 
ATOM     49  C   UNL     1      -5.113  -3.481  11.491  1.00  0.00     0.029 A 
ATOM     50  C   UNL     1      -6.291  -2.755  11.953  1.00  0.00     0.049 A 
ATOM     51  H   UNL     1      -7.911  -2.108  10.815  1.00  0.00     0.167 HD
ATOM     52  C   UNL     1     -11.298  -0.907   8.345  1.00  0.00     0.031 A 
ATOM     53  C   UNL     1      -6.521  -2.377  13.224  1.00  0.00     0.031 A 
ATOM     54  C   UNL     1     -11.664  -0.527   9.685  1.00  0.00     0.049 A 
ATOM     55  C   UNL     1      -7.804  -1.671  13.560  1.00  0.00     0.074 A 
ATOM     56  C   UNL     1     -12.832   0.073  10.123  1.00  0.00     0.029 A 
ATOM     57  N   UNL     1     -10.862  -0.704  10.802  1.00  0.00    -0.354 N 
ATOM     58  N   UNL     1      -8.801  -1.349  12.773  1.00  0.00    -0.248 NA
ATOM     59  C   UNL     1      -7.998  -1.292  14.967  1.00  0.00     0.031 C 
ATOM     60  C   UNL     1     -12.716   0.304  11.498  1.00  0.00     0.029 A 
ATOM     61  C   UNL     1     -11.499  -0.202  11.925  1.00  0.00     0.049 A 
ATOM     62  H   UNL     1      -9.972  -1.124  10.797  1.00  0.00     0.167 HD
ATOM     63  C   UNL     1      -9.751  -0.751  13.592  1.00  0.00     0.074 A 
ATOM     64  C   UNL     1      -9.220  -0.778  14.939  1.00  0.00     0.031 C 
ATOM     65  C   UNL     1     -10.955  -0.227  13.258  1.00  0.00     0.031 A 
BRANCH  52  66
ATOM     66  C   UNL     1     -12.251  -0.581   7.228  1.00  0.00    -0.014 A 
ATOM     67  C   UNL     1     -12.974  -1.592   6.575  1.00  0.00     0.009 A 
ATOM     68  C   UNL     1     -12.460   0.754   6.852  1.00  0.00     0.009 A 
ATOM     69  C   UNL     1     -13.862  -1.275   5.545  1.00  0.00     0.001 A 
ATOM     70  C   UNL     1     -13.368   1.071   5.840  1.00  0.00     0.001 A 
ATOM     71  C   UNL     1     -14.062   0.056   5.182  1.00  0.00     0.000 A 
ENDBRANCH  52  66
BRANCH  53  72
ATOM     72  C   UNL     1      -5.527  -2.685  14.285  1.00  0.00    -0.014 A 
ATOM     73  C   UNL     1      -5.810  -3.645  15.270  1.00  0.00     0.009 A 
ATOM     74  C   UNL     1      -4.298  -2.011  14.327  1.00  0.00     0.009 A 
ATOM     75  C   UNL     1      -4.893  -3.900  16.292  1.00  0.00     0.001 A 
ATOM     76  C   UNL     1      -3.371  -2.290  15.334  1.00  0.00     0.001 A 
ATOM     77  C   UNL     1      -3.674  -3.226  16.321  1.00  0.00     0.000 A 
ENDBRANCH  53  72
BRANCH  65  78
ATOM     78  C   UNL     1     -11.786   0.338  14.375  1.00  0.00    -0.014 A 
ATOM     79  C   UNL     1     -11.431   1.536  15.014  1.00  0.00     0.009 A 
ATOM     80  C   UNL     1     -12.950  -0.332  14.784  1.00  0.00     0.009 A 
ATOM     81  C   UNL     1     -12.202   2.030  16.069  1.00  0.00     0.001 A 
ATOM     82  C   UNL     1     -13.736   0.180  15.818  1.00  0.00     0.001 A 
ATOM     83  C   UNL     1     -13.355   1.353  16.467  1.00  0.00     0.000 A 
ENDBRANCH  65  78
ENDBRANCH  39  40
ENDBRANCH  31  34
ENDBRANCH  29  30
ENDBRANCH  28  29
ENDBRANCH   1  28
TORSDOF 14
