REMARK SMILES C=C1C(=O)O[C@H]2[C@@H]1[C@@H](OC(=O)[C@]1(C)O[C@@H]1C)[C@@H](OC(C)=O)/C(C(=O)NCCCCNC(=O)c1ccc(-c3c4nc(c(-c5ccccc5)c5ccc([nH]5)c(-c5ccccc5)c5nc(c(-c6ccccc6)c6ccc3[nH]6)C=C5)C=C4)cc1)=C/[C@@H]1O[C@@H]1[C@]1(C)O[C@H]21
REMARK SMILES IDX 26 1 25 2 23 3 24 4 22 6 81 7 82 8 84 9 83 10 85 11 88 12
REMARK SMILES IDX 87 13 86 14 6 15 1 16 2 17 3 18 7 19 5 20 4 21 17 23 8 24
REMARK SMILES IDX 9 26 10 27 11 28 12 29 14 30 15 31 13 32 16 33 18 34 19 35
REMARK SMILES IDX 20 36 21 37 27 38 28 39 29 40 30 41 31 42 32 44 33 45 34 46
REMARK SMILES IDX 80 47 35 48 79 49 36 50 37 51 38 52 73 53 39 54 78 55 72 56
REMARK SMILES IDX 74 57 40 58 77 59 71 60 70 61 41 63 63 64 48 65 62 66 49 67
REMARK SMILES IDX 52 68 61 69 75 70 50 71 51 72 60 74 76 75 53 76 42 77 43 78
REMARK SMILES IDX 47 79 44 80 46 81 45 82 64 83 65 84 69 85 66 86 68 87 67 88
REMARK SMILES IDX 54 89 55 90 59 91 56 92 58 93 57 94
REMARK H PARENT 25 5 30 43 74 62 52 73
REMARK Flexibility Score: 90.00
ROOT
ATOM      1  C   UNL     1      -5.418  -3.335   0.753  1.00  0.00     0.116 C 
ENDROOT
BRANCH   1   2
ATOM      2  N   UNL     1      -5.489  -1.932   0.440  1.00  0.00    -0.352 N 
ATOM      3  C   UNL     1      -6.468  -1.242  -0.180  1.00  0.00     0.250 C 
ATOM      4  O   UNL     1      -6.397  -0.021  -0.253  1.00  0.00    -0.270 OA
ATOM      5  H   UNL     1      -4.710  -1.399   0.720  1.00  0.00     0.163 HD
BRANCH   3   6
ATOM      6  C   UNL     1      -7.599  -1.969  -0.787  1.00  0.00     0.060 C 
ATOM      7  C   UNL     1      -8.663  -2.367  -0.070  1.00  0.00     0.020 C 
BRANCH   7   8
ATOM      8  C   UNL     1      -9.015  -2.168   1.327  1.00  0.00     0.174 C 
ATOM      9  C   UNL     1      -9.291  -0.830   1.967  1.00  0.00     0.186 C 
ATOM     10  O   UNL     1     -10.356  -1.676   1.551  1.00  0.00    -0.362 OA
BRANCH   9  11
ATOM     11  C   UNL     1      -8.916   0.419   1.168  1.00  0.00     0.125 C 
ATOM     12  C   UNL     1      -9.105   0.996  -0.264  1.00  0.00     0.195 C 
ATOM     13  O   UNL     1     -10.048   1.218   0.793  1.00  0.00    -0.359 OA
ATOM     14  C   UNL     1      -7.873   1.203   1.957  1.00  0.00     0.048 C 
BRANCH  12  15
ATOM     15  C   UNL     1      -9.709   0.370  -1.509  1.00  0.00     0.220 C 
ATOM     16  C   UNL     1      -7.839   2.696  -2.949  1.00  0.00     0.021 C 
ATOM     17  C   UNL     1      -8.782   1.749  -3.037  1.00  0.00     0.041 C 
ATOM     18  C   UNL     1     -10.195   2.168  -2.910  1.00  0.00     0.334 C 
ATOM     19  C   UNL     1      -8.810   0.269  -2.771  1.00  0.00     0.115 CG0
ATOM     20  O   UNL     1     -10.743   1.295  -2.007  1.00  0.00    -0.455 OA
ATOM     21  O   UNL     1     -10.744   3.077  -3.498  1.00  0.00    -0.247 OA
ATOM     22  G   UNL     1      -7.541  -0.635  -2.981  1.00  0.00     0.000 G0
ENDBRANCH  12  15
ENDBRANCH   9  11
ENDBRANCH   7   8
BRANCH   6  23
ATOM     23  C   UNL     1      -7.642  -2.034  -2.286  1.00  0.00     0.253 C 
BRANCH  23  24
ATOM     24  C   UNL     1      -7.541  -0.635  -2.981  1.00  0.00     0.233 CG0
ATOM     25  G   UNL     1      -8.810   0.269  -2.771  1.00  0.00     0.000 G0
BRANCH  24  26
ATOM     26  O   UNL     1      -6.367   0.192  -2.796  1.00  0.00    -0.455 OA
BRANCH  26  27
ATOM     27  C   UNL     1      -5.064  -0.163  -2.798  1.00  0.00     0.341 C 
ATOM     28  O   UNL     1      -4.608  -1.296  -2.752  1.00  0.00    -0.249 OA
BRANCH  27  29
ATOM     29  C   UNL     1      -4.224   1.072  -2.869  1.00  0.00     0.188 C 
ATOM     30  O   UNL     1      -2.796   0.915  -2.747  1.00  0.00    -0.354 OA
ATOM     31  C   UNL     1      -3.442   1.532  -1.633  1.00  0.00     0.160 C 
ATOM     32  C   UNL     1      -4.558   2.118  -3.906  1.00  0.00     0.058 C 
ATOM     33  C   UNL     1      -3.204   0.774  -0.376  1.00  0.00     0.042 C 
ENDBRANCH  27  29
ENDBRANCH  26  27
ENDBRANCH  24  26
ENDBRANCH  23  24
BRANCH  23  34
ATOM     34  O   UNL     1      -6.661  -2.960  -2.811  1.00  0.00    -0.453 OA
BRANCH  34  35
ATOM     35  C   UNL     1      -6.716  -4.312  -2.752  1.00  0.00     0.303 C 
ATOM     36  C   UNL     1      -7.787  -4.963  -1.928  1.00  0.00     0.139 C 
ATOM     37  O   UNL     1      -5.872  -5.000  -3.321  1.00  0.00    -0.253 OA
ENDBRANCH  34  35
ENDBRANCH  23  34
ENDBRANCH   6  23
ENDBRANCH   3   6
ENDBRANCH   1   2
BRANCH   1  38
ATOM     38  C   UNL     1      -4.341  -4.070  -0.036  1.00  0.00     0.023 C 
BRANCH  38  39
ATOM     39  C   UNL     1      -2.909  -3.593   0.203  1.00  0.00     0.023 C 
BRANCH  39  40
ATOM     40  C   UNL     1      -2.541  -3.341   1.657  1.00  0.00     0.116 C 
BRANCH  40  41
ATOM     41  N   UNL     1      -2.840  -4.476   2.520  1.00  0.00    -0.352 N 
ATOM     42  C   UNL     1      -2.035  -5.133   3.413  1.00  0.00     0.251 C 
ATOM     43  H   UNL     1      -3.759  -4.823   2.451  1.00  0.00     0.163 HD
ATOM     44  O   UNL     1      -2.425  -6.160   3.958  1.00  0.00    -0.269 OA
BRANCH  42  45
ATOM     45  C   UNL     1      -0.684  -4.612   3.686  1.00  0.00     0.039 A 
ATOM     46  C   UNL     1       0.395  -5.497   3.657  1.00  0.00     0.014 A 
ATOM     47  C   UNL     1      -0.483  -3.252   3.934  1.00  0.00     0.014 A 
ATOM     48  C   UNL     1       1.689  -5.003   3.810  1.00  0.00     0.010 A 
ATOM     49  C   UNL     1       0.811  -2.751   3.996  1.00  0.00     0.010 A 
ATOM     50  C   UNL     1       1.910  -3.621   3.940  1.00  0.00    -0.014 A 
BRANCH  50  51
ATOM     51  C   UNL     1       3.283  -3.068   4.022  1.00  0.00     0.031 A 
ATOM     52  C   UNL     1       3.725  -2.333   5.257  1.00  0.00     0.074 A 
ATOM     53  C   UNL     1       4.113  -3.181   2.967  1.00  0.00     0.049 A 
ATOM     54  N   UNL     1       4.864  -1.734   5.498  1.00  0.00    -0.248 NA
ATOM     55  C   UNL     1       2.753  -2.239   6.359  1.00  0.00     0.031 C 
ATOM     56  C   UNL     1       3.792  -3.844   1.700  1.00  0.00     0.029 A 
ATOM     57  N   UNL     1       5.401  -2.740   2.792  1.00  0.00    -0.354 N 
ATOM     58  C   UNL     1       4.740  -1.189   6.770  1.00  0.00     0.074 A 
ATOM     59  C   UNL     1       3.397  -1.470   7.224  1.00  0.00     0.031 C 
ATOM     60  C   UNL     1       4.867  -3.798   0.896  1.00  0.00     0.029 A 
ATOM     61  C   UNL     1       5.932  -3.062   1.566  1.00  0.00     0.049 A 
ATOM     62  H   UNL     1       5.897  -2.241   3.480  1.00  0.00     0.167 HD
ATOM     63  C   UNL     1       5.670  -0.537   7.506  1.00  0.00     0.031 A 
ATOM     64  C   UNL     1       7.140  -2.786   1.040  1.00  0.00     0.031 A 
ATOM     65  C   UNL     1       7.006  -0.256   7.054  1.00  0.00     0.049 A 
ATOM     66  C   UNL     1       8.135  -2.011   1.861  1.00  0.00     0.074 A 
ATOM     67  C   UNL     1       8.033   0.372   7.736  1.00  0.00     0.029 A 
ATOM     68  N   UNL     1       7.499  -0.583   5.800  1.00  0.00    -0.354 N 
ATOM     69  N   UNL     1       8.023  -1.556   3.085  1.00  0.00    -0.248 NA
ATOM     70  C   UNL     1       9.428  -1.720   1.226  1.00  0.00     0.031 C 
ATOM     71  C   UNL     1       9.129   0.477   6.875  1.00  0.00     0.029 A 
ATOM     72  C   UNL     1       8.808  -0.147   5.680  1.00  0.00     0.049 A 
ATOM     73  H   UNL     1       6.993  -1.054   5.099  1.00  0.00     0.167 HD
ATOM     74  C   UNL     1       9.243  -0.959   3.380  1.00  0.00     0.074 A 
ATOM     75  C   UNL     1      10.084  -1.128   2.213  1.00  0.00     0.031 C 
ATOM     76  C   UNL     1       9.634  -0.330   4.514  1.00  0.00     0.031 A 
BRANCH  63  77
ATOM     77  C   UNL     1       5.268  -0.082   8.883  1.00  0.00    -0.014 A 
ATOM     78  C   UNL     1       5.021  -1.008   9.910  1.00  0.00     0.009 A 
ATOM     79  C   UNL     1       5.171   1.288   9.169  1.00  0.00     0.009 A 
ATOM     80  C   UNL     1       4.648  -0.572  11.183  1.00  0.00     0.001 A 
ATOM     81  C   UNL     1       4.831   1.722  10.452  1.00  0.00     0.001 A 
ATOM     82  C   UNL     1       4.560   0.792  11.454  1.00  0.00     0.000 A 
ENDBRANCH  63  77
BRANCH  64  83
ATOM     83  C   UNL     1       7.490  -3.249  -0.330  1.00  0.00    -0.014 A 
ATOM     84  C   UNL     1       8.491  -4.215  -0.522  1.00  0.00     0.009 A 
ATOM     85  C   UNL     1       6.852  -2.705  -1.456  1.00  0.00     0.009 A 
ATOM     86  C   UNL     1       8.874  -4.593  -1.810  1.00  0.00     0.001 A 
ATOM     87  C   UNL     1       7.212  -3.112  -2.742  1.00  0.00     0.001 A 
ATOM     88  C   UNL     1       8.233  -4.045  -2.919  1.00  0.00     0.000 A 
ENDBRANCH  64  83
BRANCH  76  89
ATOM     89  C   UNL     1      11.048   0.179   4.569  1.00  0.00    -0.014 A 
ATOM     90  C   UNL     1      11.466   1.274   3.798  1.00  0.00     0.009 A 
ATOM     91  C   UNL     1      11.967  -0.429   5.440  1.00  0.00     0.009 A 
ATOM     92  C   UNL     1      12.785   1.726   3.870  1.00  0.00     0.001 A 
ATOM     93  C   UNL     1      13.275   0.047   5.536  1.00  0.00     0.001 A 
ATOM     94  C   UNL     1      13.686   1.116   4.742  1.00  0.00     0.000 A 
ENDBRANCH  76  89
ENDBRANCH  50  51
ENDBRANCH  42  45
ENDBRANCH  40  41
ENDBRANCH  39  40
ENDBRANCH  38  39
ENDBRANCH   1  38
TORSDOF 16
