REMARK SMILES Cc1ccc(C(=O)NC2(CC(=O)NCCCCNC(=O)c3ccc(-c4c5nc(c(-c6ccccc6)c6ccc([nH]6)c(-c6ccccc6)c6nc(c(-c7ccccc7)c7ccc4[nH]7)C=C6)C=C5)cc3)CCC2)cc1
REMARK SMILES IDX 15 1 14 2 13 3 11 4 12 5 10 7 9 8 69 9 71 10 70 11 8 12 6 13
REMARK SMILES IDX 7 14 5 16 1 17 2 18 3 19 73 20 4 21 72 22 16 23 17 24 18 25
REMARK SMILES IDX 19 26 20 28 21 29 22 30 68 31 23 32 67 33 24 34 25 35 26 36
REMARK SMILES IDX 61 37 27 38 66 39 60 40 62 41 28 42 65 43 59 44 58 45 29 47
REMARK SMILES IDX 51 48 36 49 50 50 37 51 40 52 49 53 63 54 38 55 39 56 48 58
REMARK SMILES IDX 64 59 41 60 30 61 31 62 35 63 32 64 34 65 33 66 52 67 53 68
REMARK SMILES IDX 57 69 54 70 56 71 55 72 42 73 43 74 47 75 44 76 46 77 45 78
REMARK H PARENT 13 6 8 15 18 27 62 46 40 57
REMARK Flexibility Score: inf
ROOT
ATOM      1  C   UNL     1      -0.893   1.366   3.125  1.00  0.00     0.023 C 
ENDROOT
BRANCH   1   2
ATOM      2  C   UNL     1      -0.070   1.681   1.876  1.00  0.00     0.116 C 
BRANCH   2   3
ATOM      3  N   UNL     1      -0.345   0.623   0.578  1.00  0.00    -0.356 N 
ATOM      4  C   UNL     1      -1.202   0.643  -1.190  1.00  0.00     0.222 C 
ATOM      5  O   UNL     1      -1.043  -0.102  -2.205  1.00  0.00    -0.275 OA
ATOM      6  H   UNL     1       0.039  -0.264   0.767  1.00  0.00     0.163 HD
BRANCH   4   7
ATOM      7  C   UNL     1      -2.572   1.869  -1.679  1.00  0.00     0.128 C 
BRANCH   7   8
ATOM      8  C   UNL     1      -3.682   2.559  -0.609  1.00  0.00     0.049 C 
ATOM      9  C   UNL     1      -4.406   3.881  -1.050  1.00  0.00     0.029 C 
ATOM     10  C   UNL     1      -3.599   3.410   0.858  1.00  0.00     0.029 C 
ATOM     11  C   UNL     1      -3.625   4.681   0.039  1.00  0.00     0.005 C 
BRANCH   8  12
ATOM     12  N   UNL     1      -4.479   1.430  -0.162  1.00  0.00    -0.346 N 
ATOM     13  C   UNL     1      -3.795   0.541   0.615  1.00  0.00     0.251 C 
ATOM     14  O   UNL     1      -4.319  -0.393   1.199  1.00  0.00    -0.269 OA
ATOM     15  H   UNL     1      -5.428   1.316  -0.398  1.00  0.00     0.164 HD
BRANCH  13  16
ATOM     16  C   UNL     1      -2.301   0.710   0.513  1.00  0.00     0.039 A 
ATOM     17  C   UNL     1       2.478   0.053  -1.014  1.00  0.00     0.044 C 
ATOM     18  C   UNL     1       0.993   0.282  -0.963  1.00  0.00    -0.051 A 
ATOM     19  C   UNL     1      -0.003  -1.156  -0.520  1.00  0.00     0.004 A 
ATOM     20  C   UNL     1       0.377   1.960  -0.761  1.00  0.00     0.004 A 
ATOM     21  C   UNL     1      -1.625  -0.944   0.205  1.00  0.00     0.014 A 
ATOM     22  C   UNL     1      -1.266   2.219   0.015  1.00  0.00     0.014 A 
ENDBRANCH  13  16
ENDBRANCH   8  12
ENDBRANCH   7   8
ENDBRANCH   4   7
ENDBRANCH   2   3
ENDBRANCH   1   2
BRANCH   1  23
ATOM     23  C   UNL     1      -0.404   0.153   3.894  1.00  0.00     0.023 C 
BRANCH  23  24
ATOM     24  C   UNL     1       1.099   0.157   4.072  1.00  0.00     0.116 C 
BRANCH  24  25
ATOM     25  N   UNL     1       1.596   1.320   4.789  1.00  0.00    -0.352 N 
ATOM     26  C   UNL     1       2.852   1.566   5.301  1.00  0.00     0.251 C 
ATOM     27  H   UNL     1       0.938   2.039   4.929  1.00  0.00     0.163 HD
ATOM     28  O   UNL     1       2.968   2.408   6.189  1.00  0.00    -0.269 OA
BRANCH  26  29
ATOM     29  C   UNL     1       4.071   1.024   4.630  1.00  0.00     0.039 A 
ATOM     30  C   UNL     1       5.215   1.829   4.740  1.00  0.00     0.014 A 
ATOM     31  C   UNL     1       3.914   0.228   3.512  1.00  0.00     0.014 A 
ATOM     32  C   UNL     1       5.947   2.119   3.599  1.00  0.00     0.010 A 
ATOM     33  C   UNL     1       4.448   0.681   2.347  1.00  0.00     0.010 A 
ATOM     34  C   UNL     1       5.437   1.655   2.397  1.00  0.00    -0.014 A 
BRANCH  34  35
ATOM     35  C   UNL     1       6.006   1.880   1.095  1.00  0.00     0.031 A 
ATOM     36  C   UNL     1       7.045   0.896   0.748  1.00  0.00     0.074 A 
ATOM     37  C   UNL     1       5.352   2.757   0.297  1.00  0.00     0.049 A 
ATOM     38  N   UNL     1       7.955   1.090  -0.122  1.00  0.00    -0.248 NA
ATOM     39  C   UNL     1       7.197  -0.407   1.423  1.00  0.00     0.031 C 
ATOM     40  C   UNL     1       5.427   2.997  -1.137  1.00  0.00     0.029 A 
ATOM     41  N   UNL     1       4.548   3.807   0.752  1.00  0.00    -0.354 N 
ATOM     42  C   UNL     1       8.509  -0.142  -0.402  1.00  0.00     0.074 A 
ATOM     43  C   UNL     1       8.138  -1.003   0.683  1.00  0.00     0.031 C 
ATOM     44  C   UNL     1       5.034   4.265  -1.387  1.00  0.00     0.029 A 
ATOM     45  C   UNL     1       4.779   4.901  -0.103  1.00  0.00     0.049 A 
ATOM     46  H   UNL     1       3.937   3.785   1.523  1.00  0.00     0.167 HD
ATOM     47  C   UNL     1       9.052  -0.312  -1.634  1.00  0.00     0.031 A 
ATOM     48  C   UNL     1       5.467   5.974   0.396  1.00  0.00     0.031 A 
ATOM     49  C   UNL     1       8.910   0.933  -2.383  1.00  0.00     0.049 A 
ATOM     50  C   UNL     1       6.871   6.009  -0.177  1.00  0.00     0.074 A 
ATOM     51  C   UNL     1       7.936   1.381  -3.259  1.00  0.00     0.029 A 
ATOM     52  N   UNL     1       9.545   2.057  -1.883  1.00  0.00    -0.354 N 
ATOM     53  N   UNL     1       7.524   4.955  -0.598  1.00  0.00    -0.248 NA
ATOM     54  C   UNL     1       7.584   7.253  -0.444  1.00  0.00     0.031 C 
ATOM     55  C   UNL     1       7.963   2.806  -3.232  1.00  0.00     0.029 A 
ATOM     56  C   UNL     1       8.944   3.211  -2.341  1.00  0.00     0.049 A 
ATOM     57  H   UNL     1      10.323   2.036  -1.280  1.00  0.00     0.167 HD
ATOM     58  C   UNL     1       8.654   5.354  -1.266  1.00  0.00     0.074 A 
ATOM     59  C   UNL     1       8.652   6.801  -1.123  1.00  0.00     0.031 C 
ATOM     60  C   UNL     1       9.489   4.499  -1.933  1.00  0.00     0.031 A 
BRANCH  47  61
ATOM     61  C   UNL     1       9.476  -1.603  -2.269  1.00  0.00    -0.014 A 
ATOM     62  C   UNL     1       9.588  -1.638  -3.673  1.00  0.00     0.009 A 
ATOM     63  C   UNL     1       9.800  -2.787  -1.586  1.00  0.00     0.009 A 
ATOM     64  C   UNL     1       9.993  -2.782  -4.364  1.00  0.00     0.001 A 
ATOM     65  C   UNL     1      10.199  -3.944  -2.277  1.00  0.00     0.001 A 
ATOM     66  C   UNL     1      10.300  -3.939  -3.665  1.00  0.00     0.000 A 
ENDBRANCH  47  61
BRANCH  48  67
ATOM     67  C   UNL     1       5.035   6.269   1.807  1.00  0.00    -0.014 A 
ATOM     68  C   UNL     1       3.672   6.621   1.972  1.00  0.00     0.009 A 
ATOM     69  C   UNL     1       5.699   5.687   2.895  1.00  0.00     0.009 A 
ATOM     70  C   UNL     1       2.938   6.155   3.070  1.00  0.00     0.001 A 
ATOM     71  C   UNL     1       4.963   5.274   4.018  1.00  0.00     0.001 A 
ATOM     72  C   UNL     1       3.578   5.433   4.068  1.00  0.00     0.000 A 
ENDBRANCH  48  67
BRANCH  60  73
ATOM     73  C   UNL     1      10.930   4.788  -2.312  1.00  0.00    -0.014 A 
ATOM     74  C   UNL     1      11.636   5.929  -1.925  1.00  0.00     0.009 A 
ATOM     75  C   UNL     1      11.688   3.794  -2.983  1.00  0.00     0.009 A 
ATOM     76  C   UNL     1      12.990   6.095  -2.238  1.00  0.00     0.001 A 
ATOM     77  C   UNL     1      13.057   3.912  -3.215  1.00  0.00     0.001 A 
ATOM     78  C   UNL     1      13.704   5.081  -2.864  1.00  0.00     0.000 A 
ENDBRANCH  60  73
ENDBRANCH  34  35
ENDBRANCH  26  29
ENDBRANCH  24  25
ENDBRANCH  23  24
ENDBRANCH   1  23
TORSDOF 14
