REMARK SMILES CCc1cc(C(=O)c2[nH]c3cc(Cl)ccc3c2CC(=O)NCCCCNC(=O)c2ccc(-c3c4nc(c(-c5ccccc5)c5ccc([nH]5)c(-c5ccccc5)c5nc(c(-c6ccccc6)c6ccc3[nH]6)C=C5)C=C4)cc2)ncc1Cl
REMARK SMILES IDX 22 1 21 2 19 3 20 4 18 6 17 7 8 8 9 9 10 10 16 12 11 13
REMARK SMILES IDX 15 14 12 15 14 16 13 17 6 18 7 19 5 20 3 21 4 22 79 23 78 24
REMARK SMILES IDX 80 25 77 26 2 27 1 28 23 29 24 30 25 31 26 32 27 33 28 35
REMARK SMILES IDX 29 36 30 37 76 38 31 39 75 40 32 41 33 42 34 43 69 44 35 45
REMARK SMILES IDX 74 46 68 47 70 48 36 49 73 50 67 51 66 52 37 54 59 55 44 56
REMARK SMILES IDX 58 57 45 58 48 59 57 60 71 61 46 62 47 63 56 65 72 66 49 67
REMARK SMILES IDX 38 68 39 69 43 70 40 71 42 72 41 73 60 74 61 75 65 76 62 77
REMARK SMILES IDX 64 78 63 79 50 80 51 81 55 82 52 83 54 84 53 85
REMARK H PARENT 21 5 9 11 26 34 70 53 48 64
REMARK Flexibility Score: inf
ROOT
ATOM      1  C   UNL     1       3.214   5.617  -8.316  1.00  0.00     0.116 C 
ENDROOT
BRANCH   1   2
ATOM      2  N   UNL     1       2.604   4.348  -8.658  1.00  0.00    -0.356 N 
ATOM      3  C   UNL     1       1.585   3.682  -8.038  1.00  0.00     0.224 C 
ATOM      4  O   UNL     1       1.135   2.670  -8.582  1.00  0.00    -0.275 OA
ATOM      5  H   UNL     1       2.979   3.901  -9.451  1.00  0.00     0.163 HD
BRANCH   3   6
ATOM      6  C   UNL     1       0.952   4.229  -6.769  1.00  0.00     0.138 C 
BRANCH   6   7
ATOM      7  C   UNL     1       1.864   4.266  -5.575  1.00  0.00    -0.002 A 
ATOM      8  C   UNL     1       2.542   3.198  -4.994  1.00  0.00     0.093 A 
ATOM      9  N   UNL     1       3.335   3.708  -3.993  1.00  0.00    -0.351 N 
ATOM     10  C   UNL     1       3.115   5.053  -3.836  1.00  0.00     0.048 A 
ATOM     11  H   UNL     1       3.974   3.180  -3.462  1.00  0.00     0.167 HD
ATOM     12  C   UNL     1       2.186   5.433  -4.802  1.00  0.00     0.004 A 
ATOM     13  C   UNL     1       3.687   5.957  -2.931  1.00  0.00     0.047 A 
ATOM     14  C   UNL     1       1.796   6.789  -4.860  1.00  0.00     0.012 A 
ATOM     15  C   UNL     1       3.286   7.293  -3.019  1.00  0.00     0.043 A 
ATOM     16  C   UNL     1       2.354   7.709  -3.964  1.00  0.00     0.021 A 
ATOM     17  Cl  UNL     1       3.967   8.446  -1.935  1.00  0.00    -0.084 Cl
BRANCH   8  18
ATOM     18  C   UNL     1       2.570   1.797  -5.376  1.00  0.00     0.227 C 
ATOM     19  O   UNL     1       3.216   1.425  -6.349  1.00  0.00    -0.285 OA
BRANCH  18  20
ATOM     20  C   UNL     1       1.846   0.799  -4.501  1.00  0.00     0.113 A 
ATOM     21  C   UNL     1       0.604   0.189  -2.507  1.00  0.00    -0.026 A 
ATOM     22  C   UNL     1       1.208   1.171  -3.315  1.00  0.00     0.037 A 
ATOM     23  C   UNL     1       0.643  -1.139  -2.944  1.00  0.00     0.062 A 
ATOM     24  C   UNL     1       1.285  -1.420  -4.142  1.00  0.00     0.132 A 
ATOM     25  Cl  UNL     1      -0.062  -2.434  -2.055  1.00  0.00    -0.082 Cl
ATOM     26  N   UNL     1       1.894  -0.492  -4.917  1.00  0.00    -0.251 NA
BRANCH  21  27
ATOM     27  C   UNL     1      -0.011   0.604  -1.190  1.00  0.00     0.034 C 
ATOM     28  C   UNL     1       0.961   0.425  -0.031  1.00  0.00     0.009 C 
ENDBRANCH  21  27
ENDBRANCH  18  20
ENDBRANCH   8  18
ENDBRANCH   6   7
ENDBRANCH   3   6
ENDBRANCH   1   2
BRANCH   1  29
ATOM     29  C   UNL     1       4.530   5.465  -7.556  1.00  0.00     0.023 C 
BRANCH  29  30
ATOM     30  C   UNL     1       5.678   4.828  -8.343  1.00  0.00     0.023 C 
BRANCH  30  31
ATOM     31  C   UNL     1       6.085   5.544  -9.627  1.00  0.00     0.116 C 
BRANCH  31  32
ATOM     32  N   UNL     1       6.475   6.929  -9.414  1.00  0.00    -0.352 N 
ATOM     33  C   UNL     1       7.456   7.661 -10.038  1.00  0.00     0.251 C 
ATOM     34  H   UNL     1       5.964   7.410  -8.723  1.00  0.00     0.163 HD
ATOM     35  O   UNL     1       7.707   8.801  -9.662  1.00  0.00    -0.269 OA
BRANCH  33  36
ATOM     36  C   UNL     1       8.241   7.063 -11.139  1.00  0.00     0.039 A 
ATOM     37  C   UNL     1       9.636   7.159 -11.091  1.00  0.00     0.014 A 
ATOM     38  C   UNL     1       7.617   6.415 -12.209  1.00  0.00     0.014 A 
ATOM     39  C   UNL     1      10.410   6.534 -12.070  1.00  0.00     0.010 A 
ATOM     40  C   UNL     1       8.390   5.768 -13.171  1.00  0.00     0.010 A 
ATOM     41  C   UNL     1       9.791   5.805 -13.096  1.00  0.00    -0.014 A 
BRANCH  41  42
ATOM     42  C   UNL     1      10.587   5.022 -14.068  1.00  0.00     0.031 A 
ATOM     43  C   UNL     1      10.718   5.476 -15.490  1.00  0.00     0.074 A 
ATOM     44  C   UNL     1      11.127   3.852 -13.681  1.00  0.00     0.049 A 
ATOM     45  N   UNL     1      11.241   4.842 -16.509  1.00  0.00    -0.248 NA
ATOM     46  C   UNL     1      10.183   6.807 -15.810  1.00  0.00     0.031 C 
ATOM     47  C   UNL     1      11.061   3.291 -12.330  1.00  0.00     0.029 A 
ATOM     48  N   UNL     1      11.822   2.913 -14.400  1.00  0.00    -0.354 N 
ATOM     49  C   UNL     1      11.075   5.685 -17.598  1.00  0.00     0.074 A 
ATOM     50  C   UNL     1      10.408   6.877 -17.116  1.00  0.00     0.031 C 
ATOM     51  C   UNL     1      11.690   2.105 -12.318  1.00  0.00     0.029 A 
ATOM     52  C   UNL     1      12.173   1.810 -13.663  1.00  0.00     0.049 A 
ATOM     53  H   UNL     1      12.047   3.020 -15.352  1.00  0.00     0.167 HD
ATOM     54  C   UNL     1      11.443   5.483 -18.886  1.00  0.00     0.031 A 
ATOM     55  C   UNL     1      12.793   0.676 -14.033  1.00  0.00     0.031 A 
ATOM     56  C   UNL     1      12.122   4.313 -19.372  1.00  0.00     0.049 A 
ATOM     57  C   UNL     1      13.185   0.474 -15.465  1.00  0.00     0.074 A 
ATOM     58  C   UNL     1      12.556   4.038 -20.658  1.00  0.00     0.029 A 
ATOM     59  N   UNL     1      12.469   3.224 -18.590  1.00  0.00    -0.354 N 
ATOM     60  N   UNL     1      13.013   1.277 -16.485  1.00  0.00    -0.248 NA
ATOM     61  C   UNL     1      13.844  -0.797 -15.796  1.00  0.00     0.031 C 
ATOM     62  C   UNL     1      13.158   2.773 -20.655  1.00  0.00     0.029 A 
ATOM     63  C   UNL     1      13.105   2.271 -19.365  1.00  0.00     0.049 A 
ATOM     64  H   UNL     1      12.290   3.141 -17.625  1.00  0.00     0.167 HD
ATOM     65  C   UNL     1      13.539   0.609 -17.581  1.00  0.00     0.074 A 
ATOM     66  C   UNL     1      14.044  -0.661 -17.101  1.00  0.00     0.031 C 
ATOM     67  C   UNL     1      13.594   1.012 -18.872  1.00  0.00     0.031 A 
BRANCH  54  68
ATOM     68  C   UNL     1      11.095   6.560 -19.865  1.00  0.00    -0.014 A 
ATOM     69  C   UNL     1      11.929   7.675 -20.030  1.00  0.00     0.009 A 
ATOM     70  C   UNL     1       9.933   6.448 -20.643  1.00  0.00     0.009 A 
ATOM     71  C   UNL     1      11.594   8.672 -20.947  1.00  0.00     0.001 A 
ATOM     72  C   UNL     1       9.605   7.444 -21.564  1.00  0.00     0.001 A 
ATOM     73  C   UNL     1      10.433   8.556 -21.713  1.00  0.00     0.000 A 
ENDBRANCH  54  68
BRANCH  55  74
ATOM     74  C   UNL     1      13.055  -0.377 -13.026  1.00  0.00    -0.014 A 
ATOM     75  C   UNL     1      14.305  -0.455 -12.397  1.00  0.00     0.009 A 
ATOM     76  C   UNL     1      12.053  -1.297 -12.684  1.00  0.00     0.009 A 
ATOM     77  C   UNL     1      14.551  -1.446 -11.446  1.00  0.00     0.001 A 
ATOM     78  C   UNL     1      12.301  -2.281 -11.727  1.00  0.00     0.001 A 
ATOM     79  C   UNL     1      13.550  -2.357 -11.111  1.00  0.00     0.000 A 
ENDBRANCH  55  74
BRANCH  67  80
ATOM     80  C   UNL     1      14.223   0.066 -19.846  1.00  0.00    -0.014 A 
ATOM     81  C   UNL     1      13.461  -0.946 -20.447  1.00  0.00     0.009 A 
ATOM     82  C   UNL     1      15.580   0.195 -20.177  1.00  0.00     0.009 A 
ATOM     83  C   UNL     1      14.053  -1.827 -21.353  1.00  0.00     0.001 A 
ATOM     84  C   UNL     1      16.167  -0.684 -21.087  1.00  0.00     0.001 A 
ATOM     85  C   UNL     1      15.405  -1.695 -21.672  1.00  0.00     0.000 A 
ENDBRANCH  67  80
ENDBRANCH  41  42
ENDBRANCH  33  36
ENDBRANCH  31  32
ENDBRANCH  30  31
ENDBRANCH  29  30
ENDBRANCH   1  29
TORSDOF 15
