REMARK SMILES Cc1ccccc1C(=O)Nc1ccc(OCC(=O)NCCCCNC(=O)c2ccc(-c3c4nc(c(-c5ccccc5)c5ccc([nH]5)c(-c5ccccc5)c5nc(c(-c6ccccc6)c6ccc3[nH]6)C=C5)C=C4)cc2)c(-c2nc3ccccc3s2)c1
REMARK SMILES IDX 20 1 19 2 17 3 18 4 16 6 15 7 14 8 11 9 12 10 85 11 13 12
REMARK SMILES IDX 75 13 10 14 8 15 9 16 7 18 1 19 2 20 3 21 4 22 6 23 5 24
REMARK SMILES IDX 76 25 77 26 84 27 78 28 83 29 79 30 82 31 80 32 81 33 21 34
REMARK SMILES IDX 22 35 23 36 24 37 25 38 26 40 27 41 28 42 74 43 29 44 73 45
REMARK SMILES IDX 30 46 31 47 32 48 67 49 33 50 72 51 66 52 68 53 34 54 71 55
REMARK SMILES IDX 65 56 64 57 35 59 57 60 42 61 56 62 43 63 46 64 55 65 69 66
REMARK SMILES IDX 44 67 45 68 54 70 70 71 47 72 36 73 37 74 41 75 38 76 40 77
REMARK SMILES IDX 39 78 58 79 59 80 63 81 60 82 62 83 61 84 48 85 49 86 53 87
REMARK SMILES IDX 50 88 52 89 51 90
REMARK H PARENT 19 5 10 17 24 39 68 58 46 69
REMARK Flexibility Score: inf
ROOT
ATOM      1  C   UNL     1       4.758  -4.258   2.353  1.00  0.00     0.116 C 
ENDROOT
BRANCH   1   2
ATOM      2  N   UNL     1       3.861  -4.273   1.215  1.00  0.00    -0.353 N 
ATOM      3  C   UNL     1       4.001  -3.710  -0.020  1.00  0.00     0.257 C 
ATOM      4  O   UNL     1       2.977  -3.631  -0.698  1.00  0.00    -0.271 OA
ATOM      5  H   UNL     1       3.021  -4.766   1.355  1.00  0.00     0.163 HD
BRANCH   3   6
ATOM      6  C   UNL     1       5.405  -3.277  -0.521  1.00  0.00     0.329 C 
BRANCH   6   7
ATOM      7  O   UNL     1       5.644  -2.193  -1.415  1.00  0.00    -0.483 OA
BRANCH   7   8
ATOM      8  C   UNL     1       4.886  -1.083  -1.172  1.00  0.00     0.130 A 
ATOM      9  C   UNL     1       3.380   1.175  -0.512  1.00  0.00     0.042 A 
ATOM     10  C   UNL     1       4.607   0.955   0.114  1.00  0.00     0.030 A 
ATOM     11  C   UNL     1       2.988   0.346  -1.565  1.00  0.00     0.041 A 
ATOM     12  C   UNL     1       5.339  -0.195  -0.187  1.00  0.00     0.049 A 
ATOM     13  C   UNL     1       3.755  -0.777  -1.952  1.00  0.00     0.055 A 
BRANCH   9  14
ATOM     14  N   UNL     1       2.570   2.203  -0.007  1.00  0.00    -0.322 N 
ATOM     15  C   UNL     1       1.199   2.278   0.145  1.00  0.00     0.255 C 
ATOM     16  O   UNL     1       0.701   3.365   0.446  1.00  0.00    -0.269 OA
ATOM     17  H   UNL     1       3.061   3.003   0.289  1.00  0.00     0.170 HD
BRANCH  15  18
ATOM     18  C   UNL     1       0.300   1.087   0.058  1.00  0.00     0.043 A 
ATOM     19  C   UNL     1       1.738  -0.478   1.508  1.00  0.00     0.045 C 
ATOM     20  C   UNL     1       0.567  -0.174   0.625  1.00  0.00    -0.038 A 
ATOM     21  C   UNL     1      -0.349  -1.225   0.423  1.00  0.00     0.004 A 
ATOM     22  C   UNL     1      -1.573  -1.000  -0.201  1.00  0.00     0.000 A 
ATOM     23  C   UNL     1      -0.959   1.308  -0.530  1.00  0.00     0.014 A 
ATOM     24  C   UNL     1      -1.894   0.277  -0.644  1.00  0.00     0.001 A 
ENDBRANCH  15  18
ENDBRANCH   9  14
BRANCH  13  25
ATOM     25  C   UNL     1       3.257  -1.565  -3.106  1.00  0.00     0.128 A 
ATOM     26  N   UNL     1       2.224  -1.190  -3.841  1.00  0.00    -0.236 NA
ATOM     27  S   UNL     1       3.949  -3.058  -3.624  1.00  0.00    -0.114 S 
ATOM     28  C   UNL     1       1.773  -2.251  -4.604  1.00  0.00     0.082 A 
ATOM     29  C   UNL     1       2.534  -3.413  -4.513  1.00  0.00     0.055 A 
ATOM     30  C   UNL     1       0.615  -2.264  -5.401  1.00  0.00     0.030 A 
ATOM     31  C   UNL     1       2.133  -4.622  -5.098  1.00  0.00     0.021 A 
ATOM     32  C   UNL     1       0.206  -3.459  -6.002  1.00  0.00     0.002 A 
ATOM     33  C   UNL     1       0.943  -4.628  -5.828  1.00  0.00     0.002 A 
ENDBRANCH  13  25
ENDBRANCH   7   8
ENDBRANCH   6   7
ENDBRANCH   3   6
ENDBRANCH   1   2
BRANCH   1  34
ATOM     34  C   UNL     1       4.497  -3.039   3.246  1.00  0.00     0.023 C 
BRANCH  34  35
ATOM     35  C   UNL     1       3.048  -2.893   3.724  1.00  0.00     0.023 C 
BRANCH  35  36
ATOM     36  C   UNL     1       2.511  -4.043   4.556  1.00  0.00     0.116 C 
BRANCH  36  37
ATOM     37  N   UNL     1       2.894  -4.029   5.955  1.00  0.00    -0.352 N 
ATOM     38  C   UNL     1       2.755  -5.030   6.909  1.00  0.00     0.251 C 
ATOM     39  H   UNL     1       3.310  -3.195   6.272  1.00  0.00     0.163 HD
ATOM     40  O   UNL     1       3.088  -4.830   8.056  1.00  0.00    -0.269 OA
BRANCH  38  41
ATOM     41  C   UNL     1       2.330  -6.392   6.475  1.00  0.00     0.039 A 
ATOM     42  C   UNL     1       3.048  -7.482   6.979  1.00  0.00     0.014 A 
ATOM     43  C   UNL     1       1.405  -6.584   5.452  1.00  0.00     0.014 A 
ATOM     44  C   UNL     1       3.042  -8.685   6.275  1.00  0.00     0.010 A 
ATOM     45  C   UNL     1       1.469  -7.738   4.697  1.00  0.00     0.010 A 
ATOM     46  C   UNL     1       2.344  -8.757   5.068  1.00  0.00    -0.014 A 
BRANCH  46  47
ATOM     47  C   UNL     1       2.531  -9.840   4.114  1.00  0.00     0.031 A 
ATOM     48  C   UNL     1       1.605 -10.990   4.140  1.00  0.00     0.074 A 
ATOM     49  C   UNL     1       3.560  -9.820   3.233  1.00  0.00     0.049 A 
ATOM     50  N   UNL     1       1.971 -12.214   3.954  1.00  0.00    -0.248 NA
ATOM     51  C   UNL     1       0.176 -10.842   4.412  1.00  0.00     0.031 C 
ATOM     52  C   UNL     1       3.823 -10.805   2.184  1.00  0.00     0.029 A 
ATOM     53  N   UNL     1       4.709  -9.024   3.222  1.00  0.00    -0.354 N 
ATOM     54  C   UNL     1       0.823 -12.951   3.780  1.00  0.00     0.074 A 
ATOM     55  C   UNL     1      -0.264 -12.082   4.171  1.00  0.00     0.031 C 
ATOM     56  C   UNL     1       5.134 -10.775   1.893  1.00  0.00     0.029 A 
ATOM     57  C   UNL     1       5.762  -9.868   2.840  1.00  0.00     0.049 A 
ATOM     58  H   UNL     1       4.767  -8.065   3.437  1.00  0.00     0.167 HD
ATOM     59  C   UNL     1       0.870 -14.161   3.160  1.00  0.00     0.031 A 
ATOM     60  C   UNL     1       6.830 -10.178   3.633  1.00  0.00     0.031 A 
ATOM     61  C   UNL     1       2.215 -14.503   2.720  1.00  0.00     0.049 A 
ATOM     62  C   UNL     1       6.989 -11.671   3.866  1.00  0.00     0.074 A 
ATOM     63  C   UNL     1       2.850 -14.389   1.493  1.00  0.00     0.029 A 
ATOM     64  N   UNL     1       3.212 -14.726   3.661  1.00  0.00    -0.354 N 
ATOM     65  N   UNL     1       6.040 -12.540   3.651  1.00  0.00    -0.248 NA
ATOM     66  C   UNL     1       8.197 -12.300   4.401  1.00  0.00     0.031 C 
ATOM     67  C   UNL     1       4.247 -14.481   1.711  1.00  0.00     0.029 A 
ATOM     68  C   UNL     1       4.457 -14.682   3.064  1.00  0.00     0.049 A 
ATOM     69  H   UNL     1       3.053 -14.892   4.618  1.00  0.00     0.167 HD
ATOM     70  C   UNL     1       6.473 -13.798   3.983  1.00  0.00     0.074 A 
ATOM     71  C   UNL     1       7.834 -13.596   4.444  1.00  0.00     0.031 C 
ATOM     72  C   UNL     1       5.665 -14.893   3.850  1.00  0.00     0.031 A 
BRANCH  59  73
ATOM     73  C   UNL     1      -0.382 -14.838   2.672  1.00  0.00    -0.014 A 
ATOM     74  C   UNL     1      -0.404 -15.451   1.407  1.00  0.00     0.009 A 
ATOM     75  C   UNL     1      -1.582 -14.855   3.403  1.00  0.00     0.009 A 
ATOM     76  C   UNL     1      -1.584 -15.965   0.858  1.00  0.00     0.001 A 
ATOM     77  C   UNL     1      -2.774 -15.335   2.844  1.00  0.00     0.001 A 
ATOM     78  C   UNL     1      -2.777 -15.880   1.565  1.00  0.00     0.000 A 
ENDBRANCH  59  73
BRANCH  60  79
ATOM     79  C   UNL     1       7.192  -9.126   4.619  1.00  0.00    -0.014 A 
ATOM     80  C   UNL     1       7.750  -7.925   4.137  1.00  0.00     0.009 A 
ATOM     81  C   UNL     1       6.661  -9.144   5.915  1.00  0.00     0.009 A 
ATOM     82  C   UNL     1       7.658  -6.744   4.880  1.00  0.00     0.001 A 
ATOM     83  C   UNL     1       6.580  -7.960   6.659  1.00  0.00     0.001 A 
ATOM     84  C   UNL     1       7.038  -6.756   6.126  1.00  0.00     0.000 A 
ENDBRANCH  60  79
BRANCH  72  85
ATOM     85  C   UNL     1       5.937 -16.291   4.358  1.00  0.00    -0.014 A 
ATOM     86  C   UNL     1       6.860 -16.612   5.360  1.00  0.00     0.009 A 
ATOM     87  C   UNL     1       5.125 -17.353   3.890  1.00  0.00     0.009 A 
ATOM     88  C   UNL     1       6.992 -17.925   5.838  1.00  0.00     0.001 A 
ATOM     89  C   UNL     1       5.220 -18.651   4.395  1.00  0.00     0.001 A 
ATOM     90  C   UNL     1       6.166 -18.940   5.365  1.00  0.00     0.000 A 
ENDBRANCH  72  85
ENDBRANCH  46  47
ENDBRANCH  38  41
ENDBRANCH  36  37
ENDBRANCH  35  36
ENDBRANCH  34  35
ENDBRANCH   1  34
TORSDOF 16
