REMARK SMILES Cc1ccc(N2C(=O)C[C@H](Sc3ccccc3C(=O)NCCCCNC(=O)c3ccc(-c4c5nc(c(-c6ccccc6)c6ccc([nH]6)c(-c6ccccc6)c6nc(c(-c7ccccc7)c7ccc4[nH]7)C=C6)C=C5)cc3)C2=O)cc1
REMARK SMILES IDX 22 1 21 2 20 3 18 4 19 5 17 7 12 8 13 9 14 10 16 11 15 12
REMARK SMILES IDX 11 13 10 14 6 15 7 16 76 17 8 18 9 19 77 20 5 21 1 22 2 23
REMARK SMILES IDX 3 24 79 25 4 26 78 27 23 28 24 29 25 30 26 31 27 33 28 34
REMARK SMILES IDX 29 35 75 36 30 37 74 38 31 39 32 40 33 41 68 42 34 43 73 44
REMARK SMILES IDX 67 45 69 46 35 47 72 48 66 49 65 50 36 52 58 53 43 54 57 55
REMARK SMILES IDX 44 56 47 57 56 58 70 59 45 60 46 61 55 63 71 64 48 65 37 66
REMARK SMILES IDX 38 67 42 68 39 69 41 70 40 71 59 72 60 73 64 74 61 75 63 76
REMARK SMILES IDX 62 77 49 78 50 79 54 80 51 81 53 82 52 83
REMARK H PARENT 20 6 25 32 69 51 47 62
REMARK Flexibility Score: inf
ROOT
ATOM      1  C   UNL     1      -3.960   4.986  -1.663  1.00  0.00     0.023 C 
ENDROOT
BRANCH   1   2
ATOM      2  C   UNL     1      -5.232   5.269  -0.863  1.00  0.00     0.116 C 
BRANCH   2   3
ATOM      3  N   UNL     1      -6.230   4.205  -0.859  1.00  0.00    -0.352 N 
ATOM      4  C   UNL     1      -6.688   3.322   0.098  1.00  0.00     0.252 C 
ATOM      5  O   UNL     1      -7.664   2.635  -0.196  1.00  0.00    -0.269 OA
ATOM      6  H   UNL     1      -6.675   4.092  -1.730  1.00  0.00     0.163 HD
BRANCH   4   7
ATOM      7  C   UNL     1      -6.022   3.154   1.420  1.00  0.00     0.053 A 
ATOM      8  C   UNL     1      -5.785   1.885   2.004  1.00  0.00     0.021 A 
ATOM      9  C   UNL     1      -5.096   1.825   3.232  1.00  0.00     0.016 A 
ATOM     10  C   UNL     1      -4.695   2.985   3.897  1.00  0.00     0.001 A 
ATOM     11  C   UNL     1      -5.705   4.306   2.158  1.00  0.00     0.015 A 
ATOM     12  C   UNL     1      -5.027   4.227   3.373  1.00  0.00     0.001 A 
BRANCH   8  13
ATOM     13  S   UNL     1      -6.580   0.340   1.531  1.00  0.00    -0.111 SA
BRANCH  13  14
ATOM     14  C   UNL     1      -5.458  -0.464   0.347  1.00  0.00     0.151 C 
ATOM     15  N   UNL     1      -3.221   0.103   0.005  1.00  0.00    -0.250 N 
ATOM     16  C   UNL     1      -3.928   0.760  -0.977  1.00  0.00     0.235 C 
ATOM     17  C   UNL     1      -4.045  -0.623   0.838  1.00  0.00     0.247 C 
ATOM     18  O   UNL     1      -3.522   1.549  -1.820  1.00  0.00    -0.274 OA
ATOM     19  C   UNL     1      -5.330   0.237  -0.983  1.00  0.00     0.126 C 
ATOM     20  O   UNL     1      -3.735  -1.271   1.830  1.00  0.00    -0.273 OA
BRANCH  15  21
ATOM     21  C   UNL     1      -1.806   0.114   0.094  1.00  0.00     0.052 A 
ATOM     22  C   UNL     1       2.519   0.007   0.029  1.00  0.00     0.044 C 
ATOM     23  C   UNL     1       1.022   0.061   0.092  1.00  0.00    -0.051 A 
ATOM     24  C   UNL     1       0.290  -1.080   0.434  1.00  0.00     0.005 A 
ATOM     25  C   UNL     1       0.332   1.228  -0.247  1.00  0.00     0.005 A 
ATOM     26  C   UNL     1      -1.108  -1.046   0.459  1.00  0.00     0.027 A 
ATOM     27  C   UNL     1      -1.066   1.250  -0.258  1.00  0.00     0.027 A 
ENDBRANCH  15  21
ENDBRANCH  13  14
ENDBRANCH   8  13
ENDBRANCH   4   7
ENDBRANCH   2   3
ENDBRANCH   1   2
BRANCH   1  28
ATOM     28  C   UNL     1      -4.139   4.660  -3.143  1.00  0.00     0.023 C 
BRANCH  28  29
ATOM     29  C   UNL     1      -4.832   5.723  -3.987  1.00  0.00     0.116 C 
BRANCH  29  30
ATOM     30  N   UNL     1      -4.001   6.849  -4.396  1.00  0.00    -0.352 N 
ATOM     31  C   UNL     1      -4.361   7.998  -5.102  1.00  0.00     0.251 C 
ATOM     32  H   UNL     1      -3.053   6.790  -4.139  1.00  0.00     0.163 HD
ATOM     33  O   UNL     1      -3.537   8.840  -5.372  1.00  0.00    -0.269 OA
BRANCH  31  34
ATOM     34  C   UNL     1      -5.802   8.237  -5.401  1.00  0.00     0.039 A 
ATOM     35  C   UNL     1      -6.334   9.490  -5.076  1.00  0.00     0.014 A 
ATOM     36  C   UNL     1      -6.646   7.195  -5.768  1.00  0.00     0.014 A 
ATOM     37  C   UNL     1      -7.702   9.606  -4.841  1.00  0.00     0.010 A 
ATOM     38  C   UNL     1      -7.983   7.275  -5.433  1.00  0.00     0.010 A 
ATOM     39  C   UNL     1      -8.491   8.458  -4.889  1.00  0.00    -0.014 A 
BRANCH  39  40
ATOM     40  C   UNL     1      -9.780   8.358  -4.211  1.00  0.00     0.031 A 
ATOM     41  C   UNL     1     -11.041   8.271  -4.967  1.00  0.00     0.074 A 
ATOM     42  C   UNL     1      -9.801   8.270  -2.863  1.00  0.00     0.049 A 
ATOM     43  N   UNL     1     -12.196   8.599  -4.491  1.00  0.00    -0.248 NA
ATOM     44  C   UNL     1     -11.088   7.862  -6.365  1.00  0.00     0.031 C 
ATOM     45  C   UNL     1     -10.916   7.877  -2.006  1.00  0.00     0.029 A 
ATOM     46  N   UNL     1      -8.835   8.743  -1.976  1.00  0.00    -0.354 N 
ATOM     47  C   UNL     1     -13.147   8.162  -5.383  1.00  0.00     0.074 A 
ATOM     48  C   UNL     1     -12.407   7.815  -6.574  1.00  0.00     0.031 C 
ATOM     49  C   UNL     1     -10.690   8.333  -0.764  1.00  0.00     0.029 A 
ATOM     50  C   UNL     1      -9.502   9.170  -0.817  1.00  0.00     0.049 A 
ATOM     51  H   UNL     1      -7.864   8.773  -2.134  1.00  0.00     0.167 HD
ATOM     52  C   UNL     1     -14.434   7.996  -4.964  1.00  0.00     0.031 A 
ATOM     53  C   UNL     1      -9.456  10.477  -0.425  1.00  0.00     0.031 A 
ATOM     54  C   UNL     1     -14.627   8.475  -3.594  1.00  0.00     0.049 A 
ATOM     55  C   UNL     1     -10.807  11.158  -0.402  1.00  0.00     0.074 A 
ATOM     56  C   UNL     1     -14.733   7.829  -2.372  1.00  0.00     0.029 A 
ATOM     57  N   UNL     1     -14.450   9.825  -3.310  1.00  0.00    -0.354 N 
ATOM     58  N   UNL     1     -11.871  10.694  -0.995  1.00  0.00    -0.248 NA
ATOM     59  C   UNL     1     -11.051  12.444   0.249  1.00  0.00     0.031 C 
ATOM     60  C   UNL     1     -14.540   8.793  -1.348  1.00  0.00     0.029 A 
ATOM     61  C   UNL     1     -14.349  10.025  -1.947  1.00  0.00     0.049 A 
ATOM     62  H   UNL     1     -14.403  10.538  -3.986  1.00  0.00     0.167 HD
ATOM     63  C   UNL     1     -12.905  11.579  -0.845  1.00  0.00     0.074 A 
ATOM     64  C   UNL     1     -12.348  12.651  -0.040  1.00  0.00     0.031 C 
ATOM     65  C   UNL     1     -14.127  11.364  -1.415  1.00  0.00     0.031 A 
BRANCH  52  66
ATOM     66  C   UNL     1     -15.443   7.124  -5.685  1.00  0.00    -0.014 A 
ATOM     67  C   UNL     1     -16.515   6.561  -4.965  1.00  0.00     0.009 A 
ATOM     68  C   UNL     1     -15.363   6.754  -7.038  1.00  0.00     0.009 A 
ATOM     69  C   UNL     1     -17.382   5.615  -5.532  1.00  0.00     0.001 A 
ATOM     70  C   UNL     1     -16.203   5.785  -7.605  1.00  0.00     0.001 A 
ATOM     71  C   UNL     1     -17.207   5.204  -6.846  1.00  0.00     0.000 A 
ENDBRANCH  52  66
BRANCH  53  72
ATOM     72  C   UNL     1      -8.178  11.162  -0.769  1.00  0.00    -0.014 A 
ATOM     73  C   UNL     1      -6.993  10.728  -0.140  1.00  0.00     0.009 A 
ATOM     74  C   UNL     1      -8.072  11.956  -1.920  1.00  0.00     0.009 A 
ATOM     75  C   UNL     1      -5.743  10.986  -0.710  1.00  0.00     0.001 A 
ATOM     76  C   UNL     1      -6.815  12.223  -2.480  1.00  0.00     0.001 A 
ATOM     77  C   UNL     1      -5.657  11.711  -1.895  1.00  0.00     0.000 A 
ENDBRANCH  53  72
BRANCH  65  78
ATOM     78  C   UNL     1     -15.259  12.358  -1.486  1.00  0.00    -0.014 A 
ATOM     79  C   UNL     1     -15.095  13.748  -1.428  1.00  0.00     0.009 A 
ATOM     80  C   UNL     1     -16.562  11.885  -1.762  1.00  0.00     0.009 A 
ATOM     81  C   UNL     1     -16.183  14.618  -1.592  1.00  0.00     0.001 A 
ATOM     82  C   UNL     1     -17.640  12.749  -1.971  1.00  0.00     0.001 A 
ATOM     83  C   UNL     1     -17.451  14.119  -1.873  1.00  0.00     0.000 A 
ENDBRANCH  65  78
ENDBRANCH  39  40
ENDBRANCH  31  34
ENDBRANCH  29  30
ENDBRANCH  28  29
ENDBRANCH   1  28
TORSDOF 14
