REMARK SMILES CC1=C2C(=O)N(C[C@H]3CCCO3)C(=O)N=C2S[C@@H]1C(=O)NCCCCNC(=O)c1ccc(-c2c3nc(c(-c4ccccc4)c4ccc([nH]4)c(-c4ccccc4)c4nc(c(-c5ccccc5)c5ccc2[nH]5)C=C4)C=C3)cc1
REMARK SMILES IDX 23 1 22 2 21 3 19 4 20 5 18 7 1 8 2 9 3 10 4 11 16 12 17 13
REMARK SMILES IDX 5 14 6 15 15 16 13 17 14 18 7 19 8 20 9 21 12 22 10 23 11 24
REMARK SMILES IDX 24 25 25 26 26 27 27 28 28 30 29 31 30 32 76 33 31 34 75 35
REMARK SMILES IDX 32 36 33 37 34 38 69 39 35 40 74 41 68 42 70 43 36 44 73 45
REMARK SMILES IDX 67 46 66 47 37 49 59 50 44 51 58 52 45 53 48 54 57 55 71 56
REMARK SMILES IDX 46 57 47 58 56 60 72 61 49 62 38 63 39 64 43 65 40 66 42 67
REMARK SMILES IDX 41 68 60 69 61 70 65 71 62 72 64 73 63 74 50 75 51 76 55 77
REMARK SMILES IDX 52 78 54 79 53 80
REMARK H PARENT 21 6 26 29 70 48 48 59
REMARK Flexibility Score: inf
ROOT
ATOM      1  C   UNL     1      -6.978  -2.485   3.468  1.00  0.00     0.023 C 
ENDROOT
BRANCH   1   2
ATOM      2  C   UNL     1      -5.723  -3.219   3.012  1.00  0.00     0.116 C 
BRANCH   2   3
ATOM      3  N   UNL     1      -5.737  -4.615   3.406  1.00  0.00    -0.355 N 
ATOM      4  C   UNL     1      -5.820  -5.758   2.665  1.00  0.00     0.237 C 
ATOM      5  O   UNL     1      -5.802  -6.828   3.284  1.00  0.00    -0.273 OA
ATOM      6  H   UNL     1      -5.676  -4.764   4.377  1.00  0.00     0.163 HD
BRANCH   4   7
ATOM      7  C   UNL     1      -5.872  -5.761   1.130  1.00  0.00     0.169 C 
ATOM      8  C   UNL     1      -3.337  -5.475   0.774  1.00  0.00     0.042 C 
ATOM      9  C   UNL     1      -4.734  -5.032   0.469  1.00  0.00    -0.035 C 
ATOM     10  C   UNL     1      -5.092  -4.048  -0.369  1.00  0.00     0.073 C 
ATOM     11  C   UNL     1      -4.274  -3.090  -1.108  1.00  0.00     0.264 C 
ATOM     12  C   UNL     1      -6.527  -3.919  -0.546  1.00  0.00     0.116 C 
ATOM     13  S   UNL     1      -7.405  -4.983   0.511  1.00  0.00    -0.087 SA
ATOM     14  O   UNL     1      -3.190  -2.718  -0.681  1.00  0.00    -0.268 OA
ATOM     15  N   UNL     1      -4.910  -2.636  -2.237  1.00  0.00    -0.256 N 
ATOM     16  N   UNL     1      -7.096  -3.125  -1.372  1.00  0.00    -0.186 NA
ATOM     17  C   UNL     1      -6.298  -2.424  -2.248  1.00  0.00     0.351 C 
ATOM     18  O   UNL     1      -6.808  -1.632  -3.037  1.00  0.00    -0.246 OA
BRANCH  15  19
ATOM     19  C   UNL     1      -4.170  -2.300  -3.454  1.00  0.00     0.163 C 
BRANCH  19  20
ATOM     20  C   UNL     1      -2.661  -1.994  -3.408  1.00  0.00     0.138 C 
ATOM     21  C   UNL     1      -1.725  -3.146  -3.053  1.00  0.00     0.036 C 
ATOM     22  O   UNL     1      -2.279  -1.611  -4.756  1.00  0.00    -0.376 OA
ATOM     23  C   UNL     1      -1.401  -3.778  -4.376  1.00  0.00     0.031 C 
ATOM     24  C   UNL     1      -1.377  -2.586  -5.298  1.00  0.00     0.160 C 
ENDBRANCH  19  20
ENDBRANCH  15  19
ENDBRANCH   4   7
ENDBRANCH   2   3
ENDBRANCH   1   2
BRANCH   1  25
ATOM     25  C   UNL     1      -7.024  -2.200   4.968  1.00  0.00     0.023 C 
BRANCH  25  26
ATOM     26  C   UNL     1      -5.836  -1.415   5.514  1.00  0.00     0.116 C 
BRANCH  26  27
ATOM     27  N   UNL     1      -5.627  -0.140   4.844  1.00  0.00    -0.352 N 
ATOM     28  C   UNL     1      -5.246   1.060   5.394  1.00  0.00     0.251 C 
ATOM     29  H   UNL     1      -5.779  -0.137   3.871  1.00  0.00     0.163 HD
ATOM     30  O   UNL     1      -5.208   2.078   4.713  1.00  0.00    -0.269 OA
BRANCH  28  31
ATOM     31  C   UNL     1      -4.922   1.117   6.833  1.00  0.00     0.039 A 
ATOM     32  C   UNL     1      -5.560   2.071   7.628  1.00  0.00     0.014 A 
ATOM     33  C   UNL     1      -4.034   0.198   7.398  1.00  0.00     0.014 A 
ATOM     34  C   UNL     1      -5.364   2.056   9.010  1.00  0.00     0.010 A 
ATOM     35  C   UNL     1      -3.891   0.143   8.780  1.00  0.00     0.010 A 
ATOM     36  C   UNL     1      -4.559   1.067   9.598  1.00  0.00    -0.014 A 
BRANCH  36  37
ATOM     37  C   UNL     1      -4.412   0.972  11.070  1.00  0.00     0.031 A 
ATOM     38  C   UNL     1      -3.075   1.212  11.711  1.00  0.00     0.074 A 
ATOM     39  C   UNL     1      -5.464   0.594  11.821  1.00  0.00     0.049 A 
ATOM     40  N   UNL     1      -2.733   1.103  12.970  1.00  0.00    -0.248 NA
ATOM     41  C   UNL     1      -1.971   1.596  10.817  1.00  0.00     0.031 C 
ATOM     42  C   UNL     1      -6.804   0.287  11.314  1.00  0.00     0.029 A 
ATOM     43  N   UNL     1      -5.568   0.396  13.174  1.00  0.00    -0.354 N 
ATOM     44  C   UNL     1      -1.374   1.381  13.015  1.00  0.00     0.074 A 
ATOM     45  C   UNL     1      -0.945   1.624  11.655  1.00  0.00     0.031 C 
ATOM     46  C   UNL     1      -7.600  -0.037  12.346  1.00  0.00     0.029 A 
ATOM     47  C   UNL     1      -6.821   0.006  13.579  1.00  0.00     0.049 A 
ATOM     48  H   UNL     1      -4.815   0.520  13.796  1.00  0.00     0.167 HD
ATOM     49  C   UNL     1      -0.558   1.444  14.094  1.00  0.00     0.031 A 
ATOM     50  C   UNL     1      -7.290  -0.286  14.806  1.00  0.00     0.031 A 
ATOM     51  C   UNL     1      -0.987   1.227  15.448  1.00  0.00     0.049 A 
ATOM     52  C   UNL     1      -6.369  -0.193  15.989  1.00  0.00     0.074 A 
ATOM     53  C   UNL     1      -0.250   1.337  16.614  1.00  0.00     0.029 A 
ATOM     54  N   UNL     1      -2.271   0.858  15.818  1.00  0.00    -0.354 N 
ATOM     55  N   UNL     1      -5.101   0.135  16.022  1.00  0.00    -0.248 NA
ATOM     56  C   UNL     1      -6.949  -0.499  17.304  1.00  0.00     0.031 C 
ATOM     57  C   UNL     1      -1.079   0.997  17.688  1.00  0.00     0.029 A 
ATOM     58  C   UNL     1      -2.343   0.718  17.193  1.00  0.00     0.049 A 
ATOM     59  H   UNL     1      -3.020   0.717  15.195  1.00  0.00     0.167 HD
ATOM     60  C   UNL     1      -4.736   0.096  17.361  1.00  0.00     0.074 A 
ATOM     61  C   UNL     1      -5.920  -0.274  18.109  1.00  0.00     0.031 C 
ATOM     62  C   UNL     1      -3.528   0.347  17.921  1.00  0.00     0.031 A 
BRANCH  49  63
ATOM     63  C   UNL     1       0.889   1.757  13.844  1.00  0.00    -0.014 A 
ATOM     64  C   UNL     1       1.299   3.045  13.464  1.00  0.00     0.009 A 
ATOM     65  C   UNL     1       1.859   0.758  14.017  1.00  0.00     0.009 A 
ATOM     66  C   UNL     1       2.648   3.316  13.229  1.00  0.00     0.001 A 
ATOM     67  C   UNL     1       3.210   1.039  13.806  1.00  0.00     0.001 A 
ATOM     68  C   UNL     1       3.602   2.315  13.403  1.00  0.00     0.000 A 
ENDBRANCH  49  63
BRANCH  50  69
ATOM     69  C   UNL     1      -8.713  -0.671  14.982  1.00  0.00    -0.014 A 
ATOM     70  C   UNL     1      -9.624   0.231  15.554  1.00  0.00     0.009 A 
ATOM     71  C   UNL     1      -9.168  -1.935  14.578  1.00  0.00     0.009 A 
ATOM     72  C   UNL     1     -10.960  -0.135  15.736  1.00  0.00     0.001 A 
ATOM     73  C   UNL     1     -10.510  -2.288  14.741  1.00  0.00     0.001 A 
ATOM     74  C   UNL     1     -11.402  -1.391  15.326  1.00  0.00     0.000 A 
ENDBRANCH  50  69
BRANCH  62  75
ATOM     75  C   UNL     1      -3.434   0.257  19.416  1.00  0.00    -0.014 A 
ATOM     76  C   UNL     1      -3.415  -0.985  20.068  1.00  0.00     0.009 A 
ATOM     77  C   UNL     1      -3.320   1.431  20.177  1.00  0.00     0.009 A 
ATOM     78  C   UNL     1      -3.311  -1.048  21.459  1.00  0.00     0.001 A 
ATOM     79  C   UNL     1      -3.192   1.364  21.564  1.00  0.00     0.001 A 
ATOM     80  C   UNL     1      -3.196   0.126  22.205  1.00  0.00     0.000 A 
ENDBRANCH  62  75
ENDBRANCH  36  37
ENDBRANCH  28  31
ENDBRANCH  26  27
ENDBRANCH  25  26
ENDBRANCH   1  25
TORSDOF 13
