REMARK SMILES O=C(NCCCCNC(=O)[C@@H]1[C@@H](C(=O)Nc2ccc(F)c(F)c2)[C@H]2C=C[C@@H]1O2)c1ccc(-c2c3nc(c(-c4ccccc4)c4ccc([nH]4)c(-c4ccccc4)c4nc(c(-c5ccccc5)c5ccc2[nH]5)C=C4)C=C3)cc1
REMARK SMILES IDX 5 1 4 2 3 3 1 4 2 5 29 7 30 8 76 9 31 10 75 11 32 12 33 13
REMARK SMILES IDX 34 14 69 15 35 16 74 17 68 18 70 19 36 20 73 21 67 22 66 23
REMARK SMILES IDX 37 25 59 26 44 27 58 28 45 29 48 30 57 31 71 32 46 33 47 34
REMARK SMILES IDX 56 36 72 37 49 38 38 39 39 40 43 41 40 42 42 43 41 44 60 45
REMARK SMILES IDX 61 46 65 47 62 48 64 49 63 50 50 51 51 52 55 53 52 54 54 55
REMARK SMILES IDX 53 56 6 57 7 58 8 59 9 60 10 62 11 63 12 64 27 65 24 66
REMARK SMILES IDX 26 67 28 68 25 69 13 70 14 71 15 72 16 74 17 75 23 76 18 77
REMARK SMILES IDX 21 78 19 79 22 80 20 81
REMARK H PARENT 3 6 70 24 48 35 8 61 15 73
REMARK Flexibility Score: inf
ROOT
ATOM      1  C   UNL     1       5.951  -1.643   0.630  1.00  0.00     0.023 C 
ENDROOT
BRANCH   1   2
ATOM      2  C   UNL     1       5.188  -0.929  -0.472  1.00  0.00     0.116 C 
BRANCH   2   3
ATOM      3  N   UNL     1       3.739  -1.043  -0.357  1.00  0.00    -0.352 N 
ATOM      4  O   UNL     1       1.616  -0.363   0.024  1.00  0.00    -0.269 OA
ATOM      5  C   UNL     1       2.796  -0.060  -0.124  1.00  0.00     0.251 C 
ATOM      6  H   UNL     1       3.380  -1.953  -0.460  1.00  0.00     0.163 HD
BRANCH   5   7
ATOM      7  C   UNL     1       3.221   1.354  -0.006  1.00  0.00     0.039 A 
ATOM      8  C   UNL     1       4.155   1.877  -0.895  1.00  0.00     0.014 A 
ATOM      9  C   UNL     1       2.748   2.145   1.046  1.00  0.00     0.014 A 
ATOM     10  C   UNL     1       4.815   3.054  -0.576  1.00  0.00     0.010 A 
ATOM     11  C   UNL     1       3.306   3.412   1.270  1.00  0.00     0.010 A 
ATOM     12  C   UNL     1       4.394   3.851   0.501  1.00  0.00    -0.014 A 
BRANCH  12  13
ATOM     13  C   UNL     1       5.103   5.138   0.754  1.00  0.00     0.031 A 
ATOM     14  C   UNL     1       5.796   5.423   2.062  1.00  0.00     0.074 A 
ATOM     15  C   UNL     1       5.198   6.028  -0.256  1.00  0.00     0.049 A 
ATOM     16  N   UNL     1       6.517   6.466   2.399  1.00  0.00    -0.248 NA
ATOM     17  C   UNL     1       5.662   4.424   3.133  1.00  0.00     0.031 C 
ATOM     18  C   UNL     1       4.577   5.872  -1.575  1.00  0.00     0.029 A 
ATOM     19  N   UNL     1       5.890   7.207  -0.357  1.00  0.00    -0.354 N 
ATOM     20  C   UNL     1       6.886   6.267   3.725  1.00  0.00     0.074 A 
ATOM     21  C   UNL     1       6.300   5.010   4.137  1.00  0.00     0.031 C 
ATOM     22  C   UNL     1       5.000   6.854  -2.381  1.00  0.00     0.029 A 
ATOM     23  C   UNL     1       5.835   7.766  -1.611  1.00  0.00     0.049 A 
ATOM     24  H   UNL     1       6.379   7.613   0.395  1.00  0.00     0.167 HD
ATOM     25  C   UNL     1       7.643   7.058   4.526  1.00  0.00     0.031 A 
ATOM     26  C   UNL     1       6.376   8.898  -2.096  1.00  0.00     0.031 A 
ATOM     27  C   UNL     1       8.237   8.304   4.112  1.00  0.00     0.049 A 
ATOM     28  C   UNL     1       7.184   9.766  -1.183  1.00  0.00     0.074 A 
ATOM     29  C   UNL     1       9.041   9.162   4.845  1.00  0.00     0.029 A 
ATOM     30  N   UNL     1       8.091   8.872   2.856  1.00  0.00    -0.354 N 
ATOM     31  N   UNL     1       7.525   9.555   0.065  1.00  0.00    -0.248 NA
ATOM     32  C   UNL     1       7.669  11.034  -1.740  1.00  0.00     0.031 C 
ATOM     33  C   UNL     1       9.336  10.274   4.048  1.00  0.00     0.029 A 
ATOM     34  C   UNL     1       8.765  10.082   2.801  1.00  0.00     0.049 A 
ATOM     35  H   UNL     1       7.583   8.474   2.112  1.00  0.00     0.167 HD
ATOM     36  C   UNL     1       8.269  10.663   0.443  1.00  0.00     0.074 A 
ATOM     37  C   UNL     1       8.352  11.528  -0.717  1.00  0.00     0.031 C 
ATOM     38  C   UNL     1       8.827  10.940   1.646  1.00  0.00     0.031 A 
BRANCH  25  39
ATOM     39  C   UNL     1       7.837   6.620   5.954  1.00  0.00    -0.014 A 
ATOM     40  C   UNL     1       8.657   5.530   6.286  1.00  0.00     0.009 A 
ATOM     41  C   UNL     1       7.215   7.338   6.989  1.00  0.00     0.009 A 
ATOM     42  C   UNL     1       8.818   5.146   7.621  1.00  0.00     0.001 A 
ATOM     43  C   UNL     1       7.400   6.970   8.323  1.00  0.00     0.001 A 
ATOM     44  C   UNL     1       8.193   5.868   8.637  1.00  0.00     0.000 A 
ENDBRANCH  25  39
BRANCH  26  45
ATOM     45  C   UNL     1       6.138   9.275  -3.513  1.00  0.00    -0.014 A 
ATOM     46  C   UNL     1       7.181   9.235  -4.449  1.00  0.00     0.009 A 
ATOM     47  C   UNL     1       4.851   9.637  -3.944  1.00  0.00     0.009 A 
ATOM     48  C   UNL     1       6.941   9.556  -5.787  1.00  0.00     0.001 A 
ATOM     49  C   UNL     1       4.607   9.925  -5.287  1.00  0.00     0.001 A 
ATOM     50  C   UNL     1       5.653   9.891  -6.207  1.00  0.00     0.000 A 
ENDBRANCH  26  45
BRANCH  38  51
ATOM     51  C   UNL     1       9.592  12.227   1.756  1.00  0.00    -0.014 A 
ATOM     52  C   UNL     1       8.930  13.464   1.794  1.00  0.00     0.009 A 
ATOM     53  C   UNL     1      10.992  12.199   1.836  1.00  0.00     0.009 A 
ATOM     54  C   UNL     1       9.660  14.651   1.875  1.00  0.00     0.001 A 
ATOM     55  C   UNL     1      11.718  13.386   1.944  1.00  0.00     0.001 A 
ATOM     56  C   UNL     1      11.052  14.611   1.953  1.00  0.00     0.000 A 
ENDBRANCH  38  51
ENDBRANCH  12  13
ENDBRANCH   5   7
ENDBRANCH   2   3
ENDBRANCH   1   2
BRANCH   1  57
ATOM     57  C   UNL     1       6.616  -2.982   0.313  1.00  0.00     0.023 C 
BRANCH  57  58
ATOM     58  C   UNL     1       6.370  -3.640  -1.045  1.00  0.00     0.116 C 
BRANCH  58  59
ATOM     59  N   UNL     1       7.411  -4.625  -1.256  1.00  0.00    -0.356 N 
ATOM     60  C   UNL     1       7.506  -5.959  -1.069  1.00  0.00     0.227 C 
ATOM     61  H   UNL     1       8.237  -4.232  -1.619  1.00  0.00     0.163 HD
ATOM     62  O   UNL     1       8.661  -6.399  -1.112  1.00  0.00    -0.275 OA
BRANCH  60  63
ATOM     63  C   UNL     1       6.313  -6.897  -1.016  1.00  0.00     0.127 C 
ATOM     64  C   UNL     1       5.076  -6.526  -0.140  1.00  0.00     0.127 C 
ATOM     65  C   UNL     1       6.781  -8.203  -0.330  1.00  0.00     0.155 C 
ATOM     66  C   UNL     1       4.967  -7.755   0.779  1.00  0.00     0.155 C 
ATOM     67  C   UNL     1       5.822  -9.307  -0.651  1.00  0.00     0.004 C 
ATOM     68  O   UNL     1       6.379  -7.943   1.051  1.00  0.00    -0.365 OA
ATOM     69  C   UNL     1       4.704  -9.034   0.032  1.00  0.00     0.004 C 
BRANCH  64  70
ATOM     70  C   UNL     1       3.790  -6.356  -0.922  1.00  0.00     0.231 C 
ATOM     71  O   UNL     1       3.677  -6.836  -2.056  1.00  0.00    -0.274 OA
ATOM     72  N   UNL     1       2.670  -5.754  -0.433  1.00  0.00    -0.326 N 
ATOM     73  H   UNL     1       1.870  -6.008  -0.948  1.00  0.00     0.169 HD
BRANCH  72  74
ATOM     74  C   UNL     1       2.351  -4.868   0.612  1.00  0.00     0.044 A 
ATOM     75  C   UNL     1       3.265  -4.218   1.437  1.00  0.00     0.029 A 
ATOM     76  C   UNL     1       0.990  -4.543   0.753  1.00  0.00     0.068 A 
ATOM     77  C   UNL     1       2.846  -3.235   2.347  1.00  0.00     0.044 A 
ATOM     78  C   UNL     1       0.575  -3.579   1.673  1.00  0.00     0.160 A 
ATOM     79  C   UNL     1       1.502  -2.915   2.457  1.00  0.00     0.158 A 
ATOM     80  F   UNL     1      -0.731  -3.301   1.788  1.00  0.00    -0.204 F 
ATOM     81  F   UNL     1       1.118  -1.969   3.324  1.00  0.00    -0.204 F 
ENDBRANCH  72  74
ENDBRANCH  64  70
ENDBRANCH  60  63
ENDBRANCH  58  59
ENDBRANCH  57  58
ENDBRANCH   1  57
TORSDOF 13
