REMARK SMILES O=C(NCCCCNC(=O)[C@@H]1[C@@H](C(=O)N2CC[NH+](C/C=C/c3ccccc3)CC2)[C@@H]2C=C[C@H]1C2)c1ccc(-c2c3nc(c(-c4ccccc4)c4ccc([nH]4)c(-c4ccccc4)c4nc(c(-c5ccccc5)c5ccc2[nH]5)C=C4)C=C3)cc1
REMARK SMILES IDX 6 1 5 2 4 3 3 4 1 5 2 6 35 8 36 9 82 10 37 11 81 12 38 13
REMARK SMILES IDX 39 14 40 15 75 16 41 17 80 18 74 19 76 20 42 21 79 22 73 23
REMARK SMILES IDX 72 24 43 26 65 27 50 28 64 29 51 30 54 31 63 32 77 33 52 34
REMARK SMILES IDX 53 35 62 37 78 38 55 39 44 40 45 41 49 42 46 43 48 44 47 45
REMARK SMILES IDX 66 46 67 47 71 48 68 49 70 50 69 51 56 52 57 53 61 54 58 55
REMARK SMILES IDX 60 56 59 57 7 58 8 59 9 60 10 62 11 63 12 64 33 65 30 66
REMARK SMILES IDX 32 67 34 68 31 69 13 70 14 71 15 72 16 73 29 74 17 75 28 76
REMARK SMILES IDX 18 77 19 79 20 80 21 81 22 82 23 83 27 84 24 85 26 86 25 87
REMARK H PARENT 3 7 76 25 54 36 8 61 18 78
REMARK Flexibility Score: inf
ROOT
ATOM      1  C   UNL     1       4.468   0.832  -3.828  1.00  0.00     0.023 C 
ENDROOT
BRANCH   1   2
ATOM      2  C   UNL     1       5.023  -0.036  -2.703  1.00  0.00     0.023 C 
BRANCH   2   3
ATOM      3  C   UNL     1       4.673   0.405  -1.289  1.00  0.00     0.116 C 
BRANCH   3   4
ATOM      4  N   UNL     1       3.242   0.479  -1.034  1.00  0.00    -0.352 N 
ATOM      5  O   UNL     1       1.283  -0.007  -0.014  1.00  0.00    -0.269 OA
ATOM      6  C   UNL     1       2.501  -0.113  -0.034  1.00  0.00     0.251 C 
ATOM      7  H   UNL     1       2.729   1.031  -1.668  1.00  0.00     0.163 HD
BRANCH   6   8
ATOM      8  C   UNL     1       3.195  -0.917   0.994  1.00  0.00     0.039 A 
ATOM      9  C   UNL     1       4.333  -0.414   1.623  1.00  0.00     0.014 A 
ATOM     10  C   UNL     1       2.741  -2.208   1.279  1.00  0.00     0.014 A 
ATOM     11  C   UNL     1       5.123  -1.267   2.380  1.00  0.00     0.010 A 
ATOM     12  C   UNL     1       3.485  -3.032   2.129  1.00  0.00     0.010 A 
ATOM     13  C   UNL     1       4.708  -2.584   2.647  1.00  0.00    -0.014 A 
BRANCH  13  14
ATOM     14  C   UNL     1       5.567  -3.434   3.510  1.00  0.00     0.031 A 
ATOM     15  C   UNL     1       6.236  -4.675   2.985  1.00  0.00     0.074 A 
ATOM     16  C   UNL     1       5.812  -3.016   4.768  1.00  0.00     0.049 A 
ATOM     17  N   UNL     1       7.091  -5.463   3.589  1.00  0.00    -0.248 NA
ATOM     18  C   UNL     1       5.904  -5.095   1.614  1.00  0.00     0.031 C 
ATOM     19  C   UNL     1       5.211  -1.832   5.391  1.00  0.00     0.029 A 
ATOM     20  N   UNL     1       6.662  -3.501   5.726  1.00  0.00    -0.354 N 
ATOM     21  C   UNL     1       7.383  -6.478   2.685  1.00  0.00     0.074 A 
ATOM     22  C   UNL     1       6.600  -6.218   1.496  1.00  0.00     0.031 C 
ATOM     23  C   UNL     1       5.773  -1.636   6.591  1.00  0.00     0.029 A 
ATOM     24  C   UNL     1       6.717  -2.715   6.852  1.00  0.00     0.049 A 
ATOM     25  H   UNL     1       7.181  -4.330   5.620  1.00  0.00     0.167 HD
ATOM     26  C   UNL     1       8.229  -7.526   2.833  1.00  0.00     0.031 A 
ATOM     27  C   UNL     1       7.442  -2.845   7.976  1.00  0.00     0.031 A 
ATOM     28  C   UNL     1       9.010  -7.781   4.016  1.00  0.00     0.049 A 
ATOM     29  C   UNL     1       8.376  -4.010   8.107  1.00  0.00     0.074 A 
ATOM     30  C   UNL     1       9.894  -8.818   4.261  1.00  0.00     0.029 A 
ATOM     31  N   UNL     1       9.005  -6.985   5.152  1.00  0.00    -0.354 N 
ATOM     32  N   UNL     1       8.637  -4.956   7.239  1.00  0.00    -0.248 NA
ATOM     33  C   UNL     1       9.110  -4.125   9.372  1.00  0.00     0.031 C 
ATOM     34  C   UNL     1      10.397  -8.670   5.559  1.00  0.00     0.029 A 
ATOM     35  C   UNL     1       9.861  -7.515   6.104  1.00  0.00     0.049 A 
ATOM     36  H   UNL     1       8.472  -6.165   5.265  1.00  0.00     0.167 HD
ATOM     37  C   UNL     1       9.561  -5.786   7.856  1.00  0.00     0.074 A 
ATOM     38  C   UNL     1       9.845  -5.206   9.153  1.00  0.00     0.031 C 
ATOM     39  C   UNL     1      10.114  -6.934   7.396  1.00  0.00     0.031 A 
BRANCH  26  40
ATOM     40  C   UNL     1       8.343  -8.498   1.691  1.00  0.00    -0.014 A 
ATOM     41  C   UNL     1       9.050  -8.170   0.524  1.00  0.00     0.009 A 
ATOM     42  C   UNL     1       7.791  -9.784   1.811  1.00  0.00     0.009 A 
ATOM     43  C   UNL     1       9.183  -9.102  -0.508  1.00  0.00     0.001 A 
ATOM     44  C   UNL     1       7.945 -10.721   0.787  1.00  0.00     0.001 A 
ATOM     45  C   UNL     1       8.636 -10.378  -0.374  1.00  0.00     0.000 A 
ENDBRANCH  26  40
BRANCH  27  46
ATOM     46  C   UNL     1       7.290  -1.853   9.069  1.00  0.00    -0.014 A 
ATOM     47  C   UNL     1       8.322  -0.954   9.374  1.00  0.00     0.009 A 
ATOM     48  C   UNL     1       6.091  -1.786   9.798  1.00  0.00     0.009 A 
ATOM     49  C   UNL     1       8.162  -0.020  10.400  1.00  0.00     0.001 A 
ATOM     50  C   UNL     1       5.923  -0.831  10.801  1.00  0.00     0.001 A 
ATOM     51  C   UNL     1       6.961   0.046  11.107  1.00  0.00     0.000 A 
ENDBRANCH  27  46
BRANCH  39  52
ATOM     52  C   UNL     1      11.078  -7.626   8.314  1.00  0.00    -0.014 A 
ATOM     53  C   UNL     1      10.623  -8.313   9.451  1.00  0.00     0.009 A 
ATOM     54  C   UNL     1      12.453  -7.588   8.043  1.00  0.00     0.009 A 
ATOM     55  C   UNL     1      11.533  -8.912  10.323  1.00  0.00     0.001 A 
ATOM     56  C   UNL     1      13.359  -8.209   8.904  1.00  0.00     0.001 A 
ATOM     57  C   UNL     1      12.899  -8.860  10.049  1.00  0.00     0.000 A 
ENDBRANCH  39  52
ENDBRANCH  13  14
ENDBRANCH   6   8
ENDBRANCH   3   4
ENDBRANCH   2   3
ENDBRANCH   1   2
BRANCH   1  58
ATOM     58  C   UNL     1       4.700   2.332  -3.698  1.00  0.00     0.116 C 
BRANCH  58  59
ATOM     59  N   UNL     1       6.094   2.689  -3.578  1.00  0.00    -0.356 N 
ATOM     60  C   UNL     1       6.733   3.828  -3.954  1.00  0.00     0.224 C 
ATOM     61  H   UNL     1       6.667   2.005  -3.162  1.00  0.00     0.163 HD
ATOM     62  O   UNL     1       7.936   3.890  -3.684  1.00  0.00    -0.275 OA
BRANCH  60  63
ATOM     63  C   UNL     1       6.032   4.896  -4.795  1.00  0.00     0.098 C 
ATOM     64  C   UNL     1       6.900   6.204  -4.863  1.00  0.00     0.098 C 
ATOM     65  C   UNL     1       4.680   5.430  -4.248  1.00  0.00     0.025 C 
ATOM     66  C   UNL     1       5.886   7.296  -4.411  1.00  0.00     0.025 C 
ATOM     67  C   UNL     1       4.863   5.956  -2.846  1.00  0.00    -0.027 C 
ATOM     68  C   UNL     1       4.575   6.763  -4.992  1.00  0.00     0.017 C 
ATOM     69  C   UNL     1       5.590   7.077  -2.943  1.00  0.00    -0.027 C 
BRANCH  64  70
ATOM     70  C   UNL     1       7.485   6.557  -6.229  1.00  0.00     0.227 C 
ATOM     71  O   UNL     1       7.089   7.532  -6.869  1.00  0.00    -0.275 OA
ATOM     72  N   UNL     1       8.607   5.837  -6.630  1.00  0.00    -0.331 N 
ATOM     73  C   UNL     1       9.632   6.601  -7.341  1.00  0.00     0.181 C 
ATOM     74  C   UNL     1       8.466   4.445  -7.054  1.00  0.00     0.181 C 
ATOM     75  C   UNL     1      10.948   5.830  -7.539  1.00  0.00     0.284 C 
ATOM     76  C   UNL     1       9.799   3.717  -7.319  1.00  0.00     0.284 C 
ATOM     77  N   UNL     1      10.812   4.466  -8.073  1.00  0.00    -0.329 N 
ATOM     78  H   UNL     1      11.696   3.985  -7.912  1.00  0.00     0.348 HD
BRANCH  77  79
ATOM     79  C   UNL     1      10.726   4.379  -9.532  1.00  0.00     0.291 C 
BRANCH  79  80
ATOM     80  C   UNL     1       9.505   4.968 -10.169  1.00  0.00     0.034 C 
ATOM     81  C   UNL     1       9.502   6.091 -10.906  1.00  0.00     0.009 C 
BRANCH  81  82
ATOM     82  C   UNL     1       8.269   6.729 -11.384  1.00  0.00    -0.026 A 
ATOM     83  C   UNL     1       8.204   7.230 -12.687  1.00  0.00     0.008 A 
ATOM     84  C   UNL     1       7.185   6.945 -10.520  1.00  0.00     0.008 A 
ATOM     85  C   UNL     1       7.069   7.920 -13.123  1.00  0.00     0.001 A 
ATOM     86  C   UNL     1       6.056   7.642 -10.952  1.00  0.00     0.001 A 
ATOM     87  C   UNL     1       5.997   8.128 -12.255  1.00  0.00     0.000 A 
ENDBRANCH  81  82
ENDBRANCH  79  80
ENDBRANCH  77  79
ENDBRANCH  64  70
ENDBRANCH  60  63
ENDBRANCH  58  59
ENDBRANCH   1  58
TORSDOF 15
