REMARK SMILES COC[C@H](C)[C@H](CC(C)C)C(=O)NCCCCNC(=O)c1ccc(-c2c3nc(c(-c4ccccc4)c4ccc([nH]4)c(-c4ccccc4)c4nc(c(-c5ccccc5)c5ccc2[nH]5)C=C4)C=C3)cc1
REMARK SMILES IDX 15 1 14 2 13 3 11 4 12 5 6 7 4 8 5 9 3 10 2 11 1 12 7 13
REMARK SMILES IDX 8 14 9 15 10 16 16 17 17 18 18 19 19 20 20 22 21 23 22 24
REMARK SMILES IDX 68 25 23 26 67 27 24 28 25 29 26 30 61 31 27 32 66 33 60 34
REMARK SMILES IDX 62 35 28 36 65 37 59 38 58 39 29 41 51 42 36 43 50 44 37 45
REMARK SMILES IDX 40 46 49 47 63 48 38 49 39 50 48 52 64 53 41 54 30 55 31 56
REMARK SMILES IDX 35 57 32 58 34 59 33 60 52 61 53 62 57 63 54 64 56 65 55 66
REMARK SMILES IDX 42 67 43 68 47 69 44 70 46 71 45 72
REMARK H PARENT 13 6 18 21 62 40 40 51
REMARK Flexibility Score: inf
ROOT
ATOM      1  C   UNL     1      -2.996   3.585  -0.292  1.00  0.00     0.023 C 
ENDROOT
BRANCH   1   2
ATOM      2  C   UNL     1      -2.203   3.721  -1.583  1.00  0.00     0.116 C 
BRANCH   2   3
ATOM      3  N   UNL     1      -1.033   4.567  -1.461  1.00  0.00    -0.356 N 
ATOM      4  C   UNL     1       0.252   4.404  -1.879  1.00  0.00     0.223 C 
ATOM      5  O   UNL     1       0.991   5.389  -1.776  1.00  0.00    -0.275 OA
ATOM      6  H   UNL     1      -1.197   5.415  -0.988  1.00  0.00     0.163 HD
BRANCH   4   7
ATOM      7  C   UNL     1       0.795   3.104  -2.499  1.00  0.00     0.084 C 
BRANCH   7   8
ATOM      8  C   UNL     1       0.624   3.120  -4.046  1.00  0.00     0.024 C 
ATOM      9  C   UNL     1       1.507   2.070  -4.734  1.00  0.00     0.011 C 
BRANCH   8  10
ATOM     10  C   UNL     1      -0.817   2.961  -4.552  1.00  0.00     0.163 C 
BRANCH  10  11
ATOM     11  O   UNL     1      -0.979   3.455  -5.885  1.00  0.00    -0.384 OA
ATOM     12  C   UNL     1      -1.206   4.863  -5.919  1.00  0.00     0.194 C 
ENDBRANCH  10  11
ENDBRANCH   8  10
ENDBRANCH   7   8
BRANCH   7  13
ATOM     13  C   UNL     1       0.371   1.838  -1.728  1.00  0.00     0.017 C 
BRANCH  13  14
ATOM     14  C   UNL     1       1.417   0.719  -1.534  1.00  0.00    -0.017 C 
ATOM     15  C   UNL     1       2.700   1.178  -0.843  1.00  0.00     0.007 C 
ATOM     16  C   UNL     1       0.775  -0.405  -0.707  1.00  0.00     0.007 C 
ENDBRANCH  13  14
ENDBRANCH   7  13
ENDBRANCH   4   7
ENDBRANCH   2   3
ENDBRANCH   1   2
BRANCH   1  17
ATOM     17  C   UNL     1      -3.796   4.825   0.101  1.00  0.00     0.023 C 
BRANCH  17  18
ATOM     18  C   UNL     1      -4.650   5.447  -1.002  1.00  0.00     0.116 C 
BRANCH  18  19
ATOM     19  N   UNL     1      -5.532   4.499  -1.669  1.00  0.00    -0.352 N 
ATOM     20  C   UNL     1      -6.866   4.615  -1.978  1.00  0.00     0.251 C 
ATOM     21  H   UNL     1      -5.111   3.651  -1.939  1.00  0.00     0.163 HD
ATOM     22  O   UNL     1      -7.468   3.670  -2.480  1.00  0.00    -0.269 OA
BRANCH  20  23
ATOM     23  C   UNL     1      -7.587   5.862  -1.656  1.00  0.00     0.039 A 
ATOM     24  C   UNL     1      -8.801   5.773  -0.973  1.00  0.00     0.014 A 
ATOM     25  C   UNL     1      -7.048   7.110  -1.979  1.00  0.00     0.014 A 
ATOM     26  C   UNL     1      -9.430   6.938  -0.532  1.00  0.00     0.010 A 
ATOM     27  C   UNL     1      -7.634   8.266  -1.469  1.00  0.00     0.010 A 
ATOM     28  C   UNL     1      -8.824   8.190  -0.730  1.00  0.00    -0.014 A 
BRANCH  28  29
ATOM     29  C   UNL     1      -9.411   9.418  -0.136  1.00  0.00     0.031 A 
ATOM     30  C   UNL     1      -9.911  10.530  -1.015  1.00  0.00     0.074 A 
ATOM     31  C   UNL     1      -9.452   9.548   1.205  1.00  0.00     0.049 A 
ATOM     32  N   UNL     1     -10.449  11.673  -0.669  1.00  0.00    -0.248 NA
ATOM     33  C   UNL     1      -9.771  10.349  -2.469  1.00  0.00     0.031 C 
ATOM     34  C   UNL     1      -8.946   8.567   2.170  1.00  0.00     0.029 A 
ATOM     35  N   UNL     1      -9.944  10.559   1.991  1.00  0.00    -0.354 N 
ATOM     36  C   UNL     1     -10.706  12.344  -1.857  1.00  0.00     0.074 A 
ATOM     37  C   UNL     1     -10.214  11.509  -2.931  1.00  0.00     0.031 C 
ATOM     38  C   UNL     1      -9.187   9.008   3.415  1.00  0.00     0.029 A 
ATOM     39  C   UNL     1      -9.830  10.315   3.339  1.00  0.00     0.049 A 
ATOM     40  H   UNL     1     -10.341  11.382   1.625  1.00  0.00     0.167 HD
ATOM     41  C   UNL     1     -11.321  13.537  -2.042  1.00  0.00     0.031 A 
ATOM     42  C   UNL     1     -10.203  11.060   4.397  1.00  0.00     0.031 A 
ATOM     43  C   UNL     1     -11.815  14.369  -0.978  1.00  0.00     0.049 A 
ATOM     44  C   UNL     1     -10.879  12.381   4.161  1.00  0.00     0.074 A 
ATOM     45  C   UNL     1     -12.491  15.574  -1.069  1.00  0.00     0.029 A 
ATOM     46  N   UNL     1     -11.688  14.082   0.371  1.00  0.00    -0.354 N 
ATOM     47  N   UNL     1     -11.181  12.965   3.027  1.00  0.00    -0.248 NA
ATOM     48  C   UNL     1     -11.280  13.139   5.355  1.00  0.00     0.031 C 
ATOM     49  C   UNL     1     -12.733  16.039   0.228  1.00  0.00     0.029 A 
ATOM     50  C   UNL     1     -12.256  15.097   1.124  1.00  0.00     0.049 A 
ATOM     51  H   UNL     1     -11.258  13.277   0.741  1.00  0.00     0.167 HD
ATOM     52  C   UNL     1     -11.826  14.145   3.371  1.00  0.00     0.074 A 
ATOM     53  C   UNL     1     -11.898  14.180   4.817  1.00  0.00     0.031 C 
ATOM     54  C   UNL     1     -12.313  15.118   2.562  1.00  0.00     0.031 A 
BRANCH  41  55
ATOM     55  C   UNL     1     -11.503  14.010  -3.458  1.00  0.00    -0.014 A 
ATOM     56  C   UNL     1     -12.424  13.386  -4.315  1.00  0.00     0.009 A 
ATOM     57  C   UNL     1     -10.787  15.123  -3.925  1.00  0.00     0.009 A 
ATOM     58  C   UNL     1     -12.603  13.849  -5.619  1.00  0.00     0.001 A 
ATOM     59  C   UNL     1     -10.989  15.602  -5.221  1.00  0.00     0.001 A 
ATOM     60  C   UNL     1     -11.891  14.960  -6.069  1.00  0.00     0.000 A 
ENDBRANCH  41  55
BRANCH  42  61
ATOM     61  C   UNL     1      -9.960  10.574   5.782  1.00  0.00    -0.014 A 
ATOM     62  C   UNL     1     -11.033  10.201   6.606  1.00  0.00     0.009 A 
ATOM     63  C   UNL     1      -8.656  10.512   6.297  1.00  0.00     0.009 A 
ATOM     64  C   UNL     1     -10.808   9.814   7.930  1.00  0.00     0.001 A 
ATOM     65  C   UNL     1      -8.432  10.095   7.610  1.00  0.00     0.001 A 
ATOM     66  C   UNL     1      -9.508   9.759   8.429  1.00  0.00     0.000 A 
ENDBRANCH  42  61
BRANCH  54  67
ATOM     67  C   UNL     1     -12.988  16.284   3.229  1.00  0.00    -0.014 A 
ATOM     68  C   UNL     1     -12.251  17.233   3.955  1.00  0.00     0.009 A 
ATOM     69  C   UNL     1     -14.378  16.440   3.119  1.00  0.00     0.009 A 
ATOM     70  C   UNL     1     -12.900  18.291   4.595  1.00  0.00     0.001 A 
ATOM     71  C   UNL     1     -15.020  17.516   3.732  1.00  0.00     0.001 A 
ATOM     72  C   UNL     1     -14.283  18.433   4.480  1.00  0.00     0.000 A 
ENDBRANCH  54  67
ENDBRANCH  28  29
ENDBRANCH  20  23
ENDBRANCH  18  19
ENDBRANCH  17  18
ENDBRANCH   1  17
TORSDOF 16
