REMARK SMILES CC[C@@H]1CCCN(S(=O)(=O)c2cc(C(=O)NCCCCNC(=O)c3ccc(-c4c5nc(c(-c6ccccc6)c6ccc([nH]6)c(-c6ccccc6)c6nc(c(-c7ccccc7)c7ccc4[nH]7)C=C6)C=C5)cc3)ccc2F)C1
REMARK SMILES IDX 18 1 17 2 16 3 14 4 15 5 13 7 11 8 12 9 74 10 73 11 75 12
REMARK SMILES IDX 72 13 8 14 9 15 10 16 7 17 3 18 4 19 76 20 5 21 6 22 2 23
REMARK SMILES IDX 1 24 19 25 20 26 21 27 22 28 23 30 24 31 25 32 71 33 26 34
REMARK SMILES IDX 70 35 27 36 28 37 29 38 64 39 30 40 69 41 63 42 65 43 31 44
REMARK SMILES IDX 68 45 62 46 61 47 32 49 54 50 39 51 53 52 40 53 43 54 52 55
REMARK SMILES IDX 66 56 41 57 42 58 51 60 67 61 44 62 33 63 34 64 38 65 35 66
REMARK SMILES IDX 37 67 36 68 55 69 56 70 60 71 57 72 59 73 58 74 45 75 46 76
REMARK SMILES IDX 50 77 47 78 49 79 48 80
REMARK H PARENT 16 6 21 29 65 48 43 59
REMARK Flexibility Score: inf
ROOT
ATOM      1  C   UNL     1      -1.647  11.339   4.199  1.00  0.00     0.023 C 
ENDROOT
BRANCH   1   2
ATOM      2  C   UNL     1      -1.713   9.855   4.569  1.00  0.00     0.116 C 
BRANCH   2   3
ATOM      3  N   UNL     1      -2.765   9.181   3.839  1.00  0.00    -0.352 N 
ATOM      4  C   UNL     1      -2.769   8.445   2.683  1.00  0.00     0.251 C 
ATOM      5  O   UNL     1      -3.839   7.933   2.352  1.00  0.00    -0.269 OA
ATOM      6  H   UNL     1      -3.653   9.269   4.254  1.00  0.00     0.163 HD
BRANCH   4   7
ATOM      7  C   UNL     1      -1.570   8.220   1.817  1.00  0.00     0.041 A 
ATOM      8  C   UNL     1      -0.586   6.914   0.001  1.00  0.00     0.119 A 
ATOM      9  C   UNL     1      -1.630   7.143   0.911  1.00  0.00     0.038 A 
ATOM     10  C   UNL     1       0.512   7.762  -0.017  1.00  0.00     0.143 A 
ATOM     11  C   UNL     1       0.600   8.813   0.884  1.00  0.00     0.041 A 
ATOM     12  F   UNL     1       1.519   7.596  -0.883  1.00  0.00    -0.206 F 
ATOM     13  C   UNL     1      -0.446   9.054   1.779  1.00  0.00     0.017 A 
BRANCH   8  14
ATOM     14  S   UNL     1      -0.759   5.695  -1.262  1.00  0.00     0.246 S 
ATOM     15  O   UNL     1      -0.228   6.245  -2.497  1.00  0.00    -0.207 OA
ATOM     16  O   UNL     1      -2.120   5.215  -1.217  1.00  0.00    -0.207 OA
BRANCH  14  17
ATOM     17  N   UNL     1       0.257   4.366  -0.797  1.00  0.00    -0.197 NA
ATOM     18  C   UNL     1       0.870   1.989  -1.385  1.00  0.00     0.004 C 
ATOM     19  C   UNL     1       2.350   2.356  -1.216  1.00  0.00     0.006 C 
ATOM     20  C   UNL     1       0.073   3.241  -1.779  1.00  0.00     0.106 C 
ATOM     21  C   UNL     1       2.528   3.505  -0.235  1.00  0.00     0.017 C 
ATOM     22  C   UNL     1       1.699   4.717  -0.644  1.00  0.00     0.102 C 
BRANCH  18  23
ATOM     23  C   UNL     1       0.254   1.300  -0.151  1.00  0.00     0.001 C 
ATOM     24  C   UNL     1       0.830  -0.087   0.103  1.00  0.00     0.004 C 
ENDBRANCH  18  23
ENDBRANCH  14  17
ENDBRANCH   8  14
ENDBRANCH   4   7
ENDBRANCH   2   3
ENDBRANCH   1   2
BRANCH   1  25
ATOM     25  C   UNL     1      -2.684  12.220   4.899  1.00  0.00     0.023 C 
BRANCH  25  26
ATOM     26  C   UNL     1      -2.595  12.239   6.421  1.00  0.00     0.116 C 
BRANCH  26  27
ATOM     27  N   UNL     1      -1.280  12.611   6.923  1.00  0.00    -0.352 N 
ATOM     28  C   UNL     1      -0.967  13.256   8.095  1.00  0.00     0.251 C 
ATOM     29  H   UNL     1      -0.518  12.369   6.349  1.00  0.00     0.163 HD
ATOM     30  O   UNL     1       0.190  13.584   8.335  1.00  0.00    -0.269 OA
BRANCH  28  31
ATOM     31  C   UNL     1      -2.048  13.591   9.041  1.00  0.00     0.039 A 
ATOM     32  C   UNL     1      -2.144  14.901   9.516  1.00  0.00     0.014 A 
ATOM     33  C   UNL     1      -2.987  12.628   9.418  1.00  0.00     0.014 A 
ATOM     34  C   UNL     1      -3.228  15.263  10.316  1.00  0.00     0.010 A 
ATOM     35  C   UNL     1      -4.104  13.008  10.152  1.00  0.00     0.010 A 
ATOM     36  C   UNL     1      -4.235  14.328  10.608  1.00  0.00    -0.014 A 
BRANCH  36  37
ATOM     37  C   UNL     1      -5.438  14.716  11.383  1.00  0.00     0.031 A 
ATOM     38  C   UNL     1      -5.700  14.106  12.730  1.00  0.00     0.074 A 
ATOM     39  C   UNL     1      -6.329  15.568  10.842  1.00  0.00     0.049 A 
ATOM     40  N   UNL     1      -6.707  14.301  13.543  1.00  0.00    -0.248 NA
ATOM     41  C   UNL     1      -4.714  13.129  13.216  1.00  0.00     0.031 C 
ATOM     42  C   UNL     1      -6.212  16.196   9.524  1.00  0.00     0.029 A 
ATOM     43  N   UNL     1      -7.511  16.055  11.339  1.00  0.00    -0.354 N 
ATOM     44  C   UNL     1      -6.485  13.459  14.624  1.00  0.00     0.074 A 
ATOM     45  C   UNL     1      -5.279  12.712  14.338  1.00  0.00     0.031 C 
ATOM     46  C   UNL     1      -7.256  17.019   9.337  1.00  0.00     0.029 A 
ATOM     47  C   UNL     1      -8.133  16.947  10.501  1.00  0.00     0.049 A 
ATOM     48  H   UNL     1      -7.878  15.791  12.214  1.00  0.00     0.167 HD
ATOM     49  C   UNL     1      -7.205  13.333  15.764  1.00  0.00     0.031 A 
ATOM     50  C   UNL     1      -9.278  17.636  10.656  1.00  0.00     0.031 A 
ATOM     51  C   UNL     1      -8.403  14.077  16.049  1.00  0.00     0.049 A 
ATOM     52  C   UNL     1     -10.074  17.465  11.918  1.00  0.00     0.074 A 
ATOM     53  C   UNL     1      -9.172  14.069  17.199  1.00  0.00     0.029 A 
ATOM     54  N   UNL     1      -9.010  14.958  15.167  1.00  0.00    -0.354 N 
ATOM     55  N   UNL     1      -9.812  16.722  12.966  1.00  0.00    -0.248 NA
ATOM     56  C   UNL     1     -11.321  18.236  12.020  1.00  0.00     0.031 C 
ATOM     57  C   UNL     1     -10.275  14.906  16.992  1.00  0.00     0.029 A 
ATOM     58  C   UNL     1     -10.162  15.478  15.735  1.00  0.00     0.049 A 
ATOM     59  H   UNL     1      -8.673  15.181  14.270  1.00  0.00     0.167 HD
ATOM     60  C   UNL     1     -10.845  16.956  13.864  1.00  0.00     0.074 A 
ATOM     61  C   UNL     1     -11.731  17.919  13.240  1.00  0.00     0.031 C 
ATOM     62  C   UNL     1     -11.039  16.426  15.096  1.00  0.00     0.031 A 
BRANCH  49  63
ATOM     63  C   UNL     1      -6.714  12.331  16.774  1.00  0.00    -0.014 A 
ATOM     64  C   UNL     1      -5.514  12.531  17.476  1.00  0.00     0.009 A 
ATOM     65  C   UNL     1      -7.455  11.165  17.018  1.00  0.00     0.009 A 
ATOM     66  C   UNL     1      -5.038  11.559  18.358  1.00  0.00     0.001 A 
ATOM     67  C   UNL     1      -6.994  10.210  17.926  1.00  0.00     0.001 A 
ATOM     68  C   UNL     1      -5.779  10.400  18.584  1.00  0.00     0.000 A 
ENDBRANCH  49  63
BRANCH  50  69
ATOM     69  C   UNL     1      -9.714  18.590   9.604  1.00  0.00    -0.014 A 
ATOM     70  C   UNL     1      -9.616  19.973   9.826  1.00  0.00     0.009 A 
ATOM     71  C   UNL     1     -10.207  18.132   8.373  1.00  0.00     0.009 A 
ATOM     72  C   UNL     1     -10.017  20.878   8.841  1.00  0.00     0.001 A 
ATOM     73  C   UNL     1     -10.585  19.040   7.381  1.00  0.00     0.001 A 
ATOM     74  C   UNL     1     -10.496  20.411   7.618  1.00  0.00     0.000 A 
ENDBRANCH  50  69
BRANCH  62  75
ATOM     75  C   UNL     1     -12.243  16.898  15.861  1.00  0.00    -0.014 A 
ATOM     76  C   UNL     1     -13.540  16.503  15.499  1.00  0.00     0.009 A 
ATOM     77  C   UNL     1     -12.073  17.727  16.982  1.00  0.00     0.009 A 
ATOM     78  C   UNL     1     -14.645  16.956  16.223  1.00  0.00     0.001 A 
ATOM     79  C   UNL     1     -13.176  18.155  17.721  1.00  0.00     0.001 A 
ATOM     80  C   UNL     1     -14.461  17.777  17.336  1.00  0.00     0.000 A 
ENDBRANCH  62  75
ENDBRANCH  36  37
ENDBRANCH  28  31
ENDBRANCH  26  27
ENDBRANCH  25  26
ENDBRANCH   1  25
TORSDOF 14
