REMARK SMILES CC(C)(C)N(CC(=O)NCCCCNC(=O)c1ccc(-c2c3nc(c(-c4ccccc4)c4ccc([nH]4)c(-c4ccccc4)c4nc(c(-c5ccccc5)c5ccc2[nH]5)C=C4)C=C3)cc1)C(=O)N1CC[C@H](O)C1
REMARK SMILES IDX 10 1 9 2 7 3 8 4 6 6 5 7 2 8 1 9 3 10 4 11 65 12 66 13 67 14
REMARK SMILES IDX 68 15 72 16 69 17 70 18 71 19 11 21 12 22 13 23 14 24 15 25
REMARK SMILES IDX 16 27 17 28 18 29 64 30 19 31 63 32 20 33 21 34 22 35 57 36
REMARK SMILES IDX 23 37 62 38 56 39 58 40 24 41 61 42 55 43 54 44 25 46 47 47
REMARK SMILES IDX 32 48 46 49 33 50 36 51 45 52 59 53 34 54 35 55 44 57 60 58
REMARK SMILES IDX 37 59 26 60 27 61 31 62 28 63 30 64 29 65 48 66 49 67 53 68
REMARK SMILES IDX 50 69 52 70 51 71 38 72 39 73 43 74 40 75 42 76 41 77
REMARK H PARENT 9 5 71 20 14 26 58 45 36 56
REMARK Flexibility Score: inf
ROOT
ATOM      1  C   UNL     1       3.837   0.507  -1.536  1.00  0.00     0.116 C 
ENDROOT
BRANCH   1   2
ATOM      2  N   UNL     1       4.177   1.779  -0.952  1.00  0.00    -0.355 N 
ATOM      3  C   UNL     1       3.397   2.631  -0.233  1.00  0.00     0.239 C 
ATOM      4  O   UNL     1       3.994   3.455   0.471  1.00  0.00    -0.273 OA
ATOM      5  H   UNL     1       5.106   2.073  -1.093  1.00  0.00     0.163 HD
BRANCH   3   6
ATOM      6  C   UNL     1       1.855   2.551  -0.171  1.00  0.00     0.221 C 
BRANCH   6   7
ATOM      7  N   UNL     1       1.071   2.034  -1.312  1.00  0.00    -0.311 N 
BRANCH   7   8
ATOM      8  C   UNL     1       0.207   0.789  -1.124  1.00  0.00     0.037 C 
ATOM      9  C   UNL     1       0.482  -0.001   0.188  1.00  0.00     0.034 C 
ATOM     10  C   UNL     1       0.377  -0.230  -2.277  1.00  0.00     0.034 C 
ATOM     11  C   UNL     1      -1.287   1.194  -1.036  1.00  0.00     0.034 C 
ENDBRANCH   7   8
BRANCH   7  12
ATOM     12  C   UNL     1       0.770   2.863  -2.413  1.00  0.00     0.321 C 
ATOM     13  O   UNL     1       0.049   2.496  -3.341  1.00  0.00    -0.248 OA
BRANCH  12  14
ATOM     14  N   UNL     1       1.126   4.192  -2.336  1.00  0.00    -0.322 N 
ATOM     15  C   UNL     1       0.171   5.201  -2.785  1.00  0.00     0.124 C 
ATOM     16  C   UNL     1       2.464   4.739  -2.469  1.00  0.00     0.153 C 
ATOM     17  C   UNL     1       0.945   6.516  -2.867  1.00  0.00     0.055 C 
ATOM     18  C   UNL     1       2.260   6.218  -2.155  1.00  0.00     0.135 C 
BRANCH  18  19
ATOM     19  O   UNL     1       3.312   7.049  -2.611  1.00  0.00    -0.391 OA
ATOM     20  H   UNL     1       3.413   6.946  -3.570  1.00  0.00     0.211 HD
ENDBRANCH  18  19
ENDBRANCH  12  14
ENDBRANCH   7  12
ENDBRANCH   6   7
ENDBRANCH   3   6
ENDBRANCH   1   2
BRANCH   1  21
ATOM     21  C   UNL     1       3.696   0.531  -3.053  1.00  0.00     0.023 C 
BRANCH  21  22
ATOM     22  C   UNL     1       5.001   0.652  -3.834  1.00  0.00     0.023 C 
BRANCH  22  23
ATOM     23  C   UNL     1       6.108  -0.311  -3.424  1.00  0.00     0.116 C 
BRANCH  23  24
ATOM     24  N   UNL     1       5.706  -1.710  -3.372  1.00  0.00    -0.352 N 
ATOM     25  C   UNL     1       6.451  -2.829  -3.671  1.00  0.00     0.251 C 
ATOM     26  H   UNL     1       4.779  -1.878  -3.086  1.00  0.00     0.163 HD
ATOM     27  O   UNL     1       5.957  -3.946  -3.607  1.00  0.00    -0.269 OA
BRANCH  25  28
ATOM     28  C   UNL     1       7.846  -2.657  -4.128  1.00  0.00     0.039 A 
ATOM     29  C   UNL     1       8.240  -3.264  -5.323  1.00  0.00     0.014 A 
ATOM     30  C   UNL     1       8.727  -1.832  -3.426  1.00  0.00     0.014 A 
ATOM     31  C   UNL     1       9.491  -2.965  -5.865  1.00  0.00     0.010 A 
ATOM     32  C   UNL     1       9.937  -1.473  -4.007  1.00  0.00     0.010 A 
ATOM     33  C   UNL     1      10.326  -2.028  -5.236  1.00  0.00    -0.014 A 
BRANCH  33  34
ATOM     34  C   UNL     1      11.607  -1.598  -5.848  1.00  0.00     0.031 A 
ATOM     35  C   UNL     1      12.904  -1.866  -5.139  1.00  0.00     0.074 A 
ATOM     36  C   UNL     1      11.597  -0.888  -6.993  1.00  0.00     0.049 A 
ATOM     37  N   UNL     1      14.114  -1.486  -5.460  1.00  0.00    -0.248 NA
ATOM     38  C   UNL     1      12.824  -2.634  -3.887  1.00  0.00     0.031 C 
ATOM     39  C   UNL     1      10.402  -0.522  -7.758  1.00  0.00     0.029 A 
ATOM     40  N   UNL     1      12.630  -0.340  -7.710  1.00  0.00    -0.354 N 
ATOM     41  C   UNL     1      14.933  -1.944  -4.437  1.00  0.00     0.074 A 
ATOM     42  C   UNL     1      14.078  -2.586  -3.463  1.00  0.00     0.031 C 
ATOM     43  C   UNL     1      10.774   0.161  -8.853  1.00  0.00     0.029 A 
ATOM     44  C   UNL     1      12.225   0.315  -8.847  1.00  0.00     0.049 A 
ATOM     45  H   UNL     1      13.573  -0.409  -7.435  1.00  0.00     0.167 HD
ATOM     46  C   UNL     1      16.280  -1.858  -4.325  1.00  0.00     0.031 A 
ATOM     47  C   UNL     1      12.942   0.969  -9.780  1.00  0.00     0.031 A 
ATOM     48  C   UNL     1      17.134  -1.240  -5.302  1.00  0.00     0.049 A 
ATOM     49  C   UNL     1      14.435   1.051  -9.637  1.00  0.00     0.074 A 
ATOM     50  C   UNL     1      18.515  -1.157  -5.312  1.00  0.00     0.029 A 
ATOM     51  N   UNL     1      16.685  -0.599  -6.446  1.00  0.00    -0.354 N 
ATOM     52  N   UNL     1      15.202   0.562  -8.693  1.00  0.00    -0.248 NA
ATOM     53  C   UNL     1      15.161   1.770 -10.693  1.00  0.00     0.031 C 
ATOM     54  C   UNL     1      18.900  -0.431  -6.445  1.00  0.00     0.029 A 
ATOM     55  C   UNL     1      17.760  -0.102  -7.162  1.00  0.00     0.049 A 
ATOM     56  H   UNL     1      15.741  -0.511  -6.710  1.00  0.00     0.167 HD
ATOM     57  C   UNL     1      16.501   0.890  -9.054  1.00  0.00     0.074 A 
ATOM     58  C   UNL     1      16.419   1.612 -10.308  1.00  0.00     0.031 C 
ATOM     59  C   UNL     1      17.660   0.615  -8.406  1.00  0.00     0.031 A 
BRANCH  46  60
ATOM     60  C   UNL     1      16.901  -2.447  -3.090  1.00  0.00    -0.014 A 
ATOM     61  C   UNL     1      16.936  -3.837  -2.886  1.00  0.00     0.009 A 
ATOM     62  C   UNL     1      17.454  -1.603  -2.115  1.00  0.00     0.009 A 
ATOM     63  C   UNL     1      17.468  -4.365  -1.708  1.00  0.00     0.001 A 
ATOM     64  C   UNL     1      18.012  -2.137  -0.952  1.00  0.00     0.001 A 
ATOM     65  C   UNL     1      18.007  -3.516  -0.744  1.00  0.00     0.000 A 
ENDBRANCH  46  60
BRANCH  47  66
ATOM     66  C   UNL     1      12.258   1.567 -10.954  1.00  0.00    -0.014 A 
ATOM     67  C   UNL     1      12.365   0.960 -12.215  1.00  0.00     0.009 A 
ATOM     68  C   UNL     1      11.490   2.734 -10.823  1.00  0.00     0.009 A 
ATOM     69  C   UNL     1      11.731   1.520 -13.326  1.00  0.00     0.001 A 
ATOM     70  C   UNL     1      10.838   3.278 -11.932  1.00  0.00     0.001 A 
ATOM     71  C   UNL     1      10.964   2.675 -13.183  1.00  0.00     0.000 A 
ENDBRANCH  47  66
BRANCH  59  72
ATOM     72  C   UNL     1      18.933   1.067  -9.060  1.00  0.00    -0.014 A 
ATOM     73  C   UNL     1      19.314   2.417  -9.054  1.00  0.00     0.009 A 
ATOM     74  C   UNL     1      19.783   0.119  -9.651  1.00  0.00     0.009 A 
ATOM     75  C   UNL     1      20.512   2.813  -9.653  1.00  0.00     0.001 A 
ATOM     76  C   UNL     1      20.991   0.515 -10.228  1.00  0.00     0.001 A 
ATOM     77  C   UNL     1      21.350   1.862 -10.235  1.00  0.00     0.000 A 
ENDBRANCH  59  72
ENDBRANCH  33  34
ENDBRANCH  25  28
ENDBRANCH  23  24
ENDBRANCH  22  23
ENDBRANCH  21  22
ENDBRANCH   1  21
TORSDOF 16
