REMARK SMILES Cc1cc(=O)c(Oc2ccc(C(=O)NCCCCNC(=O)c3ccc(-c4c5nc(c(-c6ccccc6)c6ccc([nH]6)c(-c6ccccc6)c6nc(c(-c7ccccc7)c7ccc4[nH]7)C=C6)C=C5)cc3)cc2)c(-c2ccc(S(C)(=O)=O)cc2)o1
REMARK SMILES IDX 15 1 14 2 12 3 13 4 11 6 8 7 9 8 71 9 10 10 70 11 7 12 6 13
REMARK SMILES IDX 1 14 2 15 3 16 83 17 4 18 72 19 5 20 73 21 74 22 82 23 75 24
REMARK SMILES IDX 81 25 76 26 77 27 78 28 79 29 80 30 16 31 17 32 18 33 19 34
REMARK SMILES IDX 20 35 21 37 22 38 23 39 69 40 24 41 68 42 25 43 26 44 27 45
REMARK SMILES IDX 62 46 28 47 67 48 61 49 63 50 29 51 66 52 60 53 59 54 30 56
REMARK SMILES IDX 52 57 37 58 51 59 38 60 41 61 50 62 64 63 39 64 40 65 49 67
REMARK SMILES IDX 65 68 42 69 31 70 32 71 36 72 33 73 35 74 34 75 53 76 54 77
REMARK SMILES IDX 58 78 55 79 57 80 56 81 43 82 44 83 48 84 45 85 47 86 46 87
REMARK H PARENT 14 5 19 36 63 55 41 66
REMARK Flexibility Score: inf
ROOT
ATOM      1  C   UNL     1       0.270  10.162   2.189  1.00  0.00     0.116 C 
ENDROOT
BRANCH   1   2
ATOM      2  N   UNL     1       1.451  10.402   1.382  1.00  0.00    -0.352 N 
ATOM      3  C   UNL     1       1.760   9.992   0.100  1.00  0.00     0.251 C 
ATOM      4  O   UNL     1       2.762  10.446  -0.446  1.00  0.00    -0.269 OA
ATOM      5  H   UNL     1       2.146  10.946   1.819  1.00  0.00     0.163 HD
BRANCH   3   6
ATOM      6  C   UNL     1       0.984   8.920  -0.582  1.00  0.00     0.040 A 
ATOM      7  C   UNL     1      -0.197   6.510  -1.304  1.00  0.00     0.127 A 
ATOM      8  C   UNL     1       1.093   6.788  -1.738  1.00  0.00     0.048 A 
ATOM      9  C   UNL     1      -0.973   7.523  -0.742  1.00  0.00     0.048 A 
ATOM     10  C   UNL     1       1.702   7.981  -1.338  1.00  0.00     0.017 A 
ATOM     11  C   UNL     1      -0.390   8.748  -0.423  1.00  0.00     0.017 A 
BRANCH   7  12
ATOM     12  O   UNL     1      -0.798   5.300  -1.472  1.00  0.00    -0.449 OA
BRANCH  12  13
ATOM     13  C   UNL     1      -0.310   4.106  -0.955  1.00  0.00     0.217 A 
ATOM     14  C   UNL     1       0.984   0.116   0.090  1.00  0.00     0.088 C 
ATOM     15  C   UNL     1       0.408   1.446  -0.278  1.00  0.00     0.105 A 
ATOM     16  C   UNL     1      -0.672   1.581  -1.049  1.00  0.00     0.098 A 
ATOM     17  O   UNL     1       1.091   2.528   0.235  1.00  0.00    -0.457 OA
ATOM     18  C   UNL     1      -1.138   2.932  -1.385  1.00  0.00     0.228 A 
ATOM     19  C   UNL     1       0.733   3.825  -0.126  1.00  0.00     0.180 A 
ATOM     20  O   UNL     1      -2.184   3.063  -2.015  1.00  0.00    -0.285 OA
BRANCH  19  21
ATOM     21  C   UNL     1       1.674   4.779   0.494  1.00  0.00     0.021 A 
ATOM     22  C   UNL     1       3.007   4.819   0.046  1.00  0.00     0.013 A 
ATOM     23  C   UNL     1       1.278   5.636   1.530  1.00  0.00     0.013 A 
ATOM     24  C   UNL     1       3.904   5.761   0.557  1.00  0.00     0.021 A 
ATOM     25  C   UNL     1       2.177   6.573   2.055  1.00  0.00     0.021 A 
ATOM     26  C   UNL     1       3.479   6.642   1.554  1.00  0.00     0.067 A 
BRANCH  26  27
ATOM     27  S   UNL     1       4.585   7.925   2.101  1.00  0.00     0.175 S 
ATOM     28  C   UNL     1       5.721   7.079   3.163  1.00  0.00     0.163 C 
ATOM     29  O   UNL     1       5.322   8.380   0.940  1.00  0.00    -0.224 OA
ATOM     30  O   UNL     1       3.825   8.851   2.924  1.00  0.00    -0.224 OA
ENDBRANCH  26  27
ENDBRANCH  19  21
ENDBRANCH  12  13
ENDBRANCH   7  12
ENDBRANCH   3   6
ENDBRANCH   1   2
BRANCH   1  31
ATOM     31  C   UNL     1       0.474  10.139   3.699  1.00  0.00     0.023 C 
BRANCH  31  32
ATOM     32  C   UNL     1       1.128  11.357   4.330  1.00  0.00     0.023 C 
BRANCH  32  33
ATOM     33  C   UNL     1       0.586  12.709   3.898  1.00  0.00     0.116 C 
BRANCH  33  34
ATOM     34  N   UNL     1      -0.825  12.922   4.204  1.00  0.00    -0.352 N 
ATOM     35  C   UNL     1      -1.433  13.956   4.885  1.00  0.00     0.251 C 
ATOM     36  H   UNL     1      -1.434  12.222   3.875  1.00  0.00     0.163 HD
ATOM     37  O   UNL     1      -2.642  13.934   5.094  1.00  0.00    -0.269 OA
BRANCH  35  38
ATOM     38  C   UNL     1      -0.610  15.061   5.423  1.00  0.00     0.039 A 
ATOM     39  C   UNL     1       0.395  15.637   4.648  1.00  0.00     0.014 A 
ATOM     40  C   UNL     1      -0.783  15.457   6.752  1.00  0.00     0.014 A 
ATOM     41  C   UNL     1       1.379  16.395   5.267  1.00  0.00     0.010 A 
ATOM     42  C   UNL     1       0.141  16.327   7.341  1.00  0.00     0.010 A 
ATOM     43  C   UNL     1       1.277  16.737   6.627  1.00  0.00    -0.014 A 
BRANCH  43  44
ATOM     44  C   UNL     1       2.386  17.489   7.275  1.00  0.00     0.031 A 
ATOM     45  C   UNL     1       3.166  16.891   8.418  1.00  0.00     0.074 A 
ATOM     46  C   UNL     1       2.748  18.686   6.776  1.00  0.00     0.049 A 
ATOM     47  N   UNL     1       4.189  17.393   9.068  1.00  0.00    -0.248 NA
ATOM     48  C   UNL     1       2.748  15.565   8.901  1.00  0.00     0.031 C 
ATOM     49  C   UNL     1       2.093  19.360   5.653  1.00  0.00     0.029 A 
ATOM     50  N   UNL     1       3.774  19.531   7.119  1.00  0.00    -0.354 N 
ATOM     51  C   UNL     1       4.526  16.453  10.035  1.00  0.00     0.074 A 
ATOM     52  C   UNL     1       3.570  15.374   9.924  1.00  0.00     0.031 C 
ATOM     53  C   UNL     1       2.772  20.475   5.355  1.00  0.00     0.029 A 
ATOM     54  C   UNL     1       3.857  20.644   6.317  1.00  0.00     0.049 A 
ATOM     55  H   UNL     1       4.391  19.357   7.866  1.00  0.00     0.167 HD
ATOM     56  C   UNL     1       5.549  16.477  10.923  1.00  0.00     0.031 A 
ATOM     57  C   UNL     1       4.696  21.697   6.350  1.00  0.00     0.031 A 
ATOM     58  C   UNL     1       6.499  17.555  11.032  1.00  0.00     0.049 A 
ATOM     59  C   UNL     1       5.782  21.736   7.383  1.00  0.00     0.074 A 
ATOM     60  C   UNL     1       7.569  17.670  11.903  1.00  0.00     0.029 A 
ATOM     61  N   UNL     1       6.500  18.697  10.245  1.00  0.00    -0.354 N 
ATOM     62  N   UNL     1       6.082  20.842   8.294  1.00  0.00    -0.248 NA
ATOM     63  C   UNL     1       6.650  22.921   7.393  1.00  0.00     0.031 C 
ATOM     64  C   UNL     1       8.171  18.912  11.694  1.00  0.00     0.029 A 
ATOM     65  C   UNL     1       7.535  19.534  10.630  1.00  0.00     0.049 A 
ATOM     66  H   UNL     1       5.861  18.885   9.520  1.00  0.00     0.167 HD
ATOM     67  C   UNL     1       7.181  21.346   8.976  1.00  0.00     0.074 A 
ATOM     68  C   UNL     1       7.508  22.616   8.359  1.00  0.00     0.031 C 
ATOM     69  C   UNL     1       7.854  20.800  10.018  1.00  0.00     0.031 A 
BRANCH  56  70
ATOM     70  C   UNL     1       5.698  15.308  11.863  1.00  0.00    -0.014 A 
ATOM     71  C   UNL     1       5.535  15.494  13.246  1.00  0.00     0.009 A 
ATOM     72  C   UNL     1       6.078  14.039  11.396  1.00  0.00     0.009 A 
ATOM     73  C   UNL     1       5.759  14.444  14.139  1.00  0.00     0.001 A 
ATOM     74  C   UNL     1       6.265  12.979  12.287  1.00  0.00     0.001 A 
ATOM     75  C   UNL     1       6.116  13.185  13.658  1.00  0.00     0.000 A 
ENDBRANCH  56  70
BRANCH  57  76
ATOM     76  C   UNL     1       4.518  22.781   5.347  1.00  0.00    -0.014 A 
ATOM     77  C   UNL     1       3.357  23.574   5.359  1.00  0.00     0.009 A 
ATOM     78  C   UNL     1       5.446  22.957   4.311  1.00  0.00     0.009 A 
ATOM     79  C   UNL     1       3.104  24.482   4.330  1.00  0.00     0.001 A 
ATOM     80  C   UNL     1       5.208  23.894   3.302  1.00  0.00     0.001 A 
ATOM     81  C   UNL     1       4.030  24.641   3.302  1.00  0.00     0.000 A 
ENDBRANCH  57  76
BRANCH  69  82
ATOM     82  C   UNL     1       9.033  21.554  10.573  1.00  0.00    -0.014 A 
ATOM     83  C   UNL     1      10.323  21.009  10.459  1.00  0.00     0.009 A 
ATOM     84  C   UNL     1       8.860  22.735  11.312  1.00  0.00     0.009 A 
ATOM     85  C   UNL     1      11.410  21.613  11.093  1.00  0.00     0.001 A 
ATOM     86  C   UNL     1       9.956  23.357  11.915  1.00  0.00     0.001 A 
ATOM     87  C   UNL     1      11.226  22.789  11.817  1.00  0.00     0.000 A 
ENDBRANCH  69  82
ENDBRANCH  43  44
ENDBRANCH  35  38
ENDBRANCH  33  34
ENDBRANCH  32  33
ENDBRANCH  31  32
ENDBRANCH   1  31
TORSDOF 15
