REMARK SMILES COc1ccccc1C[N@@H+](C)[C@@H](C)c1ccc(C(=O)NCCCCNC(=O)c2ccc(-c3c4nc(c(-c5ccccc5)c5ccc([nH]5)c(-c5ccccc5)c5nc(c(-c6ccccc6)c6ccc3[nH]6)C=C5)C=C4)cc2)o1
REMARK SMILES IDX 21 1 20 2 18 3 19 4 17 6 14 7 15 8 76 9 16 10 12 11 13 12
REMARK SMILES IDX 10 13 11 14 9 16 8 17 3 18 4 19 5 20 7 21 6 22 2 23 1 24
REMARK SMILES IDX 22 25 23 26 24 27 25 28 26 29 27 31 28 32 29 33 75 34 30 35
REMARK SMILES IDX 74 36 31 37 32 38 33 39 68 40 34 41 73 42 67 43 69 44 35 45
REMARK SMILES IDX 72 46 66 47 65 48 36 50 58 51 43 52 57 53 44 54 47 55 56 56
REMARK SMILES IDX 70 57 45 58 46 59 55 61 71 62 48 63 37 64 38 65 42 66 39 67
REMARK SMILES IDX 41 68 40 69 59 70 60 71 64 72 61 73 63 74 62 75 49 76 50 77
REMARK SMILES IDX 54 78 51 79 53 80 52 81
REMARK H PARENT 20 5 10 15 25 30 69 49 47 60
REMARK Flexibility Score: inf
ROOT
ATOM      1  C   UNL     1      -0.423   2.764   6.012  1.00  0.00     0.116 C 
ENDROOT
BRANCH   1   2
ATOM      2  N   UNL     1      -0.073   4.140   5.722  1.00  0.00    -0.349 N 
ATOM      3  C   UNL     1       0.945   4.604   4.916  1.00  0.00     0.287 C 
ATOM      4  O   UNL     1       0.898   5.785   4.572  1.00  0.00    -0.266 OA
ATOM      5  H   UNL     1      -0.630   4.828   6.154  1.00  0.00     0.163 HD
BRANCH   3   6
ATOM      6  C   UNL     1       2.004   3.699   4.532  1.00  0.00     0.191 A 
ATOM      7  C   UNL     1       3.318   2.664   3.092  1.00  0.00     0.161 A 
ATOM      8  C   UNL     1       3.728   2.276   4.353  1.00  0.00     0.053 A 
ATOM      9  O   UNL     1       2.288   3.555   3.202  1.00  0.00    -0.450 OA
ATOM     10  C   UNL     1       2.882   2.933   5.274  1.00  0.00     0.057 A 
BRANCH   7  11
ATOM     11  C   UNL     1       3.842   2.350   1.715  1.00  0.00     0.248 C 
ATOM     12  C   UNL     1       2.984   2.961   0.598  1.00  0.00     0.084 C 
BRANCH  11  13
ATOM     13  N   UNL     1       4.162   0.901   1.571  1.00  0.00    -0.325 N 
ATOM     14  C   UNL     1       5.271   0.714   0.632  1.00  0.00     0.333 C 
ATOM     15  H   UNL     1       4.421   0.594   2.508  1.00  0.00     0.348 HD
BRANCH  13  16
ATOM     16  C   UNL     1       3.024   0.051   1.163  1.00  0.00     0.303 C 
BRANCH  16  17
ATOM     17  C   UNL     1       1.996  -0.215   2.241  1.00  0.00     0.048 A 
ATOM     18  C   UNL     1       0.627   0.000   2.036  1.00  0.00     0.127 A 
ATOM     19  C   UNL     1      -0.305  -0.263   3.044  1.00  0.00     0.047 A 
ATOM     20  C   UNL     1       0.114  -0.800   4.259  1.00  0.00     0.004 A 
ATOM     21  C   UNL     1       2.398  -0.771   3.469  1.00  0.00     0.013 A 
ATOM     22  C   UNL     1       1.466  -1.058   4.470  1.00  0.00     0.001 A 
BRANCH  18  23
ATOM     23  O   UNL     1       0.169   0.520   0.855  1.00  0.00    -0.496 OA
ATOM     24  C   UNL     1      -0.291  -0.516  -0.015  1.00  0.00     0.278 C 
ENDBRANCH  18  23
ENDBRANCH  16  17
ENDBRANCH  13  16
ENDBRANCH  11  13
ENDBRANCH   7  11
ENDBRANCH   3   6
ENDBRANCH   1   2
BRANCH   1  25
ATOM     25  C   UNL     1      -0.017   2.313   7.413  1.00  0.00     0.023 C 
BRANCH  25  26
ATOM     26  C   UNL     1      -0.582   3.140   8.574  1.00  0.00     0.023 C 
BRANCH  26  27
ATOM     27  C   UNL     1      -2.100   3.317   8.608  1.00  0.00     0.116 C 
BRANCH  27  28
ATOM     28  N   UNL     1      -2.821   2.057   8.583  1.00  0.00    -0.352 N 
ATOM     29  C   UNL     1      -3.927   1.644   9.280  1.00  0.00     0.251 C 
ATOM     30  H   UNL     1      -2.455   1.388   7.960  1.00  0.00     0.163 HD
ATOM     31  O   UNL     1      -4.308   0.482   9.152  1.00  0.00    -0.269 OA
BRANCH  29  32
ATOM     32  C   UNL     1      -4.657   2.547  10.203  1.00  0.00     0.039 A 
ATOM     33  C   UNL     1      -5.135   2.005  11.403  1.00  0.00     0.014 A 
ATOM     34  C   UNL     1      -4.941   3.879   9.887  1.00  0.00     0.014 A 
ATOM     35  C   UNL     1      -5.846   2.802  12.304  1.00  0.00     0.010 A 
ATOM     36  C   UNL     1      -5.625   4.686  10.802  1.00  0.00     0.010 A 
ATOM     37  C   UNL     1      -6.080   4.154  12.018  1.00  0.00    -0.014 A 
BRANCH  37  38
ATOM     38  C   UNL     1      -6.788   5.017  12.993  1.00  0.00     0.031 A 
ATOM     39  C   UNL     1      -8.207   5.445  12.753  1.00  0.00     0.074 A 
ATOM     40  C   UNL     1      -6.140   5.444  14.093  1.00  0.00     0.049 A 
ATOM     41  N   UNL     1      -8.959   6.239  13.473  1.00  0.00    -0.248 NA
ATOM     42  C   UNL     1      -8.861   4.925  11.543  1.00  0.00     0.031 C 
ATOM     43  C   UNL     1      -4.754   5.127  14.438  1.00  0.00     0.029 A 
ATOM     44  N   UNL     1      -6.568   6.244  15.123  1.00  0.00    -0.354 N 
ATOM     45  C   UNL     1     -10.162   6.343  12.788  1.00  0.00     0.074 A 
ATOM     46  C   UNL     1     -10.043   5.523  11.600  1.00  0.00     0.031 C 
ATOM     47  C   UNL     1      -4.450   5.715  15.607  1.00  0.00     0.029 A 
ATOM     48  C   UNL     1      -5.613   6.458  16.083  1.00  0.00     0.049 A 
ATOM     49  H   UNL     1      -7.474   6.627  15.168  1.00  0.00     0.167 HD
ATOM     50  C   UNL     1     -11.264   7.058  13.114  1.00  0.00     0.031 A 
ATOM     51  C   UNL     1      -5.664   7.173  17.221  1.00  0.00     0.031 A 
ATOM     52  C   UNL     1     -11.414   7.847  14.306  1.00  0.00     0.049 A 
ATOM     53  C   UNL     1      -6.922   7.896  17.596  1.00  0.00     0.074 A 
ATOM     54  C   UNL     1     -12.510   8.583  14.724  1.00  0.00     0.029 A 
ATOM     55  N   UNL     1     -10.440   7.992  15.279  1.00  0.00    -0.354 N 
ATOM     56  N   UNL     1      -8.051   7.978  16.938  1.00  0.00    -0.248 NA
ATOM     57  C   UNL     1      -6.910   8.623  18.874  1.00  0.00     0.031 C 
ATOM     58  C   UNL     1     -12.198   9.175  15.954  1.00  0.00     0.029 A 
ATOM     59  C   UNL     1     -10.910   8.802  16.299  1.00  0.00     0.049 A 
ATOM     60  H   UNL     1      -9.546   7.582  15.249  1.00  0.00     0.167 HD
ATOM     61  C   UNL     1      -8.885   8.763  17.720  1.00  0.00     0.074 A 
ATOM     62  C   UNL     1      -8.136   9.128  18.905  1.00  0.00     0.031 C 
ATOM     63  C   UNL     1     -10.159   9.150  17.473  1.00  0.00     0.031 A 
BRANCH  50  64
ATOM     64  C   UNL     1     -12.403   7.024  12.143  1.00  0.00    -0.014 A 
ATOM     65  C   UNL     1     -13.360   6.001  12.194  1.00  0.00     0.009 A 
ATOM     66  C   UNL     1     -12.531   8.039  11.183  1.00  0.00     0.009 A 
ATOM     67  C   UNL     1     -14.419   5.986  11.285  1.00  0.00     0.001 A 
ATOM     68  C   UNL     1     -13.594   8.024  10.280  1.00  0.00     0.001 A 
ATOM     69  C   UNL     1     -14.535   6.995  10.329  1.00  0.00     0.000 A 
ENDBRANCH  50  64
BRANCH  51  70
ATOM     70  C   UNL     1      -4.477   7.229  18.103  1.00  0.00    -0.014 A 
ATOM     71  C   UNL     1      -4.340   6.319  19.160  1.00  0.00     0.009 A 
ATOM     72  C   UNL     1      -3.476   8.186  17.883  1.00  0.00     0.009 A 
ATOM     73  C   UNL     1      -3.220   6.372  19.991  1.00  0.00     0.001 A 
ATOM     74  C   UNL     1      -2.356   8.232  18.713  1.00  0.00     0.001 A 
ATOM     75  C   UNL     1      -2.230   7.328  19.767  1.00  0.00     0.000 A 
ENDBRANCH  51  70
BRANCH  63  76
ATOM     76  C   UNL     1     -10.818  10.002  18.511  1.00  0.00    -0.014 A 
ATOM     77  C   UNL     1     -10.671  11.397  18.484  1.00  0.00     0.009 A 
ATOM     78  C   UNL     1     -11.603   9.412  19.512  1.00  0.00     0.009 A 
ATOM     79  C   UNL     1     -11.289  12.187  19.454  1.00  0.00     0.001 A 
ATOM     80  C   UNL     1     -12.222  10.206  20.479  1.00  0.00     0.001 A 
ATOM     81  C   UNL     1     -12.062  11.591  20.451  1.00  0.00     0.000 A 
ENDBRANCH  63  76
ENDBRANCH  37  38
ENDBRANCH  29  32
ENDBRANCH  27  28
ENDBRANCH  26  27
ENDBRANCH  25  26
ENDBRANCH   1  25
TORSDOF 16
