REMARK SMILES CC(=O)NC(C)(C)C(=O)N1C[C@@H](C(=O)NCCCCNC(=O)c2ccc(-c3c4nc(c(-c5ccccc5)c5ccc([nH]5)c(-c5ccccc5)c5nc(c(-c6ccccc6)c6ccc3[nH]6)C=C5)C=C4)cc2)[C@H](c2ccccc2C)C1
REMARK SMILES IDX 17 1 16 2 15 3 13 4 14 5 12 7 10 8 11 9 79 10 71 11 8 12
REMARK SMILES IDX 9 13 5 14 6 15 7 16 4 17 1 18 2 19 3 20 72 22 73 23 77 24
REMARK SMILES IDX 74 25 76 26 78 27 75 28 18 29 19 30 20 31 21 32 22 34 23 35
REMARK SMILES IDX 24 36 70 37 25 38 69 39 26 40 27 41 28 42 63 43 29 44 68 45
REMARK SMILES IDX 62 46 64 47 30 48 67 49 61 50 60 51 31 53 53 54 38 55 52 56
REMARK SMILES IDX 39 57 42 58 51 59 65 60 40 61 41 62 50 64 66 65 43 66 32 67
REMARK SMILES IDX 33 68 37 69 34 70 36 71 35 72 54 73 55 74 59 75 56 76 58 77
REMARK SMILES IDX 57 78 44 79 45 80 49 81 46 82 48 83 47 84
REMARK H PARENT 15 6 4 21 20 33 64 52 42 63
REMARK Flexibility Score: inf
ROOT
ATOM      1  C   UNL     1       1.648  -5.816  -4.046  1.00  0.00     0.023 C 
ENDROOT
BRANCH   1   2
ATOM      2  C   UNL     1       1.808  -6.002  -2.544  1.00  0.00     0.116 C 
BRANCH   2   3
ATOM      3  N   UNL     1       3.025  -6.696  -2.159  1.00  0.00    -0.356 N 
ATOM      4  C   UNL     1       4.052  -6.386  -1.328  1.00  0.00     0.225 C 
ATOM      5  O   UNL     1       4.728  -7.348  -0.944  1.00  0.00    -0.275 OA
ATOM      6  H   UNL     1       3.125  -7.575  -2.591  1.00  0.00     0.163 HD
BRANCH   4   7
ATOM      7  C   UNL     1       4.424  -4.987  -0.856  1.00  0.00     0.107 C 
ATOM      8  N   UNL     1       3.333  -2.939  -0.381  1.00  0.00    -0.339 N 
ATOM      9  C   UNL     1       3.303  -4.346  -0.064  1.00  0.00     0.133 C 
ATOM     10  C   UNL     1       4.047  -2.715  -1.634  1.00  0.00     0.128 C 
ATOM     11  C   UNL     1       4.894  -3.975  -1.934  1.00  0.00     0.053 C 
BRANCH   8  12
ATOM     12  C   UNL     1       2.473  -1.953   0.083  1.00  0.00     0.247 C 
ATOM     13  O   UNL     1       2.192  -1.042  -0.700  1.00  0.00    -0.272 OA
BRANCH  12  14
ATOM     14  C   UNL     1       1.812  -2.043   1.517  1.00  0.00     0.113 C 
ATOM     15  C   UNL     1       2.916  -2.369   2.551  1.00  0.00     0.045 C 
ATOM     16  C   UNL     1       0.716  -3.119   1.533  1.00  0.00     0.045 C 
BRANCH  14  17
ATOM     17  N   UNL     1       1.212  -0.787   2.088  1.00  0.00    -0.342 N 
ATOM     18  C   UNL     1       0.411   0.710   0.267  1.00  0.00     0.114 C 
ATOM     19  C   UNL     1       0.334   0.145   1.648  1.00  0.00     0.217 C 
ATOM     20  O   UNL     1      -0.469   0.596   2.469  1.00  0.00    -0.275 OA
ATOM     21  H   UNL     1       1.536  -0.597   2.999  1.00  0.00     0.164 HD
ENDBRANCH  14  17
ENDBRANCH  12  14
ENDBRANCH   8  12
BRANCH  11  22
ATOM     22  C   UNL     1       6.434  -3.808  -1.971  1.00  0.00    -0.039 A 
ATOM     23  C   UNL     1       7.070  -2.609  -1.577  1.00  0.00     0.004 A 
ATOM     24  C   UNL     1       7.285  -4.854  -2.418  1.00  0.00    -0.048 A 
ATOM     25  C   UNL     1       8.466  -2.459  -1.591  1.00  0.00     0.000 A 
ATOM     26  C   UNL     1       8.690  -4.703  -2.372  1.00  0.00     0.004 A 
ATOM     27  C   UNL     1       6.803  -6.184  -2.927  1.00  0.00     0.044 C 
ATOM     28  C   UNL     1       9.279  -3.514  -1.970  1.00  0.00     0.000 A 
ENDBRANCH  11  22
ENDBRANCH   4   7
ENDBRANCH   2   3
ENDBRANCH   1   2
BRANCH   1  29
ATOM     29  C   UNL     1       1.413  -7.085  -4.865  1.00  0.00     0.023 C 
BRANCH  29  30
ATOM     30  C   UNL     1       0.252  -7.973  -4.426  1.00  0.00     0.116 C 
BRANCH  30  31
ATOM     31  N   UNL     1      -1.026  -7.285  -4.322  1.00  0.00    -0.352 N 
ATOM     32  C   UNL     1      -2.286  -7.766  -4.614  1.00  0.00     0.251 C 
ATOM     33  H   UNL     1      -0.986  -6.355  -4.002  1.00  0.00     0.163 HD
ATOM     34  O   UNL     1      -3.264  -7.045  -4.533  1.00  0.00    -0.269 OA
BRANCH  32  35
ATOM     35  C   UNL     1      -2.427  -9.166  -5.074  1.00  0.00     0.039 A 
ATOM     36  C   UNL     1      -3.102  -9.416  -6.271  1.00  0.00     0.014 A 
ATOM     37  C   UNL     1      -1.841 -10.211  -4.357  1.00  0.00     0.014 A 
ATOM     38  C   UNL     1      -3.119 -10.711  -6.793  1.00  0.00     0.010 A 
ATOM     39  C   UNL     1      -1.798 -11.485  -4.914  1.00  0.00     0.010 A 
ATOM     40  C   UNL     1      -2.429 -11.746  -6.141  1.00  0.00    -0.014 A 
BRANCH  40  41
ATOM     41  C   UNL     1      -2.344 -13.105  -6.732  1.00  0.00     0.031 A 
ATOM     42  C   UNL     1      -2.960 -14.278  -6.022  1.00  0.00     0.074 A 
ATOM     43  C   UNL     1      -1.649 -13.295  -7.871  1.00  0.00     0.049 A 
ATOM     44  N   UNL     1      -2.938 -15.545  -6.349  1.00  0.00    -0.248 NA
ATOM     45  C   UNL     1      -3.671 -13.993  -4.765  1.00  0.00     0.031 C 
ATOM     46  C   UNL     1      -0.962 -12.248  -8.632  1.00  0.00     0.029 A 
ATOM     47  N   UNL     1      -1.398 -14.440  -8.585  1.00  0.00    -0.354 N 
ATOM     48  C   UNL     1      -3.613 -16.208  -5.332  1.00  0.00     0.074 A 
ATOM     49  C   UNL     1      -3.988 -15.212  -4.353  1.00  0.00     0.031 C 
ATOM     50  C   UNL     1      -0.392 -12.796  -9.718  1.00  0.00     0.029 A 
ATOM     51  C   UNL     1      -0.637 -14.234  -9.711  1.00  0.00     0.049 A 
ATOM     52  H   UNL     1      -1.731 -15.327  -8.315  1.00  0.00     0.167 HD
ATOM     53  C   UNL     1      -3.912 -17.525  -5.231  1.00  0.00     0.031 A 
ATOM     54  C   UNL     1      -0.184 -15.105 -10.632  1.00  0.00     0.031 A 
ATOM     55  C   UNL     1      -3.552 -18.513  -6.212  1.00  0.00     0.049 A 
ATOM     56  C   UNL     1      -0.528 -16.563 -10.495  1.00  0.00     0.074 A 
ATOM     57  C   UNL     1      -3.866 -19.861  -6.231  1.00  0.00     0.029 A 
ATOM     58  N   UNL     1      -2.797 -18.260  -7.346  1.00  0.00    -0.354 N 
ATOM     59  N   UNL     1      -1.234 -17.161  -9.566  1.00  0.00    -0.248 NA
ATOM     60  C   UNL     1      -0.022 -17.462 -11.541  1.00  0.00     0.031 C 
ATOM     61  C   UNL     1      -3.256 -20.434  -7.352  1.00  0.00     0.029 A 
ATOM     62  C   UNL     1      -2.612 -19.431  -8.060  1.00  0.00     0.049 A 
ATOM     63  H   UNL     1      -2.445 -17.378  -7.606  1.00  0.00     0.167 HD
ATOM     64  C   UNL     1      -1.281 -18.500  -9.931  1.00  0.00     0.074 A 
ATOM     65  C   UNL     1      -0.547 -18.623 -11.174  1.00  0.00     0.031 C 
ATOM     66  C   UNL     1      -1.880 -19.536  -9.295  1.00  0.00     0.031 A 
BRANCH  53  67
ATOM     67  C   UNL     1      -4.664 -17.972  -4.008  1.00  0.00    -0.014 A 
ATOM     68  C   UNL     1      -6.010 -17.625  -3.813  1.00  0.00     0.009 A 
ATOM     69  C   UNL     1      -4.028 -18.784  -3.057  1.00  0.00     0.009 A 
ATOM     70  C   UNL     1      -6.693 -18.050  -2.672  1.00  0.00     0.001 A 
ATOM     71  C   UNL     1      -4.722 -19.233  -1.931  1.00  0.00     0.001 A 
ATOM     72  C   UNL     1      -6.050 -18.858  -1.735  1.00  0.00     0.000 A 
ENDBRANCH  53  67
BRANCH  54  73
ATOM     73  C   UNL     1       0.634 -14.625 -11.776  1.00  0.00    -0.014 A 
ATOM     74  C   UNL     1       0.109 -14.627 -13.078  1.00  0.00     0.009 A 
ATOM     75  C   UNL     1       1.949 -14.176 -11.577  1.00  0.00     0.009 A 
ATOM     76  C   UNL     1       0.893 -14.218 -14.159  1.00  0.00     0.001 A 
ATOM     77  C   UNL     1       2.721 -13.740 -12.656  1.00  0.00     0.001 A 
ATOM     78  C   UNL     1       2.196 -13.771 -13.947  1.00  0.00     0.000 A 
ENDBRANCH  54  73
BRANCH  66  79
ATOM     79  C   UNL     1      -1.797 -20.886  -9.949  1.00  0.00    -0.014 A 
ATOM     80  C   UNL     1      -0.597 -21.613  -9.975  1.00  0.00     0.009 A 
ATOM     81  C   UNL     1      -2.950 -21.456 -10.511  1.00  0.00     0.009 A 
ATOM     82  C   UNL     1      -0.547 -22.870 -10.580  1.00  0.00     0.001 A 
ATOM     83  C   UNL     1      -2.904 -22.725 -11.089  1.00  0.00     0.001 A 
ATOM     84  C   UNL     1      -1.701 -23.427 -11.131  1.00  0.00     0.000 A 
ENDBRANCH  66  79
ENDBRANCH  40  41
ENDBRANCH  32  35
ENDBRANCH  30  31
ENDBRANCH  29  30
ENDBRANCH   1  29
TORSDOF 15
