REMARK SMILES Cc1ccc(C(=O)NCCCCNC(=O)c2ccc(-c3c4nc(c(-c5ccccc5)c5ccc([nH]5)c(-c5ccccc5)c5nc(c(-c6ccccc6)c6ccc3[nH]6)C=C5)C=C4)cc2)cc1NC(=O)Cc1ccc2ccccc2c1
REMARK SMILES IDX 10 1 9 2 8 3 6 4 7 5 5 7 1 8 2 9 3 10 65 11 4 12 64 13 66 14
REMARK SMILES IDX 67 15 68 17 69 18 70 19 71 20 79 21 72 22 78 23 73 24 77 25
REMARK SMILES IDX 74 26 76 27 75 28 11 29 12 30 13 31 14 32 15 34 16 35 17 36
REMARK SMILES IDX 63 37 18 38 62 39 19 40 20 41 21 42 56 43 22 44 61 45 55 46
REMARK SMILES IDX 57 47 23 48 60 49 54 50 53 51 24 53 46 54 31 55 45 56 32 57
REMARK SMILES IDX 35 58 44 59 58 60 33 61 34 62 43 64 59 65 36 66 25 67 26 68
REMARK SMILES IDX 30 69 27 70 29 71 28 72 47 73 48 74 52 75 49 76 51 77 50 78
REMARK SMILES IDX 37 79 38 80 42 81 39 82 41 83 40 84
REMARK H PARENT 8 6 66 16 13 33 57 52 35 63
REMARK Flexibility Score: inf
ROOT
ATOM      1  C   UNL     1      -4.062   2.786  -2.057  1.00  0.00     0.023 C 
ENDROOT
BRANCH   1   2
ATOM      2  C   UNL     1      -3.750   2.304  -0.634  1.00  0.00     0.116 C 
BRANCH   2   3
ATOM      3  N   UNL     1      -3.954   0.901  -0.358  1.00  0.00    -0.352 N 
ATOM      4  C   UNL     1      -3.092  -0.102   0.031  1.00  0.00     0.251 C 
ATOM      5  O   UNL     1      -3.593  -1.193   0.310  1.00  0.00    -0.269 OA
ATOM      6  H   UNL     1      -4.886   0.604  -0.467  1.00  0.00     0.163 HD
BRANCH   4   7
ATOM      7  C   UNL     1      -1.599   0.023   0.054  1.00  0.00     0.041 A 
ATOM      8  C   UNL     1       2.728  -0.022  -0.117  1.00  0.00     0.046 C 
ATOM      9  C   UNL     1       1.226   0.100  -0.053  1.00  0.00    -0.027 A 
ATOM     10  C   UNL     1       0.514  -1.098  -0.279  1.00  0.00     0.006 A 
ATOM     11  C   UNL     1       0.517   1.283   0.263  1.00  0.00     0.044 A 
ATOM     12  C   UNL     1      -0.878  -1.127  -0.262  1.00  0.00     0.014 A 
ATOM     13  C   UNL     1      -0.882   1.177   0.411  1.00  0.00     0.040 A 
BRANCH  11  14
ATOM     14  N   UNL     1       1.237   2.510   0.390  1.00  0.00    -0.326 N 
ATOM     15  C   UNL     1       0.884   3.851   0.424  1.00  0.00     0.228 C 
ATOM     16  H   UNL     1       2.208   2.371   0.472  1.00  0.00     0.169 HD
ATOM     17  O   UNL     1       1.790   4.683   0.482  1.00  0.00    -0.274 OA
BRANCH  15  18
ATOM     18  C   UNL     1      -0.570   4.220   0.383  1.00  0.00     0.135 C 
BRANCH  18  19
ATOM     19  C   UNL     1      -1.131   5.599   0.119  1.00  0.00    -0.038 A 
ATOM     20  C   UNL     1      -2.520   5.619  -0.096  1.00  0.00     0.005 A 
ATOM     21  C   UNL     1      -0.464   6.825   0.107  1.00  0.00     0.013 A 
ATOM     22  C   UNL     1      -3.212   6.775  -0.412  1.00  0.00     0.009 A 
ATOM     23  C   UNL     1      -1.171   8.035  -0.144  1.00  0.00    -0.018 A 
ATOM     24  C   UNL     1      -2.554   7.990  -0.438  1.00  0.00    -0.018 A 
ATOM     25  C   UNL     1      -0.570   9.305  -0.083  1.00  0.00     0.009 A 
ATOM     26  C   UNL     1      -3.282   9.154  -0.714  1.00  0.00     0.009 A 
ATOM     27  C   UNL     1      -1.316  10.472  -0.304  1.00  0.00     0.001 A 
ATOM     28  C   UNL     1      -2.666  10.396  -0.637  1.00  0.00     0.001 A 
ENDBRANCH  18  19
ENDBRANCH  15  18
ENDBRANCH  11  14
ENDBRANCH   4   7
ENDBRANCH   2   3
ENDBRANCH   1   2
BRANCH   1  29
ATOM     29  C   UNL     1      -5.536   3.000  -2.409  1.00  0.00     0.023 C 
BRANCH  29  30
ATOM     30  C   UNL     1      -6.282   4.000  -1.529  1.00  0.00     0.116 C 
BRANCH  30  31
ATOM     31  N   UNL     1      -6.385   5.374  -2.004  1.00  0.00    -0.352 N 
ATOM     32  C   UNL     1      -6.827   6.515  -1.329  1.00  0.00     0.251 C 
ATOM     33  H   UNL     1      -6.101   5.520  -2.936  1.00  0.00     0.163 HD
ATOM     34  O   UNL     1      -6.915   7.571  -1.919  1.00  0.00    -0.269 OA
BRANCH  32  35
ATOM     35  C   UNL     1      -7.066   6.476   0.147  1.00  0.00     0.039 A 
ATOM     36  C   UNL     1      -6.755   7.604   0.930  1.00  0.00     0.014 A 
ATOM     37  C   UNL     1      -7.482   5.314   0.777  1.00  0.00     0.014 A 
ATOM     38  C   UNL     1      -6.697   7.502   2.327  1.00  0.00     0.010 A 
ATOM     39  C   UNL     1      -7.298   5.170   2.131  1.00  0.00     0.010 A 
ATOM     40  C   UNL     1      -6.902   6.259   2.914  1.00  0.00    -0.014 A 
BRANCH  40  41
ATOM     41  C   UNL     1      -6.830   5.931   4.332  1.00  0.00     0.031 A 
ATOM     42  C   UNL     1      -8.088   5.646   5.066  1.00  0.00     0.074 A 
ATOM     43  C   UNL     1      -5.645   5.529   4.836  1.00  0.00     0.049 A 
ATOM     44  N   UNL     1      -8.158   5.370   6.324  1.00  0.00    -0.248 NA
ATOM     45  C   UNL     1      -9.404   5.696   4.423  1.00  0.00     0.031 C 
ATOM     46  C   UNL     1      -5.409   4.598   5.937  1.00  0.00     0.029 A 
ATOM     47  N   UNL     1      -4.395   6.064   4.583  1.00  0.00    -0.354 N 
ATOM     48  C   UNL     1      -9.416   4.865   6.556  1.00  0.00     0.074 A 
ATOM     49  C   UNL     1     -10.190   5.228   5.396  1.00  0.00     0.031 C 
ATOM     50  C   UNL     1      -4.161   4.773   6.402  1.00  0.00     0.029 A 
ATOM     51  C   UNL     1      -3.635   5.965   5.758  1.00  0.00     0.049 A 
ATOM     52  H   UNL     1      -4.092   6.448   3.729  1.00  0.00     0.167 HD
ATOM     53  C   UNL     1      -9.613   4.044   7.623  1.00  0.00     0.031 A 
ATOM     54  C   UNL     1      -3.262   7.091   6.445  1.00  0.00     0.031 A 
ATOM     55  C   UNL     1      -8.470   4.067   8.534  1.00  0.00     0.049 A 
ATOM     56  C   UNL     1      -3.810   7.178   7.852  1.00  0.00     0.074 A 
ATOM     57  C   UNL     1      -7.456   3.166   8.807  1.00  0.00     0.029 A 
ATOM     58  N   UNL     1      -8.104   5.271   9.125  1.00  0.00    -0.354 N 
ATOM     59  N   UNL     1      -4.843   6.506   8.275  1.00  0.00    -0.248 NA
ATOM     60  C   UNL     1      -3.272   8.076   8.870  1.00  0.00     0.031 C 
ATOM     61  C   UNL     1      -6.417   3.876   9.468  1.00  0.00     0.029 A 
ATOM     62  C   UNL     1      -6.826   5.188   9.638  1.00  0.00     0.049 A 
ATOM     63  H   UNL     1      -8.675   6.072   9.169  1.00  0.00     0.167 HD
ATOM     64  C   UNL     1      -5.129   6.872   9.561  1.00  0.00     0.074 A 
ATOM     65  C   UNL     1      -4.108   7.846   9.898  1.00  0.00     0.031 C 
ATOM     66  C   UNL     1      -6.199   6.360  10.233  1.00  0.00     0.031 A 
BRANCH  53  67
ATOM     67  C   UNL     1     -10.735   3.033   7.737  1.00  0.00    -0.014 A 
ATOM     68  C   UNL     1     -10.761   2.159   8.841  1.00  0.00     0.009 A 
ATOM     69  C   UNL     1     -11.714   2.799   6.754  1.00  0.00     0.009 A 
ATOM     70  C   UNL     1     -11.690   1.113   8.944  1.00  0.00     0.001 A 
ATOM     71  C   UNL     1     -12.664   1.773   6.862  1.00  0.00     0.001 A 
ATOM     72  C   UNL     1     -12.645   0.921   7.955  1.00  0.00     0.000 A 
ENDBRANCH  53  67
BRANCH  54  73
ATOM     73  C   UNL     1      -3.118   8.281   5.559  1.00  0.00    -0.014 A 
ATOM     74  C   UNL     1      -2.104   8.253   4.584  1.00  0.00     0.009 A 
ATOM     75  C   UNL     1      -4.200   9.160   5.393  1.00  0.00     0.009 A 
ATOM     76  C   UNL     1      -2.258   8.965   3.396  1.00  0.00     0.001 A 
ATOM     77  C   UNL     1      -4.336   9.886   4.206  1.00  0.00     0.001 A 
ATOM     78  C   UNL     1      -3.390   9.751   3.192  1.00  0.00     0.000 A 
ENDBRANCH  54  73
BRANCH  66  79
ATOM     79  C   UNL     1      -6.725   6.884  11.542  1.00  0.00    -0.014 A 
ATOM     80  C   UNL     1      -6.564   8.207  11.975  1.00  0.00     0.009 A 
ATOM     81  C   UNL     1      -7.543   6.048  12.331  1.00  0.00     0.009 A 
ATOM     82  C   UNL     1      -7.138   8.656  13.171  1.00  0.00     0.001 A 
ATOM     83  C   UNL     1      -8.154   6.504  13.501  1.00  0.00     0.001 A 
ATOM     84  C   UNL     1      -7.937   7.806  13.931  1.00  0.00     0.000 A 
ENDBRANCH  66  79
ENDBRANCH  40  41
ENDBRANCH  32  35
ENDBRANCH  30  31
ENDBRANCH  29  30
ENDBRANCH   1  29
TORSDOF 14
