REMARK SMILES CC1(C)[C@H](C(=O)N(Cc2ccccc2)Cc2ccccc2)CC[C@@]1(C)C(=O)NCCCCNC(=O)c1ccc(-c2c3nc(c(-c4ccccc4)c4ccc([nH]4)c(-c4ccccc4)c4nc(c(-c5ccccc5)c5ccc2[nH]5)C=C4)C=C3)cc1
REMARK SMILES IDX 30 1 29 2 28 3 26 4 27 5 24 7 1 8 2 9 3 10 4 11 22 12 23 13
REMARK SMILES IDX 25 14 5 15 6 16 7 17 8 18 9 19 10 20 14 21 11 22 13 23 12 24
REMARK SMILES IDX 15 25 16 26 17 27 21 28 18 29 20 30 19 31 31 32 32 33 33 34
REMARK SMILES IDX 34 35 35 37 36 38 37 39 83 40 38 41 82 42 39 43 40 44 41 45
REMARK SMILES IDX 76 46 42 47 81 48 75 49 77 50 43 51 80 52 74 53 73 54 44 56
REMARK SMILES IDX 66 57 51 58 65 59 52 60 55 61 64 62 78 63 53 64 54 65 63 67
REMARK SMILES IDX 79 68 56 69 45 70 46 71 50 72 47 73 49 74 48 75 67 76 68 77
REMARK SMILES IDX 72 78 69 79 71 80 70 81 57 82 58 83 62 84 59 85 61 86 60 87
REMARK H PARENT 28 6 33 36 77 55 55 66
REMARK Flexibility Score: inf
ROOT
ATOM      1  C   UNL     1      -3.979   0.967  -0.146  1.00  0.00     0.023 C 
ENDROOT
BRANCH   1   2
ATOM      2  C   UNL     1      -2.470   1.116   0.051  1.00  0.00     0.116 C 
BRANCH   2   3
ATOM      3  N   UNL     1      -2.023   0.267   1.132  1.00  0.00    -0.356 N 
ATOM      4  C   UNL     1      -1.581  -1.017   1.160  1.00  0.00     0.226 C 
ATOM      5  O   UNL     1      -1.557  -1.535   2.281  1.00  0.00    -0.274 OA
ATOM      6  H   UNL     1      -2.043   0.701   2.015  1.00  0.00     0.163 HD
BRANCH   4   7
ATOM      7  C   UNL     1      -1.026  -1.753  -0.087  1.00  0.00     0.052 C 
ATOM      8  C   UNL     1       1.162  -0.487   0.702  1.00  0.00     0.013 C 
ATOM      9  C   UNL     1       0.489  -1.332  -0.414  1.00  0.00    -0.010 C 
ATOM     10  C   UNL     1       0.616  -0.483  -1.673  1.00  0.00     0.013 C 
ATOM     11  C   UNL     1       1.246  -2.698  -0.489  1.00  0.00     0.085 C 
ATOM     12  C   UNL     1       0.212  -3.795  -0.643  1.00  0.00     0.015 C 
ATOM     13  C   UNL     1      -0.900  -3.276   0.260  1.00  0.00     0.018 C 
ATOM     14  C   UNL     1      -2.008  -1.722  -1.283  1.00  0.00     0.022 C 
BRANCH  11  15
ATOM     15  C   UNL     1       2.587  -2.861  -1.210  1.00  0.00     0.226 C 
ATOM     16  O   UNL     1       3.560  -3.033  -0.455  1.00  0.00    -0.275 OA
ATOM     17  N   UNL     1       2.787  -2.848  -2.587  1.00  0.00    -0.334 N 
BRANCH  17  18
ATOM     18  C   UNL     1       1.781  -2.995  -3.662  1.00  0.00     0.155 C 
BRANCH  18  19
ATOM     19  C   UNL     1       1.698  -1.886  -4.708  1.00  0.00    -0.029 A 
ATOM     20  C   UNL     1       2.784  -1.480  -5.496  1.00  0.00     0.005 A 
ATOM     21  C   UNL     1       0.470  -1.239  -4.945  1.00  0.00     0.005 A 
ATOM     22  C   UNL     1       2.697  -0.370  -6.343  1.00  0.00     0.000 A 
ATOM     23  C   UNL     1       0.379  -0.123  -5.782  1.00  0.00     0.000 A 
ATOM     24  C   UNL     1       1.503   0.330  -6.460  1.00  0.00     0.000 A 
ENDBRANCH  18  19
ENDBRANCH  17  18
BRANCH  17  25
ATOM     25  C   UNL     1       4.195  -3.031  -2.969  1.00  0.00     0.155 C 
BRANCH  25  26
ATOM     26  C   UNL     1       5.085  -1.840  -2.663  1.00  0.00    -0.029 A 
ATOM     27  C   UNL     1       6.375  -2.058  -2.153  1.00  0.00     0.005 A 
ATOM     28  C   UNL     1       4.666  -0.516  -2.861  1.00  0.00     0.005 A 
ATOM     29  C   UNL     1       7.209  -0.984  -1.834  1.00  0.00     0.000 A 
ATOM     30  C   UNL     1       5.503   0.557  -2.552  1.00  0.00     0.000 A 
ATOM     31  C   UNL     1       6.773   0.323  -2.035  1.00  0.00     0.000 A 
ENDBRANCH  25  26
ENDBRANCH  17  25
ENDBRANCH  11  15
ENDBRANCH   4   7
ENDBRANCH   2   3
ENDBRANCH   1   2
BRANCH   1  32
ATOM     32  C   UNL     1      -4.814   1.599   0.973  1.00  0.00     0.023 C 
BRANCH  32  33
ATOM     33  C   UNL     1      -4.617   3.101   1.146  1.00  0.00     0.116 C 
BRANCH  33  34
ATOM     34  N   UNL     1      -4.906   3.855  -0.065  1.00  0.00    -0.352 N 
ATOM     35  C   UNL     1      -5.439   5.117  -0.174  1.00  0.00     0.251 C 
ATOM     36  H   UNL     1      -4.691   3.404  -0.913  1.00  0.00     0.163 HD
ATOM     37  O   UNL     1      -5.729   5.584  -1.266  1.00  0.00    -0.269 OA
BRANCH  35  38
ATOM     38  C   UNL     1      -5.696   5.884   1.060  1.00  0.00     0.039 A 
ATOM     39  C   UNL     1      -6.979   6.387   1.283  1.00  0.00     0.014 A 
ATOM     40  C   UNL     1      -4.688   6.045   2.014  1.00  0.00     0.014 A 
ATOM     41  C   UNL     1      -7.274   6.992   2.505  1.00  0.00     0.010 A 
ATOM     42  C   UNL     1      -5.000   6.594   3.252  1.00  0.00     0.010 A 
ATOM     43  C   UNL     1      -6.297   7.062   3.511  1.00  0.00    -0.014 A 
BRANCH  43  44
ATOM     44  C   UNL     1      -6.616   7.599   4.854  1.00  0.00     0.031 A 
ATOM     45  C   UNL     1      -5.965   8.863   5.334  1.00  0.00     0.074 A 
ATOM     46  C   UNL     1      -7.430   6.903   5.670  1.00  0.00     0.049 A 
ATOM     47  N   UNL     1      -6.058   9.446   6.502  1.00  0.00    -0.248 NA
ATOM     48  C   UNL     1      -5.074   9.549   4.385  1.00  0.00     0.031 C 
ATOM     49  C   UNL     1      -8.094   5.642   5.334  1.00  0.00     0.029 A 
ATOM     50  N   UNL     1      -7.830   7.156   6.958  1.00  0.00    -0.354 N 
ATOM     51  C   UNL     1      -5.225  10.555   6.434  1.00  0.00     0.074 A 
ATOM     52  C   UNL     1      -4.602  10.539   5.128  1.00  0.00     0.031 C 
ATOM     53  C   UNL     1      -8.839   5.246   6.378  1.00  0.00     0.029 A 
ATOM     54  C   UNL     1      -8.674   6.201   7.469  1.00  0.00     0.049 A 
ATOM     55  H   UNL     1      -7.539   7.947   7.467  1.00  0.00     0.167 HD
ATOM     56  C   UNL     1      -5.010  11.511   7.369  1.00  0.00     0.031 A 
ATOM     57  C   UNL     1      -9.246   6.103   8.683  1.00  0.00     0.031 A 
ATOM     58  C   UNL     1      -5.634  11.530   8.664  1.00  0.00     0.049 A 
ATOM     59  C   UNL     1      -8.975   7.163   9.711  1.00  0.00     0.074 A 
ATOM     60  C   UNL     1      -5.527  12.486   9.660  1.00  0.00     0.029 A 
ATOM     61  N   UNL     1      -6.480  10.543   9.145  1.00  0.00    -0.354 N 
ATOM     62  N   UNL     1      -8.234   8.240   9.611  1.00  0.00    -0.248 NA
ATOM     63  C   UNL     1      -9.624   6.995  11.019  1.00  0.00     0.031 C 
ATOM     64  C   UNL     1      -6.275  12.054  10.761  1.00  0.00     0.029 A 
ATOM     65  C   UNL     1      -6.883  10.853  10.433  1.00  0.00     0.049 A 
ATOM     66  H   UNL     1      -6.753   9.740   8.646  1.00  0.00     0.167 HD
ATOM     67  C   UNL     1      -8.344   8.890  10.832  1.00  0.00     0.074 A 
ATOM     68  C   UNL     1      -9.233   8.093  11.653  1.00  0.00     0.031 C 
ATOM     69  C   UNL     1      -7.763  10.045  11.237  1.00  0.00     0.031 A 
BRANCH  56  70
ATOM     70  C   UNL     1      -4.048  12.609   7.016  1.00  0.00    -0.014 A 
ATOM     71  C   UNL     1      -4.379  13.586   6.064  1.00  0.00     0.009 A 
ATOM     72  C   UNL     1      -2.798  12.674   7.650  1.00  0.00     0.009 A 
ATOM     73  C   UNL     1      -3.461  14.581   5.722  1.00  0.00     0.001 A 
ATOM     74  C   UNL     1      -1.893  13.686   7.327  1.00  0.00     0.001 A 
ATOM     75  C   UNL     1      -2.220  14.632   6.356  1.00  0.00     0.000 A 
ENDBRANCH  56  70
BRANCH  57  76
ATOM     76  C   UNL     1     -10.152   4.966   8.984  1.00  0.00    -0.014 A 
ATOM     77  C   UNL     1     -11.537   5.171   9.069  1.00  0.00     0.009 A 
ATOM     78  C   UNL     1      -9.642   3.673   9.178  1.00  0.00     0.009 A 
ATOM     79  C   UNL     1     -12.393   4.107   9.361  1.00  0.00     0.001 A 
ATOM     80  C   UNL     1     -10.503   2.607   9.446  1.00  0.00     0.001 A 
ATOM     81  C   UNL     1     -11.876   2.825   9.544  1.00  0.00     0.000 A 
ENDBRANCH  57  76
BRANCH  69  82
ATOM     82  C   UNL     1      -8.090  10.527  12.620  1.00  0.00    -0.014 A 
ATOM     83  C   UNL     1      -7.534   9.913  13.753  1.00  0.00     0.009 A 
ATOM     84  C   UNL     1      -8.932  11.637  12.789  1.00  0.00     0.009 A 
ATOM     85  C   UNL     1      -7.837  10.387  15.030  1.00  0.00     0.001 A 
ATOM     86  C   UNL     1      -9.214  12.123  14.066  1.00  0.00     0.001 A 
ATOM     87  C   UNL     1      -8.672  11.493  15.186  1.00  0.00     0.000 A 
ENDBRANCH  69  82
ENDBRANCH  43  44
ENDBRANCH  35  38
ENDBRANCH  33  34
ENDBRANCH  32  33
ENDBRANCH   1  32
TORSDOF 16
