REMARK SMILES O=C(NCCCCNC(=O)c1ccc(-c2c3nc(c(-c4ccccc4)c4ccc([nH]4)c(-c4ccccc4)c4nc(c(-c5ccccc5)c5ccc2[nH]5)C=C4)C=C3)cc1)C1=Cc2cc(Cl)c(Cl)c(Cl)c2O[C@@H]1C(F)(F)F
REMARK SMILES IDX 6 1 5 2 4 3 3 4 1 5 2 6 59 8 60 9 71 10 61 11 70 12 62 13
REMARK SMILES IDX 69 14 63 15 67 16 64 17 65 18 68 19 66 20 72 21 73 22 74 23
REMARK SMILES IDX 75 24 7 25 8 26 9 27 10 29 11 30 12 31 58 32 13 33 57 34
REMARK SMILES IDX 14 35 15 36 16 37 51 38 17 39 56 40 50 41 52 42 18 43 55 44
REMARK SMILES IDX 49 45 48 46 19 48 41 49 26 50 40 51 27 52 30 53 39 54 53 55
REMARK SMILES IDX 28 56 29 57 38 59 54 60 31 61 20 62 21 63 25 64 22 65 24 66
REMARK SMILES IDX 23 67 42 68 43 69 47 70 44 71 46 72 45 73 32 74 33 75 37 76
REMARK SMILES IDX 34 77 36 78 35 79
REMARK H PARENT 3 7 8 28 52 47 30 58
REMARK Flexibility Score: inf
ROOT
ATOM      1  C   UNL     1       4.123  -4.324   0.073  1.00  0.00     0.023 C 
ENDROOT
BRANCH   1   2
ATOM      2  C   UNL     1       4.303  -2.965   0.749  1.00  0.00     0.023 C 
BRANCH   2   3
ATOM      3  C   UNL     1       3.669  -1.806  -0.023  1.00  0.00     0.116 C 
BRANCH   3   4
ATOM      4  N   UNL     1       2.557  -1.167   0.683  1.00  0.00    -0.352 N 
ATOM      5  O   UNL     1       1.180   0.556   1.229  1.00  0.00    -0.270 OA
ATOM      6  C   UNL     1       2.277   0.170   0.850  1.00  0.00     0.251 C 
ATOM      7  H   UNL     1       1.914  -1.785   1.099  1.00  0.00     0.163 HD
BRANCH   6   8
ATOM      8  C   UNL     1       3.337   1.129   0.484  1.00  0.00     0.067 C 
ATOM      9  C   UNL     1       4.489   1.052   1.161  1.00  0.00     0.025 C 
ATOM     10  C   UNL     1       3.212   1.833  -0.830  1.00  0.00     0.314 C 
ATOM     11  C   UNL     1       5.677   1.095   0.300  1.00  0.00     0.020 A 
ATOM     12  O   UNL     1       4.337   1.540  -1.694  1.00  0.00    -0.474 OA
ATOM     13  C   UNL     1       6.868   0.607   0.842  1.00  0.00     0.034 A 
ATOM     14  C   UNL     1       5.527   1.177  -1.099  1.00  0.00     0.148 A 
ATOM     15  C   UNL     1       7.859   0.093   0.002  1.00  0.00     0.062 A 
ATOM     16  C   UNL     1       6.542   0.694  -1.944  1.00  0.00     0.103 A 
ATOM     17  Cl  UNL     1       9.199  -0.683   0.774  1.00  0.00    -0.083 Cl
ATOM     18  C   UNL     1       7.698   0.115  -1.393  1.00  0.00     0.082 A 
ATOM     19  Cl  UNL     1       6.262   0.678  -3.661  1.00  0.00    -0.079 Cl
ATOM     20  Cl  UNL     1       8.871  -0.656  -2.415  1.00  0.00    -0.081 Cl
BRANCH  10  21
ATOM     21  C   UNL     1       3.033   3.352  -0.660  1.00  0.00     0.429 C 
ATOM     22  F   UNL     1       2.779   3.947  -1.851  1.00  0.00    -0.167 F 
ATOM     23  F   UNL     1       1.999   3.653   0.158  1.00  0.00    -0.167 F 
ATOM     24  F   UNL     1       4.139   3.941  -0.147  1.00  0.00    -0.167 F 
ENDBRANCH  10  21
ENDBRANCH   6   8
ENDBRANCH   3   4
ENDBRANCH   2   3
ENDBRANCH   1   2
BRANCH   1  25
ATOM     25  C   UNL     1       4.696  -4.453  -1.338  1.00  0.00     0.116 C 
BRANCH  25  26
ATOM     26  N   UNL     1       6.143  -4.317  -1.422  1.00  0.00    -0.352 N 
ATOM     27  C   UNL     1       7.020  -5.061  -2.183  1.00  0.00     0.251 C 
ATOM     28  H   UNL     1       6.544  -3.608  -0.870  1.00  0.00     0.163 HD
ATOM     29  O   UNL     1       8.230  -4.867  -2.122  1.00  0.00    -0.269 OA
BRANCH  27  30
ATOM     30  C   UNL     1       6.484  -6.149  -3.028  1.00  0.00     0.039 A 
ATOM     31  C   UNL     1       6.947  -7.451  -2.822  1.00  0.00     0.014 A 
ATOM     32  C   UNL     1       5.444  -5.898  -3.925  1.00  0.00     0.014 A 
ATOM     33  C   UNL     1       6.288  -8.520  -3.434  1.00  0.00     0.010 A 
ATOM     34  C   UNL     1       4.745  -6.968  -4.475  1.00  0.00     0.010 A 
ATOM     35  C   UNL     1       5.145  -8.290  -4.216  1.00  0.00    -0.014 A 
BRANCH  35  36
ATOM     36  C   UNL     1       4.329  -9.408  -4.753  1.00  0.00     0.031 A 
ATOM     37  C   UNL     1       4.178  -9.575  -6.239  1.00  0.00     0.074 A 
ATOM     38  C   UNL     1       3.640 -10.204  -3.910  1.00  0.00     0.049 A 
ATOM     39  N   UNL     1       3.399 -10.389  -6.904  1.00  0.00    -0.248 NA
ATOM     40  C   UNL     1       4.987  -8.685  -7.089  1.00  0.00     0.031 C 
ATOM     41  C   UNL     1       3.664 -10.121  -2.447  1.00  0.00     0.029 A 
ATOM     42  N   UNL     1       2.768 -11.234  -4.166  1.00  0.00    -0.354 N 
ATOM     43  C   UNL     1       3.596 -10.084  -8.245  1.00  0.00     0.074 A 
ATOM     44  C   UNL     1       4.541  -8.991  -8.298  1.00  0.00     0.031 C 
ATOM     45  C   UNL     1       2.860 -11.069  -1.938  1.00  0.00     0.029 A 
ATOM     46  C   UNL     1       2.232 -11.800  -3.034  1.00  0.00     0.049 A 
ATOM     47  H   UNL     1       2.547 -11.539  -5.076  1.00  0.00     0.167 HD
ATOM     48  C   UNL     1       3.050 -10.671  -9.335  1.00  0.00     0.031 A 
ATOM     49  C   UNL     1       1.328 -12.789  -2.894  1.00  0.00     0.031 A 
ATOM     50  C   UNL     1       2.140 -11.782  -9.285  1.00  0.00     0.049 A 
ATOM     51  C   UNL     1       0.759 -13.443  -4.123  1.00  0.00     0.074 A 
ATOM     52  C   UNL     1       1.579 -12.485 -10.337  1.00  0.00     0.029 A 
ATOM     53  N   UNL     1       1.666 -12.359  -8.117  1.00  0.00    -0.354 N 
ATOM     54  N   UNL     1       0.999 -13.178  -5.384  1.00  0.00    -0.248 NA
ATOM     55  C   UNL     1      -0.198 -14.539  -3.909  1.00  0.00     0.031 C 
ATOM     56  C   UNL     1       0.741 -13.470  -9.805  1.00  0.00     0.029 A 
ATOM     57  C   UNL     1       0.814 -13.405  -8.423  1.00  0.00     0.049 A 
ATOM     58  H   UNL     1       1.901 -12.068  -7.207  1.00  0.00     0.167 HD
ATOM     59  C   UNL     1       0.252 -14.096  -6.111  1.00  0.00     0.074 A 
ATOM     60  C   UNL     1      -0.444 -14.928  -5.152  1.00  0.00     0.031 C 
ATOM     61  C   UNL     1       0.152 -14.237  -7.454  1.00  0.00     0.031 A 
BRANCH  48  62
ATOM     62  C   UNL     1       3.426 -10.119 -10.680  1.00  0.00    -0.014 A 
ATOM     63  C   UNL     1       4.705 -10.328 -11.219  1.00  0.00     0.009 A 
ATOM     64  C   UNL     1       2.476  -9.412 -11.434  1.00  0.00     0.009 A 
ATOM     65  C   UNL     1       5.036  -9.811 -12.473  1.00  0.00     0.001 A 
ATOM     66  C   UNL     1       2.802  -8.919 -12.698  1.00  0.00     0.001 A 
ATOM     67  C   UNL     1       4.083  -9.111 -13.213  1.00  0.00     0.000 A 
ENDBRANCH  48  62
BRANCH  49  68
ATOM     68  C   UNL     1       0.908 -13.239  -1.541  1.00  0.00    -0.014 A 
ATOM     69  C   UNL     1       1.315 -14.489  -1.050  1.00  0.00     0.009 A 
ATOM     70  C   UNL     1       0.077 -12.436  -0.744  1.00  0.00     0.009 A 
ATOM     71  C   UNL     1       0.873 -14.941   0.196  1.00  0.00     0.001 A 
ATOM     72  C   UNL     1      -0.342 -12.879   0.513  1.00  0.00     0.001 A 
ATOM     73  C   UNL     1       0.047 -14.135   0.977  1.00  0.00     0.000 A 
ENDBRANCH  49  68
BRANCH  61  74
ATOM     74  C   UNL     1      -0.692 -15.366  -7.969  1.00  0.00    -0.014 A 
ATOM     75  C   UNL     1      -2.092 -15.295  -7.953  1.00  0.00     0.009 A 
ATOM     76  C   UNL     1      -0.069 -16.488  -8.536  1.00  0.00     0.009 A 
ATOM     77  C   UNL     1      -2.854 -16.341  -8.476  1.00  0.00     0.001 A 
ATOM     78  C   UNL     1      -0.833 -17.521  -9.079  1.00  0.00     0.001 A 
ATOM     79  C   UNL     1      -2.225 -17.449  -9.044  1.00  0.00     0.000 A 
ENDBRANCH  61  74
ENDBRANCH  35  36
ENDBRANCH  27  30
ENDBRANCH  25  26
ENDBRANCH   1  25
TORSDOF 12
