REMARK SMILES CC1=C(CC(=O)NCCCCNC(=O)c2ccc(-c3c4nc(c(-c5ccccc5)c5ccc([nH]5)c(-c5ccccc5)c5nc(c(-c6ccccc6)c6ccc3[nH]6)C=C5)C=C4)cc2)c2cc(F)ccc2/C1=C\c1ccc([S@@+](C)[O-])cc1
REMARK SMILES IDX 9 1 8 2 7 3 5 4 6 5 4 7 3 8 1 9 2 10 70 11 63 12 69 13 71 14
REMARK SMILES IDX 64 15 68 16 65 17 67 18 66 19 72 20 73 21 80 22 74 23 79 24
REMARK SMILES IDX 75 25 76 26 77 27 78 28 10 29 11 30 12 31 13 32 14 34 15 35
REMARK SMILES IDX 16 36 62 37 17 38 61 39 18 40 19 41 20 42 55 43 21 44 60 45
REMARK SMILES IDX 54 46 56 47 22 48 59 49 53 50 52 51 23 53 45 54 30 55 44 56
REMARK SMILES IDX 31 57 34 58 43 59 57 60 32 61 33 62 42 64 58 65 35 66 24 67
REMARK SMILES IDX 25 68 29 69 26 70 28 71 27 72 46 73 47 74 51 75 48 76 50 77
REMARK SMILES IDX 49 78 36 79 37 80 41 81 38 82 40 83 39 84
REMARK H PARENT 7 6 12 33 56 52 34 63
REMARK Flexibility Score: inf
ROOT
ATOM      1  C   UNL     1      -2.006  -2.101   1.190  1.00  0.00     0.023 C 
ENDROOT
BRANCH   1   2
ATOM      2  C   UNL     1      -0.827  -2.138   2.163  1.00  0.00     0.116 C 
BRANCH   2   3
ATOM      3  N   UNL     1      -0.188  -3.436   2.209  1.00  0.00    -0.356 N 
ATOM      4  C   UNL     1       0.945  -3.855   1.573  1.00  0.00     0.224 C 
ATOM      5  O   UNL     1       1.313  -5.019   1.751  1.00  0.00    -0.275 OA
ATOM      6  H   UNL     1      -0.631  -4.108   2.776  1.00  0.00     0.163 HD
BRANCH   4   7
ATOM      7  C   UNL     1       1.748  -2.895   0.694  1.00  0.00     0.136 C 
BRANCH   7   8
ATOM      8  C   UNL     1       1.038  -2.499  -0.560  1.00  0.00    -0.027 C 
ATOM      9  C   UNL     1       1.136   0.035  -0.374  1.00  0.00     0.045 C 
ATOM     10  C   UNL     1       0.727  -1.256  -1.003  1.00  0.00    -0.039 C 
ATOM     11  C   UNL     1      -0.055  -1.358  -2.245  1.00  0.00    -0.014 C 
ATOM     12  C   UNL     1       0.571  -3.467  -1.567  1.00  0.00    -0.011 A 
ATOM     13  C   UNL     1      -0.045  -2.784  -2.632  1.00  0.00    -0.010 A 
ATOM     14  C   UNL     1      -0.710  -0.333  -2.826  1.00  0.00     0.017 C 
ATOM     15  C   UNL     1       0.701  -4.850  -1.592  1.00  0.00     0.048 A 
ATOM     16  C   UNL     1      -0.475  -3.477  -3.757  1.00  0.00     0.012 A 
ATOM     17  C   UNL     1       0.215  -5.538  -2.699  1.00  0.00     0.123 A 
ATOM     18  C   UNL     1      -0.358  -4.868  -3.780  1.00  0.00     0.040 A 
ATOM     19  F   UNL     1       0.314  -6.873  -2.740  1.00  0.00    -0.207 F 
BRANCH  14  20
ATOM     20  C   UNL     1      -1.529  -0.426  -4.038  1.00  0.00    -0.025 A 
ATOM     21  C   UNL     1      -2.749  -1.114  -4.041  1.00  0.00     0.013 A 
ATOM     22  C   UNL     1      -1.026   0.086  -5.235  1.00  0.00     0.013 A 
ATOM     23  C   UNL     1      -3.391  -1.399  -5.251  1.00  0.00     0.061 A 
ATOM     24  C   UNL     1      -1.681  -0.178  -6.440  1.00  0.00     0.061 A 
ATOM     25  C   UNL     1      -2.846  -0.956  -6.462  1.00  0.00     0.152 A 
BRANCH  25  26
ATOM     26  S   UNL     1      -3.504  -1.521  -8.052  1.00  0.00    -0.018 S 
ATOM     27  C   UNL     1      -5.245  -1.111  -7.830  1.00  0.00     0.346 C 
ATOM     28  O   UNL     1      -2.920  -0.569  -9.155  1.00  0.00    -0.612 OA
ENDBRANCH  25  26
ENDBRANCH  14  20
ENDBRANCH   7   8
ENDBRANCH   4   7
ENDBRANCH   2   3
ENDBRANCH   1   2
BRANCH   1  29
ATOM     29  C   UNL     1      -3.233  -2.902   1.627  1.00  0.00     0.023 C 
BRANCH  29  30
ATOM     30  C   UNL     1      -3.828  -2.501   2.970  1.00  0.00     0.116 C 
BRANCH  30  31
ATOM     31  N   UNL     1      -4.262  -1.112   3.037  1.00  0.00    -0.352 N 
ATOM     32  C   UNL     1      -5.271  -0.574   3.804  1.00  0.00     0.251 C 
ATOM     33  H   UNL     1      -3.772  -0.480   2.463  1.00  0.00     0.163 HD
ATOM     34  O   UNL     1      -5.579   0.609   3.692  1.00  0.00    -0.269 OA
BRANCH  32  35
ATOM     35  C   UNL     1      -6.025  -1.457   4.721  1.00  0.00     0.039 A 
ATOM     36  C   UNL     1      -5.351  -2.337   5.569  1.00  0.00     0.014 A 
ATOM     37  C   UNL     1      -7.421  -1.464   4.664  1.00  0.00     0.014 A 
ATOM     38  C   UNL     1      -6.058  -3.350   6.204  1.00  0.00     0.010 A 
ATOM     39  C   UNL     1      -8.137  -2.433   5.374  1.00  0.00     0.010 A 
ATOM     40  C   UNL     1      -7.456  -3.426   6.094  1.00  0.00    -0.014 A 
BRANCH  40  41
ATOM     41  C   UNL     1      -8.167  -4.582   6.701  1.00  0.00     0.031 A 
ATOM     42  C   UNL     1      -8.863  -5.598   5.831  1.00  0.00     0.074 A 
ATOM     43  C   UNL     1      -8.108  -4.769   8.033  1.00  0.00     0.049 A 
ATOM     44  N   UNL     1      -9.464  -6.707   6.184  1.00  0.00    -0.248 NA
ATOM     45  C   UNL     1      -8.888  -5.344   4.381  1.00  0.00     0.031 C 
ATOM     46  C   UNL     1      -7.449  -3.869   8.981  1.00  0.00     0.029 A 
ATOM     47  N   UNL     1      -8.572  -5.796   8.816  1.00  0.00    -0.354 N 
ATOM     48  C   UNL     1      -9.952  -7.268   5.010  1.00  0.00     0.074 A 
ATOM     49  C   UNL     1      -9.602  -6.369   3.934  1.00  0.00     0.031 C 
ATOM     50  C   UNL     1      -7.493  -4.414  10.206  1.00  0.00     0.029 A 
ATOM     51  C   UNL     1      -8.230  -5.672  10.141  1.00  0.00     0.049 A 
ATOM     52  H   UNL     1      -9.099  -6.549   8.463  1.00  0.00     0.167 HD
ATOM     53  C   UNL     1     -10.621  -8.432   4.842  1.00  0.00     0.031 A 
ATOM     54  C   UNL     1      -8.477  -6.479  11.191  1.00  0.00     0.031 A 
ATOM     55  C   UNL     1     -10.954  -9.341   5.906  1.00  0.00     0.049 A 
ATOM     56  C   UNL     1      -9.231  -7.760  10.977  1.00  0.00     0.074 A 
ATOM     57  C   UNL     1     -11.631 -10.546   5.825  1.00  0.00     0.029 A 
ATOM     58  N   UNL     1     -10.623  -9.155   7.238  1.00  0.00    -0.354 N 
ATOM     59  N   UNL     1      -9.685  -8.269   9.859  1.00  0.00    -0.248 NA
ATOM     60  C   UNL     1      -9.501  -8.580  12.167  1.00  0.00     0.031 C 
ATOM     61  C   UNL     1     -11.746 -11.069   7.114  1.00  0.00     0.029 A 
ATOM     62  C   UNL     1     -11.091 -10.219   7.989  1.00  0.00     0.049 A 
ATOM     63  H   UNL     1     -10.129  -8.382   7.596  1.00  0.00     0.167 HD
ATOM     64  C   UNL     1     -10.278  -9.476  10.207  1.00  0.00     0.074 A 
ATOM     65  C   UNL     1     -10.111  -9.632  11.636  1.00  0.00     0.031 C 
ATOM     66  C   UNL     1     -10.908 -10.370   9.408  1.00  0.00     0.031 A 
BRANCH  53  67
ATOM     67  C   UNL     1     -11.054  -8.806   3.452  1.00  0.00    -0.014 A 
ATOM     68  C   UNL     1     -12.417  -8.777   3.115  1.00  0.00     0.009 A 
ATOM     69  C   UNL     1     -10.131  -9.289   2.511  1.00  0.00     0.009 A 
ATOM     70  C   UNL     1     -12.850  -9.237   1.870  1.00  0.00     0.001 A 
ATOM     71  C   UNL     1     -10.565  -9.726   1.258  1.00  0.00     0.001 A 
ATOM     72  C   UNL     1     -11.923  -9.709   0.942  1.00  0.00     0.000 A 
ENDBRANCH  53  67
BRANCH  54  73
ATOM     73  C   UNL     1      -7.982  -6.095  12.539  1.00  0.00    -0.014 A 
ATOM     74  C   UNL     1      -8.536  -4.994  13.213  1.00  0.00     0.009 A 
ATOM     75  C   UNL     1      -6.929  -6.799  13.141  1.00  0.00     0.009 A 
ATOM     76  C   UNL     1      -8.032  -4.594  14.451  1.00  0.00     0.001 A 
ATOM     77  C   UNL     1      -6.447  -6.415  14.394  1.00  0.00     0.001 A 
ATOM     78  C   UNL     1      -6.992  -5.308  15.044  1.00  0.00     0.000 A 
ENDBRANCH  54  73
BRANCH  66  79
ATOM     79  C   UNL     1     -11.446 -11.621  10.041  1.00  0.00    -0.014 A 
ATOM     80  C   UNL     1     -10.833 -12.855   9.769  1.00  0.00     0.009 A 
ATOM     81  C   UNL     1     -12.614 -11.595  10.817  1.00  0.00     0.009 A 
ATOM     82  C   UNL     1     -11.386 -14.041  10.252  1.00  0.00     0.001 A 
ATOM     83  C   UNL     1     -13.151 -12.782  11.320  1.00  0.00     0.001 A 
ATOM     84  C   UNL     1     -12.542 -14.004  11.030  1.00  0.00     0.000 A 
ENDBRANCH  66  79
ENDBRANCH  40  41
ENDBRANCH  32  35
ENDBRANCH  30  31
ENDBRANCH  29  30
ENDBRANCH   1  29
TORSDOF 14
