REMARK SMILES CCOc1cc2nccc(Nc3ccc(C(=O)NCCCCNC(=O)c4ccc(-c5c6nc(c(-c7ccccc7)c7ccc([nH]7)c(-c7ccccc7)c7nc(c(-c8ccccc8)c8ccc5[nH]8)C=C7)C=C6)cc4)cc3)c2cc1OCC
REMARK SMILES IDX 19 1 18 2 16 3 17 4 15 6 12 7 13 8 75 9 14 10 74 11 11 12
REMARK SMILES IDX 10 14 4 15 5 16 78 17 6 18 77 19 7 20 76 21 8 22 9 23 3 24
REMARK SMILES IDX 2 25 1 26 79 27 80 28 81 29 20 30 21 31 22 32 23 33 24 34
REMARK SMILES IDX 25 36 26 37 27 38 73 39 28 40 72 41 29 42 30 43 31 44 66 45
REMARK SMILES IDX 32 46 71 47 65 48 67 49 33 50 70 51 64 52 63 53 34 55 56 56
REMARK SMILES IDX 41 57 55 58 42 59 45 60 54 61 68 62 43 63 44 64 53 66 69 67
REMARK SMILES IDX 46 68 35 69 36 70 40 71 37 72 39 73 38 74 57 75 58 76 62 77
REMARK SMILES IDX 59 78 61 79 60 80 47 81 48 82 52 83 49 84 51 85 50 86
REMARK H PARENT 18 5 11 13 23 35 67 54 45 65
REMARK Flexibility Score: inf
ROOT
ATOM      1  C   UNL     1      13.371   1.768  -3.991  1.00  0.00     0.116 C 
ENDROOT
BRANCH   1   2
ATOM      2  N   UNL     1      13.785   0.467  -3.509  1.00  0.00    -0.352 N 
ATOM      3  C   UNL     1      13.076  -0.548  -2.920  1.00  0.00     0.251 C 
ATOM      4  O   UNL     1      13.694  -1.555  -2.575  1.00  0.00    -0.269 OA
ATOM      5  H   UNL     1      14.744   0.278  -3.624  1.00  0.00     0.163 HD
BRANCH   3   6
ATOM      6  C   UNL     1      11.597  -0.511  -2.765  1.00  0.00     0.039 A 
ATOM      7  C   UNL     1       8.783  -0.626  -2.666  1.00  0.00     0.038 A 
ATOM      8  C   UNL     1       9.540  -1.794  -2.797  1.00  0.00     0.027 A 
ATOM      9  C   UNL     1       9.444   0.594  -2.540  1.00  0.00     0.027 A 
ATOM     10  C   UNL     1      10.932  -1.738  -2.856  1.00  0.00     0.016 A 
ATOM     11  C   UNL     1      10.842   0.644  -2.539  1.00  0.00     0.016 A 
BRANCH   7  12
ATOM     12  N   UNL     1       7.390  -0.717  -2.699  1.00  0.00    -0.355 N 
ATOM     13  H   UNL     1       7.018  -1.398  -2.093  1.00  0.00     0.167 HD
BRANCH  12  14
ATOM     14  C   UNL     1       6.415  -0.012  -3.441  1.00  0.00     0.050 A 
ATOM     15  C   UNL     1       2.378  -0.172  -2.219  1.00  0.00     0.163 A 
ATOM     16  C   UNL     1       2.742   0.433  -3.431  1.00  0.00     0.079 A 
ATOM     17  C   UNL     1       3.372  -0.639  -1.362  1.00  0.00     0.161 A 
ATOM     18  C   UNL     1       4.077   0.545  -3.827  1.00  0.00     0.076 A 
ATOM     19  C   UNL     1       4.699  -0.575  -1.764  1.00  0.00     0.063 A 
ATOM     20  N   UNL     1       4.388   1.149  -4.988  1.00  0.00    -0.256 NA
ATOM     21  C   UNL     1       5.071  -0.018  -2.999  1.00  0.00     0.028 A 
ATOM     22  C   UNL     1       5.691   1.210  -5.348  1.00  0.00     0.114 A 
ATOM     23  C   UNL     1       6.728   0.660  -4.617  1.00  0.00     0.047 A 
BRANCH  15  24
ATOM     24  O   UNL     1       1.077  -0.445  -1.906  1.00  0.00    -0.490 OA
BRANCH  24  25
ATOM     25  C   UNL     1       0.189   0.674  -1.931  1.00  0.00     0.226 C 
ATOM     26  C   UNL     1      -0.892   0.403  -0.892  1.00  0.00     0.049 C 
ENDBRANCH  24  25
ENDBRANCH  15  24
BRANCH  17  27
ATOM     27  O   UNL     1       3.210  -1.203  -0.129  1.00  0.00    -0.490 OA
BRANCH  27  28
ATOM     28  C   UNL     1       2.265  -0.593   0.750  1.00  0.00     0.226 C 
ATOM     29  C   UNL     1       2.493   0.896   0.978  1.00  0.00     0.049 C 
ENDBRANCH  27  28
ENDBRANCH  17  27
ENDBRANCH  12  14
ENDBRANCH   7  12
ENDBRANCH   3   6
ENDBRANCH   1   2
BRANCH   1  30
ATOM     30  C   UNL     1      13.645   2.830  -2.924  1.00  0.00     0.023 C 
BRANCH  30  31
ATOM     31  C   UNL     1      15.115   3.246  -2.836  1.00  0.00     0.023 C 
BRANCH  31  32
ATOM     32  C   UNL     1      15.655   3.920  -4.091  1.00  0.00     0.116 C 
BRANCH  32  33
ATOM     33  N   UNL     1      14.916   5.117  -4.460  1.00  0.00    -0.352 N 
ATOM     34  C   UNL     1      15.389   6.258  -5.059  1.00  0.00     0.251 C 
ATOM     35  H   UNL     1      13.953   5.108  -4.255  1.00  0.00     0.163 HD
ATOM     36  O   UNL     1      14.663   7.235  -5.206  1.00  0.00    -0.269 OA
BRANCH  34  37
ATOM     37  C   UNL     1      16.801   6.307  -5.484  1.00  0.00     0.039 A 
ATOM     38  C   UNL     1      17.588   7.386  -5.077  1.00  0.00     0.014 A 
ATOM     39  C   UNL     1      17.352   5.267  -6.238  1.00  0.00     0.014 A 
ATOM     40  C   UNL     1      18.951   7.389  -5.373  1.00  0.00     0.010 A 
ATOM     41  C   UNL     1      18.722   5.238  -6.469  1.00  0.00     0.010 A 
ATOM     42  C   UNL     1      19.534   6.298  -6.039  1.00  0.00    -0.014 A 
BRANCH  42  43
ATOM     43  C   UNL     1      20.994   6.246  -6.291  1.00  0.00     0.031 A 
ATOM     44  C   UNL     1      21.517   6.257  -7.700  1.00  0.00     0.074 A 
ATOM     45  C   UNL     1      21.845   6.122  -5.254  1.00  0.00     0.049 A 
ATOM     46  N   UNL     1      22.752   6.165  -8.122  1.00  0.00    -0.248 NA
ATOM     47  C   UNL     1      20.518   6.361  -8.777  1.00  0.00     0.031 C 
ATOM     48  C   UNL     1      21.459   6.056  -3.842  1.00  0.00     0.029 A 
ATOM     49  N   UNL     1      23.213   6.024  -5.229  1.00  0.00    -0.354 N 
ATOM     50  C   UNL     1      22.677   6.182  -9.509  1.00  0.00     0.074 A 
ATOM     51  C   UNL     1      21.275   6.242  -9.858  1.00  0.00     0.031 C 
ATOM     52  C   UNL     1      22.566   5.957  -3.089  1.00  0.00     0.029 A 
ATOM     53  C   UNL     1      23.734   5.912  -3.962  1.00  0.00     0.049 A 
ATOM     54  H   UNL     1      23.768   6.032  -6.041  1.00  0.00     0.167 HD
ATOM     55  C   UNL     1      23.686   6.170 -10.411  1.00  0.00     0.031 A 
ATOM     56  C   UNL     1      25.009   5.784  -3.552  1.00  0.00     0.031 A 
ATOM     57  C   UNL     1      25.081   6.120 -10.064  1.00  0.00     0.049 A 
ATOM     58  C   UNL     1      26.110   5.761  -4.575  1.00  0.00     0.074 A 
ATOM     59  C   UNL     1      26.180   6.161 -10.903  1.00  0.00     0.029 A 
ATOM     60  N   UNL     1      25.567   6.016  -8.770  1.00  0.00    -0.354 N 
ATOM     61  N   UNL     1      26.027   5.850  -5.880  1.00  0.00    -0.248 NA
ATOM     62  C   UNL     1      27.483   5.630  -4.065  1.00  0.00     0.031 C 
ATOM     63  C   UNL     1      27.332   6.031 -10.120  1.00  0.00     0.029 A 
ATOM     64  C   UNL     1      26.951   5.968  -8.789  1.00  0.00     0.049 A 
ATOM     65  H   UNL     1      25.012   5.982  -7.958  1.00  0.00     0.167 HD
ATOM     66  C   UNL     1      27.336   5.816  -6.345  1.00  0.00     0.074 A 
ATOM     67  C   UNL     1      28.192   5.713  -5.182  1.00  0.00     0.031 C 
ATOM     68  C   UNL     1      27.788   5.866  -7.622  1.00  0.00     0.031 A 
BRANCH  55  69
ATOM     69  C   UNL     1      23.312   6.206 -11.867  1.00  0.00    -0.014 A 
ATOM     70  C   UNL     1      22.765   7.361 -12.449  1.00  0.00     0.009 A 
ATOM     71  C   UNL     1      23.537   5.080 -12.674  1.00  0.00     0.009 A 
ATOM     72  C   UNL     1      22.416   7.375 -13.801  1.00  0.00     0.001 A 
ATOM     73  C   UNL     1      23.216   5.108 -14.033  1.00  0.00     0.001 A 
ATOM     74  C   UNL     1      22.647   6.251 -14.592  1.00  0.00     0.000 A 
ENDBRANCH  55  69
BRANCH  56  75
ATOM     75  C   UNL     1      25.319   5.685  -2.102  1.00  0.00    -0.014 A 
ATOM     76  C   UNL     1      25.958   6.744  -1.438  1.00  0.00     0.009 A 
ATOM     77  C   UNL     1      24.988   4.530  -1.376  1.00  0.00     0.009 A 
ATOM     78  C   UNL     1      26.284   6.636  -0.084  1.00  0.00     0.001 A 
ATOM     79  C   UNL     1      25.289   4.437  -0.016  1.00  0.00     0.001 A 
ATOM     80  C   UNL     1      25.946   5.486   0.627  1.00  0.00     0.000 A 
ENDBRANCH  56  75
BRANCH  68  81
ATOM     81  C   UNL     1      29.276   5.848  -7.825  1.00  0.00    -0.014 A 
ATOM     82  C   UNL     1      30.026   4.679  -7.622  1.00  0.00     0.009 A 
ATOM     83  C   UNL     1      29.930   7.009  -8.266  1.00  0.00     0.009 A 
ATOM     84  C   UNL     1      31.407   4.684  -7.826  1.00  0.00     0.001 A 
ATOM     85  C   UNL     1      31.306   7.003  -8.497  1.00  0.00     0.001 A 
ATOM     86  C   UNL     1      32.044   5.843  -8.268  1.00  0.00     0.000 A 
ENDBRANCH  68  81
ENDBRANCH  42  43
ENDBRANCH  34  37
ENDBRANCH  32  33
ENDBRANCH  31  32
ENDBRANCH  30  31
ENDBRANCH   1  30
TORSDOF 17
