REMARK SMILES Cc1cc(NS(=O)(=O)c2ccc(NC(=O)[C@@H]3CCCC[C@@H]3C(=O)NCCCCNC(=O)c3ccc(-c4c5nc(c(-c6ccccc6)c6ccc([nH]6)c(-c6ccccc6)c6nc(c(-c7ccccc7)c7ccc4[nH]7)C=C6)C=C5)cc3)cc2)no1
REMARK SMILES IDX 25 1 24 2 22 3 23 4 21 6 16 7 17 8 18 9 20 10 19 11 14 12
REMARK SMILES IDX 13 13 15 15 12 16 9 17 10 18 81 19 11 20 80 21 6 22 7 23
REMARK SMILES IDX 8 24 5 25 4 27 1 28 2 29 3 30 83 31 82 32 26 33 27 34 28 35
REMARK SMILES IDX 29 36 30 37 31 39 32 40 33 41 79 42 34 43 78 44 35 45 36 46
REMARK SMILES IDX 37 47 72 48 38 49 77 50 71 51 73 52 39 53 76 54 70 55 69 56
REMARK SMILES IDX 40 58 62 59 47 60 61 61 48 62 51 63 60 64 74 65 49 66 50 67
REMARK SMILES IDX 59 69 75 70 52 71 41 72 42 73 46 74 43 75 45 76 44 77 63 78
REMARK SMILES IDX 64 79 68 80 65 81 67 82 66 83 53 84 54 85 58 86 55 87 57 88
REMARK SMILES IDX 56 89
REMARK H PARENT 24 5 13 14 5 26 29 38 73 57 51 68
REMARK Flexibility Score: inf
ROOT
ATOM      1  C   UNL     1      -3.066   7.999   2.735  1.00  0.00     0.116 C 
ENDROOT
BRANCH   1   2
ATOM      2  N   UNL     1      -3.628   6.779   3.298  1.00  0.00    -0.356 N 
ATOM      3  C   UNL     1      -3.038   5.589   3.605  1.00  0.00     0.223 C 
ATOM      4  O   UNL     1      -3.732   4.723   4.138  1.00  0.00    -0.275 OA
ATOM      5  H   UNL     1      -4.593   6.821   3.488  1.00  0.00     0.163 HD
BRANCH   3   6
ATOM      6  C   UNL     1      -1.560   5.361   3.303  1.00  0.00     0.091 C 
ATOM      7  C   UNL     1      -1.262   4.771   1.903  1.00  0.00     0.091 C 
ATOM      8  C   UNL     1      -0.881   3.290   1.786  1.00  0.00     0.014 C 
ATOM      9  C   UNL     1      -0.197   2.703   3.011  1.00  0.00     0.001 C 
ATOM     10  C   UNL     1      -0.878   4.611   4.457  1.00  0.00     0.014 C 
ATOM     11  C   UNL     1      -0.904   3.101   4.296  1.00  0.00     0.001 C 
BRANCH   7  12
ATOM     12  C   UNL     1      -2.172   5.350   0.817  1.00  0.00     0.228 C 
ATOM     13  N   UNL     1      -3.306   4.829   0.284  1.00  0.00    -0.326 N 
ATOM     14  H   UNL     1      -3.833   5.491  -0.220  1.00  0.00     0.169 HD
ATOM     15  O   UNL     1      -1.837   6.449   0.341  1.00  0.00    -0.274 OA
BRANCH  13  16
ATOM     16  C   UNL     1      -3.893   3.557   0.295  1.00  0.00     0.041 A 
ATOM     17  C   UNL     1      -4.419   0.856  -0.079  1.00  0.00     0.088 A 
ATOM     18  C   UNL     1      -4.229   1.345   1.214  1.00  0.00     0.024 A 
ATOM     19  C   UNL     1      -4.564   1.735  -1.152  1.00  0.00     0.024 A 
ATOM     20  C   UNL     1      -3.986   2.713   1.398  1.00  0.00     0.027 A 
ATOM     21  C   UNL     1      -4.321   3.091  -0.956  1.00  0.00     0.027 A 
BRANCH  17  22
ATOM     22  S   UNL     1      -4.352  -0.886  -0.401  1.00  0.00     0.263 S 
ATOM     23  O   UNL     1      -4.548  -1.107  -1.820  1.00  0.00    -0.201 OA
ATOM     24  O   UNL     1      -5.218  -1.525   0.568  1.00  0.00    -0.201 OA
BRANCH  22  25
ATOM     25  N   UNL     1      -2.805  -1.380  -0.010  1.00  0.00    -0.261 N 
ATOM     26  H   UNL     1      -2.727  -2.240   0.463  1.00  0.00     0.182 HD
BRANCH  25  27
ATOM     27  C   UNL     1      -1.618  -0.716  -0.279  1.00  0.00     0.183 A 
ATOM     28  C   UNL     1       1.987  -0.034  -0.091  1.00  0.00     0.091 C 
ATOM     29  C   UNL     1       0.531  -0.217  -0.244  1.00  0.00     0.135 A 
ATOM     30  C   UNL     1      -0.347  -1.223   0.076  1.00  0.00     0.096 A 
ATOM     31  O   UNL     1      -0.163   0.812  -0.799  1.00  0.00    -0.360 OA
ATOM     32  N   UNL     1      -1.508   0.488  -0.842  1.00  0.00    -0.061 NA
ENDBRANCH  25  27
ENDBRANCH  22  25
ENDBRANCH  17  22
ENDBRANCH  13  16
ENDBRANCH   7  12
ENDBRANCH   3   6
ENDBRANCH   1   2
BRANCH   1  33
ATOM     33  C   UNL     1      -3.846   8.488   1.514  1.00  0.00     0.023 C 
BRANCH  33  34
ATOM     34  C   UNL     1      -5.293   8.885   1.783  1.00  0.00     0.023 C 
BRANCH  34  35
ATOM     35  C   UNL     1      -5.475   9.957   2.846  1.00  0.00     0.116 C 
BRANCH  35  36
ATOM     36  N   UNL     1      -4.803  11.204   2.513  1.00  0.00    -0.352 N 
ATOM     37  C   UNL     1      -5.320  12.473   2.412  1.00  0.00     0.251 C 
ATOM     38  H   UNL     1      -3.838  11.127   2.334  1.00  0.00     0.163 HD
ATOM     39  O   UNL     1      -4.633  13.391   1.977  1.00  0.00    -0.269 OA
BRANCH  37  40
ATOM     40  C   UNL     1      -6.723  12.722   2.801  1.00  0.00     0.039 A 
ATOM     41  C   UNL     1      -7.538  13.476   1.954  1.00  0.00     0.014 A 
ATOM     42  C   UNL     1      -7.239  12.188   3.984  1.00  0.00     0.014 A 
ATOM     43  C   UNL     1      -8.892  13.628   2.255  1.00  0.00     0.010 A 
ATOM     44  C   UNL     1      -8.604  12.262   4.235  1.00  0.00     0.010 A 
ATOM     45  C   UNL     1      -9.444  12.987   3.377  1.00  0.00    -0.014 A 
BRANCH  45  46
ATOM     46  C   UNL     1     -10.894  13.067   3.678  1.00  0.00     0.031 A 
ATOM     47  C   UNL     1     -11.363  13.712   4.952  1.00  0.00     0.074 A 
ATOM     48  C   UNL     1     -11.784  12.495   2.844  1.00  0.00     0.049 A 
ATOM     49  N   UNL     1     -12.579  13.818   5.426  1.00  0.00    -0.248 NA
ATOM     50  C   UNL     1     -10.326  14.288   5.824  1.00  0.00     0.031 C 
ATOM     51  C   UNL     1     -11.456  11.798   1.598  1.00  0.00     0.029 A 
ATOM     52  N   UNL     1     -13.151  12.405   2.924  1.00  0.00    -0.354 N 
ATOM     53  C   UNL     1     -12.448  14.449   6.657  1.00  0.00     0.074 A 
ATOM     54  C   UNL     1     -11.034  14.652   6.882  1.00  0.00     0.031 C 
ATOM     55  C   UNL     1     -12.592  11.383   1.015  1.00  0.00     0.029 A 
ATOM     56  C   UNL     1     -13.722  11.745   1.863  1.00  0.00     0.049 A 
ATOM     57  H   UNL     1     -13.672  12.777   3.671  1.00  0.00     0.167 HD
ATOM     58  C   UNL     1     -13.418  14.845   7.515  1.00  0.00     0.031 A 
ATOM     59  C   UNL     1     -15.012  11.462   1.603  1.00  0.00     0.031 A 
ATOM     60  C   UNL     1     -14.825  14.657   7.285  1.00  0.00     0.049 A 
ATOM     61  C   UNL     1     -16.071  11.904   2.574  1.00  0.00     0.074 A 
ATOM     62  C   UNL     1     -15.890  15.078   8.062  1.00  0.00     0.029 A 
ATOM     63  N   UNL     1     -15.362  13.990   6.195  1.00  0.00    -0.354 N 
ATOM     64  N   UNL     1     -15.937  12.561   3.700  1.00  0.00    -0.248 NA
ATOM     65  C   UNL     1     -17.461  11.573   2.230  1.00  0.00     0.031 C 
ATOM     66  C   UNL     1     -17.071  14.623   7.466  1.00  0.00     0.029 A 
ATOM     67  C   UNL     1     -16.743  13.966   6.291  1.00  0.00     0.049 A 
ATOM     68  H   UNL     1     -14.840  13.593   5.461  1.00  0.00     0.167 HD
ATOM     69  C   UNL     1     -17.224  12.744   4.187  1.00  0.00     0.074 A 
ATOM     70  C   UNL     1     -18.126  12.142   3.226  1.00  0.00     0.031 C 
ATOM     71  C   UNL     1     -17.625  13.358   5.327  1.00  0.00     0.031 A 
BRANCH  58  72
ATOM     72  C   UNL     1     -12.978  15.515   8.787  1.00  0.00    -0.014 A 
ATOM     73  C   UNL     1     -12.402  16.796   8.773  1.00  0.00     0.009 A 
ATOM     74  C   UNL     1     -13.150  14.862  10.016  1.00  0.00     0.009 A 
ATOM     75  C   UNL     1     -11.965  17.389   9.960  1.00  0.00     0.001 A 
ATOM     76  C   UNL     1     -12.741  15.470  11.205  1.00  0.00     0.001 A 
ATOM     77  C   UNL     1     -12.138  16.727  11.174  1.00  0.00     0.000 A 
ENDBRANCH  58  72
BRANCH  59  78
ATOM     78  C   UNL     1     -15.378  10.745   0.355  1.00  0.00    -0.014 A 
ATOM     79  C   UNL     1     -16.022  11.425  -0.690  1.00  0.00     0.009 A 
ATOM     80  C   UNL     1     -15.081   9.383   0.196  1.00  0.00     0.009 A 
ATOM     81  C   UNL     1     -16.381  10.751  -1.859  1.00  0.00     0.001 A 
ATOM     82  C   UNL     1     -15.417   8.717  -0.985  1.00  0.00     0.001 A 
ATOM     83  C   UNL     1     -16.074   9.400  -2.008  1.00  0.00     0.000 A 
ENDBRANCH  59  78
BRANCH  71  84
ATOM     84  C   UNL     1     -19.103  13.436   5.582  1.00  0.00    -0.014 A 
ATOM     85  C   UNL     1     -19.838  12.302   5.961  1.00  0.00     0.009 A 
ATOM     86  C   UNL     1     -19.761  14.671   5.479  1.00  0.00     0.009 A 
ATOM     87  C   UNL     1     -21.210  12.399   6.202  1.00  0.00     0.001 A 
ATOM     88  C   UNL     1     -21.127  14.771   5.748  1.00  0.00     0.001 A 
ATOM     89  C   UNL     1     -21.851  13.633   6.100  1.00  0.00     0.000 A 
ENDBRANCH  71  84
ENDBRANCH  45  46
ENDBRANCH  37  40
ENDBRANCH  35  36
ENDBRANCH  34  35
ENDBRANCH  33  34
ENDBRANCH   1  33
TORSDOF 16
