REMARK SMILES COc1ccc(-n2ccnc2C[N@@H+]2Cc3[nH]cnc3C[C@@H]2C(=O)NCCCCNC(=O)c2ccc(-c3c4nc(c(-c5ccccc5)c5ccc([nH]5)c(-c5ccccc5)c5nc(c(-c6ccccc6)c6ccc3[nH]6)C=C5)C=C4)cc2)cc1
REMARK SMILES IDX 25 1 24 2 22 3 23 4 21 6 13 7 14 8 15 10 20 11 16 12 19 13
REMARK SMILES IDX 17 14 18 16 12 17 11 18 7 19 8 20 9 21 10 22 6 23 3 24 4 25
REMARK SMILES IDX 81 26 5 27 80 28 2 29 1 30 26 31 27 32 28 33 29 34 30 35
REMARK SMILES IDX 31 37 32 38 33 39 79 40 34 41 78 42 35 43 36 44 37 45 72 46
REMARK SMILES IDX 38 47 77 48 71 49 73 50 39 51 76 52 70 53 69 54 40 56 62 57
REMARK SMILES IDX 47 58 61 59 48 60 51 61 60 62 74 63 49 64 50 65 59 67 75 68
REMARK SMILES IDX 52 69 41 70 42 71 46 72 43 73 45 74 44 75 63 76 64 77 68 78
REMARK SMILES IDX 65 79 67 80 66 81 53 82 54 83 58 84 55 85 57 86 56 87
REMARK H PARENT 24 5 13 9 16 15 29 36 73 55 51 66
REMARK Flexibility Score: inf
ROOT
ATOM      1  C   UNL     1      -0.769   9.151  -0.228  1.00  0.00     0.116 C 
ENDROOT
BRANCH   1   2
ATOM      2  N   UNL     1      -1.163   8.639  -1.541  1.00  0.00    -0.351 N 
ATOM      3  C   UNL     1      -0.930   7.393  -2.094  1.00  0.00     0.278 C 
ATOM      4  O   UNL     1      -1.611   7.030  -3.055  1.00  0.00    -0.268 OA
ATOM      5  H   UNL     1      -1.663   9.269  -2.109  1.00  0.00     0.163 HD
BRANCH   3   6
ATOM      6  C   UNL     1       0.203   6.536  -1.532  1.00  0.00     0.280 C 
ATOM      7  N   UNL     1       1.508   6.770  -2.257  1.00  0.00    -0.313 N 
ATOM      8  C   UNL     1       2.646   6.290  -1.446  1.00  0.00     0.320 C 
ATOM      9  H   UNL     1       1.728   7.762  -2.348  1.00  0.00     0.349 HD
ATOM     10  C   UNL     1       2.203   5.274  -0.428  1.00  0.00     0.093 A 
ATOM     11  C   UNL     1      -0.077   5.018  -1.379  1.00  0.00     0.134 C 
ATOM     12  N   UNL     1       2.568   5.234   0.897  1.00  0.00    -0.344 N 
ATOM     13  C   UNL     1       1.005   4.573  -0.454  1.00  0.00     0.074 A 
ATOM     14  C   UNL     1       1.685   4.404   1.541  1.00  0.00     0.197 A 
ATOM     15  H   UNL     1       3.324   5.713   1.308  1.00  0.00     0.167 HD
ATOM     16  N   UNL     1       0.754   3.951   0.734  1.00  0.00    -0.241 NA
BRANCH   7  17
ATOM     17  C   UNL     1       1.400   6.370  -3.685  1.00  0.00     0.340 C 
BRANCH  17  18
ATOM     18  C   UNL     1       2.515   5.698  -4.444  1.00  0.00     0.168 A 
ATOM     19  N   UNL     1       2.674   4.325  -4.647  1.00  0.00    -0.299 N 
ATOM     20  C   UNL     1       3.660   4.175  -5.599  1.00  0.00     0.113 A 
ATOM     21  C   UNL     1       4.073   5.439  -5.920  1.00  0.00     0.132 A 
ATOM     22  N   UNL     1       3.397   6.366  -5.179  1.00  0.00    -0.236 NA
BRANCH  19  23
ATOM     23  C   UNL     1       2.087   3.225  -3.987  1.00  0.00     0.047 A 
ATOM     24  C   UNL     1       1.032   1.081  -2.551  1.00  0.00     0.119 A 
ATOM     25  C   UNL     1       0.197   1.872  -3.346  1.00  0.00     0.048 A 
ATOM     26  C   UNL     1       2.409   1.291  -2.570  1.00  0.00     0.048 A 
ATOM     27  C   UNL     1       0.722   2.953  -4.070  1.00  0.00     0.030 A 
ATOM     28  C   UNL     1       2.940   2.357  -3.293  1.00  0.00     0.030 A 
BRANCH  24  29
ATOM     29  O   UNL     1       0.447   0.079  -1.823  1.00  0.00    -0.497 OA
ATOM     30  C   UNL     1       0.875   0.063  -0.458  1.00  0.00     0.278 C 
ENDBRANCH  24  29
ENDBRANCH  19  23
ENDBRANCH  17  18
ENDBRANCH   7  17
ENDBRANCH   3   6
ENDBRANCH   1   2
BRANCH   1  31
ATOM     31  C   UNL     1      -0.255  10.597  -0.194  1.00  0.00     0.023 C 
BRANCH  31  32
ATOM     32  C   UNL     1      -1.207  11.717  -0.633  1.00  0.00     0.023 C 
BRANCH  32  33
ATOM     33  C   UNL     1      -2.498  11.830   0.165  1.00  0.00     0.116 C 
BRANCH  33  34
ATOM     34  N   UNL     1      -2.353  12.321   1.546  1.00  0.00    -0.352 N 
ATOM     35  C   UNL     1      -3.348  12.586   2.499  1.00  0.00     0.251 C 
ATOM     36  H   UNL     1      -1.429  12.488   1.841  1.00  0.00     0.163 HD
ATOM     37  O   UNL     1      -3.132  13.314   3.447  1.00  0.00    -0.269 OA
BRANCH  35  38
ATOM     38  C   UNL     1      -4.679  11.950   2.340  1.00  0.00     0.039 A 
ATOM     39  C   UNL     1      -5.896  12.510   2.752  1.00  0.00     0.014 A 
ATOM     40  C   UNL     1      -4.684  10.738   1.687  1.00  0.00     0.014 A 
ATOM     41  C   UNL     1      -7.082  11.817   2.468  1.00  0.00     0.010 A 
ATOM     42  C   UNL     1      -5.810  10.369   1.031  1.00  0.00     0.010 A 
ATOM     43  C   UNL     1      -7.012  10.716   1.610  1.00  0.00    -0.014 A 
BRANCH  43  44
ATOM     44  C   UNL     1      -8.124   9.873   1.196  1.00  0.00     0.031 A 
ATOM     45  C   UNL     1      -9.027  10.511   0.213  1.00  0.00     0.074 A 
ATOM     46  C   UNL     1      -8.090   8.526   1.357  1.00  0.00     0.049 A 
ATOM     47  N   UNL     1     -10.238  10.916   0.398  1.00  0.00    -0.248 NA
ATOM     48  C   UNL     1      -8.456  10.897  -1.090  1.00  0.00     0.031 C 
ATOM     49  C   UNL     1      -7.020   7.697   1.939  1.00  0.00     0.029 A 
ATOM     50  N   UNL     1      -8.955   7.586   0.890  1.00  0.00    -0.354 N 
ATOM     51  C   UNL     1     -10.653  11.408  -0.836  1.00  0.00     0.074 A 
ATOM     52  C   UNL     1      -9.453  11.617  -1.602  1.00  0.00     0.031 C 
ATOM     53  C   UNL     1      -7.200   6.403   1.584  1.00  0.00     0.029 A 
ATOM     54  C   UNL     1      -8.462   6.283   0.877  1.00  0.00     0.049 A 
ATOM     55  H   UNL     1      -9.864   7.810   0.583  1.00  0.00     0.167 HD
ATOM     56  C   UNL     1     -11.948  11.299  -1.247  1.00  0.00     0.031 A 
ATOM     57  C   UNL     1      -9.037   5.204   0.283  1.00  0.00     0.031 A 
ATOM     58  C   UNL     1     -12.805  10.880  -0.162  1.00  0.00     0.049 A 
ATOM     59  C   UNL     1     -10.452   5.559   0.010  1.00  0.00     0.074 A 
ATOM     60  C   UNL     1     -13.092  11.364   1.100  1.00  0.00     0.029 A 
ATOM     61  N   UNL     1     -13.189   9.558  -0.152  1.00  0.00    -0.354 N 
ATOM     62  N   UNL     1     -11.339   5.748   0.943  1.00  0.00    -0.248 NA
ATOM     63  C   UNL     1     -10.760   6.164  -1.277  1.00  0.00     0.031 C 
ATOM     64  C   UNL     1     -13.160  10.204   1.929  1.00  0.00     0.029 A 
ATOM     65  C   UNL     1     -13.000   9.079   1.118  1.00  0.00     0.049 A 
ATOM     66  H   UNL     1     -13.537   9.048  -0.919  1.00  0.00     0.167 HD
ATOM     67  C   UNL     1     -12.066   6.850   0.517  1.00  0.00     0.074 A 
ATOM     68  C   UNL     1     -11.733   6.999  -0.901  1.00  0.00     0.031 C 
ATOM     69  C   UNL     1     -12.625   7.715   1.415  1.00  0.00     0.031 A 
BRANCH  56  70
ATOM     70  C   UNL     1     -12.366  11.118  -2.692  1.00  0.00    -0.014 A 
ATOM     71  C   UNL     1     -13.737  10.966  -2.969  1.00  0.00     0.009 A 
ATOM     72  C   UNL     1     -11.482  10.822  -3.747  1.00  0.00     0.009 A 
ATOM     73  C   UNL     1     -14.186  10.441  -4.186  1.00  0.00     0.001 A 
ATOM     74  C   UNL     1     -11.928  10.339  -4.981  1.00  0.00     0.001 A 
ATOM     75  C   UNL     1     -13.279  10.114  -5.188  1.00  0.00     0.000 A 
ENDBRANCH  56  70
BRANCH  57  76
ATOM     76  C   UNL     1      -8.425   3.989  -0.307  1.00  0.00    -0.014 A 
ATOM     77  C   UNL     1      -9.210   2.860  -0.601  1.00  0.00     0.009 A 
ATOM     78  C   UNL     1      -7.128   4.034  -0.849  1.00  0.00     0.009 A 
ATOM     79  C   UNL     1      -8.737   1.844  -1.445  1.00  0.00     0.001 A 
ATOM     80  C   UNL     1      -6.653   3.018  -1.689  1.00  0.00     0.001 A 
ATOM     81  C   UNL     1      -7.464   1.933  -2.003  1.00  0.00     0.000 A 
ENDBRANCH  57  76
BRANCH  69  82
ATOM     82  C   UNL     1     -12.623   7.323   2.874  1.00  0.00    -0.014 A 
ATOM     83  C   UNL     1     -11.449   7.088   3.612  1.00  0.00     0.009 A 
ATOM     84  C   UNL     1     -13.844   7.346   3.563  1.00  0.00     0.009 A 
ATOM     85  C   UNL     1     -11.501   6.855   4.990  1.00  0.00     0.001 A 
ATOM     86  C   UNL     1     -13.894   7.134   4.943  1.00  0.00     0.001 A 
ATOM     87  C   UNL     1     -12.724   6.883   5.655  1.00  0.00     0.000 A 
ENDBRANCH  69  82
ENDBRANCH  43  44
ENDBRANCH  35  38
ENDBRANCH  33  34
ENDBRANCH  32  33
ENDBRANCH  31  32
ENDBRANCH   1  31
TORSDOF 15
