REMARK SMILES Cc1ccc(S(=O)(=O)n2cc(C(=O)C(=O)N[C@@H](Cc3c[nH]c4ccccc34)C(=O)NCC(=O)NCCCCNC(=O)c3ccc(-c4c5nc(c(-c6ccccc6)c6ccc([nH]6)c(-c6ccccc6)c6nc(c(-c7ccccc7)c7ccc4[nH]7)C=C6)C=C5)cc3)c3ccccc32)cc1
REMARK SMILES IDX 32 1 33 2 34 3 31 5 30 6 28 7 29 8 17 10 16 11 14 12 15 13
REMARK SMILES IDX 12 15 13 16 11 17 9 18 10 19 95 20 90 21 94 22 91 23 93 24
REMARK SMILES IDX 92 25 6 26 7 27 8 28 5 29 1 30 2 31 3 32 97 33 4 34 96 35
REMARK SMILES IDX 18 36 19 37 20 38 27 39 21 40 22 41 26 42 23 44 25 45 24 46
REMARK SMILES IDX 35 47 36 48 37 49 38 50 39 51 40 52 41 54 42 55 43 56 89 57
REMARK SMILES IDX 44 58 88 59 45 60 46 61 47 62 82 63 48 64 87 65 81 66 83 67
REMARK SMILES IDX 49 68 86 69 80 70 79 71 50 73 72 74 57 75 71 76 58 77 61 78
REMARK SMILES IDX 70 79 84 80 59 81 60 82 69 84 85 85 62 86 51 87 52 88 56 89
REMARK SMILES IDX 53 90 55 91 54 92 73 93 74 94 78 95 75 96 77 97 76 98 63 99
REMARK SMILES IDX 64 100 68 101 65 102 67 103 66 104
REMARK H PARENT 34 4 30 9 16 14 21 43 39 53 83 72 61 83
REMARK Flexibility Score: inf
ROOT
ATOM      1  C   UNL     1     -12.329   5.220  -2.314  1.00  0.00     0.239 C 
ATOM      2  O   UNL     1     -13.122   6.144  -2.501  1.00  0.00    -0.273 OA
ATOM      3  N   UNL     1     -11.048   5.350  -2.767  1.00  0.00    -0.355 N 
ATOM      4  H   UNL     1     -10.827   6.191  -3.229  1.00  0.00     0.163 HD
ENDROOT
BRANCH   1   5
ATOM      5  C   UNL     1     -12.661   4.038  -1.401  1.00  0.00     0.216 C 
BRANCH   5   6
ATOM      6  N   UNL     1     -12.436   2.679  -1.860  1.00  0.00    -0.345 N 
ATOM      7  C   UNL     1     -11.907   1.589  -1.232  1.00  0.00     0.243 C 
ATOM      8  O   UNL     1     -12.151   0.507  -1.784  1.00  0.00    -0.273 OA
ATOM      9  H   UNL     1     -12.715   2.514  -2.790  1.00  0.00     0.164 HD
BRANCH   7  10
ATOM     10  C   UNL     1     -11.083   1.599   0.111  1.00  0.00     0.176 C 
BRANCH  10  11
ATOM     11  N   UNL     1      -9.800   2.359   0.123  1.00  0.00    -0.337 N 
ATOM     12  C   UNL     1      -8.465   1.974  -0.083  1.00  0.00     0.293 C 
ATOM     13  O   UNL     1      -7.574   2.811   0.057  1.00  0.00    -0.265 OA
ATOM     14  H   UNL     1      -9.910   3.319   0.313  1.00  0.00     0.164 HD
BRANCH  12  15
ATOM     15  C   UNL     1      -8.087   0.556  -0.558  1.00  0.00     0.252 C 
ATOM     16  O   UNL     1      -8.908   0.056  -1.331  1.00  0.00    -0.283 OA
BRANCH  15  17
ATOM     17  C   UNL     1      -6.864  -0.215  -0.148  1.00  0.00     0.054 A 
ATOM     18  N   UNL     1      -4.855  -0.989   0.694  1.00  0.00    -0.240 N 
ATOM     19  C   UNL     1      -5.623   0.154   0.407  1.00  0.00     0.117 A 
ATOM     20  C   UNL     1      -5.752  -2.068   0.571  1.00  0.00     0.065 A 
ATOM     21  C   UNL     1      -6.785  -1.645  -0.265  1.00  0.00     0.012 A 
ATOM     22  C   UNL     1      -5.601  -3.423   0.923  1.00  0.00     0.028 A 
ATOM     23  C   UNL     1      -7.551  -2.635  -0.922  1.00  0.00     0.011 A 
ATOM     24  C   UNL     1      -6.325  -4.377   0.219  1.00  0.00     0.002 A 
ATOM     25  C   UNL     1      -7.261  -3.990  -0.725  1.00  0.00     0.001 A 
BRANCH  18  26
ATOM     26  S   UNL     1      -3.217  -1.493   0.187  1.00  0.00     0.268 S 
ATOM     27  O   UNL     1      -3.410  -1.778  -1.226  1.00  0.00    -0.201 OA
ATOM     28  O   UNL     1      -3.022  -2.573   1.151  1.00  0.00    -0.201 OA
BRANCH  26  29
ATOM     29  C   UNL     1      -1.572  -0.827   0.263  1.00  0.00     0.088 A 
ATOM     30  C   UNL     1       2.721  -0.049  -0.022  1.00  0.00     0.044 C 
ATOM     31  C   UNL     1       1.242  -0.294   0.084  1.00  0.00    -0.051 A 
ATOM     32  C   UNL     1       0.780  -1.601   0.063  1.00  0.00     0.005 A 
ATOM     33  C   UNL     1       0.293   0.734   0.211  1.00  0.00     0.005 A 
ATOM     34  C   UNL     1      -0.591  -1.849   0.127  1.00  0.00     0.022 A 
ATOM     35  C   UNL     1      -1.101   0.465   0.336  1.00  0.00     0.022 A 
ENDBRANCH  26  29
ENDBRANCH  18  26
ENDBRANCH  15  17
ENDBRANCH  12  15
ENDBRANCH  10  11
BRANCH  10  36
ATOM     36  C   UNL     1     -11.946   1.810   1.399  1.00  0.00     0.072 C 
BRANCH  36  37
ATOM     37  C   UNL     1     -12.638   3.135   1.627  1.00  0.00    -0.020 A 
ATOM     38  C   UNL     1     -14.011   3.332   1.607  1.00  0.00     0.087 A 
ATOM     39  C   UNL     1     -12.056   4.434   1.854  1.00  0.00     0.003 A 
ATOM     40  N   UNL     1     -14.266   4.677   1.677  1.00  0.00    -0.361 N 
ATOM     41  C   UNL     1     -13.082   5.374   1.710  1.00  0.00     0.046 A 
ATOM     42  C   UNL     1     -10.740   4.915   2.018  1.00  0.00     0.010 A 
ATOM     43  H   UNL     1     -15.162   5.083   1.701  1.00  0.00     0.166 HD
ATOM     44  C   UNL     1     -12.844   6.749   1.588  1.00  0.00     0.026 A 
ATOM     45  C   UNL     1     -10.482   6.285   1.875  1.00  0.00     0.001 A 
ATOM     46  C   UNL     1     -11.518   7.183   1.635  1.00  0.00     0.002 A 
ENDBRANCH  36  37
ENDBRANCH  10  36
ENDBRANCH   7  10
ENDBRANCH   5   6
ENDBRANCH   1   5
BRANCH   3  47
ATOM     47  C   UNL     1      -9.982   4.384  -2.640  1.00  0.00     0.116 C 
BRANCH  47  48
ATOM     48  C   UNL     1      -9.807   3.561  -3.914  1.00  0.00     0.023 C 
BRANCH  48  49
ATOM     49  C   UNL     1      -9.351   4.387  -5.115  1.00  0.00     0.023 C 
BRANCH  49  50
ATOM     50  C   UNL     1      -7.999   5.039  -4.904  1.00  0.00     0.116 C 
BRANCH  50  51
ATOM     51  N   UNL     1      -6.862   4.176  -5.130  1.00  0.00    -0.352 N 
ATOM     52  C   UNL     1      -5.508   4.468  -5.073  1.00  0.00     0.251 C 
ATOM     53  H   UNL     1      -7.082   3.244  -5.357  1.00  0.00     0.163 HD
ATOM     54  O   UNL     1      -4.718   3.650  -5.508  1.00  0.00    -0.269 OA
BRANCH  52  55
ATOM     55  C   UNL     1      -5.005   5.663  -4.321  1.00  0.00     0.039 A 
ATOM     56  C   UNL     1      -3.717   5.556  -3.783  1.00  0.00     0.014 A 
ATOM     57  C   UNL     1      -5.843   6.663  -3.847  1.00  0.00     0.014 A 
ATOM     58  C   UNL     1      -3.433   6.176  -2.573  1.00  0.00     0.010 A 
ATOM     59  C   UNL     1      -5.639   7.148  -2.579  1.00  0.00     0.010 A 
ATOM     60  C   UNL     1      -4.468   6.819  -1.910  1.00  0.00    -0.014 A 
BRANCH  60  61
ATOM     61  C   UNL     1      -4.422   7.229  -0.522  1.00  0.00     0.031 A 
ATOM     62  C   UNL     1      -3.943   8.578  -0.222  1.00  0.00     0.074 A 
ATOM     63  C   UNL     1      -4.946   6.408   0.413  1.00  0.00     0.049 A 
ATOM     64  N   UNL     1      -3.548   8.981   0.933  1.00  0.00    -0.248 NA
ATOM     65  C   UNL     1      -3.831   9.593  -1.267  1.00  0.00     0.031 C 
ATOM     66  C   UNL     1      -5.210   6.662   1.828  1.00  0.00     0.029 A 
ATOM     67  N   UNL     1      -4.980   5.013   0.316  1.00  0.00    -0.354 N 
ATOM     68  C   UNL     1      -3.504  10.354   0.864  1.00  0.00     0.074 A 
ATOM     69  C   UNL     1      -3.526  10.669  -0.542  1.00  0.00     0.031 C 
ATOM     70  C   UNL     1      -4.997   5.515   2.506  1.00  0.00     0.029 A 
ATOM     71  C   UNL     1      -4.419   4.592   1.538  1.00  0.00     0.049 A 
ATOM     72  H   UNL     1      -5.315   4.460  -0.427  1.00  0.00     0.167 HD
ATOM     73  C   UNL     1      -3.683  11.062   2.012  1.00  0.00     0.031 A 
ATOM     74  C   UNL     1      -3.126   4.146   1.578  1.00  0.00     0.031 A 
ATOM     75  C   UNL     1      -3.616  10.189   3.180  1.00  0.00     0.049 A 
ATOM     76  C   UNL     1      -2.306   4.798   2.658  1.00  0.00     0.074 A 
ATOM     77  C   UNL     1      -4.581   9.621   3.996  1.00  0.00     0.029 A 
ATOM     78  N   UNL     1      -2.432   9.508   3.428  1.00  0.00    -0.354 N 
ATOM     79  N   UNL     1      -2.377   6.069   2.937  1.00  0.00    -0.248 NA
ATOM     80  C   UNL     1      -1.406   4.068   3.549  1.00  0.00     0.031 C 
ATOM     81  C   UNL     1      -3.984   8.521   4.669  1.00  0.00     0.029 A 
ATOM     82  C   UNL     1      -2.659   8.448   4.278  1.00  0.00     0.049 A 
ATOM     83  H   UNL     1      -1.556   9.747   3.049  1.00  0.00     0.167 HD
ATOM     84  C   UNL     1      -1.615   6.322   4.050  1.00  0.00     0.074 A 
ATOM     85  C   UNL     1      -1.003   5.048   4.379  1.00  0.00     0.031 C 
ATOM     86  C   UNL     1      -1.566   7.557   4.625  1.00  0.00     0.031 A 
BRANCH  73  87
ATOM     87  C   UNL     1      -4.245  12.461   2.045  1.00  0.00    -0.014 A 
ATOM     88  C   UNL     1      -4.870  12.915   3.221  1.00  0.00     0.009 A 
ATOM     89  C   UNL     1      -4.288  13.342   0.951  1.00  0.00     0.009 A 
ATOM     90  C   UNL     1      -5.556  14.134   3.277  1.00  0.00     0.001 A 
ATOM     91  C   UNL     1      -4.985  14.557   0.993  1.00  0.00     0.001 A 
ATOM     92  C   UNL     1      -5.629  14.949   2.156  1.00  0.00     0.000 A 
ENDBRANCH  73  87
BRANCH  74  93
ATOM     93  C   UNL     1      -2.588   3.659   0.266  1.00  0.00    -0.014 A 
ATOM     94  C   UNL     1      -3.392   2.772  -0.488  1.00  0.00     0.009 A 
ATOM     95  C   UNL     1      -1.436   4.141  -0.357  1.00  0.00     0.009 A 
ATOM     96  C   UNL     1      -3.087   2.358  -1.782  1.00  0.00     0.001 A 
ATOM     97  C   UNL     1      -1.127   3.745  -1.676  1.00  0.00     0.001 A 
ATOM     98  C   UNL     1      -1.947   2.857  -2.382  1.00  0.00     0.000 A 
ENDBRANCH  74  93
BRANCH  86  99
ATOM     99  C   UNL     1      -0.513   8.060   5.579  1.00  0.00    -0.014 A 
ATOM    100  C   UNL     1       0.734   7.452   5.766  1.00  0.00     0.009 A 
ATOM    101  C   UNL     1      -0.696   9.325   6.186  1.00  0.00     0.009 A 
ATOM    102  C   UNL     1       1.739   8.067   6.526  1.00  0.00     0.001 A 
ATOM    103  C   UNL     1       0.317   9.963   6.902  1.00  0.00     0.001 A 
ATOM    104  C   UNL     1       1.537   9.329   7.076  1.00  0.00     0.000 A 
ENDBRANCH  86  99
ENDBRANCH  60  61
ENDBRANCH  52  55
ENDBRANCH  50  51
ENDBRANCH  49  50
ENDBRANCH  48  49
ENDBRANCH  47  48
ENDBRANCH   3  47
TORSDOF 20
