REMARK SMILES CCOc1cccc(-c2ccc([C@@H](C)C(=O)NCCCCNC(=O)c3ccc(-c4c5nc(c(-c6ccccc6)c6ccc([nH]6)c(-c6ccccc6)c6nc(c(-c7ccccc7)c7ccc4[nH]7)C=C6)C=C5)cc3)cc2F)c1
REMARK SMILES IDX 18 1 17 2 15 3 16 4 13 6 14 7 12 8 9 9 10 10 74 11 11 12
REMARK SMILES IDX 73 13 75 14 8 15 4 16 5 17 76 18 6 19 7 20 3 21 2 22 1 23
REMARK SMILES IDX 19 24 20 25 21 26 22 27 23 28 24 30 25 31 26 32 72 33 27 34
REMARK SMILES IDX 71 35 28 36 29 37 30 38 65 39 31 40 70 41 64 42 66 43 32 44
REMARK SMILES IDX 69 45 63 46 62 47 33 49 55 50 40 51 54 52 41 53 44 54 53 55
REMARK SMILES IDX 67 56 42 57 43 58 52 60 68 61 45 62 34 63 35 64 39 65 36 66
REMARK SMILES IDX 38 67 37 68 56 69 57 70 61 71 58 72 60 73 59 74 46 75 47 76
REMARK SMILES IDX 51 77 48 78 50 79 49 80
REMARK H PARENT 17 5 22 29 66 48 44 59
REMARK Flexibility Score: inf
ROOT
ATOM      1  C   UNL     1       9.361   1.121   1.892  1.00  0.00     0.116 C 
ENDROOT
BRANCH   1   2
ATOM      2  N   UNL     1       8.635   1.135   3.144  1.00  0.00    -0.356 N 
ATOM      3  C   UNL     1       7.997   0.143   3.823  1.00  0.00     0.227 C 
ATOM      4  O   UNL     1       7.375   0.486   4.836  1.00  0.00    -0.274 OA
ATOM      5  H   UNL     1       8.595   2.017   3.580  1.00  0.00     0.163 HD
BRANCH   3   6
ATOM      6  C   UNL     1       8.027  -1.337   3.405  1.00  0.00     0.105 C 
ATOM      7  C   UNL     1       9.423  -1.956   3.397  1.00  0.00     0.023 C 
BRANCH   6   8
ATOM      8  C   UNL     1       7.152  -1.645   2.200  1.00  0.00    -0.033 A 
ATOM      9  C   UNL     1       5.357  -2.000  -0.015  1.00  0.00     0.018 A 
ATOM     10  C   UNL     1       6.731  -1.764  -0.200  1.00  0.00     0.012 A 
ATOM     11  C   UNL     1       4.934  -2.126   1.320  1.00  0.00     0.131 A 
ATOM     12  C   UNL     1       7.615  -1.628   0.883  1.00  0.00     0.005 A 
ATOM     13  C   UNL     1       5.796  -1.926   2.401  1.00  0.00     0.044 A 
ATOM     14  F   UNL     1       3.663  -2.440   1.615  1.00  0.00    -0.206 F 
BRANCH   9  15
ATOM     15  C   UNL     1       4.418  -2.057  -1.168  1.00  0.00    -0.012 A 
ATOM     16  C   UNL     1       2.182  -1.692  -2.106  1.00  0.00     0.119 A 
ATOM     17  C   UNL     1       2.611  -2.096  -3.361  1.00  0.00     0.046 A 
ATOM     18  C   UNL     1       3.068  -1.686  -1.027  1.00  0.00     0.055 A 
ATOM     19  C   UNL     1       3.941  -2.468  -3.540  1.00  0.00     0.004 A 
ATOM     20  C   UNL     1       4.829  -2.452  -2.456  1.00  0.00     0.009 A 
BRANCH  16  21
ATOM     21  O   UNL     1       0.853  -1.425  -1.924  1.00  0.00    -0.494 OA
BRANCH  21  22
ATOM     22  C   UNL     1       0.581  -0.038  -1.685  1.00  0.00     0.226 C 
ATOM     23  C   UNL     1       0.544   0.287  -0.199  1.00  0.00     0.049 C 
ENDBRANCH  21  22
ENDBRANCH  16  21
ENDBRANCH   9  15
ENDBRANCH   6   8
ENDBRANCH   3   6
ENDBRANCH   1   2
BRANCH   1  24
ATOM     24  C   UNL     1       8.478   1.537   0.715  1.00  0.00     0.023 C 
BRANCH  24  25
ATOM     25  C   UNL     1       8.407   3.041   0.462  1.00  0.00     0.023 C 
BRANCH  25  26
ATOM     26  C   UNL     1       9.736   3.706   0.124  1.00  0.00     0.116 C 
BRANCH  26  27
ATOM     27  N   UNL     1      10.417   3.125  -1.022  1.00  0.00    -0.352 N 
ATOM     28  C   UNL     1      11.242   3.750  -1.933  1.00  0.00     0.251 C 
ATOM     29  H   UNL     1      10.270   2.163  -1.167  1.00  0.00     0.163 HD
ATOM     30  O   UNL     1      11.685   3.141  -2.893  1.00  0.00    -0.269 OA
BRANCH  28  31
ATOM     31  C   UNL     1      11.544   5.187  -1.754  1.00  0.00     0.039 A 
ATOM     32  C   UNL     1      11.367   6.050  -2.838  1.00  0.00     0.014 A 
ATOM     33  C   UNL     1      11.944   5.683  -0.512  1.00  0.00     0.014 A 
ATOM     34  C   UNL     1      11.521   7.425  -2.654  1.00  0.00     0.010 A 
ATOM     35  C   UNL     1      12.018   7.056  -0.311  1.00  0.00     0.010 A 
ATOM     36  C   UNL     1      11.809   7.941  -1.380  1.00  0.00    -0.014 A 
BRANCH  36  37
ATOM     37  C   UNL     1      11.905   9.402  -1.146  1.00  0.00     0.031 A 
ATOM     38  C   UNL     1      13.210  10.011  -0.715  1.00  0.00     0.074 A 
ATOM     39  C   UNL     1      10.804  10.170  -1.255  1.00  0.00     0.049 A 
ATOM     40  N   UNL     1      13.482  11.256  -0.417  1.00  0.00    -0.248 NA
ATOM     41  C   UNL     1      14.354   9.095  -0.571  1.00  0.00     0.031 C 
ATOM     42  C   UNL     1       9.465   9.694  -1.612  1.00  0.00     0.029 A 
ATOM     43  N   UNL     1      10.637  11.520  -1.072  1.00  0.00    -0.354 N 
ATOM     44  C   UNL     1      14.816  11.267  -0.031  1.00  0.00     0.074 A 
ATOM     45  C   UNL     1      15.284   9.900  -0.081  1.00  0.00     0.031 C 
ATOM     46  C   UNL     1       8.623  10.739  -1.654  1.00  0.00     0.029 A 
ATOM     47  C   UNL     1       9.352  11.952  -1.296  1.00  0.00     0.049 A 
ATOM     48  H   UNL     1      11.369  12.122  -0.805  1.00  0.00     0.167 HD
ATOM     49  C   UNL     1      15.591  12.323   0.311  1.00  0.00     0.031 A 
ATOM     50  C   UNL     1       8.822  13.187  -1.226  1.00  0.00     0.031 A 
ATOM     51  C   UNL     1      15.134  13.685   0.338  1.00  0.00     0.049 A 
ATOM     52  C   UNL     1       9.707  14.346  -0.860  1.00  0.00     0.074 A 
ATOM     53  C   UNL     1      15.858  14.833   0.607  1.00  0.00     0.029 A 
ATOM     54  N   UNL     1      13.831  14.083   0.081  1.00  0.00    -0.354 N 
ATOM     55  N   UNL     1      10.985  14.349  -0.570  1.00  0.00    -0.248 NA
ATOM     56  C   UNL     1       9.076  15.673  -0.826  1.00  0.00     0.031 C 
ATOM     57  C   UNL     1      14.983  15.924   0.552  1.00  0.00     0.029 A 
ATOM     58  C   UNL     1      13.726  15.458   0.202  1.00  0.00     0.049 A 
ATOM     59  H   UNL     1      13.091  13.477  -0.153  1.00  0.00     0.167 HD
ATOM     60  C   UNL     1      11.318  15.679  -0.346  1.00  0.00     0.074 A 
ATOM     61  C   UNL     1      10.111  16.454  -0.548  1.00  0.00     0.031 C 
ATOM     62  C   UNL     1      12.517  16.211  -0.004  1.00  0.00     0.031 A 
BRANCH  49  63
ATOM     63  C   UNL     1      17.018  12.036   0.683  1.00  0.00    -0.014 A 
ATOM     64  C   UNL     1      17.952  11.630  -0.284  1.00  0.00     0.009 A 
ATOM     65  C   UNL     1      17.440  12.190   2.012  1.00  0.00     0.009 A 
ATOM     66  C   UNL     1      19.270  11.345   0.080  1.00  0.00     0.001 A 
ATOM     67  C   UNL     1      18.765  11.932   2.368  1.00  0.00     0.001 A 
ATOM     68  C   UNL     1      19.675  11.499   1.405  1.00  0.00     0.000 A 
ENDBRANCH  49  63
BRANCH  50  69
ATOM     69  C   UNL     1       7.386  13.401  -1.541  1.00  0.00    -0.014 A 
ATOM     70  C   UNL     1       7.010  14.040  -2.733  1.00  0.00     0.009 A 
ATOM     71  C   UNL     1       6.386  12.976  -0.654  1.00  0.00     0.009 A 
ATOM     72  C   UNL     1       5.663  14.273  -3.017  1.00  0.00     0.001 A 
ATOM     73  C   UNL     1       5.038  13.187  -0.953  1.00  0.00     0.001 A 
ATOM     74  C   UNL     1       4.678  13.843  -2.129  1.00  0.00     0.000 A 
ENDBRANCH  50  69
BRANCH  62  75
ATOM     75  C   UNL     1      12.588  17.704   0.140  1.00  0.00    -0.014 A 
ATOM     76  C   UNL     1      12.023  18.355   1.246  1.00  0.00     0.009 A 
ATOM     77  C   UNL     1      13.266  18.462  -0.827  1.00  0.00     0.009 A 
ATOM     78  C   UNL     1      12.111  19.744   1.366  1.00  0.00     0.001 A 
ATOM     79  C   UNL     1      13.375  19.846  -0.691  1.00  0.00     0.001 A 
ATOM     80  C   UNL     1      12.790  20.487   0.400  1.00  0.00     0.000 A 
ENDBRANCH  62  75
ENDBRANCH  36  37
ENDBRANCH  28  31
ENDBRANCH  26  27
ENDBRANCH  25  26
ENDBRANCH  24  25
ENDBRANCH   1  24
TORSDOF 15
