REMARK SMILES O=C(NCCCCNC(=O)[C@H]1Cc2[nH]cnc2CN1C(=O)C[C@]12C[C@H]3C[C@H](C[C@H](C3)C1)C2)c1ccc(-c2c3nc(c(-c4ccccc4)c4ccc([nH]4)c(-c4ccccc4)c4nc(c(-c5ccccc5)c5ccc2[nH]5)C=C4)C=C3)cc1
REMARK SMILES IDX 6 1 5 2 4 3 3 4 1 5 2 6 33 8 34 9 80 10 35 11 79 12 36 13
REMARK SMILES IDX 37 14 38 15 73 16 39 17 78 18 72 19 74 20 40 21 77 22 71 23
REMARK SMILES IDX 70 24 41 26 63 27 48 28 62 29 49 30 52 31 61 32 75 33 50 34
REMARK SMILES IDX 51 35 60 37 76 38 53 39 42 40 43 41 47 42 44 43 46 44 45 45
REMARK SMILES IDX 64 46 65 47 69 48 66 49 68 50 67 51 54 52 55 53 59 54 56 55
REMARK SMILES IDX 58 56 57 57 7 58 8 59 9 60 10 62 11 63 12 64 19 65 13 66
REMARK SMILES IDX 18 67 14 68 17 69 15 70 16 72 20 73 21 74 22 75 23 76 24 77
REMARK SMILES IDX 31 78 32 79 25 80 29 81 27 82 26 83 30 84 28 85
REMARK H PARENT 3 7 74 25 52 36 8 61 14 71
REMARK Flexibility Score: inf
ROOT
ATOM      1  C   UNL     1       5.133  -0.893   4.131  1.00  0.00     0.023 C 
ENDROOT
BRANCH   1   2
ATOM      2  C   UNL     1       5.696  -0.059   2.987  1.00  0.00     0.023 C 
BRANCH   2   3
ATOM      3  C   UNL     1       4.798   0.372   1.817  1.00  0.00     0.116 C 
BRANCH   3   4
ATOM      4  N   UNL     1       3.529  -0.294   1.598  1.00  0.00    -0.352 N 
ATOM      5  O   UNL     1       1.708  -0.795   0.323  1.00  0.00    -0.269 OA
ATOM      6  C   UNL     1       2.509   0.046   0.725  1.00  0.00     0.251 C 
ATOM      7  H   UNL     1       3.370  -1.098   2.144  1.00  0.00     0.163 HD
BRANCH   6   8
ATOM      8  C   UNL     1       2.213   1.460   0.462  1.00  0.00     0.039 A 
ATOM      9  C   UNL     1       3.210   2.398   0.244  1.00  0.00     0.014 A 
ATOM     10  C   UNL     1       0.891   1.855   0.715  1.00  0.00     0.014 A 
ATOM     11  C   UNL     1       2.962   3.701   0.623  1.00  0.00     0.010 A 
ATOM     12  C   UNL     1       0.621   3.180   1.003  1.00  0.00     0.010 A 
ATOM     13  C   UNL     1       1.685   4.074   1.076  1.00  0.00    -0.014 A 
BRANCH  13  14
ATOM     14  C   UNL     1       1.531   5.449   1.540  1.00  0.00     0.031 A 
ATOM     15  C   UNL     1       2.013   6.475   0.581  1.00  0.00     0.074 A 
ATOM     16  C   UNL     1       0.939   5.827   2.689  1.00  0.00     0.049 A 
ATOM     17  N   UNL     1       2.938   7.363   0.751  1.00  0.00    -0.248 NA
ATOM     18  C   UNL     1       1.463   6.413  -0.782  1.00  0.00     0.031 C 
ATOM     19  C   UNL     1       0.154   5.017   3.622  1.00  0.00     0.029 A 
ATOM     20  N   UNL     1       0.823   7.089   3.196  1.00  0.00    -0.354 N 
ATOM     21  C   UNL     1       2.995   8.074  -0.442  1.00  0.00     0.074 A 
ATOM     22  C   UNL     1       2.160   7.373  -1.386  1.00  0.00     0.031 C 
ATOM     23  C   UNL     1      -0.561   5.840   4.420  1.00  0.00     0.029 A 
ATOM     24  C   UNL     1      -0.180   7.216   4.141  1.00  0.00     0.049 A 
ATOM     25  H   UNL     1       1.398   7.838   2.917  1.00  0.00     0.167 HD
ATOM     26  C   UNL     1       3.569   9.302  -0.538  1.00  0.00     0.031 A 
ATOM     27  C   UNL     1      -0.724   8.371   4.590  1.00  0.00     0.031 A 
ATOM     28  C   UNL     1       4.449   9.598   0.556  1.00  0.00     0.049 A 
ATOM     29  C   UNL     1       0.201   9.482   4.271  1.00  0.00     0.074 A 
ATOM     30  C   UNL     1       5.612   9.049   1.056  1.00  0.00     0.029 A 
ATOM     31  N   UNL     1       3.996  10.461   1.524  1.00  0.00    -0.354 N 
ATOM     32  N   UNL     1       1.342   9.675   4.867  1.00  0.00    -0.248 NA
ATOM     33  C   UNL     1       0.025  10.201   3.019  1.00  0.00     0.031 C 
ATOM     34  C   UNL     1       5.550   9.259   2.465  1.00  0.00     0.029 A 
ATOM     35  C   UNL     1       4.357   9.930   2.734  1.00  0.00     0.049 A 
ATOM     36  H   UNL     1       3.505  11.301   1.376  1.00  0.00     0.167 HD
ATOM     37  C   UNL     1       2.175  10.189   3.885  1.00  0.00     0.074 A 
ATOM     38  C   UNL     1       1.279  10.612   2.814  1.00  0.00     0.031 C 
ATOM     39  C   UNL     1       3.522   9.966   3.914  1.00  0.00     0.031 A 
BRANCH  26  40
ATOM     40  C   UNL     1       3.032  10.372  -1.450  1.00  0.00    -0.014 A 
ATOM     41  C   UNL     1       3.751  11.569  -1.600  1.00  0.00     0.009 A 
ATOM     42  C   UNL     1       1.714  10.353  -1.948  1.00  0.00     0.009 A 
ATOM     43  C   UNL     1       3.159  12.703  -2.170  1.00  0.00     0.001 A 
ATOM     44  C   UNL     1       1.136  11.467  -2.559  1.00  0.00     0.001 A 
ATOM     45  C   UNL     1       1.852  12.651  -2.646  1.00  0.00     0.000 A 
ENDBRANCH  26  40
BRANCH  27  46
ATOM     46  C   UNL     1      -2.107   8.606   5.051  1.00  0.00    -0.014 A 
ATOM     47  C   UNL     1      -2.431   9.745   5.801  1.00  0.00     0.009 A 
ATOM     48  C   UNL     1      -3.166   7.829   4.546  1.00  0.00     0.009 A 
ATOM     49  C   UNL     1      -3.768  10.106   6.015  1.00  0.00     0.001 A 
ATOM     50  C   UNL     1      -4.499   8.182   4.768  1.00  0.00     0.001 A 
ATOM     51  C   UNL     1      -4.800   9.330   5.492  1.00  0.00     0.000 A 
ENDBRANCH  27  46
BRANCH  39  52
ATOM     52  C   UNL     1       4.118   9.404   5.180  1.00  0.00    -0.014 A 
ATOM     53  C   UNL     1       3.719   8.169   5.721  1.00  0.00     0.009 A 
ATOM     54  C   UNL     1       5.208  10.066   5.764  1.00  0.00     0.009 A 
ATOM     55  C   UNL     1       4.363   7.635   6.840  1.00  0.00     0.001 A 
ATOM     56  C   UNL     1       5.867   9.520   6.868  1.00  0.00     0.001 A 
ATOM     57  C   UNL     1       5.440   8.310   7.411  1.00  0.00     0.000 A 
ENDBRANCH  39  52
ENDBRANCH  13  14
ENDBRANCH   6   8
ENDBRANCH   3   4
ENDBRANCH   2   3
ENDBRANCH   1   2
BRANCH   1  58
ATOM     58  C   UNL     1       5.418  -2.398   4.121  1.00  0.00     0.116 C 
BRANCH  58  59
ATOM     59  N   UNL     1       6.801  -2.840   4.024  1.00  0.00    -0.354 N 
ATOM     60  C   UNL     1       7.340  -4.106   3.979  1.00  0.00     0.243 C 
ATOM     61  H   UNL     1       7.462  -2.112   3.984  1.00  0.00     0.163 HD
ATOM     62  O   UNL     1       8.537  -4.168   3.670  1.00  0.00    -0.273 OA
BRANCH  60  63
ATOM     63  C   UNL     1       6.570  -5.416   4.370  1.00  0.00     0.180 C 
ATOM     64  C   UNL     1       5.168  -5.237   5.025  1.00  0.00     0.091 C 
ATOM     65  N   UNL     1       6.704  -6.730   3.589  1.00  0.00    -0.324 N 
ATOM     66  C   UNL     1       4.569  -6.543   5.361  1.00  0.00     0.042 A 
ATOM     67  C   UNL     1       6.441  -7.948   4.410  1.00  0.00     0.178 C 
ATOM     68  N   UNL     1       3.350  -6.787   5.918  1.00  0.00    -0.348 N 
ATOM     69  C   UNL     1       5.116  -7.771   5.080  1.00  0.00     0.081 A 
ATOM     70  C   UNL     1       3.206  -8.149   5.957  1.00  0.00     0.197 A 
ATOM     71  H   UNL     1       2.700  -6.117   6.231  1.00  0.00     0.167 HD
ATOM     72  N   UNL     1       4.264  -8.768   5.474  1.00  0.00    -0.240 NA
BRANCH  65  73
ATOM     73  C   UNL     1       6.769  -6.971   2.220  1.00  0.00     0.224 C 
ATOM     74  O   UNL     1       6.696  -8.118   1.760  1.00  0.00    -0.275 OA
BRANCH  73  75
ATOM     75  C   UNL     1       6.954  -5.854   1.215  1.00  0.00     0.107 C 
BRANCH  75  76
ATOM     76  C   UNL     1       5.656  -5.258   0.619  1.00  0.00    -0.020 C 
ATOM     77  C   UNL     1       4.394  -5.643   1.421  1.00  0.00     0.011 C 
ATOM     78  C   UNL     1       5.396  -5.702  -0.851  1.00  0.00     0.011 C 
ATOM     79  C   UNL     1       5.830  -3.723   0.587  1.00  0.00     0.011 C 
ATOM     80  C   UNL     1       3.142  -4.963   0.873  1.00  0.00    -0.010 C 
ATOM     81  C   UNL     1       4.140  -4.997  -1.426  1.00  0.00    -0.010 C 
ATOM     82  C   UNL     1       4.565  -3.040   0.075  1.00  0.00    -0.010 C 
ATOM     83  C   UNL     1       3.353  -3.458   0.924  1.00  0.00     0.007 C 
ATOM     84  C   UNL     1       2.910  -5.371  -0.582  1.00  0.00     0.007 C 
ATOM     85  C   UNL     1       4.332  -3.471  -1.374  1.00  0.00     0.007 C 
ENDBRANCH  75  76
ENDBRANCH  73  75
ENDBRANCH  65  73
ENDBRANCH  60  63
ENDBRANCH  58  59
ENDBRANCH   1  58
TORSDOF 14
