REMARK SMILES CCOc1ccc(C(=O)NC(=S)Nc2cccc(C(=O)NCCCCNC(=O)c3ccc(-c4c5nc(c(-c6ccccc6)c6ccc([nH]6)c(-c6ccccc6)c6nc(c(-c7ccccc7)c7ccc4[nH]7)C=C6)C=C5)cc3)c2C)cc1Br
REMARK SMILES IDX 19 1 20 2 21 3 18 5 14 6 15 7 77 8 16 9 78 10 17 11 13 12
REMARK SMILES IDX 11 14 12 15 10 16 8 17 9 18 7 20 4 21 5 22 80 23 6 24 79 25
REMARK SMILES IDX 81 26 3 27 2 28 1 29 22 30 23 31 24 32 25 33 26 34 27 35
REMARK SMILES IDX 28 37 29 38 30 39 76 40 31 41 75 42 32 43 33 44 34 45 69 46
REMARK SMILES IDX 35 47 74 48 68 49 70 50 36 51 73 52 67 53 66 54 37 56 59 57
REMARK SMILES IDX 44 58 58 59 45 60 48 61 57 62 71 63 46 64 47 65 56 67 72 68
REMARK SMILES IDX 49 69 38 70 39 71 43 72 40 73 42 74 41 75 60 76 61 77 65 78
REMARK SMILES IDX 62 79 64 80 63 81 50 82 51 83 55 84 52 85 54 86 53 87
REMARK H PARENT 21 4 13 13 10 19 26 36 70 55 48 66
REMARK Flexibility Score: inf
ROOT
ATOM      1  C   UNL     1       2.103  -1.399   2.760  1.00  0.00     0.251 C 
ATOM      2  O   UNL     1       2.051  -2.495   2.203  1.00  0.00    -0.269 OA
ATOM      3  N   UNL     1       1.189  -1.176   3.812  1.00  0.00    -0.352 N 
ATOM      4  H   UNL     1       0.496  -1.874   3.802  1.00  0.00     0.163 HD
ENDROOT
BRANCH   1   5
ATOM      5  C   UNL     1       3.060  -0.386   2.195  1.00  0.00     0.044 A 
ATOM      6  C   UNL     1       4.771   1.126  -0.038  1.00  0.00     0.044 A 
ATOM      7  C   UNL     1       4.767   2.693   0.786  1.00  0.00     0.026 A 
ATOM      8  C   UNL     1       3.825  -0.323   0.568  1.00  0.00    -0.015 A 
ATOM      9  C   UNL     1       4.007   2.748   2.366  1.00  0.00     0.003 A 
ATOM     10  C   UNL     1       3.772  -1.527  -0.323  1.00  0.00     0.047 C 
ATOM     11  C   UNL     1       3.220   1.076   3.155  1.00  0.00     0.014 A 
BRANCH   6  12
ATOM     12  N   UNL     1       6.151   0.857  -0.318  1.00  0.00    -0.332 N 
ATOM     13  H   UNL     1       6.332   0.282  -1.096  1.00  0.00     0.169 HD
BRANCH  12  14
ATOM     14  C   UNL     1       7.263   1.310   0.379  1.00  0.00     0.177 C 
ATOM     15  S   UNL     1       8.696   1.425  -0.489  1.00  0.00    -0.040 S 
BRANCH  14  16
ATOM     16  N   UNL     1       7.332   1.632   1.801  1.00  0.00    -0.299 N 
ATOM     17  C   UNL     1       6.786   1.792   3.219  1.00  0.00     0.257 C 
ATOM     18  O   UNL     1       7.542   2.171   4.111  1.00  0.00    -0.269 OA
ATOM     19  H   UNL     1       8.273   1.901   1.909  1.00  0.00     0.172 HD
BRANCH  17  20
ATOM     20  C   UNL     1       5.330   1.557   3.537  1.00  0.00     0.041 A 
ATOM     21  C   UNL     1       1.847   2.470   2.397  1.00  0.00     0.133 A 
ATOM     22  C   UNL     1       2.508   2.938   4.003  1.00  0.00     0.048 A 
ATOM     23  C   UNL     1       2.930   1.567   1.310  1.00  0.00     0.060 A 
ATOM     24  C   UNL     1       4.210   2.526   4.538  1.00  0.00     0.018 A 
ATOM     25  C   UNL     1       4.715   0.995   2.037  1.00  0.00     0.033 A 
ATOM     26  Br  UNL     1       2.345   2.347  -0.646  1.00  0.00    -0.047 Br
BRANCH  21  27
ATOM     27  O   UNL     1       0.520   2.511   2.008  1.00  0.00    -0.493 OA
BRANCH  27  28
ATOM     28  C   UNL     1      -0.073   1.212   1.644  1.00  0.00     0.226 C 
ATOM     29  C   UNL     1       0.032   0.571   0.259  1.00  0.00     0.049 C 
ENDBRANCH  27  28
ENDBRANCH  21  27
ENDBRANCH  17  20
ENDBRANCH  14  16
ENDBRANCH  12  14
ENDBRANCH   6  12
ENDBRANCH   1   5
BRANCH   3  30
ATOM     30  C   UNL     1       0.929  -0.221   4.940  1.00  0.00     0.116 C 
BRANCH  30  31
ATOM     31  C   UNL     1      -0.219   0.823   4.870  1.00  0.00     0.023 C 
BRANCH  31  32
ATOM     32  C   UNL     1      -1.643   0.314   5.020  1.00  0.00     0.023 C 
BRANCH  32  33
ATOM     33  C   UNL     1      -1.926  -0.158   6.425  1.00  0.00     0.116 C 
BRANCH  33  34
ATOM     34  N   UNL     1      -2.219   0.859   7.418  1.00  0.00    -0.352 N 
ATOM     35  C   UNL     1      -2.768   0.678   8.683  1.00  0.00     0.251 C 
ATOM     36  H   UNL     1      -2.003   1.786   7.167  1.00  0.00     0.163 HD
ATOM     37  O   UNL     1      -3.175   1.656   9.306  1.00  0.00    -0.269 OA
BRANCH  35  38
ATOM     38  C   UNL     1      -2.672  -0.652   9.374  1.00  0.00     0.039 A 
ATOM     39  C   UNL     1      -2.353  -0.594  10.738  1.00  0.00     0.014 A 
ATOM     40  C   UNL     1      -2.296  -1.772   8.655  1.00  0.00     0.014 A 
ATOM     41  C   UNL     1      -1.315  -1.382  11.215  1.00  0.00     0.010 A 
ATOM     42  C   UNL     1      -1.119  -2.358   9.009  1.00  0.00     0.010 A 
ATOM     43  C   UNL     1      -0.601  -2.106  10.274  1.00  0.00    -0.014 A 
BRANCH  43  44
ATOM     44  C   UNL     1       0.606  -2.859  10.503  1.00  0.00     0.031 A 
ATOM     45  C   UNL     1       0.331  -4.235  10.959  1.00  0.00     0.074 A 
ATOM     46  C   UNL     1       1.737  -2.301  10.003  1.00  0.00     0.049 A 
ATOM     47  N   UNL     1       1.105  -4.944  11.686  1.00  0.00    -0.248 NA
ATOM     48  C   UNL     1      -0.956  -4.919  10.708  1.00  0.00     0.031 C 
ATOM     49  C   UNL     1       3.046  -2.859   9.687  1.00  0.00     0.029 A 
ATOM     50  N   UNL     1       1.939  -0.925   9.819  1.00  0.00    -0.354 N 
ATOM     51  C   UNL     1       0.661  -6.246  11.546  1.00  0.00     0.074 A 
ATOM     52  C   UNL     1      -0.712  -6.156  11.146  1.00  0.00     0.031 C 
ATOM     53  C   UNL     1       3.967  -1.870   9.718  1.00  0.00     0.029 A 
ATOM     54  C   UNL     1       3.285  -0.652  10.135  1.00  0.00     0.049 A 
ATOM     55  H   UNL     1       1.265  -0.272   9.523  1.00  0.00     0.167 HD
ATOM     56  C   UNL     1       1.595  -7.233  11.510  1.00  0.00     0.031 A 
ATOM     57  C   UNL     1       3.559   0.058  11.275  1.00  0.00     0.031 A 
ATOM     58  C   UNL     1       2.919  -6.629  11.648  1.00  0.00     0.049 A 
ATOM     59  C   UNL     1       4.106  -0.870  12.336  1.00  0.00     0.074 A 
ATOM     60  C   UNL     1       3.846  -6.241  10.696  1.00  0.00     0.029 A 
ATOM     61  N   UNL     1       3.204  -5.913  12.802  1.00  0.00    -0.354 N 
ATOM     62  N   UNL     1       3.803  -2.140  12.413  1.00  0.00    -0.248 NA
ATOM     63  C   UNL     1       5.096  -0.460  13.328  1.00  0.00     0.031 C 
ATOM     64  C   UNL     1       4.636  -5.205  11.270  1.00  0.00     0.029 A 
ATOM     65  C   UNL     1       4.182  -4.968  12.557  1.00  0.00     0.049 A 
ATOM     66  H   UNL     1       2.771  -6.059  13.674  1.00  0.00     0.167 HD
ATOM     67  C   UNL     1       4.584  -2.728  13.367  1.00  0.00     0.074 A 
ATOM     68  C   UNL     1       5.358  -1.633  13.929  1.00  0.00     0.031 C 
ATOM     69  C   UNL     1       4.593  -4.067  13.622  1.00  0.00     0.031 A 
BRANCH  56  70
ATOM     70  C   UNL     1       1.398  -8.651  11.043  1.00  0.00    -0.014 A 
ATOM     71  C   UNL     1       2.550  -9.412  10.758  1.00  0.00     0.009 A 
ATOM     72  C   UNL     1       0.168  -9.303  10.855  1.00  0.00     0.009 A 
ATOM     73  C   UNL     1       2.488 -10.729  10.294  1.00  0.00     0.001 A 
ATOM     74  C   UNL     1       0.097 -10.626  10.386  1.00  0.00     0.001 A 
ATOM     75  C   UNL     1       1.257 -11.338  10.106  1.00  0.00     0.000 A 
ENDBRANCH  56  70
BRANCH  57  76
ATOM     76  C   UNL     1       2.527   1.126  11.498  1.00  0.00    -0.014 A 
ATOM     77  C   UNL     1       2.427   2.129  10.504  1.00  0.00     0.009 A 
ATOM     78  C   UNL     1       1.405   0.864  12.295  1.00  0.00     0.009 A 
ATOM     79  C   UNL     1       1.182   2.658  10.151  1.00  0.00     0.001 A 
ATOM     80  C   UNL     1       0.173   1.447  11.971  1.00  0.00     0.001 A 
ATOM     81  C   UNL     1       0.047   2.279  10.858  1.00  0.00     0.000 A 
ENDBRANCH  57  76
BRANCH  69  82
ATOM     82  C   UNL     1       5.094  -4.659  14.910  1.00  0.00    -0.014 A 
ATOM     83  C   UNL     1       5.242  -3.917  16.087  1.00  0.00     0.009 A 
ATOM     84  C   UNL     1       5.302  -6.052  15.005  1.00  0.00     0.009 A 
ATOM     85  C   UNL     1       5.703  -4.510  17.262  1.00  0.00     0.001 A 
ATOM     86  C   UNL     1       5.674  -6.663  16.199  1.00  0.00     0.001 A 
ATOM     87  C   UNL     1       5.915  -5.883  17.319  1.00  0.00     0.000 A 
ENDBRANCH  69  82
ENDBRANCH  43  44
ENDBRANCH  35  38
ENDBRANCH  33  34
ENDBRANCH  32  33
ENDBRANCH  31  32
ENDBRANCH  30  31
ENDBRANCH   3  30
TORSDOF 17
