REMARK SMILES CN(CC(C)(C)O)C(=O)NC[C@@H](C(=O)NCCCCNC(=O)c1ccc(-c2c3nc(c(-c4ccccc4)c4ccc([nH]4)c(-c4ccccc4)c4nc(c(-c5ccccc5)c5ccc2[nH]5)C=C4)C=C3)cc1)c1ccccc1
REMARK SMILES IDX 13 1 14 2 15 3 12 5 11 6 10 7 8 8 9 9 2 11 1 12 3 13 4 14
REMARK SMILES IDX 5 15 6 16 7 17 71 19 72 20 76 21 73 22 75 23 74 24 16 25
REMARK SMILES IDX 17 26 18 27 19 28 20 29 21 30 22 32 23 33 24 34 70 35 25 36
REMARK SMILES IDX 69 37 26 38 27 39 28 40 63 41 29 42 68 43 62 44 64 45 30 46
REMARK SMILES IDX 67 47 61 48 60 49 31 51 53 52 38 53 52 54 39 55 42 56 51 57
REMARK SMILES IDX 65 58 40 59 41 60 50 62 66 63 43 64 32 65 33 66 37 67 34 68
REMARK SMILES IDX 36 69 35 70 54 71 55 72 59 73 56 74 58 75 57 76 44 77 45 78
REMARK SMILES IDX 49 79 46 80 48 81 47 82
REMARK H PARENT 15 4 10 10 7 18 20 31 64 50 42 61
REMARK Flexibility Score: inf
ROOT
ATOM      1  C   UNL     1      -0.921  -6.170  -1.982  1.00  0.00     0.229 C 
ATOM      2  O   UNL     1      -0.978  -7.400  -1.923  1.00  0.00    -0.274 OA
ATOM      3  N   UNL     1      -0.535  -5.651  -3.185  1.00  0.00    -0.356 N 
ATOM      4  H   UNL     1      -0.540  -6.293  -3.932  1.00  0.00     0.163 HD
ENDROOT
BRANCH   1   5
ATOM      5  C   UNL     1      -1.306  -5.240  -0.814  1.00  0.00     0.128 C 
BRANCH   5   6
ATOM      6  C   UNL     1      -0.115  -4.812   0.084  1.00  0.00     0.136 C 
BRANCH   6   7
ATOM      7  N   UNL     1       0.838  -3.861  -0.479  1.00  0.00    -0.337 N 
ATOM      8  C   UNL     1       1.135  -2.556  -0.521  1.00  0.00     0.317 C 
ATOM      9  O   UNL     1       2.020  -2.281  -1.341  1.00  0.00    -0.249 OA
ATOM     10  H   UNL     1       1.496  -4.354  -1.021  1.00  0.00     0.165 HD
BRANCH   8  11
ATOM     11  N   UNL     1       0.554  -1.582   0.228  1.00  0.00    -0.325 N 
ATOM     12  C   UNL     1       0.970  -0.210  -0.073  1.00  0.00     0.148 C 
BRANCH  11  13
ATOM     13  C   UNL     1      -0.382  -1.703   1.346  1.00  0.00     0.155 C 
BRANCH  13  14
ATOM     14  C   UNL     1      -1.819  -1.190   1.062  1.00  0.00     0.077 C 
ATOM     15  C   UNL     1      -2.326  -1.559  -0.329  1.00  0.00     0.043 C 
ATOM     16  C   UNL     1      -2.757  -1.735   2.144  1.00  0.00     0.043 C 
BRANCH  14  17
ATOM     17  O   UNL     1      -1.843   0.241   1.157  1.00  0.00    -0.389 OA
ATOM     18  H   UNL     1      -1.257   0.620   0.483  1.00  0.00     0.211 HD
ENDBRANCH  14  17
ENDBRANCH  13  14
ENDBRANCH  11  13
ENDBRANCH   8  11
ENDBRANCH   6   7
ENDBRANCH   5   6
BRANCH   5  19
ATOM     19  C   UNL     1      -2.347  -5.868   0.131  1.00  0.00    -0.034 A 
ATOM     20  C   UNL     1      -3.492  -5.148   0.505  1.00  0.00     0.004 A 
ATOM     21  C   UNL     1      -2.108  -7.104   0.758  1.00  0.00     0.004 A 
ATOM     22  C   UNL     1      -4.338  -5.623   1.512  1.00  0.00     0.000 A 
ATOM     23  C   UNL     1      -2.967  -7.589   1.745  1.00  0.00     0.000 A 
ATOM     24  C   UNL     1      -4.071  -6.839   2.135  1.00  0.00     0.000 A 
ENDBRANCH   5  19
ENDBRANCH   1   5
BRANCH   3  25
ATOM     25  C   UNL     1      -0.117  -4.309  -3.541  1.00  0.00     0.116 C 
BRANCH  25  26
ATOM     26  C   UNL     1       1.403  -4.253  -3.711  1.00  0.00     0.023 C 
BRANCH  26  27
ATOM     27  C   UNL     1       1.945  -4.984  -4.932  1.00  0.00     0.023 C 
BRANCH  27  28
ATOM     28  C   UNL     1       1.483  -4.409  -6.259  1.00  0.00     0.116 C 
BRANCH  28  29
ATOM     29  N   UNL     1       1.912  -3.031  -6.465  1.00  0.00    -0.352 N 
ATOM     30  C   UNL     1       2.597  -2.493  -7.531  1.00  0.00     0.251 C 
ATOM     31  H   UNL     1       1.680  -2.401  -5.745  1.00  0.00     0.163 HD
ATOM     32  O   UNL     1       2.987  -1.336  -7.519  1.00  0.00    -0.269 OA
BRANCH  30  33
ATOM     33  C   UNL     1       2.896  -3.369  -8.680  1.00  0.00     0.039 A 
ATOM     34  C   UNL     1       4.221  -3.518  -9.090  1.00  0.00     0.014 A 
ATOM     35  C   UNL     1       1.876  -4.127  -9.260  1.00  0.00     0.014 A 
ATOM     36  C   UNL     1       4.541  -4.512 -10.015  1.00  0.00     0.010 A 
ATOM     37  C   UNL     1       2.209  -5.173 -10.109  1.00  0.00     0.010 A 
ATOM     38  C   UNL     1       3.546  -5.385 -10.483  1.00  0.00    -0.014 A 
BRANCH  38  39
ATOM     39  C   UNL     1       3.868  -6.546 -11.348  1.00  0.00     0.031 A 
ATOM     40  C   UNL     1       3.272  -6.636 -12.724  1.00  0.00     0.074 A 
ATOM     41  C   UNL     1       4.611  -7.561 -10.862  1.00  0.00     0.049 A 
ATOM     42  N   UNL     1       3.306  -7.629 -13.575  1.00  0.00    -0.248 NA
ATOM     43  C   UNL     1       2.507  -5.467 -13.191  1.00  0.00     0.031 C 
ATOM     44  C   UNL     1       5.219  -7.613  -9.530  1.00  0.00     0.029 A 
ATOM     45  N   UNL     1       4.969  -8.756 -11.434  1.00  0.00    -0.354 N 
ATOM     46  C   UNL     1       2.552  -7.213 -14.664  1.00  0.00     0.074 A 
ATOM     47  C   UNL     1       2.033  -5.901 -14.348  1.00  0.00     0.031 C 
ATOM     48  C   UNL     1       5.893  -8.767  -9.397  1.00  0.00     0.029 A 
ATOM     49  C   UNL     1       5.725  -9.557 -10.611  1.00  0.00     0.049 A 
ATOM     50  H   UNL     1       4.709  -9.015 -12.347  1.00  0.00     0.167 HD
ATOM     51  C   UNL     1       2.328  -7.858 -15.833  1.00  0.00     0.031 A 
ATOM     52  C   UNL     1       6.212 -10.797 -10.808  1.00  0.00     0.031 A 
ATOM     53  C   UNL     1       2.861  -9.152 -16.157  1.00  0.00     0.049 A 
ATOM     54  C   UNL     1       5.925 -11.500 -12.105  1.00  0.00     0.074 A 
ATOM     55  C   UNL     1       2.738  -9.863 -17.337  1.00  0.00     0.029 A 
ATOM     56  N   UNL     1       3.625  -9.925 -15.298  1.00  0.00    -0.354 N 
ATOM     57  N   UNL     1       5.251 -11.073 -13.145  1.00  0.00    -0.248 NA
ATOM     58  C   UNL     1       6.465 -12.860 -12.252  1.00  0.00     0.031 C 
ATOM     59  C   UNL     1       3.394 -11.088 -17.178  1.00  0.00     0.029 A 
ATOM     60  C   UNL     1       3.962 -11.118 -15.914  1.00  0.00     0.049 A 
ATOM     61  H   UNL     1       3.889  -9.666 -14.386  1.00  0.00     0.167 HD
ATOM     62  C   UNL     1       5.302 -12.101 -14.076  1.00  0.00     0.074 A 
ATOM     63  C   UNL     1       6.089 -13.165 -13.486  1.00  0.00     0.031 C 
ATOM     64  C   UNL     1       4.745 -12.162 -15.309  1.00  0.00     0.031 A 
BRANCH  51  65
ATOM     65  C   UNL     1       1.468  -7.164 -16.849  1.00  0.00    -0.014 A 
ATOM     66  C   UNL     1       1.943  -6.047 -17.555  1.00  0.00     0.009 A 
ATOM     67  C   UNL     1       0.182  -7.650 -17.129  1.00  0.00     0.009 A 
ATOM     68  C   UNL     1       1.135  -5.412 -18.500  1.00  0.00     0.001 A 
ATOM     69  C   UNL     1      -0.614  -7.030 -18.093  1.00  0.00     0.001 A 
ATOM     70  C   UNL     1      -0.140  -5.907 -18.772  1.00  0.00     0.000 A 
ENDBRANCH  51  65
BRANCH  52  71
ATOM     71  C   UNL     1       7.018 -11.465  -9.753  1.00  0.00    -0.014 A 
ATOM     72  C   UNL     1       8.395 -11.667  -9.936  1.00  0.00     0.009 A 
ATOM     73  C   UNL     1       6.415 -11.927  -8.573  1.00  0.00     0.009 A 
ATOM     74  C   UNL     1       9.145 -12.346  -8.972  1.00  0.00     0.001 A 
ATOM     75  C   UNL     1       7.173 -12.582  -7.600  1.00  0.00     0.001 A 
ATOM     76  C   UNL     1       8.535 -12.800  -7.804  1.00  0.00     0.000 A 
ENDBRANCH  52  71
BRANCH  64  77
ATOM     77  C   UNL     1       4.986 -13.409 -16.108  1.00  0.00    -0.014 A 
ATOM     78  C   UNL     1       4.314 -14.603 -15.804  1.00  0.00     0.009 A 
ATOM     79  C   UNL     1       5.859 -13.376 -17.206  1.00  0.00     0.009 A 
ATOM     80  C   UNL     1       4.534 -15.748 -16.571  1.00  0.00     0.001 A 
ATOM     81  C   UNL     1       6.057 -14.515 -17.985  1.00  0.00     0.001 A 
ATOM     82  C   UNL     1       5.400 -15.702 -17.663  1.00  0.00     0.000 A 
ENDBRANCH  64  77
ENDBRANCH  38  39
ENDBRANCH  30  33
ENDBRANCH  28  29
ENDBRANCH  27  28
ENDBRANCH  26  27
ENDBRANCH  25  26
ENDBRANCH   3  25
TORSDOF 18
