REMARK SMILES O=C(Cn1c2ccccc2c(=O)c2ccccc21)N[C@@H](Cc1ccccc1)C(=O)NCCCCNC(=O)c1ccc(-c2c3nc(c(-c4ccccc4)c4ccc([nH]4)c(-c4ccccc4)c4nc(c(-c5ccccc5)c5ccc2[nH]5)C=C4)C=C3)cc1
REMARK SMILES IDX 32 1 31 2 30 3 28 4 29 5 20 7 19 8 1 9 2 10 3 12 4 13 5 14
REMARK SMILES IDX 18 15 6 16 10 17 13 18 17 19 7 20 9 21 11 22 14 23 16 24
REMARK SMILES IDX 8 25 12 26 15 27 21 28 22 29 23 30 27 31 24 32 26 33 25 34
REMARK SMILES IDX 33 35 34 36 35 37 36 38 37 40 38 41 39 42 85 43 40 44 84 45
REMARK SMILES IDX 41 46 42 47 43 48 78 49 44 50 83 51 77 52 79 53 45 54 82 55
REMARK SMILES IDX 76 56 75 57 46 59 68 60 53 61 67 62 54 63 57 64 66 65 80 66
REMARK SMILES IDX 55 67 56 68 65 70 81 71 58 72 47 73 48 74 52 75 49 76 51 77
REMARK SMILES IDX 50 78 69 79 70 80 74 81 71 82 73 83 72 84 59 85 60 86 64 87
REMARK SMILES IDX 61 88 63 89 62 90
REMARK H PARENT 30 6 19 11 35 39 79 58 57 69
REMARK Flexibility Score: inf
ROOT
ATOM      1  C   UNL     1       5.539   1.121  -3.534  1.00  0.00     0.023 C 
ENDROOT
BRANCH   1   2
ATOM      2  C   UNL     1       4.590   2.272  -3.283  1.00  0.00     0.116 C 
BRANCH   2   3
ATOM      3  N   UNL     1       3.230   2.023  -3.673  1.00  0.00    -0.354 N 
ATOM      4  C   UNL     1       2.104   2.100  -2.905  1.00  0.00     0.242 C 
ATOM      5  O   UNL     1       1.042   2.297  -3.505  1.00  0.00    -0.273 OA
ATOM      6  H   UNL     1       3.092   1.764  -4.613  1.00  0.00     0.163 HD
BRANCH   4   7
ATOM      7  C   UNL     1       2.135   2.054  -1.353  1.00  0.00     0.175 C 
BRANCH   7   8
ATOM      8  N   UNL     1       2.881   0.919  -0.780  1.00  0.00    -0.342 N 
ATOM      9  O   UNL     1       1.013  -0.219  -0.093  1.00  0.00    -0.273 OA
ATOM     10  C   UNL     1       2.240  -0.122  -0.128  1.00  0.00     0.240 C 
ATOM     11  H   UNL     1       3.862   0.899  -0.864  1.00  0.00     0.164 HD
BRANCH  10  12
ATOM     12  C   UNL     1       3.126  -1.062   0.708  1.00  0.00     0.222 C 
BRANCH  12  13
ATOM     13  N   UNL     1       3.916  -2.030  -0.087  1.00  0.00    -0.331 N 
ATOM     14  C   UNL     1       5.162  -1.633  -0.626  1.00  0.00     0.053 A 
ATOM     15  C   UNL     1       3.428  -3.349  -0.281  1.00  0.00     0.053 A 
ATOM     16  C   UNL     1       5.930  -0.571  -0.120  1.00  0.00     0.027 A 
ATOM     17  C   UNL     1       5.736  -2.376  -1.676  1.00  0.00     0.046 A 
ATOM     18  C   UNL     1       3.993  -4.157  -1.290  1.00  0.00     0.046 A 
ATOM     19  C   UNL     1       2.478  -3.973   0.546  1.00  0.00     0.027 A 
ATOM     20  C   UNL     1       7.193  -0.263  -0.645  1.00  0.00     0.002 A 
ATOM     21  C   UNL     1       6.979  -2.048  -2.236  1.00  0.00     0.014 A 
ATOM     22  C   UNL     1       5.042  -3.586  -2.156  1.00  0.00     0.197 A 
ATOM     23  C   UNL     1       3.650  -5.508  -1.462  1.00  0.00     0.014 A 
ATOM     24  C   UNL     1       2.147  -5.331   0.396  1.00  0.00     0.002 A 
ATOM     25  C   UNL     1       7.712  -0.992  -1.711  1.00  0.00     0.001 A 
ATOM     26  O   UNL     1       5.374  -4.132  -3.203  1.00  0.00    -0.288 OA
ATOM     27  C   UNL     1       2.734  -6.099  -0.602  1.00  0.00     0.001 A 
ENDBRANCH  12  13
ENDBRANCH  10  12
ENDBRANCH   7   8
BRANCH   7  28
ATOM     28  C   UNL     1       2.410   3.417  -0.653  1.00  0.00     0.070 C 
BRANCH  28  29
ATOM     29  C   UNL     1       3.825   3.962  -0.601  1.00  0.00    -0.045 A 
ATOM     30  C   UNL     1       4.173   5.102  -1.344  1.00  0.00     0.004 A 
ATOM     31  C   UNL     1       4.823   3.330   0.159  1.00  0.00     0.004 A 
ATOM     32  C   UNL     1       5.496   5.554  -1.379  1.00  0.00     0.000 A 
ATOM     33  C   UNL     1       6.150   3.769   0.102  1.00  0.00     0.000 A 
ATOM     34  C   UNL     1       6.487   4.875  -0.674  1.00  0.00     0.000 A 
ENDBRANCH  28  29
ENDBRANCH   7  28
ENDBRANCH   4   7
ENDBRANCH   2   3
ENDBRANCH   1   2
BRANCH   1  35
ATOM     35  C   UNL     1       6.393   1.239  -4.783  1.00  0.00     0.023 C 
BRANCH  35  36
ATOM     36  C   UNL     1       7.253   2.497  -4.870  1.00  0.00     0.116 C 
BRANCH  36  37
ATOM     37  N   UNL     1       8.195   2.690  -3.770  1.00  0.00    -0.352 N 
ATOM     38  C   UNL     1       9.543   3.007  -3.822  1.00  0.00     0.251 C 
ATOM     39  H   UNL     1       7.821   2.578  -2.867  1.00  0.00     0.163 HD
ATOM     40  O   UNL     1      10.205   3.104  -2.803  1.00  0.00    -0.269 OA
BRANCH  38  41
ATOM     41  C   UNL     1      10.178   3.158  -5.153  1.00  0.00     0.039 A 
ATOM     42  C   UNL     1       9.555   3.925  -6.133  1.00  0.00     0.014 A 
ATOM     43  C   UNL     1      11.299   2.386  -5.466  1.00  0.00     0.014 A 
ATOM     44  C   UNL     1       9.860   3.686  -7.466  1.00  0.00     0.010 A 
ATOM     45  C   UNL     1      11.691   2.256  -6.803  1.00  0.00     0.010 A 
ATOM     46  C   UNL     1      10.914   2.827  -7.824  1.00  0.00    -0.014 A 
BRANCH  46  47
ATOM     47  C   UNL     1      11.130   2.490  -9.260  1.00  0.00     0.031 A 
ATOM     48  C   UNL     1      11.043   1.060  -9.744  1.00  0.00     0.074 A 
ATOM     49  C   UNL     1      11.308   3.481 -10.155  1.00  0.00     0.049 A 
ATOM     50  N   UNL     1      11.224   0.590 -10.955  1.00  0.00    -0.248 NA
ATOM     51  C   UNL     1      10.717   0.023  -8.750  1.00  0.00     0.031 C 
ATOM     52  C   UNL     1      11.360   4.909  -9.833  1.00  0.00     0.029 A 
ATOM     53  N   UNL     1      11.429   3.446 -11.522  1.00  0.00    -0.354 N 
ATOM     54  C   UNL     1      11.083  -0.790 -10.856  1.00  0.00     0.074 A 
ATOM     55  C   UNL     1      10.809  -1.089  -9.469  1.00  0.00     0.031 C 
ATOM     56  C   UNL     1      11.407   5.614 -10.971  1.00  0.00     0.029 A 
ATOM     57  C   UNL     1      11.495   4.692 -12.097  1.00  0.00     0.049 A 
ATOM     58  H   UNL     1      11.466   2.610 -12.040  1.00  0.00     0.167 HD
ATOM     59  C   UNL     1      11.171  -1.724 -11.833  1.00  0.00     0.031 A 
ATOM     60  C   UNL     1      11.635   5.064 -13.383  1.00  0.00     0.031 A 
ATOM     61  C   UNL     1      11.391  -1.426 -13.224  1.00  0.00     0.049 A 
ATOM     62  C   UNL     1      11.777   4.011 -14.440  1.00  0.00     0.074 A 
ATOM     63  C   UNL     1      11.470  -2.309 -14.288  1.00  0.00     0.029 A 
ATOM     64  N   UNL     1      11.550  -0.153 -13.745  1.00  0.00    -0.354 N 
ATOM     65  N   UNL     1      11.694   2.710 -14.317  1.00  0.00    -0.248 NA
ATOM     66  C   UNL     1      12.058   4.474 -15.806  1.00  0.00     0.031 C 
ATOM     67  C   UNL     1      11.727  -1.573 -15.447  1.00  0.00     0.029 A 
ATOM     68  C   UNL     1      11.754  -0.229 -15.112  1.00  0.00     0.049 A 
ATOM     69  H   UNL     1      11.523   0.680 -13.222  1.00  0.00     0.167 HD
ATOM     70  C   UNL     1      11.916   2.196 -15.587  1.00  0.00     0.074 A 
ATOM     71  C   UNL     1      12.114   3.327 -16.471  1.00  0.00     0.031 C 
ATOM     72  C   UNL     1      11.960   0.901 -15.979  1.00  0.00     0.031 A 
BRANCH  59  73
ATOM     73  C   UNL     1      11.056  -3.173 -11.447  1.00  0.00    -0.014 A 
ATOM     74  C   UNL     1      12.196  -3.994 -11.504  1.00  0.00     0.009 A 
ATOM     75  C   UNL     1       9.819  -3.752 -11.131  1.00  0.00     0.009 A 
ATOM     76  C   UNL     1      12.097  -5.365 -11.263  1.00  0.00     0.001 A 
ATOM     77  C   UNL     1       9.728  -5.122 -10.866  1.00  0.00     0.001 A 
ATOM     78  C   UNL     1      10.864  -5.928 -10.941  1.00  0.00     0.000 A 
ENDBRANCH  59  73
BRANCH  60  79
ATOM     79  C   UNL     1      11.676   6.511 -13.718  1.00  0.00    -0.014 A 
ATOM     80  C   UNL     1      12.761   7.306 -13.312  1.00  0.00     0.009 A 
ATOM     81  C   UNL     1      10.598   7.118 -14.378  1.00  0.00     0.009 A 
ATOM     82  C   UNL     1      12.748   8.685 -13.524  1.00  0.00     0.001 A 
ATOM     83  C   UNL     1      10.602   8.495 -14.615  1.00  0.00     0.001 A 
ATOM     84  C   UNL     1      11.670   9.278 -14.177  1.00  0.00     0.000 A 
ENDBRANCH  60  79
BRANCH  72  85
ATOM     85  C   UNL     1      12.234   0.619 -17.427  1.00  0.00    -0.014 A 
ATOM     86  C   UNL     1      11.201   0.153 -18.255  1.00  0.00     0.009 A 
ATOM     87  C   UNL     1      13.534   0.718 -17.942  1.00  0.00     0.009 A 
ATOM     88  C   UNL     1      11.469  -0.224 -19.572  1.00  0.00     0.001 A 
ATOM     89  C   UNL     1      13.794   0.362 -19.267  1.00  0.00     0.001 A 
ATOM     90  C   UNL     1      12.764  -0.117 -20.077  1.00  0.00     0.000 A 
ENDBRANCH  72  85
ENDBRANCH  46  47
ENDBRANCH  38  41
ENDBRANCH  36  37
ENDBRANCH  35  36
ENDBRANCH   1  35
TORSDOF 16
