REMARK SMILES O=C(NCCCCNC(=O)[C@@H](Cc1cccc(F)c1)[C@H]1CCOC2(CCC2)C1)c1ccc(-c2c3nc(c(-c4ccccc4)c4ccc([nH]4)c(-c4ccccc4)c4nc(c(-c5ccccc5)c5ccc2[nH]5)C=C4)C=C3)cc1
REMARK SMILES IDX 5 1 4 2 3 3 1 4 2 5 29 7 30 8 76 9 31 10 75 11 32 12 33 13
REMARK SMILES IDX 34 14 69 15 35 16 74 17 68 18 70 19 36 20 73 21 67 22 66 23
REMARK SMILES IDX 37 25 59 26 44 27 58 28 45 29 48 30 57 31 71 32 46 33 47 34
REMARK SMILES IDX 56 36 72 37 49 38 38 39 39 40 43 41 40 42 42 43 41 44 60 45
REMARK SMILES IDX 61 46 65 47 62 48 64 49 63 50 50 51 51 52 55 53 52 54 54 55
REMARK SMILES IDX 53 56 6 57 7 58 8 59 9 60 10 62 11 63 12 64 13 65 14 66
REMARK SMILES IDX 19 67 15 68 17 69 16 70 18 71 20 72 21 73 28 74 22 75 24 76
REMARK SMILES IDX 23 77 25 78 27 79 26 80
REMARK H PARENT 3 6 70 24 48 35 8 61
REMARK Flexibility Score: inf
ROOT
ATOM      1  C   UNL     1       2.561   8.092  -6.481  1.00  0.00     0.023 C 
ENDROOT
BRANCH   1   2
ATOM      2  C   UNL     1       2.106   8.250  -5.040  1.00  0.00     0.116 C 
BRANCH   2   3
ATOM      3  N   UNL     1       3.136   8.628  -4.075  1.00  0.00    -0.352 N 
ATOM      4  O   UNL     1       3.937   9.710  -2.236  1.00  0.00    -0.269 OA
ATOM      5  C   UNL     1       2.998   9.466  -2.984  1.00  0.00     0.251 C 
ATOM      6  H   UNL     1       4.031   8.243  -4.219  1.00  0.00     0.163 HD
BRANCH   5   7
ATOM      7  C   UNL     1       1.692  10.127  -2.784  1.00  0.00     0.039 A 
ATOM      8  C   UNL     1       0.529   9.365  -2.840  1.00  0.00     0.014 A 
ATOM      9  C   UNL     1       1.631  11.522  -2.755  1.00  0.00     0.014 A 
ATOM     10  C   UNL     1      -0.664   9.996  -3.150  1.00  0.00     0.010 A 
ATOM     11  C   UNL     1       0.397  12.158  -2.916  1.00  0.00     0.010 A 
ATOM     12  C   UNL     1      -0.752  11.400  -3.191  1.00  0.00    -0.014 A 
BRANCH  12  13
ATOM     13  C   UNL     1      -2.063  12.024  -3.516  1.00  0.00     0.031 A 
ATOM     14  C   UNL     1      -2.239  12.931  -4.708  1.00  0.00     0.074 A 
ATOM     15  C   UNL     1      -3.131  11.685  -2.767  1.00  0.00     0.049 A 
ATOM     16  N   UNL     1      -3.329  13.524  -5.132  1.00  0.00    -0.248 NA
ATOM     17  C   UNL     1      -1.050  13.220  -5.527  1.00  0.00     0.031 C 
ATOM     18  C   UNL     1      -3.091  10.809  -1.591  1.00  0.00     0.029 A 
ATOM     19  N   UNL     1      -4.460  11.988  -2.906  1.00  0.00    -0.354 N 
ATOM     20  C   UNL     1      -2.951  14.283  -6.234  1.00  0.00     0.074 A 
ATOM     21  C   UNL     1      -1.529  14.085  -6.412  1.00  0.00     0.031 C 
ATOM     22  C   UNL     1      -4.342  10.564  -1.181  1.00  0.00     0.029 A 
ATOM     23  C   UNL     1      -5.262  11.348  -1.993  1.00  0.00     0.049 A 
ATOM     24  H   UNL     1      -4.806  12.602  -3.594  1.00  0.00     0.167 HD
ATOM     25  C   UNL     1      -3.720  15.073  -7.023  1.00  0.00     0.031 A 
ATOM     26  C   UNL     1      -6.592  11.400  -1.804  1.00  0.00     0.031 A 
ATOM     27  C   UNL     1      -5.139  15.254  -6.856  1.00  0.00     0.049 A 
ATOM     28  C   UNL     1      -7.413  12.286  -2.687  1.00  0.00     0.074 A 
ATOM     29  C   UNL     1      -6.005  16.039  -7.601  1.00  0.00     0.029 A 
ATOM     30  N   UNL     1      -5.905  14.630  -5.883  1.00  0.00    -0.354 N 
ATOM     31  N   UNL     1      -7.028  13.021  -3.701  1.00  0.00    -0.248 NA
ATOM     32  C   UNL     1      -8.848  12.364  -2.387  1.00  0.00     0.031 C 
ATOM     33  C   UNL     1      -7.288  15.917  -7.055  1.00  0.00     0.029 A 
ATOM     34  C   UNL     1      -7.230  15.020  -6.002  1.00  0.00     0.049 A 
ATOM     35  H   UNL     1      -5.559  14.003  -5.208  1.00  0.00     0.167 HD
ATOM     36  C   UNL     1      -8.173  13.653  -4.161  1.00  0.00     0.074 A 
ATOM     37  C   UNL     1      -9.271  13.185  -3.337  1.00  0.00     0.031 C 
ATOM     38  C   UNL     1      -8.303  14.552  -5.165  1.00  0.00     0.031 A 
BRANCH  25  39
ATOM     39  C   UNL     1      -3.040  15.833  -8.130  1.00  0.00    -0.014 A 
ATOM     40  C   UNL     1      -2.608  15.191  -9.301  1.00  0.00     0.009 A 
ATOM     41  C   UNL     1      -2.888  17.226  -8.027  1.00  0.00     0.009 A 
ATOM     42  C   UNL     1      -2.016  15.924 -10.334  1.00  0.00     0.001 A 
ATOM     43  C   UNL     1      -2.317  17.959  -9.070  1.00  0.00     0.001 A 
ATOM     44  C   UNL     1      -1.876  17.307 -10.220  1.00  0.00     0.000 A 
ENDBRANCH  25  39
BRANCH  26  45
ATOM     45  C   UNL     1      -7.208  10.617  -0.703  1.00  0.00    -0.014 A 
ATOM     46  C   UNL     1      -8.039   9.522  -0.978  1.00  0.00     0.009 A 
ATOM     47  C   UNL     1      -6.940  10.950   0.635  1.00  0.00     0.009 A 
ATOM     48  C   UNL     1      -8.598   8.783   0.067  1.00  0.00     0.001 A 
ATOM     49  C   UNL     1      -7.472  10.189   1.676  1.00  0.00     0.001 A 
ATOM     50  C   UNL     1      -8.308   9.111   1.391  1.00  0.00     0.000 A 
ENDBRANCH  26  45
BRANCH  38  51
ATOM     51  C   UNL     1      -9.687  15.068  -5.427  1.00  0.00    -0.014 A 
ATOM     52  C   UNL     1     -10.290  15.989  -4.557  1.00  0.00     0.009 A 
ATOM     53  C   UNL     1     -10.395  14.625  -6.554  1.00  0.00     0.009 A 
ATOM     54  C   UNL     1     -11.595  16.427  -4.790  1.00  0.00     0.001 A 
ATOM     55  C   UNL     1     -11.690  15.084  -6.798  1.00  0.00     0.001 A 
ATOM     56  C   UNL     1     -12.292  15.975  -5.910  1.00  0.00     0.000 A 
ENDBRANCH  38  51
ENDBRANCH  12  13
ENDBRANCH   5   7
ENDBRANCH   2   3
ENDBRANCH   1   2
BRANCH   1  57
ATOM     57  C   UNL     1       3.716   7.132  -6.688  1.00  0.00     0.023 C 
BRANCH  57  58
ATOM     58  C   UNL     1       3.550   5.743  -6.076  1.00  0.00     0.116 C 
BRANCH  58  59
ATOM     59  N   UNL     1       3.507   4.716  -7.084  1.00  0.00    -0.356 N 
ATOM     60  C   UNL     1       4.453   3.837  -7.484  1.00  0.00     0.223 C 
ATOM     61  H   UNL     1       2.649   4.642  -7.561  1.00  0.00     0.163 HD
ATOM     62  O   UNL     1       4.085   2.963  -8.278  1.00  0.00    -0.275 OA
BRANCH  60  63
ATOM     63  C   UNL     1       5.912   3.873  -7.005  1.00  0.00     0.086 C 
BRANCH  63  64
ATOM     64  C   UNL     1       6.724   5.169  -7.407  1.00  0.00     0.049 C 
BRANCH  64  65
ATOM     65  C   UNL     1       6.876   6.560  -6.775  1.00  0.00    -0.044 A 
ATOM     66  C   UNL     1       7.165   7.630  -7.654  1.00  0.00     0.004 A 
ATOM     67  C   UNL     1       6.865   6.907  -5.418  1.00  0.00     0.043 A 
ATOM     68  C   UNL     1       7.381   8.946  -7.202  1.00  0.00     0.003 A 
ATOM     69  C   UNL     1       7.083   8.212  -4.966  1.00  0.00     0.123 A 
ATOM     70  C   UNL     1       7.336   9.240  -5.847  1.00  0.00     0.039 A 
ATOM     71  F   UNL     1       7.025   8.458  -3.651  1.00  0.00    -0.207 F 
ENDBRANCH  64  65
ENDBRANCH  63  64
BRANCH  63  72
ATOM     72  C   UNL     1       6.286   3.021  -5.733  1.00  0.00     0.007 C 
ATOM     73  C   UNL     1       6.930   3.890  -4.673  1.00  0.00     0.033 C 
ATOM     74  C   UNL     1       5.142   2.182  -5.094  1.00  0.00     0.040 C 
ATOM     75  C   UNL     1       7.322   3.197  -3.399  1.00  0.00     0.161 C 
ATOM     76  C   UNL     1       5.582   1.564  -3.747  1.00  0.00     0.069 C 
ATOM     77  O   UNL     1       6.146   2.596  -2.896  1.00  0.00    -0.375 OA
ATOM     78  C   UNL     1       4.510   0.716  -2.984  1.00  0.00     0.035 C 
ATOM     79  C   UNL     1       6.414   0.235  -3.774  1.00  0.00     0.035 C 
ATOM     80  C   UNL     1       5.701  -0.115  -2.447  1.00  0.00     0.006 C 
ENDBRANCH  63  72
ENDBRANCH  60  63
ENDBRANCH  58  59
ENDBRANCH  57  58
ENDBRANCH   1  57
TORSDOF 14
