REMARK SMILES CN(C)C(=O)c1ccc2c(c1)N(CC(=O)NCCCCNC(=O)c1ccc(-c3c4nc(c(-c5ccccc5)c5ccc([nH]5)c(-c5ccccc5)c5nc(c(-c6ccccc6)c6ccc3[nH]6)C=C5)C=C4)cc1)C(=O)[C@@H]1CCCCN21
REMARK SMILES IDX 18 1 17 2 16 3 14 4 15 5 13 7 12 8 6 9 7 10 11 11 8 12 10 13
REMARK SMILES IDX 9 14 79 15 72 16 74 17 78 18 73 19 75 20 77 21 76 22 4 23
REMARK SMILES IDX 1 24 2 25 3 26 5 27 19 28 20 29 21 30 22 31 23 33 24 34
REMARK SMILES IDX 25 35 71 36 26 37 70 38 27 39 28 40 29 41 64 42 30 43 69 44
REMARK SMILES IDX 63 45 65 46 31 47 68 48 62 49 61 50 32 52 54 53 39 54 53 55
REMARK SMILES IDX 40 56 43 57 52 58 66 59 41 60 42 61 51 63 67 64 44 65 33 66
REMARK SMILES IDX 34 67 38 68 35 69 37 70 36 71 55 72 56 73 60 74 57 75 59 76
REMARK SMILES IDX 58 77 45 78 46 79 50 80 47 81 49 82 48 83
REMARK H PARENT 16 6 21 32 65 51 43 62
REMARK Flexibility Score: inf
ROOT
ATOM      1  C   UNL     1      -2.403   2.727  -5.976  1.00  0.00     0.023 C 
ENDROOT
BRANCH   1   2
ATOM      2  C   UNL     1      -3.748   2.659  -5.255  1.00  0.00     0.116 C 
BRANCH   2   3
ATOM      3  N   UNL     1      -3.649   2.006  -3.967  1.00  0.00    -0.355 N 
ATOM      4  C   UNL     1      -3.656   2.546  -2.719  1.00  0.00     0.240 C 
ATOM      5  O   UNL     1      -3.702   1.759  -1.768  1.00  0.00    -0.273 OA
ATOM      6  H   UNL     1      -3.563   1.025  -4.000  1.00  0.00     0.163 HD
BRANCH   4   7
ATOM      7  C   UNL     1      -3.725   4.062  -2.481  1.00  0.00     0.225 C 
BRANCH   7   8
ATOM      8  N   UNL     1      -2.691   4.896  -3.106  1.00  0.00    -0.299 N 
ATOM      9  C   UNL     1       0.425   3.595  -1.486  1.00  0.00     0.042 A 
ATOM     10  C   UNL     1       1.403   4.344  -2.118  1.00  0.00     0.016 A 
ATOM     11  C   UNL     1      -0.923   3.820  -1.766  1.00  0.00     0.042 A 
ATOM     12  C   UNL     1       1.028   5.276  -3.084  1.00  0.00     0.029 A 
ATOM     13  C   UNL     1      -1.311   4.746  -2.756  1.00  0.00     0.069 A 
ATOM     14  C   UNL     1      -0.319   5.492  -3.448  1.00  0.00     0.062 A 
ATOM     15  N   UNL     1      -0.652   6.395  -4.454  1.00  0.00    -0.358 N 
ATOM     16  C   UNL     1      -3.100   5.860  -4.016  1.00  0.00     0.250 C 
ATOM     17  C   UNL     1      -2.051   6.828  -4.578  1.00  0.00     0.172 C 
ATOM     18  C   UNL     1       0.318   6.806  -5.476  1.00  0.00     0.117 C 
ATOM     19  O   UNL     1      -4.291   5.991  -4.327  1.00  0.00    -0.272 OA
ATOM     20  C   UNL     1      -2.383   7.094  -6.052  1.00  0.00     0.035 C 
ATOM     21  C   UNL     1      -0.060   8.080  -6.231  1.00  0.00     0.022 C 
ATOM     22  C   UNL     1      -1.530   8.225  -6.594  1.00  0.00     0.004 C 
BRANCH   9  23
ATOM     23  C   UNL     1       0.843   2.560  -0.519  1.00  0.00     0.253 C 
ATOM     24  C   UNL     1       0.900   0.231   0.193  1.00  0.00     0.146 C 
ATOM     25  N   UNL     1       0.523   1.231  -0.788  1.00  0.00    -0.345 N 
ATOM     26  C   UNL     1      -0.079   0.749  -2.023  1.00  0.00     0.146 C 
ATOM     27  O   UNL     1       1.487   2.924   0.462  1.00  0.00    -0.269 OA
ENDBRANCH   9  23
ENDBRANCH   7   8
ENDBRANCH   4   7
ENDBRANCH   2   3
ENDBRANCH   1   2
BRANCH   1  28
ATOM     28  C   UNL     1      -1.779   1.368  -6.307  1.00  0.00     0.023 C 
BRANCH  28  29
ATOM     29  C   UNL     1      -2.663   0.409  -7.097  1.00  0.00     0.116 C 
BRANCH  29  30
ATOM     30  N   UNL     1      -3.077   0.921  -8.394  1.00  0.00    -0.352 N 
ATOM     31  C   UNL     1      -3.243   0.232  -9.574  1.00  0.00     0.251 C 
ATOM     32  H   UNL     1      -3.262   1.887  -8.433  1.00  0.00     0.163 HD
ATOM     33  O   UNL     1      -3.518   0.828 -10.611  1.00  0.00    -0.269 OA
BRANCH  31  34
ATOM     34  C   UNL     1      -3.035  -1.233  -9.594  1.00  0.00     0.039 A 
ATOM     35  C   UNL     1      -3.611  -2.046  -8.618  1.00  0.00     0.014 A 
ATOM     36  C   UNL     1      -2.204  -1.789 -10.572  1.00  0.00     0.014 A 
ATOM     37  C   UNL     1      -3.218  -3.376  -8.512  1.00  0.00     0.010 A 
ATOM     38  C   UNL     1      -1.873  -3.146 -10.511  1.00  0.00     0.010 A 
ATOM     39  C   UNL     1      -2.332  -3.937  -9.448  1.00  0.00    -0.014 A 
BRANCH  39  40
ATOM     40  C   UNL     1      -1.896  -5.348  -9.278  1.00  0.00     0.031 A 
ATOM     41  C   UNL     1      -0.463  -5.681  -8.957  1.00  0.00     0.074 A 
ATOM     42  C   UNL     1      -2.816  -6.330  -9.337  1.00  0.00     0.049 A 
ATOM     43  N   UNL     1       0.070  -6.851  -8.704  1.00  0.00    -0.248 NA
ATOM     44  C   UNL     1       0.495  -4.565  -8.910  1.00  0.00     0.031 C 
ATOM     45  C   UNL     1      -4.238  -6.133  -9.621  1.00  0.00     0.029 A 
ATOM     46  N   UNL     1      -2.702  -7.680  -9.122  1.00  0.00    -0.354 N 
ATOM     47  C   UNL     1       1.422  -6.614  -8.484  1.00  0.00     0.074 A 
ATOM     48  C   UNL     1       1.636  -5.194  -8.659  1.00  0.00     0.031 C 
ATOM     49  C   UNL     1      -4.876  -7.306  -9.497  1.00  0.00     0.029 A 
ATOM     50  C   UNL     1      -3.901  -8.347  -9.186  1.00  0.00     0.049 A 
ATOM     51  H   UNL     1      -1.844  -8.128  -8.940  1.00  0.00     0.167 HD
ATOM     52  C   UNL     1       2.394  -7.498  -8.156  1.00  0.00     0.031 A 
ATOM     53  C   UNL     1      -4.192  -9.651  -9.018  1.00  0.00     0.031 A 
ATOM     54  C   UNL     1       2.181  -8.909  -7.970  1.00  0.00     0.049 A 
ATOM     55  C   UNL     1      -3.088 -10.617  -8.700  1.00  0.00     0.074 A 
ATOM     56  C   UNL     1       3.106  -9.876  -7.614  1.00  0.00     0.029 A 
ATOM     57  N   UNL     1       0.965  -9.554  -8.124  1.00  0.00    -0.354 N 
ATOM     58  N   UNL     1      -1.818 -10.372  -8.488  1.00  0.00    -0.248 NA
ATOM     59  C   UNL     1      -3.454 -12.037  -8.604  1.00  0.00     0.031 C 
ATOM     60  C   UNL     1       2.460 -11.115  -7.605  1.00  0.00     0.029 A 
ATOM     61  C   UNL     1       1.121 -10.911  -7.898  1.00  0.00     0.049 A 
ATOM     62  H   UNL     1       0.117  -9.114  -8.360  1.00  0.00     0.167 HD
ATOM     63  C   UNL     1      -1.234 -11.604  -8.230  1.00  0.00     0.074 A 
ATOM     64  C   UNL     1      -2.291 -12.592  -8.288  1.00  0.00     0.031 C 
ATOM     65  C   UNL     1       0.066 -11.888  -7.973  1.00  0.00     0.031 A 
BRANCH  52  66
ATOM     66  C   UNL     1       3.794  -6.977  -7.983  1.00  0.00    -0.014 A 
ATOM     67  C   UNL     1       4.782  -7.312  -8.923  1.00  0.00     0.009 A 
ATOM     68  C   UNL     1       4.160  -6.241  -6.846  1.00  0.00     0.009 A 
ATOM     69  C   UNL     1       6.110  -6.930  -8.723  1.00  0.00     0.001 A 
ATOM     70  C   UNL     1       5.485  -5.838  -6.661  1.00  0.00     0.001 A 
ATOM     71  C   UNL     1       6.459  -6.191  -7.595  1.00  0.00     0.000 A 
ENDBRANCH  52  66
BRANCH  53  72
ATOM     72  C   UNL     1      -5.601 -10.104  -9.146  1.00  0.00    -0.014 A 
ATOM     73  C   UNL     1      -6.246 -10.081 -10.393  1.00  0.00     0.009 A 
ATOM     74  C   UNL     1      -6.326 -10.502  -8.013  1.00  0.00     0.009 A 
ATOM     75  C   UNL     1      -7.596 -10.419 -10.500  1.00  0.00     0.001 A 
ATOM     76  C   UNL     1      -7.669 -10.867  -8.128  1.00  0.00     0.001 A 
ATOM     77  C   UNL     1      -8.305 -10.815  -9.368  1.00  0.00     0.000 A 
ENDBRANCH  53  72
BRANCH  65  78
ATOM     78  C   UNL     1       0.433 -13.325  -7.738  1.00  0.00    -0.014 A 
ATOM     79  C   UNL     1       0.806 -13.751  -6.454  1.00  0.00     0.009 A 
ATOM     80  C   UNL     1       0.501 -14.234  -8.805  1.00  0.00     0.009 A 
ATOM     81  C   UNL     1       1.251 -15.056  -6.243  1.00  0.00     0.001 A 
ATOM     82  C   UNL     1       0.923 -15.547  -8.586  1.00  0.00     0.001 A 
ATOM     83  C   UNL     1       1.306 -15.954  -7.308  1.00  0.00     0.000 A 
ENDBRANCH  65  78
ENDBRANCH  39  40
ENDBRANCH  31  34
ENDBRANCH  29  30
ENDBRANCH  28  29
ENDBRANCH   1  28
TORSDOF 13
