REMARK SMILES O=C(NCCCCNC(=O)[C@H](CCO)NC(=O)c1cccc(C(F)(F)F)c1F)c1ccc(-c2c3nc(c(-c4ccccc4)c4ccc([nH]4)c(-c4ccccc4)c4nc(c(-c5ccccc5)c5ccc2[nH]5)C=C4)C=C3)cc1
REMARK SMILES IDX 6 1 5 2 4 3 3 4 1 5 2 6 29 8 30 9 76 10 31 11 75 12 32 13
REMARK SMILES IDX 33 14 34 15 69 16 35 17 74 18 68 19 70 20 36 21 73 22 67 23
REMARK SMILES IDX 66 24 37 26 59 27 44 28 58 29 45 30 48 31 57 32 71 33 46 34
REMARK SMILES IDX 47 35 56 37 72 38 49 39 38 40 39 41 43 42 40 43 42 44 41 45
REMARK SMILES IDX 60 46 61 47 65 48 62 49 64 50 63 51 50 52 51 53 55 54 52 55
REMARK SMILES IDX 54 56 53 57 7 58 8 59 9 60 10 62 11 63 15 64 16 65 17 67
REMARK SMILES IDX 18 68 19 69 27 70 20 71 22 72 28 73 21 74 23 75 24 76 25 77
REMARK SMILES IDX 26 78 12 79 13 80 14 81
REMARK H PARENT 3 7 70 25 48 36 8 61 15 66 14 82
REMARK Flexibility Score: inf
ROOT
ATOM      1  C   UNL     1       5.843  -9.708   2.559  1.00  0.00     0.023 C 
ENDROOT
BRANCH   1   2
ATOM      2  C   UNL     1       5.327 -10.172   3.910  1.00  0.00     0.023 C 
BRANCH   2   3
ATOM      3  C   UNL     1       4.199 -11.186   3.839  1.00  0.00     0.116 C 
BRANCH   3   4
ATOM      4  N   UNL     1       4.533 -12.413   3.128  1.00  0.00    -0.352 N 
ATOM      5  O   UNL     1       4.491 -14.648   2.745  1.00  0.00    -0.269 OA
ATOM      6  C   UNL     1       4.088 -13.691   3.391  1.00  0.00     0.251 C 
ATOM      7  H   UNL     1       5.151 -12.319   2.368  1.00  0.00     0.163 HD
BRANCH   6   8
ATOM      8  C   UNL     1       3.148 -13.887   4.515  1.00  0.00     0.039 A 
ATOM      9  C   UNL     1       2.034 -13.059   4.645  1.00  0.00     0.014 A 
ATOM     10  C   UNL     1       3.446 -14.838   5.494  1.00  0.00     0.014 A 
ATOM     11  C   UNL     1       1.329 -13.049   5.838  1.00  0.00     0.010 A 
ATOM     12  C   UNL     1       2.667 -14.899   6.652  1.00  0.00     0.010 A 
ATOM     13  C   UNL     1       1.632 -13.974   6.851  1.00  0.00    -0.014 A 
BRANCH  13  14
ATOM     14  C   UNL     1       0.810 -13.975   8.085  1.00  0.00     0.031 A 
ATOM     15  C   UNL     1       1.404 -13.638   9.424  1.00  0.00     0.074 A 
ATOM     16  C   UNL     1      -0.508 -14.228   7.971  1.00  0.00     0.049 A 
ATOM     17  N   UNL     1       0.809 -13.566  10.589  1.00  0.00    -0.248 NA
ATOM     18  C   UNL     1       2.846 -13.351   9.470  1.00  0.00     0.031 C 
ATOM     19  C   UNL     1      -1.196 -14.561   6.720  1.00  0.00     0.029 A 
ATOM     20  N   UNL     1      -1.508 -14.210   8.906  1.00  0.00    -0.354 N 
ATOM     21  C   UNL     1       1.805 -13.260  11.508  1.00  0.00     0.074 A 
ATOM     22  C   UNL     1       3.046 -13.166  10.768  1.00  0.00     0.031 C 
ATOM     23  C   UNL     1      -2.513 -14.645   6.953  1.00  0.00     0.029 A 
ATOM     24  C   UNL     1      -2.752 -14.448   8.377  1.00  0.00     0.049 A 
ATOM     25  H   UNL     1      -1.351 -14.043   9.864  1.00  0.00     0.167 HD
ATOM     26  C   UNL     1       1.693 -13.076  12.845  1.00  0.00     0.031 A 
ATOM     27  C   UNL     1      -3.956 -14.518   8.970  1.00  0.00     0.031 A 
ATOM     28  C   UNL     1       0.454 -13.155  13.575  1.00  0.00     0.049 A 
ATOM     29  C   UNL     1      -4.047 -14.322  10.451  1.00  0.00     0.074 A 
ATOM     30  C   UNL     1       0.236 -12.961  14.928  1.00  0.00     0.029 A 
ATOM     31  N   UNL     1      -0.777 -13.450  13.010  1.00  0.00    -0.354 N 
ATOM     32  N   UNL     1      -3.094 -14.033  11.303  1.00  0.00    -0.248 NA
ATOM     33  C   UNL     1      -5.377 -14.475  11.054  1.00  0.00     0.031 C 
ATOM     34  C   UNL     1      -1.123 -13.178  15.188  1.00  0.00     0.029 A 
ATOM     35  C   UNL     1      -1.756 -13.464  13.990  1.00  0.00     0.049 A 
ATOM     36  H   UNL     1      -0.932 -13.623  12.053  1.00  0.00     0.167 HD
ATOM     37  C   UNL     1      -3.707 -13.970  12.545  1.00  0.00     0.074 A 
ATOM     38  C   UNL     1      -5.119 -14.223  12.330  1.00  0.00     0.031 C 
ATOM     39  C   UNL     1      -3.150 -13.733  13.757  1.00  0.00     0.031 A 
BRANCH  26  40
ATOM     40  C   UNL     1       2.953 -12.803  13.619  1.00  0.00    -0.014 A 
ATOM     41  C   UNL     1       3.583 -11.550  13.572  1.00  0.00     0.009 A 
ATOM     42  C   UNL     1       3.487 -13.802  14.449  1.00  0.00     0.009 A 
ATOM     43  C   UNL     1       4.737 -11.312  14.322  1.00  0.00     0.001 A 
ATOM     44  C   UNL     1       4.628 -13.554  15.213  1.00  0.00     0.001 A 
ATOM     45  C   UNL     1       5.256 -12.312  15.145  1.00  0.00     0.000 A 
ENDBRANCH  26  40
BRANCH  27  46
ATOM     46  C   UNL     1      -5.159 -14.808   8.152  1.00  0.00    -0.014 A 
ATOM     47  C   UNL     1      -6.105 -13.806   7.894  1.00  0.00     0.009 A 
ATOM     48  C   UNL     1      -5.341 -16.081   7.588  1.00  0.00     0.009 A 
ATOM     49  C   UNL     1      -7.217 -14.078   7.095  1.00  0.00     0.001 A 
ATOM     50  C   UNL     1      -6.439 -16.341   6.767  1.00  0.00     0.001 A 
ATOM     51  C   UNL     1      -7.379 -15.341   6.526  1.00  0.00     0.000 A 
ENDBRANCH  27  46
BRANCH  39  52
ATOM     52  C   UNL     1      -4.079 -13.732  14.934  1.00  0.00    -0.014 A 
ATOM     53  C   UNL     1      -4.578 -14.934  15.457  1.00  0.00     0.009 A 
ATOM     54  C   UNL     1      -4.447 -12.518  15.531  1.00  0.00     0.009 A 
ATOM     55  C   UNL     1      -5.458 -14.918  16.540  1.00  0.00     0.001 A 
ATOM     56  C   UNL     1      -5.310 -12.507  16.628  1.00  0.00     0.001 A 
ATOM     57  C   UNL     1      -5.822 -13.705  17.125  1.00  0.00     0.000 A 
ENDBRANCH  39  52
ENDBRANCH  13  14
ENDBRANCH   6   8
ENDBRANCH   3   4
ENDBRANCH   2   3
ENDBRANCH   1   2
BRANCH   1  58
ATOM     58  C   UNL     1       4.845  -8.937   1.692  1.00  0.00     0.116 C 
BRANCH  58  59
ATOM     59  N   UNL     1       4.797  -7.537   2.060  1.00  0.00    -0.354 N 
ATOM     60  C   UNL     1       5.559  -6.481   1.648  1.00  0.00     0.242 C 
ATOM     61  H   UNL     1       4.100  -7.308   2.717  1.00  0.00     0.163 HD
ATOM     62  O   UNL     1       5.474  -5.461   2.340  1.00  0.00    -0.273 OA
BRANCH  60  63
ATOM     63  C   UNL     1       6.569  -6.590   0.459  1.00  0.00     0.173 C 
BRANCH  63  64
ATOM     64  N   UNL     1       5.923  -7.191  -0.715  1.00  0.00    -0.340 N 
ATOM     65  C   UNL     1       6.301  -8.111  -1.661  1.00  0.00     0.254 C 
ATOM     66  H   UNL     1       5.008  -6.858  -0.855  1.00  0.00     0.164 HD
ATOM     67  O   UNL     1       5.565  -8.193  -2.648  1.00  0.00    -0.269 OA
BRANCH  65  68
ATOM     68  C   UNL     1       7.481  -9.022  -1.607  1.00  0.00     0.076 A 
ATOM     69  C   UNL     1       7.968  -9.524  -2.825  1.00  0.00     0.017 A 
ATOM     70  C   UNL     1       8.002  -9.579  -0.442  1.00  0.00     0.148 A 
ATOM     71  C   UNL     1       8.933 -10.539  -2.859  1.00  0.00     0.002 A 
ATOM     72  C   UNL     1       8.956 -10.604  -0.447  1.00  0.00     0.092 A 
ATOM     73  F   UNL     1       7.553  -9.191   0.744  1.00  0.00    -0.205 F 
ATOM     74  C   UNL     1       9.419 -11.086  -1.673  1.00  0.00     0.016 A 
BRANCH  72  75
ATOM     75  C   UNL     1       9.367 -11.230   0.857  1.00  0.00     0.419 C 
ATOM     76  F   UNL     1       8.490 -12.191   1.260  1.00  0.00    -0.166 F 
ATOM     77  F   UNL     1      10.585 -11.837   0.796  1.00  0.00    -0.166 F 
ATOM     78  F   UNL     1       9.451 -10.345   1.889  1.00  0.00    -0.166 F 
ENDBRANCH  72  75
ENDBRANCH  65  68
ENDBRANCH  63  64
BRANCH  63  79
ATOM     79  C   UNL     1       7.135  -5.179   0.156  1.00  0.00     0.063 C 
BRANCH  79  80
ATOM     80  C   UNL     1       7.668  -4.955  -1.252  1.00  0.00     0.158 C 
BRANCH  80  81
ATOM     81  O   UNL     1       6.610  -4.595  -2.131  1.00  0.00    -0.396 OA
ATOM     82  H   UNL     1       5.955  -5.309  -2.158  1.00  0.00     0.210 HD
ENDBRANCH  80  81
ENDBRANCH  79  80
ENDBRANCH  63  79
ENDBRANCH  60  63
ENDBRANCH  58  59
ENDBRANCH   1  58
TORSDOF 17
